REMARK SMILES COC(=O)[C@H](CCCNC(N)=[NH2+])n1cc([C@@H]([NH2+]Cc2ccc3c(c2)OCO3)C2CCCC2)nn1
REMARK SMILES IDX 13 1 14 2 15 3 33 4 34 5 5 7 3 8 4 9 2 10 1 11 6 12 7 13
REMARK SMILES IDX 8 14 9 15 10 16 11 18 12 19 16 24 17 25 18 28 19 29 20 30
REMARK SMILES IDX 24 31 21 32 23 33 22 34 25 35 27 36 26 37 28 38 29 39 32 40
REMARK SMILES IDX 30 41 31 42
REMARK H PARENT 14 6 9 17 11 20 11 21 12 22 12 23 17 26 17 27
REMARK Flexibility Score: inf
ROOT
ATOM      1  N   MOL     1      -0.749  -0.317   1.151  1.00  0.00    -0.238 N 
ATOM      2  C   MOL     1      -0.760   0.988   1.574  1.00  0.00     0.056 A 
ATOM      3  C   MOL     1       0.264   1.588   0.867  1.00  0.00     0.140 A 
ATOM      4  N   MOL     1       0.842   0.648   0.059  1.00  0.00    -0.129 NA
ATOM      5  N   MOL     1       0.204  -0.498   0.221  1.00  0.00    -0.066 NA
ATOM      6  H   MOL     1      -1.461   1.352   2.312  1.00  0.00     0.086 HD
ENDROOT
BRANCH   1   7
ATOM      7  C   MOL     1      -1.592  -1.405   1.627  1.00  0.00     0.218 C 
BRANCH   7   8
ATOM      8  C   MOL     1      -0.979  -2.770   1.397  1.00  0.00     0.330 C 
ATOM      9  O   MOL     1      -0.452  -3.425   2.290  1.00  0.00    -0.250 OA
BRANCH   8  10
ATOM     10  O   MOL     1      -1.103  -3.183   0.107  1.00  0.00    -0.467 OA
ATOM     11  C   MOL     1      -0.452  -4.426  -0.183  1.00  0.00     0.282 C 
ENDBRANCH   8  10
ENDBRANCH   7   8
BRANCH   7  12
ATOM     12  C   MOL     1      -3.083  -1.300   1.227  1.00  0.00     0.043 C 
BRANCH  12  13
ATOM     13  C   MOL     1      -3.432  -1.254  -0.274  1.00  0.00     0.040 C 
BRANCH  13  14
ATOM     14  C   MOL     1      -4.040  -2.549  -0.823  1.00  0.00     0.197 C 
BRANCH  14  15
ATOM     15  N   MOL     1      -5.351  -2.865  -0.224  1.00  0.00    -0.278 N 
ATOM     16  C   MOL     1      -6.542  -2.406  -0.641  1.00  0.00     0.338 C 
ATOM     17  H   MOL     1      -5.376  -3.625   0.444  1.00  0.00     0.260 HD
ATOM     18  N   MOL     1      -7.660  -2.834  -0.049  1.00  0.00    -0.291 N 
ATOM     19  N   MOL     1      -6.654  -1.516  -1.633  1.00  0.00    -0.291 N 
ATOM     20  H   MOL     1      -8.571  -2.512  -0.360  1.00  0.00     0.256 HD
ATOM     21  H   MOL     1      -7.658  -3.485   0.730  1.00  0.00     0.256 HD
ATOM     22  H   MOL     1      -5.849  -1.154  -2.121  1.00  0.00     0.256 HD
ATOM     23  H   MOL     1      -7.560  -1.226  -1.978  1.00  0.00     0.256 HD
ENDBRANCH  14  15
ENDBRANCH  13  14
ENDBRANCH  12  13
ENDBRANCH   7  12
ENDBRANCH   1   7
BRANCH   3  24
ATOM     24  C   MOL     1       0.775   2.993   0.908  1.00  0.00     0.239 C 
BRANCH  24  25
ATOM     25  N   MOL     1       2.139   3.134   1.542  1.00  0.00    -0.335 N 
ATOM     26  H   MOL     1       2.377   4.131   1.591  1.00  0.00     0.347 HD
ATOM     27  H   MOL     1       2.039   2.828   2.516  1.00  0.00     0.347 HD
BRANCH  25  28
ATOM     28  C   MOL     1       3.312   2.397   0.980  1.00  0.00     0.298 C 
BRANCH  28  29
ATOM     29  C   MOL     1       3.766   1.258   1.852  1.00  0.00     0.010 A 
ATOM     30  C   MOL     1       3.867  -0.048   1.315  1.00  0.00     0.013 A 
ATOM     31  C   MOL     1       4.135   1.480   3.193  1.00  0.00     0.060 A 
ATOM     32  C   MOL     1       4.320  -1.118   2.095  1.00  0.00     0.051 A 
ATOM     33  C   MOL     1       4.559   0.401   3.940  1.00  0.00     0.166 A 
ATOM     34  C   MOL     1       4.661  -0.859   3.403  1.00  0.00     0.165 A 
ATOM     35  O   MOL     1       4.920   0.445   5.250  1.00  0.00    -0.454 OA
ATOM     36  O   MOL     1       5.119  -1.766   4.302  1.00  0.00    -0.454 OA
ATOM     37  C   MOL     1       5.317  -0.932   5.466  1.00  0.00     0.468 C 
ENDBRANCH  28  29
ENDBRANCH  25  28
ENDBRANCH  24  25
BRANCH  24  38
ATOM     38  C   MOL     1       0.689   3.829  -0.399  1.00  0.00     0.054 C 
ATOM     39  C   MOL     1      -0.739   4.337  -0.674  1.00  0.00     0.010 C 
ATOM     40  C   MOL     1       1.036   3.145  -1.729  1.00  0.00     0.010 C 
ATOM     41  C   MOL     1      -1.401   3.253  -1.509  1.00  0.00     0.001 C 
ATOM     42  C   MOL     1      -0.275   2.618  -2.313  1.00  0.00     0.001 C 
ENDBRANCH  24  38
ENDBRANCH   3  24
TORSDOF 12
