REMARK SMILES NC(=[NH2+])NCCC[C@@H](C(=O)O)n1cc([C@@H]([NH2+]Cc2ccc3c(c2)OCO3)C2CCCCC2)nn1
REMARK SMILES IDX 12 1 13 2 14 3 33 4 34 5 8 7 7 8 6 9 5 10 4 11 1 12 2 13
REMARK SMILES IDX 3 16 9 20 10 21 11 22 15 24 16 25 17 28 18 29 19 30 23 31
REMARK SMILES IDX 20 32 22 33 21 34 24 35 26 36 25 37 27 38 28 39 32 40 29 41
REMARK SMILES IDX 31 42 30 43
REMARK H PARENT 13 6 1 14 1 15 3 17 3 18 4 19 11 23 16 26 16 27
REMARK Flexibility Score: inf
ROOT
ATOM      1  N   MOL     1      -0.050   0.757   1.215  1.00  0.00    -0.238 N 
ATOM      2  C   MOL     1      -0.676   0.805  -0.004  1.00  0.00     0.056 A 
ATOM      3  C   MOL     1       0.347   0.616  -0.918  1.00  0.00     0.140 A 
ATOM      4  N   MOL     1       1.532   0.543  -0.240  1.00  0.00    -0.129 NA
ATOM      5  N   MOL     1       1.286   0.734   1.042  1.00  0.00    -0.066 NA
ATOM      6  H   MOL     1      -1.748   0.923  -0.116  1.00  0.00     0.086 HD
ENDROOT
BRANCH   1   7
ATOM      7  C   MOL     1      -0.601   0.847   2.565  1.00  0.00     0.218 C 
BRANCH   7   8
ATOM      8  C   MOL     1      -2.111   0.522   2.667  1.00  0.00     0.043 C 
BRANCH   8   9
ATOM      9  C   MOL     1      -2.686   0.492   4.098  1.00  0.00     0.040 C 
BRANCH   9  10
ATOM     10  C   MOL     1      -2.793   1.859   4.776  1.00  0.00     0.197 C 
BRANCH  10  11
ATOM     11  N   MOL     1      -4.144   2.438   4.663  1.00  0.00    -0.278 N 
ATOM     12  N   MOL     1      -6.396   2.646   5.174  1.00  0.00    -0.291 N 
ATOM     13  C   MOL     1      -5.225   2.030   5.362  1.00  0.00     0.338 C 
ATOM     14  H   MOL     1      -7.219   2.378   5.699  1.00  0.00     0.256 HD
ATOM     15  H   MOL     1      -6.511   3.387   4.491  1.00  0.00     0.256 HD
ATOM     16  N   MOL     1      -5.166   1.025   6.237  1.00  0.00    -0.291 N 
ATOM     17  H   MOL     1      -4.304   0.541   6.442  1.00  0.00     0.256 HD
ATOM     18  H   MOL     1      -5.982   0.721   6.754  1.00  0.00     0.256 HD
ATOM     19  H   MOL     1      -4.255   3.290   4.127  1.00  0.00     0.260 HD
ENDBRANCH  10  11
ENDBRANCH   9  10
ENDBRANCH   8   9
ENDBRANCH   7   8
BRANCH   7  20
ATOM     20  C   MOL     1       0.174  -0.088   3.475  1.00  0.00     0.328 C 
ATOM     21  O   MOL     1       0.239  -1.303   3.379  1.00  0.00    -0.250 OA
BRANCH  20  22
ATOM     22  O   MOL     1       0.755   0.564   4.508  1.00  0.00    -0.480 OA
ATOM     23  H   MOL     1       1.294  -0.120   4.971  1.00  0.00     0.296 HD
ENDBRANCH  20  22
ENDBRANCH   7  20
ENDBRANCH   1   7
BRANCH   3  24
ATOM     24  C   MOL     1       0.306   0.478  -2.416  1.00  0.00     0.239 C 
BRANCH  24  25
ATOM     25  N   MOL     1       1.159   1.503  -3.144  1.00  0.00    -0.335 N 
ATOM     26  H   MOL     1       0.730   2.415  -2.958  1.00  0.00     0.347 HD
ATOM     27  H   MOL     1       1.075   1.363  -4.155  1.00  0.00     0.347 HD
BRANCH  25  28
ATOM     28  C   MOL     1       2.614   1.679  -2.819  1.00  0.00     0.298 C 
BRANCH  28  29
ATOM     29  C   MOL     1       3.524   0.601  -3.330  1.00  0.00     0.010 A 
ATOM     30  C   MOL     1       4.104  -0.331  -2.435  1.00  0.00     0.013 A 
ATOM     31  C   MOL     1       3.821   0.517  -4.704  1.00  0.00     0.060 A 
ATOM     32  C   MOL     1       4.949  -1.346  -2.900  1.00  0.00     0.051 A 
ATOM     33  C   MOL     1       4.663  -0.493  -5.127  1.00  0.00     0.166 A 
ATOM     34  C   MOL     1       5.207  -1.402  -4.252  1.00  0.00     0.165 A 
ATOM     35  O   MOL     1       5.049  -0.715  -6.412  1.00  0.00    -0.454 OA
ATOM     36  O   MOL     1       5.995  -2.315  -4.877  1.00  0.00    -0.454 OA
ATOM     37  C   MOL     1       5.915  -1.862  -6.246  1.00  0.00     0.468 C 
ENDBRANCH  28  29
ENDBRANCH  25  28
ENDBRANCH  24  25
BRANCH  24  38
ATOM     38  C   MOL     1       0.550  -0.976  -2.927  1.00  0.00     0.054 C 
ATOM     39  C   MOL     1       0.446  -1.137  -4.456  1.00  0.00     0.010 C 
ATOM     40  C   MOL     1      -0.397  -2.023  -2.275  1.00  0.00     0.010 C 
ATOM     41  C   MOL     1      -0.958  -0.852  -4.994  1.00  0.00     0.001 C 
ATOM     42  C   MOL     1      -1.626  -2.401  -3.107  1.00  0.00     0.001 C 
ATOM     43  C   MOL     1      -2.074  -1.292  -4.046  1.00  0.00     0.000 C 
ENDBRANCH  24  38
ENDBRANCH   3  24
TORSDOF 12
