REMARK SMILES Cc1cc(=O)oc2cc(NC(=O)[C@H](CCC[NH+]=C(N)N)NC(=O)[C@H](Cc3ccccc3)NC(=O)OCc3ccccc3)ccc12
REMARK SMILES IDX 21 1 22 2 23 3 13 5 11 6 10 7 12 9 9 10 1 11 2 12 3 13 45 14
REMARK SMILES IDX 4 15 7 16 44 17 5 18 6 19 8 20 43 21 14 22 15 23 16 24 17 25
REMARK SMILES IDX 18 26 19 28 20 29 24 34 25 35 26 36 27 37 31 38 28 39 30 40
REMARK SMILES IDX 29 41 32 42 33 43 34 45 35 46 36 47 37 48 38 49 42 50 39 51
REMARK SMILES IDX 41 52 40 53
REMARK H PARENT 21 4 10 8 17 27 19 30 19 31 20 32 20 33 32 44
REMARK Flexibility Score: inf
ROOT
ATOM      1  N5  MOL     1       0.305  -1.035   1.968  1.00  0.00    -0.342 N 
ATOM      2  C14 MOL     1      -0.912  -0.394   1.993  1.00  0.00     0.243 C 
ATOM      3  O4  MOL     1      -0.982   0.809   1.710  1.00  0.00    -0.273 OA
ATOM      4  H19 MOL     1       0.307  -2.054   1.990  1.00  0.00     0.164 HD
ENDROOT
BRANCH   1   5
ATOM      5  C9  MOL     1       1.491  -0.454   1.325  1.00  0.00     0.171 C 
BRANCH   5   6
ATOM      6  C8  MOL     1       1.807  -1.354   0.110  1.00  0.00     0.246 C 
ATOM      7  N1  MOL     1       2.543  -0.721  -0.875  1.00  0.00    -0.324 N 
ATOM      8  H6  MOL     1       2.914   0.198  -0.671  1.00  0.00     0.170 HD
ATOM      9  O3  MOL     1       1.414  -2.519   0.097  1.00  0.00    -0.272 OA
BRANCH   7  10
ATOM     10  C7  MOL     1       2.807  -1.205  -2.176  1.00  0.00     0.044 A 
ATOM     11  C1  MOL     1       4.437  -1.627  -7.165  1.00  0.00     0.045 C 
ATOM     12  C2  MOL     1       3.583  -2.434  -6.232  1.00  0.00    -0.033 A 
ATOM     13  C3  MOL     1       3.008  -3.579  -6.626  1.00  0.00     0.098 A 
ATOM     14  C33 MOL     1       3.355  -1.979  -4.854  1.00  0.00     0.021 A 
ATOM     15  C4  MOL     1       2.160  -4.406  -5.754  1.00  0.00     0.336 A 
ATOM     16  C5  MOL     1       2.561  -2.756  -4.011  1.00  0.00     0.140 A 
ATOM     17  C32 MOL     1       3.885  -0.796  -4.328  1.00  0.00     0.014 A 
ATOM     18  O1  MOL     1       1.650  -5.439  -6.170  1.00  0.00    -0.246 OA
ATOM     19  O2  MOL     1       1.973  -3.955  -4.459  1.00  0.00    -0.423 OA
ATOM     20  C6  MOL     1       2.285  -2.391  -2.688  1.00  0.00     0.074 A 
ATOM     21  C31 MOL     1       3.610  -0.412  -3.006  1.00  0.00     0.027 A 
ENDBRANCH   7  10
ENDBRANCH   5   6
BRANCH   5  22
ATOM     22  C10 MOL     1       2.684  -0.391   2.288  1.00  0.00     0.038 C 
BRANCH  22  23
ATOM     23  C11 MOL     1       2.421   0.250   3.663  1.00  0.00     0.040 C 
BRANCH  23  24
ATOM     24  C12 MOL     1       2.174   1.761   3.674  1.00  0.00     0.197 C 
BRANCH  24  25
ATOM     25  N2  MOL     1       0.856   2.112   3.152  1.00  0.00    -0.278 N 
ATOM     26  C13 MOL     1       0.127   3.198   3.414  1.00  0.00     0.338 C 
ATOM     27  H14 MOL     1       0.340   1.443   2.589  1.00  0.00     0.260 HD
ATOM     28  N3  MOL     1      -1.056   3.323   2.818  1.00  0.00    -0.291 N 
ATOM     29  N4  MOL     1       0.544   4.166   4.228  1.00  0.00    -0.291 N 
ATOM     30  H15 MOL     1      -1.404   2.565   2.228  1.00  0.00     0.256 HD
ATOM     31  H16 MOL     1      -1.690   4.084   3.014  1.00  0.00     0.256 HD
ATOM     32  H17 MOL     1      -0.042   4.971   4.405  1.00  0.00     0.256 HD
ATOM     33  H18 MOL     1       1.419   4.100   4.719  1.00  0.00     0.256 HD
ENDBRANCH  24  25
ENDBRANCH  23  24
ENDBRANCH  22  23
ENDBRANCH   5  22
ENDBRANCH   1   5
BRANCH   2  34
ATOM     34  C15 MOL     1      -2.103  -1.205   2.554  1.00  0.00     0.179 C 
BRANCH  34  35
ATOM     35  C16 MOL     1      -2.438  -2.460   1.729  1.00  0.00     0.070 C 
BRANCH  35  36
ATOM     36  C17 MOL     1      -2.958  -2.184   0.337  1.00  0.00    -0.045 A 
ATOM     37  C18 MOL     1      -2.079  -2.072  -0.748  1.00  0.00     0.004 A 
ATOM     38  C22 MOL     1      -4.335  -2.043   0.107  1.00  0.00     0.004 A 
ATOM     39  C19 MOL     1      -2.563  -1.803  -2.030  1.00  0.00     0.000 A 
ATOM     40  C21 MOL     1      -4.817  -1.774  -1.175  1.00  0.00     0.000 A 
ATOM     41  C20 MOL     1      -3.932  -1.650  -2.241  1.00  0.00     0.000 A 
ENDBRANCH  35  36
ENDBRANCH  34  35
BRANCH  34  42
ATOM     42  N6  MOL     1      -3.254  -0.321   2.711  1.00  0.00    -0.309 N 
ATOM     43  C23 MOL     1      -3.328   0.606   3.702  1.00  0.00     0.408 C 
ATOM     44  H28 MOL     1      -3.854  -0.144   1.913  1.00  0.00     0.167 HD
ATOM     45  O5  MOL     1      -2.501   0.750   4.591  1.00  0.00    -0.225 OA
BRANCH  43  46
ATOM     46  O6  MOL     1      -4.431   1.363   3.511  1.00  0.00    -0.445 OA
BRANCH  46  47
ATOM     47  C24 MOL     1      -4.708   2.347   4.518  1.00  0.00     0.270 C 
BRANCH  47  48
ATOM     48  C25 MOL     1      -4.201   3.708   4.100  1.00  0.00    -0.011 A 
ATOM     49  C26 MOL     1      -3.600   4.558   5.041  1.00  0.00     0.007 A 
ATOM     50  C30 MOL     1      -4.396   4.176   2.791  1.00  0.00     0.007 A 
ATOM     51  C27 MOL     1      -3.189   5.843   4.676  1.00  0.00     0.000 A 
ATOM     52  C29 MOL     1      -3.976   5.457   2.426  1.00  0.00     0.000 A 
ATOM     53  C28 MOL     1      -3.373   6.289   3.368  1.00  0.00     0.000 A 
ENDBRANCH  47  48
ENDBRANCH  46  47
ENDBRANCH  43  46
ENDBRANCH  34  42
ENDBRANCH   2  34
TORSDOF 14
