REMARK SMILES Cc1ccc(CCn2cc([C@@H]([NH2+]Cc3ccc4c(c3)OCO4)C3CCCC3)nn2)cc1F
REMARK SMILES IDX 8 1 9 2 10 3 28 4 29 5 7 7 6 8 5 9 2 10 3 11 31 12 4 13
REMARK SMILES IDX 30 14 1 15 32 16 11 17 12 18 13 21 14 22 15 23 19 24 16 25
REMARK SMILES IDX 18 26 17 27 20 28 22 29 21 30 23 31 24 32 27 33 25 34 26 35
REMARK H PARENT 9 6 12 19 12 20
ROOT
ATOM     1   N1  UNL     1       2.448   1.620  -0.912  1.00  0.00    -0.212 N   
ATOM     2   C8  UNL     1       1.834   0.404  -0.805  1.00  0.00     0.045 A   
ATOM     3   C9  UNL     1       0.672   0.555  -1.529  1.00  0.00     0.127 A   
ATOM     4   N3  UNL     1       0.624   1.825  -2.044  1.00  0.00    -0.132 NA  
ATOM     5   N4  UNL     1       1.720   2.462  -1.667  1.00  0.00    -0.076 NA  
ATOM     6   H10 UNL     1       2.248  -0.408  -0.223  1.00  0.00     0.083 HD  
ENDROOT
BRANCH   1   7
ATOM     7   C7  UNL     1       3.661   2.070  -0.260  1.00  0.00     0.139 C   
BRANCH   7   8
ATOM     8   C6  UNL     1       3.413   3.143   0.806  1.00  0.00     0.057 C   
BRANCH   8   9
ATOM     9   C5  UNL     1       2.500   2.672   1.914  1.00  0.00    -0.043 A   
ATOM     10  C2  UNL     1       0.764   1.726   3.929  1.00  0.00    -0.015 A   
ATOM     11  C3  UNL     1       2.137   1.458   3.988  1.00  0.00     0.007 A   
ATOM     12  C25 UNL     1       0.276   2.455   2.845  1.00  0.00     0.126 A   
ATOM     13  C4  UNL     1       2.998   1.926   2.989  1.00  0.00     0.004 A   
ATOM     14  C24 UNL     1       1.127   2.938   1.855  1.00  0.00     0.043 A   
ATOM     15  C1  UNL     1      -0.159   1.195   4.983  1.00  0.00     0.047 C   
ATOM     16  F1  UNL     1      -1.042   2.666   2.712  1.00  0.00    -0.207 F   
ENDBRANCH   8   9
ENDBRANCH   7   8
ENDBRANCH   1   7
BRANCH   3  17
ATOM     17  C10 UNL     1      -0.484  -0.366  -1.738  1.00  0.00     0.117 C   
BRANCH  17  18
ATOM     18  N2  UNL     1      -1.775   0.376  -1.461  1.00  0.00     0.249 N   
ATOM     19  H12 UNL     1      -1.734   1.241  -2.019  1.00  0.00     0.199 HD  
ATOM     20  H13 UNL     1      -2.580  -0.161  -1.791  1.00  0.00     0.199 HD  
BRANCH  18  21
ATOM     21  C11 UNL     1      -2.018   0.767  -0.038  1.00  0.00     0.164 C   
BRANCH  21  22
ATOM     22  C12 UNL     1      -2.268  -0.420   0.850  1.00  0.00    -0.002 A   
ATOM     23  C13 UNL     1      -3.511  -1.096   0.810  1.00  0.00     0.012 A   
ATOM     24  C17 UNL     1      -1.252  -0.893   1.698  1.00  0.00     0.045 A   
ATOM     25  C14 UNL     1      -3.738  -2.229   1.599  1.00  0.00     0.037 A   
ATOM     26  C16 UNL     1      -1.508  -2.012   2.462  1.00  0.00     0.109 A   
ATOM     27  C15 UNL     1      -2.716  -2.663   2.413  1.00  0.00     0.108 A   
ATOM     28  O1  UNL     1      -0.636  -2.597   3.324  1.00  0.00    -0.316 OA  
ATOM     29  O2  UNL     1      -2.757  -3.741   3.237  1.00  0.00    -0.316 OA  
ATOM     30  C18 UNL     1      -1.443  -3.684   3.833  1.00  0.00     0.337 C   
ENDBRANCH  21  22
ENDBRANCH  18  21
ENDBRANCH  17  18
BRANCH  17  31
ATOM     31  C19 UNL     1      -0.532  -0.911  -3.180  1.00  0.00     0.043 C   
ATOM     32  C20 UNL     1       0.695  -1.757  -3.544  1.00  0.00     0.010 C   
ATOM     33  C23 UNL     1      -1.674  -1.896  -3.446  1.00  0.00     0.010 C   
ATOM     34  C21 UNL     1       0.263  -2.581  -4.753  1.00  0.00     0.001 C   
ATOM     35  C22 UNL     1      -1.263  -2.601  -4.733  1.00  0.00     0.001 C   
ENDBRANCH  17  31
ENDBRANCH   3  17
TORSDOF 8
