REMARK SMILES NS(=O)(=O)c1cccc(-n2cc([C@@H]([NH2+]Cc3ccc4c(c3)OCO4)C3CCCC3)nn2)c1
REMARK SMILES IDX 10 1 11 2 12 3 30 4 31 5 9 6 5 7 6 8 32 9 7 10 8 11 2 12
REMARK SMILES IDX 3 13 4 14 1 15 13 18 14 19 15 22 16 23 17 24 21 25 18 26
REMARK SMILES IDX 20 27 19 28 22 29 24 30 23 31 25 32 26 33 29 34 27 35 28 36
REMARK H PARENT 1 16 1 17 14 20 14 21
ROOT
ATOM     1   N2  UNL     1       2.562  -1.246   0.242  1.00  0.00    -0.180 N   
ATOM     2   C6  UNL     1       1.282  -1.566  -0.172  1.00  0.00     0.135 A   
ATOM     3   C7  UNL     1       0.692  -0.360  -0.478  1.00  0.00     0.127 A   
ATOM     4   N4  UNL     1       1.582   0.647  -0.231  1.00  0.00    -0.131 NA  
ATOM     5   N5  UNL     1       2.701   0.104   0.216  1.00  0.00    -0.071 NA  
ENDROOT
BRANCH   1   6
ATOM     6   C5  UNL     1       3.612  -2.103   0.656  1.00  0.00     0.070 A   
ATOM     7   C1  UNL     1       4.510  -4.309   1.076  1.00  0.00     0.340 A   
ATOM     8   C2  UNL     1       5.734  -3.761   1.461  1.00  0.00     0.138 A   
ATOM     9   C22 UNL     1       3.445  -3.494   0.670  1.00  0.00     0.163 A   
ATOM     10  C3  UNL     1       5.897  -2.377   1.451  1.00  0.00     0.015 A   
ATOM     11  C4  UNL     1       4.843  -1.548   1.053  1.00  0.00     0.027 A   
BRANCH   7  12
ATOM     12  S1  UNL     1       4.317  -6.072   1.075  1.00  0.00    -0.114 S   
ATOM     13  O1  UNL     1       2.920  -6.376   0.866  1.00  0.00    -0.479 OA  
ATOM     14  O2  UNL     1       5.373  -6.643   0.274  1.00  0.00    -0.479 OA  
BRANCH  12  15
ATOM     15  N1  UNL     1       4.636  -6.476   2.671  1.00  0.00    -0.094 NA  
ATOM     16  H1  UNL     1       3.822  -6.924   3.092  1.00  0.00     0.263 HD  
ATOM     17  H2  UNL     1       5.476  -7.058   2.718  1.00  0.00     0.263 HD  
ENDBRANCH  12  15
ENDBRANCH   7  12
ENDBRANCH   1   6
BRANCH   3  18
ATOM     18  C8  UNL     1      -0.688  -0.016  -0.949  1.00  0.00     0.117 C   
BRANCH  18  19
ATOM     19  N3  UNL     1      -1.033   1.384  -0.479  1.00  0.00     0.249 N   
ATOM     20  H8  UNL     1      -1.759   1.809  -1.063  1.00  0.00     0.199 HD  
ATOM     21  H9  UNL     1      -0.178   1.945  -0.613  1.00  0.00     0.199 HD  
BRANCH  19  22
ATOM     22  C9  UNL     1      -1.434   1.512   0.953  1.00  0.00     0.164 C   
BRANCH  22  23
ATOM     23  C10 UNL     1      -2.876   1.142   1.164  1.00  0.00    -0.002 A   
ATOM     24  C11 UNL     1      -3.902   2.075   0.860  1.00  0.00     0.012 A   
ATOM     25  C15 UNL     1      -3.223  -0.143   1.617  1.00  0.00     0.045 A   
ATOM     26  C12 UNL     1      -5.252   1.735   1.006  1.00  0.00     0.037 A   
ATOM     27  C14 UNL     1      -4.563  -0.448   1.742  1.00  0.00     0.109 A   
ATOM     28  C13 UNL     1      -5.549   0.464   1.448  1.00  0.00     0.108 A   
ATOM     29  O3  UNL     1      -5.065  -1.643   2.148  1.00  0.00    -0.316 OA  
ATOM     30  O4  UNL     1      -6.796  -0.039   1.644  1.00  0.00    -0.316 OA  
ATOM     31  C16 UNL     1      -6.485  -1.363   2.131  1.00  0.00     0.337 C   
ENDBRANCH  22  23
ENDBRANCH  19  22
ENDBRANCH  18  19
BRANCH  18  32
ATOM     32  C17 UNL     1      -0.822  -0.064  -2.485  1.00  0.00     0.043 C   
ATOM     33  C18 UNL     1      -0.575  -1.456  -3.079  1.00  0.00     0.010 C   
ATOM     34  C21 UNL     1      -2.235   0.267  -2.997  1.00  0.00     0.010 C   
ATOM     35  C19 UNL     1      -1.156  -1.345  -4.480  1.00  0.00     0.001 C   
ATOM     36  C20 UNL     1      -2.404  -0.489  -4.315  1.00  0.00     0.001 C   
ENDBRANCH  18  32
ENDBRANCH   3  18
TORSDOF 8
