REMARK SMILES CC(C)[C@H]([NH2+]Cc1ccc2c(c1)OCO2)c1cn(CC(=O)c2ccccc2Cl)nn1
REMARK SMILES IDX 16 1 17 2 18 3 29 4 30 5 4 7 2 8 1 9 3 10 5 11 6 14 7 15
REMARK SMILES IDX 8 16 12 17 9 18 11 19 10 20 13 21 15 22 14 23 19 24 20 25
REMARK SMILES IDX 21 26 22 27 23 28 27 29 24 30 26 31 25 32 28 33
REMARK H PARENT 17 6 5 12 5 13
ROOT
ATOM     1   C13 UNL     1      -0.305  -0.846  -0.472  1.00  0.00     0.127 A   
ATOM     2   C14 UNL     1      -1.362   0.024  -0.332  1.00  0.00     0.046 A   
ATOM     3   N2  UNL     1      -1.961  -0.372   0.831  1.00  0.00    -0.204 N   
ATOM     4   N3  UNL     1      -1.317  -1.422   1.374  1.00  0.00    -0.076 NA  
ATOM     5   N4  UNL     1      -0.298  -1.722   0.585  1.00  0.00    -0.132 NA  
ATOM     6   H18 UNL     1      -1.710   0.874  -0.904  1.00  0.00     0.083 HD  
ENDROOT
BRANCH   1   7
ATOM     7   C4  UNL     1       0.791  -0.902  -1.484  1.00  0.00     0.117 C   
BRANCH   7   8
ATOM     8   C2  UNL     1       0.504  -1.840  -2.684  1.00  0.00     0.037 C   
ATOM     9   C1  UNL     1      -0.680  -1.337  -3.519  1.00  0.00     0.014 C   
ATOM     10  C3  UNL     1       0.284  -3.308  -2.300  1.00  0.00     0.014 C   
ENDBRANCH   7   8
BRANCH   7  11
ATOM     11  N1  UNL     1       2.075  -1.348  -0.820  1.00  0.00     0.249 N   
ATOM     12  H9  UNL     1       2.739  -1.696  -1.518  1.00  0.00     0.199 HD  
ATOM     13  H10 UNL     1       1.824  -2.140  -0.214  1.00  0.00     0.199 HD  
BRANCH  11  14
ATOM     14  C5  UNL     1       2.752  -0.327   0.034  1.00  0.00     0.164 C   
BRANCH  14  15
ATOM     15  C6  UNL     1       3.454   0.724  -0.783  1.00  0.00    -0.002 A   
ATOM     16  C7  UNL     1       2.913   2.028  -0.890  1.00  0.00     0.012 A   
ATOM     17  C11 UNL     1       4.638   0.406  -1.472  1.00  0.00     0.045 A   
ATOM     18  C8  UNL     1       3.538   3.003  -1.675  1.00  0.00     0.037 A   
ATOM     19  C10 UNL     1       5.227   1.389  -2.240  1.00  0.00     0.109 A   
ATOM     20  C9  UNL     1       4.694   2.651  -2.337  1.00  0.00     0.108 A   
ATOM     21  O1  UNL     1       6.361   1.243  -2.975  1.00  0.00    -0.316 OA  
ATOM     22  O2  UNL     1       5.431   3.462  -3.140  1.00  0.00    -0.316 OA  
ATOM     23  C12 UNL     1       6.507   2.575  -3.519  1.00  0.00     0.337 C   
ENDBRANCH  14  15
ENDBRANCH  11  14
ENDBRANCH   7  11
ENDBRANCH   1   7
BRANCH   3  24
ATOM     24  C15 UNL     1      -3.118   0.199   1.488  1.00  0.00     0.214 C   
BRANCH  24  25
ATOM     25  C16 UNL     1      -2.706   1.340   2.386  1.00  0.00     0.183 C   
ATOM     26  O3  UNL     1      -1.813   2.132   2.082  1.00  0.00    -0.292 OA  
BRANCH  25  27
ATOM     27  C17 UNL     1      -3.364   1.476   3.708  1.00  0.00     0.038 A   
ATOM     28  C18 UNL     1      -2.518   1.673   4.811  1.00  0.00     0.013 A   
ATOM     29  C22 UNL     1      -4.750   1.417   3.902  1.00  0.00     0.051 A   
ATOM     30  C19 UNL     1      -3.048   1.776   6.097  1.00  0.00     0.001 A   
ATOM     31  C21 UNL     1      -5.274   1.519   5.196  1.00  0.00     0.021 A   
ATOM     32  C20 UNL     1      -4.425   1.691   6.290  1.00  0.00     0.002 A   
ATOM     33  CL1 UNL     1      -5.876   1.283   2.603  1.00  0.00    -0.084 Cl  
ENDBRANCH  25  27
ENDBRANCH  24  25
ENDBRANCH   3  24
TORSDOF 8
