REMARK SMILES COCc1ccccc1-n1cc([C@@H]([NH2+]Cc2ccc3c(c2)OCO3)C(C)(C)C)nn1
REMARK SMILES IDX 10 1 11 2 12 3 29 4 30 5 9 6 4 7 5 8 6 9 8 10 7 11 3 12 2 13
REMARK SMILES IDX 1 14 13 15 14 16 15 19 16 20 17 21 21 22 18 23 20 24 19 25
REMARK SMILES IDX 22 26 24 27 23 28 25 29 26 30 27 31 28 32
REMARK H PARENT 14 17 14 18
ROOT
ATOM     1   N1  UNL     1       2.316   0.576  -0.888  1.00  0.00    -0.180 N   
ATOM     2   C9  UNL     1       2.235   0.571   0.497  1.00  0.00     0.135 A   
ATOM     3   C10 UNL     1       1.025  -0.018   0.786  1.00  0.00     0.128 A   
ATOM     4   N3  UNL     1       0.421  -0.389  -0.381  1.00  0.00    -0.131 NA  
ATOM     5   N4  UNL     1       1.210  -0.035  -1.379  1.00  0.00    -0.071 NA  
ENDROOT
BRANCH   1   6
ATOM     6   C8  UNL     1       3.364   1.085  -1.704  1.00  0.00     0.063 A   
ATOM     7   C3  UNL     1       3.173   1.410  -3.069  1.00  0.00     0.001 A   
ATOM     8   C4  UNL     1       4.280   1.885  -3.804  1.00  0.00     0.008 A   
ATOM     9   C5  UNL     1       5.533   2.045  -3.215  1.00  0.00     0.001 A   
ATOM     10  C7  UNL     1       4.633   1.268  -1.118  1.00  0.00     0.026 A   
ATOM     11  C6  UNL     1       5.709   1.741  -1.872  1.00  0.00     0.002 A   
BRANCH   7  12
ATOM     12  C2  UNL     1       1.844   1.359  -3.790  1.00  0.00     0.197 C   
BRANCH  12  13
ATOM     13  O1  UNL     1       0.939   2.265  -3.154  1.00  0.00    -0.380 OA  
ATOM     14  C1  UNL     1      -0.323   2.272  -3.811  1.00  0.00     0.195 C   
ENDBRANCH  12  13
ENDBRANCH   7  12
ENDBRANCH   1   6
BRANCH   3  15
ATOM     15  C11 UNL     1       0.276  -0.185   2.074  1.00  0.00     0.120 C   
BRANCH  15  16
ATOM     16  N2  UNL     1      -1.189   0.059   1.785  1.00  0.00     0.250 N   
ATOM     17  H12 UNL     1      -1.816  -0.375   2.467  1.00  0.00     0.199 HD  
ATOM     18  H13 UNL     1      -1.380  -0.415   0.887  1.00  0.00     0.199 HD  
BRANCH  16  19
ATOM     19  C12 UNL     1      -1.572   1.489   1.607  1.00  0.00     0.164 C   
BRANCH  19  20
ATOM     20  C13 UNL     1      -2.891   1.597   0.898  1.00  0.00    -0.002 A   
ATOM     21  C14 UNL     1      -4.101   1.667   1.625  1.00  0.00     0.012 A   
ATOM     22  C18 UNL     1      -2.924   1.573  -0.508  1.00  0.00     0.045 A   
ATOM     23  C15 UNL     1      -5.332   1.721   0.961  1.00  0.00     0.037 A   
ATOM     24  C17 UNL     1      -4.153   1.631  -1.130  1.00  0.00     0.109 A   
ATOM     25  C16 UNL     1      -5.324   1.700  -0.417  1.00  0.00     0.108 A   
ATOM     26  O2  UNL     1      -4.361   1.623  -2.473  1.00  0.00    -0.316 OA  
ATOM     27  O3  UNL     1      -6.418   1.741  -1.220  1.00  0.00    -0.316 OA  
ATOM     28  C19 UNL     1      -5.804   1.705  -2.526  1.00  0.00     0.337 C   
ENDBRANCH  19  20
ENDBRANCH  16  19
ENDBRANCH  15  16
BRANCH  15  29
ATOM     29  C20 UNL     1       0.477  -1.577   2.763  1.00  0.00     0.010 C   
ATOM     30  C21 UNL     1      -0.081  -2.745   1.925  1.00  0.00     0.017 C   
ATOM     31  C22 UNL     1       1.980  -1.833   3.014  1.00  0.00     0.017 C   
ATOM     32  C23 UNL     1      -0.219  -1.595   4.144  1.00  0.00     0.017 C   
ENDBRANCH  15  29
ENDBRANCH   3  15
TORSDOF 8
