REMARK SMILES CC(C)[C@H]([NH2+]Cc1ccc2c(c1)OCO2)c1cn(Cc2cc(O)ccc2O)nn1
REMARK SMILES IDX 16 1 17 2 18 3 28 4 29 5 4 7 2 8 1 9 3 10 5 11 6 14 7 15
REMARK SMILES IDX 8 16 12 17 9 18 11 19 10 20 13 21 15 22 14 23 19 24 20 25
REMARK SMILES IDX 21 26 26 27 22 28 25 29 24 30 27 31 23 33
REMARK H PARENT 17 6 5 12 5 13 27 32 23 34
ROOT
ATOM     1   C13 UNL     1       1.511   0.759   0.351  1.00  0.00     0.127 A   
ATOM     2   C14 UNL     1       1.708  -0.446  -0.282  1.00  0.00     0.046 A   
ATOM     3   N2  UNL     1       1.446  -1.374   0.689  1.00  0.00    -0.208 N   
ATOM     4   N3  UNL     1       1.139  -0.775   1.858  1.00  0.00    -0.076 NA  
ATOM     5   N4  UNL     1       1.167   0.531   1.661  1.00  0.00    -0.132 NA  
ATOM     6   H18 UNL     1       1.960  -0.730  -1.295  1.00  0.00     0.083 HD  
ENDROOT
BRANCH   1   7
ATOM     7   C4  UNL     1       1.537   2.165  -0.152  1.00  0.00     0.117 C   
BRANCH   7   8
ATOM     8   C2  UNL     1       2.946   2.805  -0.060  1.00  0.00     0.037 C   
ATOM     9   C1  UNL     1       2.998   4.151  -0.793  1.00  0.00     0.014 C   
ATOM     10  C3  UNL     1       3.474   2.972   1.370  1.00  0.00     0.014 C   
ENDBRANCH   7   8
BRANCH   7  11
ATOM     11  N1  UNL     1       0.524   2.982   0.623  1.00  0.00     0.249 N   
ATOM     12  H9  UNL     1       0.930   3.858   0.959  1.00  0.00     0.199 HD  
ATOM     13  H10 UNL     1       0.323   2.433   1.475  1.00  0.00     0.199 HD  
BRANCH  11  14
ATOM     14  C5  UNL     1      -0.766   3.270  -0.062  1.00  0.00     0.164 C   
BRANCH  14  15
ATOM     15  C6  UNL     1      -1.512   2.056  -0.543  1.00  0.00    -0.002 A   
ATOM     16  C7  UNL     1      -2.036   1.113   0.373  1.00  0.00     0.012 A   
ATOM     17  C11 UNL     1      -1.693   1.847  -1.922  1.00  0.00     0.045 A   
ATOM     18  C8  UNL     1      -2.725  -0.022  -0.073  1.00  0.00     0.037 A   
ATOM     19  C10 UNL     1      -2.379   0.721  -2.328  1.00  0.00     0.109 A   
ATOM     20  C9  UNL     1      -2.884  -0.186  -1.431  1.00  0.00     0.108 A   
ATOM     21  O1  UNL     1      -2.638   0.378  -3.617  1.00  0.00    -0.316 OA  
ATOM     22  O2  UNL     1      -3.535  -1.210  -2.041  1.00  0.00    -0.316 OA  
ATOM     23  C12 UNL     1      -3.392  -0.840  -3.428  1.00  0.00     0.337 C   
ENDBRANCH  14  15
ENDBRANCH  11  14
ENDBRANCH   7  11
ENDBRANCH   1   7
BRANCH   3  24
ATOM     24  C15 UNL     1       1.465  -2.822   0.579  1.00  0.00     0.172 C   
BRANCH  24  25
ATOM     25  C16 UNL     1       0.207  -3.325  -0.076  1.00  0.00     0.004 A   
ATOM     26  C17 UNL     1      -0.965  -3.474   0.682  1.00  0.00     0.041 A   
ATOM     27  C21 UNL     1       0.160  -3.629  -1.441  1.00  0.00     0.076 A   
ATOM     28  C18 UNL     1      -2.136  -3.925   0.083  1.00  0.00     0.072 A   
ATOM     29  C20 UNL     1      -1.014  -4.091  -2.039  1.00  0.00     0.036 A   
ATOM     30  C19 UNL     1      -2.169  -4.242  -1.270  1.00  0.00     0.036 A   
BRANCH  27  31
ATOM     31  O4  UNL     1       1.288  -3.457  -2.191  1.00  0.00    -0.361 OA  
ATOM     32  H25 UNL     1       1.146  -3.868  -3.063  1.00  0.00     0.218 HD  
ENDBRANCH  27  31
BRANCH  28  33
ATOM     33  O3  UNL     1      -3.244  -4.032   0.868  1.00  0.00    -0.361 OA  
ATOM     34  H22 UNL     1      -3.976  -4.383   0.333  1.00  0.00     0.218 HD  
ENDBRANCH  28  33
ENDBRANCH  24  25
ENDBRANCH   3  24
TORSDOF 9
