REMARK SMILES CC(C)(C)[C@H]([NH2+]Cc1ccc2c(c1)OCO2)c1cn(Cc2ccc3c(c2)CNC3)nn1
REMARK SMILES IDX 17 1 18 2 19 3 30 4 31 5 5 7 2 8 1 9 3 10 4 11 6 12 7 15
REMARK SMILES IDX 8 16 9 17 13 18 10 19 12 20 11 21 14 22 16 23 15 24 20 25
REMARK SMILES IDX 21 26 22 27 26 28 23 29 25 30 24 31 27 32 29 33 28 34
REMARK H PARENT 18 6 6 13 6 14 28 35
ROOT
ATOM     1   C14 UNL     1       0.392  -1.947  -1.499  1.00  0.00     0.127 A   
ATOM     2   C15 UNL     1       0.518  -1.978  -0.128  1.00  0.00     0.046 A   
ATOM     3   N2  UNL     1       1.833  -1.668   0.089  1.00  0.00    -0.208 N   
ATOM     4   N4  UNL     1       2.477  -1.459  -1.077  1.00  0.00    -0.076 NA  
ATOM     5   N5  UNL     1       1.603  -1.619  -2.056  1.00  0.00    -0.132 NA  
ATOM     6   H20 UNL     1      -0.174  -2.164   0.681  1.00  0.00     0.083 HD  
ENDROOT
BRANCH   1   7
ATOM     7   C5  UNL     1      -0.799  -2.113  -2.395  1.00  0.00     0.120 C   
BRANCH   7   8
ATOM     8   C2  UNL     1      -1.015  -3.574  -2.920  1.00  0.00     0.010 C   
ATOM     9   C1  UNL     1       0.153  -4.078  -3.792  1.00  0.00     0.017 C   
ATOM     10  C3  UNL     1      -1.181  -4.547  -1.731  1.00  0.00     0.017 C   
ATOM     11  C4  UNL     1      -2.318  -3.651  -3.750  1.00  0.00     0.017 C   
ENDBRANCH   7   8
BRANCH   7  12
ATOM     12  N1  UNL     1      -0.648  -1.144  -3.555  1.00  0.00     0.250 N   
ATOM     13  H11 UNL     1      -0.804  -1.605  -4.454  1.00  0.00     0.199 HD  
ATOM     14  H12 UNL     1       0.350  -0.875  -3.567  1.00  0.00     0.199 HD  
BRANCH  12  15
ATOM     15  C6  UNL     1      -1.468   0.098  -3.494  1.00  0.00     0.164 C   
BRANCH  15  16
ATOM     16  C7  UNL     1      -1.184   0.968  -2.302  1.00  0.00    -0.002 A   
ATOM     17  C8  UNL     1       0.069   1.612  -2.160  1.00  0.00     0.012 A   
ATOM     18  C12 UNL     1      -2.166   1.146  -1.311  1.00  0.00     0.045 A   
ATOM     19  C9  UNL     1       0.341   2.421  -1.051  1.00  0.00     0.037 A   
ATOM     20  C11 UNL     1      -1.865   1.950  -0.232  1.00  0.00     0.109 A   
ATOM     21  C10 UNL     1      -0.648   2.573  -0.106  1.00  0.00     0.108 A   
ATOM     22  O1  UNL     1      -2.700   2.227   0.804  1.00  0.00    -0.316 OA  
ATOM     23  O2  UNL     1      -0.567   3.331   1.016  1.00  0.00    -0.316 OA  
ATOM     24  C13 UNL     1      -1.871   3.110   1.595  1.00  0.00     0.337 C   
ENDBRANCH  15  16
ENDBRANCH  12  15
ENDBRANCH   7  12
ENDBRANCH   1   7
BRANCH   3  25
ATOM     25  C16 UNL     1       2.541  -1.587   1.355  1.00  0.00     0.169 C   
BRANCH  25  26
ATOM     26  C17 UNL     1       2.244  -0.290   2.064  1.00  0.00    -0.028 A   
ATOM     27  C18 UNL     1       2.897   0.897   1.667  1.00  0.00     0.006 A   
ATOM     28  C22 UNL     1       1.305  -0.248   3.109  1.00  0.00     0.010 A   
ATOM     29  C19 UNL     1       2.628   2.113   2.299  1.00  0.00     0.006 A   
ATOM     30  C21 UNL     1       1.054   0.966   3.726  1.00  0.00    -0.029 A   
ATOM     31  C20 UNL     1       1.705   2.126   3.328  1.00  0.00    -0.030 A   
ATOM     32  C23 UNL     1       0.102   1.284   4.829  1.00  0.00     0.117 C   
ATOM     33  C24 UNL     1       1.219   3.277   4.140  1.00  0.00     0.117 C   
ATOM     34  N3  UNL     1       0.355   2.697   5.198  1.00  0.00    -0.309 NA  
ATOM     35  H28 UNL     1       0.906   2.689   6.057  1.00  0.00     0.123 HD  
ENDBRANCH  25  26
ENDBRANCH   3  25
TORSDOF 7
