REMARK SMILES CC(C)(C)[C@H]([NH2+]Cc1ccc2c(c1)OCO2)c1cn(-c2ccccc2S(N)(=O)=O)nn1
REMARK SMILES IDX 17 1 18 2 19 3 30 4 31 5 5 6 2 7 1 8 3 9 4 10 6 11 7 14 8 15
REMARK SMILES IDX 9 16 13 17 10 18 12 19 11 20 14 21 16 22 15 23 20 24 21 25
REMARK SMILES IDX 25 26 22 27 24 28 23 29 26 30 28 31 29 32 27 33
REMARK H PARENT 6 12 6 13 27 34 27 35
ROOT
ATOM     1   C14 UNL     1      -0.209  -0.754   1.345  1.00  0.00     0.128 A   
ATOM     2   C15 UNL     1      -0.711   0.129   2.273  1.00  0.00     0.135 A   
ATOM     3   N2  UNL     1       0.316   1.017   2.508  1.00  0.00    -0.168 N   
ATOM     4   N4  UNL     1       1.440   0.546   1.909  1.00  0.00    -0.071 NA  
ATOM     5   N5  UNL     1       1.111  -0.476   1.135  1.00  0.00    -0.131 NA  
ENDROOT
BRANCH   1   6
ATOM     6   C5  UNL     1      -0.901  -1.800   0.528  1.00  0.00     0.120 C   
BRANCH   6   7
ATOM     7   C2  UNL     1      -0.637  -3.273   0.993  1.00  0.00     0.010 C   
ATOM     8   C1  UNL     1      -1.005  -3.428   2.486  1.00  0.00     0.017 C   
ATOM     9   C3  UNL     1       0.828  -3.712   0.806  1.00  0.00     0.017 C   
ATOM     10  C4  UNL     1      -1.537  -4.251   0.202  1.00  0.00     0.017 C   
ENDBRANCH   6   7
BRANCH   6  11
ATOM     11  N1  UNL     1      -0.508  -1.615  -0.918  1.00  0.00     0.250 N   
ATOM     12  H11 UNL     1       0.520  -1.563  -0.950  1.00  0.00     0.199 HD  
ATOM     13  H12 UNL     1      -0.775  -2.417  -1.495  1.00  0.00     0.199 HD  
BRANCH  11  14
ATOM     14  C6  UNL     1      -1.030  -0.373  -1.565  1.00  0.00     0.164 C   
BRANCH  14  15
ATOM     15  C7  UNL     1      -0.620  -0.330  -3.010  1.00  0.00    -0.002 A   
ATOM     16  C8  UNL     1      -1.475  -0.846  -4.013  1.00  0.00     0.012 A   
ATOM     17  C12 UNL     1       0.645   0.170  -3.366  1.00  0.00     0.045 A   
ATOM     18  C9  UNL     1      -1.082  -0.854  -5.356  1.00  0.00     0.037 A   
ATOM     19  C11 UNL     1       1.002   0.146  -4.698  1.00  0.00     0.109 A   
ATOM     20  C10 UNL     1       0.163  -0.351  -5.665  1.00  0.00     0.108 A   
ATOM     21  O1  UNL     1       2.182   0.585  -5.209  1.00  0.00    -0.316 OA  
ATOM     22  O2  UNL     1       0.706  -0.283  -6.908  1.00  0.00    -0.316 OA  
ATOM     23  C13 UNL     1       1.986   0.322  -6.617  1.00  0.00     0.337 C   
ENDBRANCH  14  15
ENDBRANCH  11  14
ENDBRANCH   6  11
ENDBRANCH   1   6
BRANCH   3  24
ATOM     24  C16 UNL     1       0.323   2.221   3.251  1.00  0.00     0.181 A   
ATOM     25  C17 UNL     1       1.513   2.554   3.926  1.00  0.00     0.039 A   
ATOM     26  C21 UNL     1      -0.788   3.079   3.358  1.00  0.00     0.362 A   
ATOM     27  C18 UNL     1       1.568   3.676   4.754  1.00  0.00     0.003 A   
ATOM     28  C20 UNL     1      -0.723   4.199   4.204  1.00  0.00     0.140 A   
ATOM     29  C19 UNL     1       0.447   4.487   4.907  1.00  0.00     0.013 A   
BRANCH  26  30
ATOM     30  S1  UNL     1      -2.198   2.940   2.287  1.00  0.00    -0.112 S   
ATOM     31  O3  UNL     1      -1.744   2.549   0.969  1.00  0.00    -0.479 OA  
ATOM     32  O4  UNL     1      -3.213   2.192   2.987  1.00  0.00    -0.479 OA  
BRANCH  30  33
ATOM     33  N3  UNL     1      -2.773   4.500   2.113  1.00  0.00    -0.094 NA  
ATOM     34  H25 UNL     1      -3.721   4.590   2.486  1.00  0.00     0.263 HD  
ATOM     35  H26 UNL     1      -2.679   4.832   1.152  1.00  0.00     0.263 HD  
ENDBRANCH  30  33
ENDBRANCH  26  30
ENDBRANCH   3  24
TORSDOF 8
