REMARK SMILES CC(C)(C)[C@H]([NH2+]Cc1ccc2c(c1)OCO2)c1cn(Cc2cccc(F)c2F)nn1
REMARK SMILES IDX 17 1 18 2 19 3 29 4 30 5 5 7 2 8 1 9 3 10 4 11 6 12 7 15
REMARK SMILES IDX 8 16 9 17 13 18 10 19 12 20 11 21 14 22 16 23 15 24 20 25
REMARK SMILES IDX 21 26 22 27 27 28 23 29 25 30 24 31 28 32 26 33
REMARK H PARENT 18 6 6 13 6 14
ROOT
ATOM     1   C14 UNL     1      -0.025  -1.471  -1.788  1.00  0.00     0.127 A   
ATOM     2   C15 UNL     1       0.991  -2.401  -1.805  1.00  0.00     0.046 A   
ATOM     3   N2  UNL     1       1.998  -1.781  -2.493  1.00  0.00    -0.208 N   
ATOM     4   N3  UNL     1       1.627  -0.543  -2.874  1.00  0.00    -0.076 NA  
ATOM     5   N4  UNL     1       0.391  -0.341  -2.447  1.00  0.00    -0.132 NA  
ATOM     6   H20 UNL     1       1.099  -3.396  -1.395  1.00  0.00     0.083 HD  
ENDROOT
BRANCH   1   7
ATOM     7   C5  UNL     1      -1.371  -1.485  -1.128  1.00  0.00     0.120 C   
BRANCH   7   8
ATOM     8   C2  UNL     1      -2.534  -1.997  -2.048  1.00  0.00     0.010 C   
ATOM     9   C1  UNL     1      -2.210  -3.411  -2.581  1.00  0.00     0.017 C   
ATOM     10  C3  UNL     1      -2.789  -1.071  -3.255  1.00  0.00     0.017 C   
ATOM     11  C4  UNL     1      -3.848  -2.112  -1.240  1.00  0.00     0.017 C   
ENDBRANCH   7   8
BRANCH   7  12
ATOM     12  N1  UNL     1      -1.672  -0.093  -0.624  1.00  0.00     0.250 N   
ATOM     13  H11 UNL     1      -1.421   0.555  -1.387  1.00  0.00     0.199 HD  
ATOM     14  H12 UNL     1      -2.668   0.054  -0.441  1.00  0.00     0.199 HD  
BRANCH  12  15
ATOM     15  C6  UNL     1      -0.900   0.330   0.578  1.00  0.00     0.164 C   
BRANCH  15  16
ATOM     16  C7  UNL     1      -1.208   1.761   0.918  1.00  0.00    -0.002 A   
ATOM     17  C8  UNL     1      -0.486   2.808   0.297  1.00  0.00     0.012 A   
ATOM     18  C12 UNL     1      -2.252   2.070   1.807  1.00  0.00     0.045 A   
ATOM     19  C9  UNL     1      -0.789   4.147   0.567  1.00  0.00     0.037 A   
ATOM     20  C11 UNL     1      -2.524   3.400   2.050  1.00  0.00     0.109 A   
ATOM     21  C10 UNL     1      -1.814   4.410   1.448  1.00  0.00     0.108 A   
ATOM     22  O1  UNL     1      -3.495   3.869   2.877  1.00  0.00    -0.316 OA  
ATOM     23  O2  UNL     1      -2.247   5.642   1.822  1.00  0.00    -0.316 OA  
ATOM     24  C13 UNL     1      -3.299   5.296   2.748  1.00  0.00     0.337 C   
ENDBRANCH  15  16
ENDBRANCH  12  15
ENDBRANCH   7  12
ENDBRANCH   1   7
BRANCH   3  25
ATOM     25  C16 UNL     1       3.319  -2.294  -2.813  1.00  0.00     0.172 C   
BRANCH  25  26
ATOM     26  C17 UNL     1       4.346  -1.812  -1.826  1.00  0.00     0.010 A   
ATOM     27  C18 UNL     1       5.263  -0.804  -2.161  1.00  0.00     0.009 A   
ATOM     28  C22 UNL     1       4.392  -2.354  -0.537  1.00  0.00     0.163 A   
ATOM     29  C19 UNL     1       6.205  -0.362  -1.226  1.00  0.00     0.004 A   
ATOM     30  C21 UNL     1       5.327  -1.910   0.392  1.00  0.00     0.159 A   
ATOM     31  C20 UNL     1       6.238  -0.917   0.054  1.00  0.00     0.042 A   
ATOM     32  F2  UNL     1       3.513  -3.306  -0.190  1.00  0.00    -0.203 F   
ATOM     33  F1  UNL     1       5.345  -2.432   1.625  1.00  0.00    -0.204 F   
ENDBRANCH  25  26
ENDBRANCH   3  25
TORSDOF 7
