REMARK SMILES CC(C)C[C@H]([NH2+]Cc1ccc2c(c1)OCO2)c1cn(Cc2cn(C)c3ncccc23)nn1
REMARK SMILES IDX 17 1 18 2 19 3 31 4 32 5 5 7 4 8 2 9 1 10 3 11 6 12 7 15
REMARK SMILES IDX 8 16 9 17 13 18 10 19 12 20 11 21 14 22 16 23 15 24 20 25
REMARK SMILES IDX 21 26 22 27 30 28 23 29 25 30 29 31 26 32 28 33 27 34 24 35
REMARK H PARENT 18 6 6 13 6 14
ROOT
ATOM     1   C14 UNL     1      -0.304   0.143   0.307  1.00  0.00     0.127 A   
ATOM     2   C15 UNL     1      -0.880  -0.352  -0.842  1.00  0.00     0.046 A   
ATOM     3   N2  UNL     1      -1.261  -1.623  -0.502  1.00  0.00    -0.208 N   
ATOM     4   N5  UNL     1      -1.032  -1.853   0.807  1.00  0.00    -0.076 NA  
ATOM     5   N6  UNL     1      -0.424  -0.789   1.306  1.00  0.00    -0.132 NA  
ATOM     6   H20 UNL     1      -1.005   0.040  -1.842  1.00  0.00     0.083 HD  
ENDROOT
BRANCH   1   7
ATOM     7   C5  UNL     1       0.350   1.452   0.598  1.00  0.00     0.114 C   
BRANCH   7   8
ATOM     8   C4  UNL     1       1.874   1.417   0.367  1.00  0.00     0.064 C   
BRANCH   8   9
ATOM     9   C2  UNL     1       2.319   1.160  -1.089  1.00  0.00    -0.012 C   
ATOM     10  C1  UNL     1       3.847   1.082  -1.155  1.00  0.00     0.007 C   
ATOM     11  C3  UNL     1       1.817   2.237  -2.051  1.00  0.00     0.007 C   
ENDBRANCH   8   9
ENDBRANCH   7   8
BRANCH   7  12
ATOM     12  N1  UNL     1       0.138   1.820   2.049  1.00  0.00     0.249 N   
ATOM     13  H11 UNL     1       0.801   2.539   2.355  1.00  0.00     0.199 HD  
ATOM     14  H12 UNL     1       0.351   0.975   2.601  1.00  0.00     0.199 HD  
BRANCH  12  15
ATOM     15  C6  UNL     1      -1.244   2.245   2.405  1.00  0.00     0.164 C   
BRANCH  15  16
ATOM     16  C7  UNL     1      -1.332   2.566   3.870  1.00  0.00    -0.002 A   
ATOM     17  C8  UNL     1      -1.176   3.897   4.324  1.00  0.00     0.012 A   
ATOM     18  C12 UNL     1      -1.519   1.532   4.805  1.00  0.00     0.045 A   
ATOM     19  C9  UNL     1      -1.215   4.199   5.690  1.00  0.00     0.037 A   
ATOM     20  C11 UNL     1      -1.550   1.864   6.143  1.00  0.00     0.109 A   
ATOM     21  C10 UNL     1      -1.403   3.160   6.574  1.00  0.00     0.108 A   
ATOM     22  O1  UNL     1      -1.720   0.992   7.171  1.00  0.00    -0.316 OA  
ATOM     23  O2  UNL     1      -1.462   3.267   7.927  1.00  0.00    -0.316 OA  
ATOM     24  C13 UNL     1      -1.681   1.890   8.304  1.00  0.00     0.337 C   
ENDBRANCH  15  16
ENDBRANCH  12  15
ENDBRANCH   7  12
ENDBRANCH   1   7
BRANCH   3  25
ATOM     25  C16 UNL     1      -1.869  -2.646  -1.342  1.00  0.00     0.171 C   
BRANCH  25  26
ATOM     26  C17 UNL     1      -1.007  -2.936  -2.526  1.00  0.00    -0.004 A   
ATOM     27  C18 UNL     1       0.123  -3.741  -2.545  1.00  0.00     0.082 A   
ATOM     28  C24 UNL     1      -1.178  -2.438  -3.858  1.00  0.00     0.021 A   
ATOM     29  N3  UNL     1       0.636  -3.737  -3.817  1.00  0.00    -0.295 N   
ATOM     30  C20 UNL     1      -0.129  -2.939  -4.625  1.00  0.00     0.131 A   
ATOM     31  C23 UNL     1      -2.107  -1.604  -4.508  1.00  0.00     0.014 A   
ATOM     32  N4  UNL     1       0.108  -2.703  -5.930  1.00  0.00    -0.240 NA  
ATOM     33  C22 UNL     1      -1.910  -1.343  -5.865  1.00  0.00     0.021 A   
ATOM     34  C21 UNL     1      -0.815  -1.903  -6.507  1.00  0.00     0.113 A   
ATOM     35  C19 UNL     1       1.804  -4.462  -4.260  1.00  0.00     0.137 C   
ENDBRANCH  25  26
ENDBRANCH   3  25
TORSDOF 8
