REMARK SMILES COc1cccc(OC)c1Cn1cc([C@@H]([NH2+]Cc2ccc3c(c2)OCO3)C2CCCC2)nn1
REMARK SMILES IDX 12 1 13 2 14 3 32 4 33 5 11 7 10 8 3 9 4 10 5 11 7 12 6 13
REMARK SMILES IDX 2 14 1 15 8 16 9 17 15 18 16 19 17 22 18 23 19 24 23 25
REMARK SMILES IDX 20 26 22 27 21 28 24 29 26 30 25 31 27 32 28 33 31 34 29 35
REMARK SMILES IDX 30 36
REMARK H PARENT 13 6 16 20 16 21
ROOT
ATOM     1   N1  UNL     1       2.480   0.275  -1.310  1.00  0.00    -0.208 N   
ATOM     2   C10 UNL     1       2.587   0.550   0.027  1.00  0.00     0.046 A   
ATOM     3   C11 UNL     1       1.517  -0.105   0.591  1.00  0.00     0.127 A   
ATOM     4   N3  UNL     1       0.820  -0.760  -0.390  1.00  0.00    -0.132 NA  
ATOM     5   N4  UNL     1       1.418  -0.525  -1.545  1.00  0.00    -0.076 NA  
ATOM     6   H12 UNL     1       3.378   1.171   0.423  1.00  0.00     0.083 HD  
ENDROOT
BRANCH   1   7
ATOM     7   C9  UNL     1       3.373   0.679  -2.385  1.00  0.00     0.175 C   
BRANCH   7   8
ATOM     8   C8  UNL     1       3.009   2.047  -2.920  1.00  0.00     0.032 A   
ATOM     9   C2  UNL     1       3.540   3.212  -2.325  1.00  0.00     0.082 A   
ATOM     10  C3  UNL     1       3.181   4.469  -2.818  1.00  0.00     0.034 A   
ATOM     11  C4  UNL     1       2.307   4.576  -3.899  1.00  0.00     0.005 A   
ATOM     12  C6  UNL     1       2.126   2.166  -4.014  1.00  0.00     0.082 A   
ATOM     13  C5  UNL     1       1.782   3.431  -4.495  1.00  0.00     0.034 A   
BRANCH   9  14
ATOM     14  O1  UNL     1       4.382   3.016  -1.260  1.00  0.00    -0.349 OA  
ATOM     15  C1  UNL     1       5.165   4.132  -0.844  1.00  0.00     0.203 C   
ENDBRANCH   9  14
BRANCH  12  16
ATOM     16  O2  UNL     1       1.658   0.988  -4.534  1.00  0.00    -0.349 OA  
ATOM     17  C7  UNL     1       0.872   1.053  -5.719  1.00  0.00     0.203 C   
ENDBRANCH  12  16
ENDBRANCH   7   8
ENDBRANCH   1   7
BRANCH   3  18
ATOM     18  C12 UNL     1       1.030  -0.169   2.001  1.00  0.00     0.117 C   
BRANCH  18  19
ATOM     19  N2  UNL     1      -0.455  -0.412   2.018  1.00  0.00     0.249 N   
ATOM     20  H14 UNL     1      -0.643  -1.118   1.288  1.00  0.00     0.199 HD  
ATOM     21  H15 UNL     1      -0.774  -0.822   2.901  1.00  0.00     0.199 HD  
BRANCH  19  22
ATOM     22  C13 UNL     1      -1.294   0.773   1.691  1.00  0.00     0.164 C   
BRANCH  22  23
ATOM     23  C14 UNL     1      -2.749   0.399   1.702  1.00  0.00    -0.002 A   
ATOM     24  C15 UNL     1      -3.363  -0.102   0.529  1.00  0.00     0.012 A   
ATOM     25  C19 UNL     1      -3.492   0.484   2.891  1.00  0.00     0.045 A   
ATOM     26  C16 UNL     1      -4.703  -0.502   0.536  1.00  0.00     0.037 A   
ATOM     27  C18 UNL     1      -4.810   0.080   2.863  1.00  0.00     0.109 A   
ATOM     28  C17 UNL     1      -5.399  -0.399   1.719  1.00  0.00     0.108 A   
ATOM     29  O3  UNL     1      -5.662   0.093   3.921  1.00  0.00    -0.316 OA  
ATOM     30  O4  UNL     1      -6.698  -0.745   1.912  1.00  0.00    -0.316 OA  
ATOM     31  C20 UNL     1      -6.868  -0.417   3.308  1.00  0.00     0.337 C   
ENDBRANCH  22  23
ENDBRANCH  19  22
ENDBRANCH  18  19
BRANCH  18  32
ATOM     32  C21 UNL     1       1.762  -1.255   2.814  1.00  0.00     0.043 C   
ATOM     33  C22 UNL     1       1.481  -2.707   2.407  1.00  0.00     0.010 C   
ATOM     34  C25 UNL     1       1.478  -1.214   4.327  1.00  0.00     0.010 C   
ATOM     35  C23 UNL     1       1.928  -3.495   3.627  1.00  0.00     0.001 C   
ATOM     36  C24 UNL     1       1.397  -2.669   4.788  1.00  0.00     0.001 C   
ENDBRANCH  18  32
ENDBRANCH   3  18
TORSDOF 9
