REMARK SMILES CC(C)Cn1cc(Cn2cc([C@@H]([NH2+]Cc3ccc4c(c3)OCO4)C3CCCCC3)nn2)cn1
REMARK SMILES IDX 9 1 10 2 11 3 30 4 31 5 8 7 7 8 5 9 6 10 33 11 32 12 4 13
REMARK SMILES IDX 2 14 1 15 3 16 12 17 13 18 14 21 15 22 16 23 20 24 17 25
REMARK SMILES IDX 19 26 18 27 21 28 23 29 22 30 24 31 25 32 29 33 26 34 28 35
REMARK SMILES IDX 27 36
REMARK H PARENT 10 6 13 19 13 20
ROOT
ATOM     1   N2  UNL     1      -0.761   2.144  -2.057  1.00  0.00    -0.208 N   
ATOM     2   C8  UNL     1       0.032   1.123  -1.605  1.00  0.00     0.046 A   
ATOM     3   C9  UNL     1      -0.707  -0.009  -1.869  1.00  0.00     0.127 A   
ATOM     4   N4  UNL     1      -1.863   0.345  -2.514  1.00  0.00    -0.132 NA  
ATOM     5   N5  UNL     1      -1.888   1.664  -2.618  1.00  0.00    -0.076 NA  
ATOM     6   H13 UNL     1       0.964   1.299  -1.087  1.00  0.00     0.083 HD  
ENDROOT
BRANCH   1   7
ATOM     7   C7  UNL     1      -0.599   3.570  -1.809  1.00  0.00     0.172 C   
BRANCH   7   8
ATOM     8   C6  UNL     1      -0.893   3.844  -0.376  1.00  0.00     0.007 A   
ATOM     9   N1  UNL     1      -0.770   4.269   1.781  1.00  0.00    -0.232 N   
ATOM     10  C5  UNL     1      -0.018   4.165   0.643  1.00  0.00     0.102 A   
ATOM     11  N6  UNL     1      -2.067   3.971   1.579  1.00  0.00    -0.190 NA  
ATOM     12  C25 UNL     1      -2.153   3.781   0.263  1.00  0.00     0.138 A   
BRANCH   9  13
ATOM     13  C4  UNL     1      -0.289   4.553   3.120  1.00  0.00     0.135 C   
BRANCH  13  14
ATOM     14  C2  UNL     1      -0.336   6.032   3.542  1.00  0.00     0.002 C   
ATOM     15  C1  UNL     1       0.558   6.916   2.671  1.00  0.00     0.009 C   
ATOM     16  C3  UNL     1      -1.760   6.586   3.583  1.00  0.00     0.009 C   
ENDBRANCH  13  14
ENDBRANCH   9  13
ENDBRANCH   7   8
ENDBRANCH   1   7
BRANCH   3  17
ATOM     17  C10 UNL     1      -0.494  -1.430  -1.457  1.00  0.00     0.117 C   
BRANCH  17  18
ATOM     18  N3  UNL     1      -1.745  -1.941  -0.766  1.00  0.00     0.249 N   
ATOM     19  H15 UNL     1      -2.504  -1.885  -1.458  1.00  0.00     0.199 HD  
ATOM     20  H16 UNL     1      -1.634  -2.922  -0.506  1.00  0.00     0.199 HD  
BRANCH  18  21
ATOM     21  C11 UNL     1      -2.204  -1.190   0.449  1.00  0.00     0.164 C   
BRANCH  21  22
ATOM     22  C12 UNL     1      -1.172  -1.116   1.541  1.00  0.00    -0.002 A   
ATOM     23  C13 UNL     1      -0.721  -2.289   2.193  1.00  0.00     0.012 A   
ATOM     24  C17 UNL     1      -0.640   0.131   1.917  1.00  0.00     0.045 A   
ATOM     25  C14 UNL     1       0.258  -2.224   3.191  1.00  0.00     0.037 A   
ATOM     26  C16 UNL     1       0.324   0.160   2.903  1.00  0.00     0.109 A   
ATOM     27  C15 UNL     1       0.761  -0.985   3.521  1.00  0.00     0.108 A   
ATOM     28  O1  UNL     1       0.945   1.274   3.374  1.00  0.00    -0.316 OA  
ATOM     29  O2  UNL     1       1.709  -0.738   4.461  1.00  0.00    -0.316 OA  
ATOM     30  C18 UNL     1       1.793   0.701   4.396  1.00  0.00     0.337 C   
ENDBRANCH  21  22
ENDBRANCH  18  21
ENDBRANCH  17  18
BRANCH  17  31
ATOM     31  C19 UNL     1      -0.153  -2.352  -2.667  1.00  0.00     0.043 C   
ATOM     32  C20 UNL     1      -0.018  -3.837  -2.263  1.00  0.00     0.010 C   
ATOM     33  C24 UNL     1       1.148  -1.882  -3.357  1.00  0.00     0.010 C   
ATOM     34  C21 UNL     1       0.412  -4.728  -3.427  1.00  0.00     0.001 C   
ATOM     35  C23 UNL     1       1.561  -2.785  -4.516  1.00  0.00     0.001 C   
ATOM     36  C22 UNL     1       1.696  -4.235  -4.075  1.00  0.00     0.000 C   
ENDBRANCH  17  31
ENDBRANCH   3  17
TORSDOF 9
