REMARK SMILES CC(C)C[C@H]([NH2+]Cc1ccc2c(c1)OCO2)c1cn(-c2cc(F)ccc2F)nn1
REMARK SMILES IDX 5 1 4 2 2 3 1 4 3 5 6 6 7 9 8 10 9 11 13 12 10 13 12 14
REMARK SMILES IDX 11 15 14 16 16 17 15 18 17 19 18 20 29 21 19 22 28 23 20 24
REMARK SMILES IDX 21 25 26 26 22 27 25 28 24 29 27 30 23 31
REMARK H PARENT 6 7 6 8
ROOT
ATOM     1   C5  UNL     1       0.754   0.161   0.042  1.00  0.00     0.114 C   
ENDROOT
BRANCH   1   2
ATOM     2   C4  UNL     1       1.727  -0.192   1.187  1.00  0.00     0.064 C   
BRANCH   2   3
ATOM     3   C2  UNL     1       3.007   0.664   1.295  1.00  0.00    -0.012 C   
ATOM     4   C1  UNL     1       3.869   0.152   2.454  1.00  0.00     0.007 C   
ATOM     5   C3  UNL     1       3.825   0.665   0.004  1.00  0.00     0.007 C   
ENDBRANCH   2   3
ENDBRANCH   1   2
BRANCH   1   6
ATOM     6   N1  UNL     1       0.268   1.573   0.226  1.00  0.00     0.249 N   
ATOM     7   H11 UNL     1      -0.409   1.562   1.003  1.00  0.00     0.199 HD  
ATOM     8   H12 UNL     1       1.020   2.205   0.511  1.00  0.00     0.199 HD  
BRANCH   6   9
ATOM     9   C6  UNL     1      -0.420   2.171  -0.954  1.00  0.00     0.164 C   
BRANCH   9  10
ATOM     10  C7  UNL     1      -0.848   3.578  -0.648  1.00  0.00    -0.002 A   
ATOM     11  C8  UNL     1      -0.028   4.673  -1.010  1.00  0.00     0.012 A   
ATOM     12  C12 UNL     1      -2.045   3.810   0.053  1.00  0.00     0.045 A   
ATOM     13  C9  UNL     1      -0.396   5.984  -0.686  1.00  0.00     0.037 A   
ATOM     14  C11 UNL     1      -2.377   5.114   0.358  1.00  0.00     0.109 A   
ATOM     15  C10 UNL     1      -1.576   6.170  -0.000  1.00  0.00     0.108 A   
ATOM     16  O1  UNL     1      -3.489   5.511   1.030  1.00  0.00    -0.316 OA  
ATOM     17  O2  UNL     1      -2.083   7.365   0.400  1.00  0.00    -0.316 OA  
ATOM     18  C13 UNL     1      -3.307   6.945   1.041  1.00  0.00     0.337 C   
ENDBRANCH   9  10
ENDBRANCH   6   9
ENDBRANCH   1   6
BRANCH   1  19
ATOM     19  C14 UNL     1      -0.398  -0.794   0.020  1.00  0.00     0.127 A   
ATOM     20  C15 UNL     1      -0.540  -2.029  -0.573  1.00  0.00     0.135 A   
ATOM     21  N4  UNL     1      -1.561  -0.469   0.655  1.00  0.00    -0.131 NA  
ATOM     22  N2  UNL     1      -1.820  -2.442  -0.256  1.00  0.00    -0.178 N   
ATOM     23  N3  UNL     1      -2.419  -1.459   0.470  1.00  0.00    -0.071 NA  
BRANCH  22  24
ATOM     24  C16 UNL     1      -2.504  -3.636  -0.581  1.00  0.00     0.096 A   
ATOM     25  C17 UNL     1      -3.828  -3.812  -0.148  1.00  0.00     0.068 A   
ATOM     26  C21 UNL     1      -1.896  -4.653  -1.325  1.00  0.00     0.146 A   
ATOM     27  C18 UNL     1      -4.509  -4.985  -0.465  1.00  0.00     0.125 A   
ATOM     28  C20 UNL     1      -2.588  -5.826  -1.635  1.00  0.00     0.044 A   
ATOM     29  C19 UNL     1      -3.902  -5.993  -1.204  1.00  0.00     0.042 A   
ATOM     30  F2  UNL     1      -0.636  -4.546  -1.765  1.00  0.00    -0.205 F   
ATOM     31  F1  UNL     1      -5.771  -5.143  -0.050  1.00  0.00    -0.207 F   
ENDBRANCH  22  24
ENDBRANCH   1  19
TORSDOF 7
