REMARK SMILES CC(C)C[C@H]([NH2+]Cc1ccc2c(c1)OCO2)c1cn(Cc2cc(C(C)(C)C)nn2C)nn1
REMARK SMILES IDX 17 1 18 2 19 3 31 4 32 5 5 7 4 8 2 9 1 10 3 11 6 12 7 15
REMARK SMILES IDX 8 16 9 17 13 18 10 19 12 20 11 21 14 22 16 23 15 24 20 25
REMARK SMILES IDX 21 26 22 27 29 28 23 29 28 30 30 31 24 32 25 33 26 34 27 35
REMARK H PARENT 18 6 6 13 6 14
ROOT
ATOM     1   C14 UNL     1       0.009  -1.595  -0.152  1.00  0.00     0.127 A   
ATOM     2   C15 UNL     1      -1.189  -0.924  -0.071  1.00  0.00     0.046 A   
ATOM     3   N2  UNL     1      -1.735  -1.361   1.106  1.00  0.00    -0.206 N   
ATOM     4   N5  UNL     1      -0.929  -2.260   1.703  1.00  0.00    -0.076 NA  
ATOM     5   N6  UNL     1       0.144  -2.411   0.942  1.00  0.00    -0.132 NA  
ATOM     6   H20 UNL     1      -1.682  -0.196  -0.701  1.00  0.00     0.083 HD  
ENDROOT
BRANCH   1   7
ATOM     7   C5  UNL     1       1.097  -1.536  -1.168  1.00  0.00     0.114 C   
BRANCH   7   8
ATOM     8   C4  UNL     1       1.040  -2.720  -2.156  1.00  0.00     0.064 C   
BRANCH   8   9
ATOM     9   C2  UNL     1      -0.234  -2.796  -3.025  1.00  0.00    -0.012 C   
ATOM     10  C1  UNL     1      -0.185  -4.052  -3.901  1.00  0.00     0.007 C   
ATOM     11  C3  UNL     1      -0.414  -1.560  -3.906  1.00  0.00     0.007 C   
ENDBRANCH   8   9
ENDBRANCH   7   8
BRANCH   7  12
ATOM     12  N1  UNL     1       2.453  -1.592  -0.493  1.00  0.00     0.249 N   
ATOM     13  H11 UNL     1       2.348  -2.224   0.317  1.00  0.00     0.199 HD  
ATOM     14  H12 UNL     1       3.138  -2.033  -1.114  1.00  0.00     0.199 HD  
BRANCH  12  15
ATOM     15  C6  UNL     1       3.011  -0.295  -0.013  1.00  0.00     0.164 C   
BRANCH  15  16
ATOM     16  C7  UNL     1       2.510   0.118   1.340  1.00  0.00    -0.002 A   
ATOM     17  C8  UNL     1       1.575   1.171   1.477  1.00  0.00     0.012 A   
ATOM     18  C12 UNL     1       2.970  -0.550   2.489  1.00  0.00     0.045 A   
ATOM     19  C9  UNL     1       1.105   1.556   2.738  1.00  0.00     0.037 A   
ATOM     20  C11 UNL     1       2.487  -0.146   3.716  1.00  0.00     0.109 A   
ATOM     21  C10 UNL     1       1.581   0.877   3.838  1.00  0.00     0.108 A   
ATOM     22  O1  UNL     1       2.832  -0.683   4.915  1.00  0.00    -0.316 OA  
ATOM     23  O2  UNL     1       1.237   1.111   5.131  1.00  0.00    -0.316 OA  
ATOM     24  C13 UNL     1       2.056   0.139   5.815  1.00  0.00     0.337 C   
ENDBRANCH  15  16
ENDBRANCH  12  15
ENDBRANCH   7  12
ENDBRANCH   1   7
BRANCH   3  25
ATOM     25  C16 UNL     1      -3.003  -0.975   1.708  1.00  0.00     0.187 C   
BRANCH  25  26
ATOM     26  C17 UNL     1      -2.973   0.458   2.107  1.00  0.00     0.049 A   
ATOM     27  C18 UNL     1      -3.387   1.590   1.434  1.00  0.00     0.048 A   
ATOM     28  N4  UNL     1      -2.491   0.907   3.309  1.00  0.00    -0.231 N   
ATOM     29  C19 UNL     1      -3.064   2.680   2.279  1.00  0.00     0.066 A   
ATOM     30  N3  UNL     1      -2.491   2.245   3.408  1.00  0.00    -0.186 NA  
ATOM     31  C24 UNL     1      -2.014   0.121   4.425  1.00  0.00     0.159 C   
BRANCH  29  32
ATOM     32  C20 UNL     1      -3.270   4.170   2.056  1.00  0.00     0.006 C   
ATOM     33  C21 UNL     1      -4.183   4.750   3.155  1.00  0.00     0.017 C   
ATOM     34  C22 UNL     1      -3.927   4.460   0.690  1.00  0.00     0.017 C   
ATOM     35  C23 UNL     1      -1.913   4.903   2.092  1.00  0.00     0.017 C   
ENDBRANCH  29  32
ENDBRANCH  25  26
ENDBRANCH   3  25
TORSDOF 9
