REMARK SMILES CC(C)[C@H]([NH2+]Cc1ccc2c(c1)OCO2)c1cn(CCc2ccccn2)nn1
REMARK SMILES IDX 16 1 17 2 18 3 27 4 28 5 4 7 2 8 1 9 3 10 5 11 6 14 7 15
REMARK SMILES IDX 8 16 12 17 9 18 11 19 10 20 13 21 15 22 14 23 19 24 20 25
REMARK SMILES IDX 21 26 22 27 26 28 23 29 25 30 24 31
REMARK H PARENT 17 6 5 12 5 13
ROOT
ATOM     1   C13 UNL     1      -0.480  -2.471  -0.569  1.00  0.00     0.127 A   
ATOM     2   C14 UNL     1      -1.407  -2.332   0.438  1.00  0.00     0.045 A   
ATOM     3   N2  UNL     1      -0.795  -2.880   1.528  1.00  0.00    -0.212 N   
ATOM     4   N4  UNL     1       0.424  -3.355   1.208  1.00  0.00    -0.076 NA  
ATOM     5   N5  UNL     1       0.630  -3.107  -0.075  1.00  0.00    -0.132 NA  
ATOM     6   H18 UNL     1      -2.384  -1.872   0.497  1.00  0.00     0.083 HD  
ENDROOT
BRANCH   1   7
ATOM     7   C4  UNL     1      -0.484  -1.968  -1.973  1.00  0.00     0.117 C   
BRANCH   7   8
ATOM     8   C2  UNL     1      -0.940  -3.013  -3.025  1.00  0.00     0.037 C   
ATOM     9   C1  UNL     1      -0.076  -4.278  -3.083  1.00  0.00     0.014 C   
ATOM     10  C3  UNL     1      -2.410  -3.402  -2.826  1.00  0.00     0.014 C   
ENDBRANCH   7   8
BRANCH   7  11
ATOM     11  N1  UNL     1       0.897  -1.474  -2.354  1.00  0.00     0.249 N   
ATOM     12  H9  UNL     1       1.546  -2.245  -2.144  1.00  0.00     0.199 HD  
ATOM     13  H10 UNL     1       0.942  -1.295  -3.361  1.00  0.00     0.199 HD  
BRANCH  11  14
ATOM     14  C5  UNL     1       1.402  -0.279  -1.612  1.00  0.00     0.164 C   
BRANCH  14  15
ATOM     15  C6  UNL     1       0.586   0.961  -1.853  1.00  0.00    -0.002 A   
ATOM     16  C7  UNL     1       0.662   1.644  -3.090  1.00  0.00     0.012 A   
ATOM     17  C11 UNL     1      -0.286   1.431  -0.854  1.00  0.00     0.045 A   
ATOM     18  C8  UNL     1      -0.121   2.777  -3.333  1.00  0.00     0.037 A   
ATOM     19  C10 UNL     1      -1.045   2.550  -1.126  1.00  0.00     0.109 A   
ATOM     20  C9  UNL     1      -0.965   3.204  -2.331  1.00  0.00     0.108 A   
ATOM     21  O1  UNL     1      -1.937   3.129  -0.280  1.00  0.00    -0.316 OA  
ATOM     22  O2  UNL     1      -1.795   4.277  -2.395  1.00  0.00    -0.316 OA  
ATOM     23  C12 UNL     1      -2.394   4.242  -1.083  1.00  0.00     0.337 C   
ENDBRANCH  14  15
ENDBRANCH  11  14
ENDBRANCH   7  11
ENDBRANCH   1   7
BRANCH   3  24
ATOM     24  C15 UNL     1      -1.290  -2.966   2.886  1.00  0.00     0.140 C   
BRANCH  24  25
ATOM     25  C16 UNL     1      -0.550  -2.040   3.851  1.00  0.00     0.077 C   
BRANCH  25  26
ATOM     26  C17 UNL     1      -0.749  -0.565   3.589  1.00  0.00     0.042 A   
ATOM     27  C18 UNL     1       0.105   0.357   4.191  1.00  0.00     0.024 A   
ATOM     28  N3  UNL     1      -1.796  -0.183   2.816  1.00  0.00    -0.261 NA  
ATOM     29  C19 UNL     1      -0.118   1.716   3.990  1.00  0.00     0.003 A   
ATOM     30  C21 UNL     1      -2.001   1.146   2.657  1.00  0.00     0.111 A   
ATOM     31  C20 UNL     1      -1.193   2.122   3.211  1.00  0.00     0.020 A   
ENDBRANCH  25  26
ENDBRANCH  24  25
ENDBRANCH   3  24
TORSDOF 8
