REMARK SMILES CC(C)Cc1n[nH]cc1Cn1cc([C@@H]([NH2+]Cc2ccc3c(c2)OCO3)C2CCCC2)nn1
REMARK SMILES IDX 11 1 12 2 13 3 31 4 32 5 10 7 9 8 5 9 6 10 7 11 8 12 4 14
REMARK SMILES IDX 2 15 1 16 3 17 14 18 15 19 16 22 17 23 18 24 22 25 19 26
REMARK SMILES IDX 21 27 20 28 23 29 25 30 24 31 26 32 27 33 30 34 28 35 29 36
REMARK H PARENT 12 6 7 13 15 20 15 21
ROOT
ATOM     1   N3  UNL     1       2.229  -1.369  -1.510  1.00  0.00    -0.208 N   
ATOM     2   C9  UNL     1       1.229  -0.809  -2.260  1.00  0.00     0.046 A   
ATOM     3   C10 UNL     1       1.048   0.434  -1.695  1.00  0.00     0.127 A   
ATOM     4   N5  UNL     1       1.925   0.589  -0.652  1.00  0.00    -0.132 NA  
ATOM     5   N6  UNL     1       2.650  -0.513  -0.557  1.00  0.00    -0.076 NA  
ATOM     6   H14 UNL     1       0.754  -1.338  -3.075  1.00  0.00     0.083 HD  
ENDROOT
BRANCH   1   7
ATOM     7   C8  UNL     1       2.820  -2.691  -1.640  1.00  0.00     0.172 C   
BRANCH   7   8
ATOM     8   C7  UNL     1       1.859  -3.744  -1.204  1.00  0.00     0.010 A   
ATOM     9   C5  UNL     1       1.462  -4.081   0.124  1.00  0.00     0.065 A   
ATOM     10  N1  UNL     1       0.584  -5.091   0.130  1.00  0.00    -0.189 NA  
ATOM     11  N2  UNL     1       0.447  -5.430  -1.158  1.00  0.00    -0.245 N   
ATOM     12  C6  UNL     1       1.170  -4.638  -2.001  1.00  0.00     0.099 A   
ATOM     13  H10 UNL     1      -0.156  -6.215  -1.387  1.00  0.00     0.175 HD  
BRANCH   9  14
ATOM     14  C4  UNL     1       1.920  -3.488   1.423  1.00  0.00     0.061 C   
BRANCH  14  15
ATOM     15  C2  UNL     1       0.992  -2.386   1.974  1.00  0.00    -0.011 C   
ATOM     16  C1  UNL     1      -0.331  -2.949   2.502  1.00  0.00     0.008 C   
ATOM     17  C3  UNL     1       1.711  -1.624   3.091  1.00  0.00     0.008 C   
ENDBRANCH  14  15
ENDBRANCH   9  14
ENDBRANCH   7   8
ENDBRANCH   1   7
BRANCH   3  18
ATOM     18  C11 UNL     1       0.066   1.519  -1.994  1.00  0.00     0.117 C   
BRANCH  18  19
ATOM     19  N4  UNL     1      -0.437   2.111  -0.700  1.00  0.00     0.249 N   
ATOM     20  H16 UNL     1       0.385   2.242  -0.086  1.00  0.00     0.199 HD  
ATOM     21  H17 UNL     1      -0.837   3.043  -0.840  1.00  0.00     0.199 HD  
BRANCH  19  22
ATOM     22  C12 UNL     1      -1.420   1.270   0.037  1.00  0.00     0.164 C   
BRANCH  22  23
ATOM     23  C13 UNL     1      -1.844   1.932   1.318  1.00  0.00    -0.002 A   
ATOM     24  C14 UNL     1      -1.384   1.438   2.561  1.00  0.00     0.012 A   
ATOM     25  C18 UNL     1      -2.678   3.066   1.292  1.00  0.00     0.045 A   
ATOM     26  C15 UNL     1      -1.761   2.048   3.764  1.00  0.00     0.037 A   
ATOM     27  C17 UNL     1      -3.020   3.651   2.494  1.00  0.00     0.109 A   
ATOM     28  C16 UNL     1      -2.579   3.155   3.697  1.00  0.00     0.108 A   
ATOM     29  O1  UNL     1      -3.815   4.745   2.640  1.00  0.00    -0.316 OA  
ATOM     30  O2  UNL     1      -3.048   3.868   4.752  1.00  0.00    -0.316 OA  
ATOM     31  C19 UNL     1      -3.830   4.881   4.079  1.00  0.00     0.337 C   
ENDBRANCH  22  23
ENDBRANCH  19  22
ENDBRANCH  18  19
BRANCH  18  32
ATOM     32  C20 UNL     1       0.681   2.648  -2.843  1.00  0.00     0.043 C   
ATOM     33  C21 UNL     1       1.180   2.179  -4.213  1.00  0.00     0.010 C   
ATOM     34  C24 UNL     1      -0.311   3.758  -3.221  1.00  0.00     0.010 C   
ATOM     35  C22 UNL     1       1.360   3.478  -4.981  1.00  0.00     0.001 C   
ATOM     36  C23 UNL     1       0.211   4.368  -4.522  1.00  0.00     0.001 C   
ENDBRANCH  18  32
ENDBRANCH   3  18
TORSDOF 9
