REMARK SMILES c1cc(CCn2cc([C@@H]([NH2+]Cc3ccc4c(c3)OCO4)C3CCCC3)nn2)c2[nH]ncc2c1
REMARK SMILES IDX 6 1 7 2 8 3 26 4 27 5 5 7 4 8 3 9 1 10 2 11 33 12 32 13
REMARK SMILES IDX 28 14 31 15 29 16 30 17 9 19 10 20 11 23 12 24 13 25 17 26
REMARK SMILES IDX 14 27 16 28 15 29 18 30 20 31 19 32 21 33 22 34 25 35 23 36
REMARK SMILES IDX 24 37
REMARK H PARENT 7 6 29 18 10 21 10 22
ROOT
ATOM     1   N1  UNL     1      -0.348   1.914  -3.320  1.00  0.00    -0.212 N   
ATOM     2   C6  UNL     1       0.487   1.333  -2.407  1.00  0.00     0.045 A   
ATOM     3   C7  UNL     1      -0.154   1.508  -1.197  1.00  0.00     0.127 A   
ATOM     4   N3  UNL     1      -1.291   2.250  -1.411  1.00  0.00    -0.132 NA  
ATOM     5   N4  UNL     1      -1.404   2.483  -2.708  1.00  0.00    -0.076 NA  
ATOM     6   H7  UNL     1       1.379   0.800  -2.707  1.00  0.00     0.083 HD  
ENDROOT
BRANCH   1   7
ATOM     7   C5  UNL     1      -0.329   1.777  -4.764  1.00  0.00     0.139 C   
BRANCH   7   8
ATOM     8   C4  UNL     1      -1.472   0.896  -5.295  1.00  0.00     0.059 C   
BRANCH   8   9
ATOM     9   C3  UNL     1      -1.365  -0.549  -4.860  1.00  0.00    -0.023 A   
ATOM     10  C1  UNL     1      -0.641  -2.845  -5.327  1.00  0.00     0.001 A   
ATOM     11  C2  UNL     1      -0.784  -1.509  -5.710  1.00  0.00     0.006 A   
ATOM     12  C25 UNL     1      -1.048  -3.278  -4.061  1.00  0.00     0.012 A   
ATOM     13  C24 UNL     1      -1.609  -2.341  -3.181  1.00  0.00     0.017 A   
ATOM     14  C22 UNL     1      -1.783  -1.029  -3.603  1.00  0.00     0.059 A   
ATOM     15  C23 UNL     1      -2.070  -2.353  -1.844  1.00  0.00     0.141 A   
ATOM     16  N5  UNL     1      -2.417  -0.406  -2.554  1.00  0.00    -0.238 N   
ATOM     17  N6  UNL     1      -2.417  -1.133  -1.405  1.00  0.00    -0.192 NA  
ATOM     18  H27 UNL     1      -2.736   0.561  -2.529  1.00  0.00     0.176 HD  
ENDBRANCH   8   9
ENDBRANCH   7   8
ENDBRANCH   1   7
BRANCH   3  19
ATOM     19  C8  UNL     1       0.118   0.975   0.182  1.00  0.00     0.117 C   
BRANCH  19  20
ATOM     20  N2  UNL     1      -1.036   0.130   0.671  1.00  0.00     0.249 N   
ATOM     21  H9  UNL     1      -0.719  -0.626   1.279  1.00  0.00     0.199 HD  
ATOM     22  H10 UNL     1      -1.466  -0.352  -0.148  1.00  0.00     0.199 HD  
BRANCH  20  23
ATOM     23  C9  UNL     1      -2.152   0.845   1.354  1.00  0.00     0.164 C   
BRANCH  23  24
ATOM     24  C10 UNL     1      -1.772   1.327   2.728  1.00  0.00    -0.002 A   
ATOM     25  C11 UNL     1      -1.552   2.705   2.966  1.00  0.00     0.012 A   
ATOM     26  C15 UNL     1      -1.604   0.409   3.779  1.00  0.00     0.045 A   
ATOM     27  C12 UNL     1      -1.159   3.164   4.228  1.00  0.00     0.037 A   
ATOM     28  C14 UNL     1      -1.214   0.894   5.010  1.00  0.00     0.109 A   
ATOM     29  C13 UNL     1      -0.996   2.232   5.229  1.00  0.00     0.108 A   
ATOM     30  O1  UNL     1      -0.997   0.143   6.122  1.00  0.00    -0.316 OA  
ATOM     31  O2  UNL     1      -0.617   2.493   6.507  1.00  0.00    -0.316 OA  
ATOM     32  C16 UNL     1      -0.642   1.168   7.079  1.00  0.00     0.337 C   
ENDBRANCH  23  24
ENDBRANCH  20  23
ENDBRANCH  19  20
BRANCH  19  33
ATOM     33  C17 UNL     1       1.444   0.194   0.308  1.00  0.00     0.043 C   
ATOM     34  C18 UNL     1       1.492  -1.206  -0.327  1.00  0.00     0.010 C   
ATOM     35  C21 UNL     1       1.887  -0.047   1.757  1.00  0.00     0.010 C   
ATOM     36  C19 UNL     1       2.428  -2.042   0.551  1.00  0.00     0.001 C   
ATOM     37  C20 UNL     1       2.980  -1.091   1.603  1.00  0.00     0.001 C   
ENDBRANCH  19  33
ENDBRANCH   3  19
TORSDOF 8
