REMARK SMILES CC(C)C[C@H]([NH2+]Cc1ccc2c(c1)OCO2)c1cn(-c2cc(N)ccn2)nn1
REMARK SMILES IDX 17 1 18 2 19 3 27 4 28 5 5 6 4 7 2 8 1 9 3 10 6 11 7 14 8 15
REMARK SMILES IDX 9 16 13 17 10 18 12 19 11 20 14 21 16 22 15 23 20 24 21 25
REMARK SMILES IDX 26 26 22 27 25 28 24 29 23 30
REMARK H PARENT 6 12 6 13 23 31 23 32
ROOT
ATOM     1   C14 UNL     1       0.743   0.513   0.522  1.00  0.00     0.127 A   
ATOM     2   C15 UNL     1      -0.036  -0.479   1.069  1.00  0.00     0.137 A   
ATOM     3   N2  UNL     1       0.042  -0.284   2.435  1.00  0.00    -0.162 N   
ATOM     4   N5  UNL     1       0.809   0.811   2.682  1.00  0.00    -0.070 NA  
ATOM     5   N6  UNL     1       1.238   1.299   1.528  1.00  0.00    -0.131 NA  
ENDROOT
BRANCH   1   6
ATOM     6   C5  UNL     1       1.045   0.850  -0.905  1.00  0.00     0.114 C   
BRANCH   6   7
ATOM     7   C4  UNL     1       2.363   0.222  -1.393  1.00  0.00     0.064 C   
BRANCH   7   8
ATOM     8   C2  UNL     1       2.384  -1.323  -1.424  1.00  0.00    -0.012 C   
ATOM     9   C1  UNL     1       3.769  -1.811  -1.858  1.00  0.00     0.007 C   
ATOM     10  C3  UNL     1       1.319  -1.899  -2.358  1.00  0.00     0.007 C   
ENDBRANCH   7   8
ENDBRANCH   6   7
BRANCH   6  11
ATOM     11  N1  UNL     1       1.150   2.358  -1.011  1.00  0.00     0.249 N   
ATOM     12  H11 UNL     1       1.971   2.651  -0.464  1.00  0.00     0.199 HD  
ATOM     13  H12 UNL     1       0.354   2.744  -0.486  1.00  0.00     0.199 HD  
BRANCH  11  14
ATOM     14  C6  UNL     1       1.168   2.985  -2.358  1.00  0.00     0.164 C   
BRANCH  14  15
ATOM     15  C7  UNL     1      -0.087   2.725  -3.144  1.00  0.00    -0.002 A   
ATOM     16  C8  UNL     1      -1.282   3.416  -2.830  1.00  0.00     0.012 A   
ATOM     17  C12 UNL     1      -0.093   1.763  -4.168  1.00  0.00     0.045 A   
ATOM     18  C9  UNL     1      -2.468   3.152  -3.523  1.00  0.00     0.037 A   
ATOM     19  C11 UNL     1      -1.281   1.524  -4.829  1.00  0.00     0.109 A   
ATOM     20  C10 UNL     1      -2.435   2.198  -4.516  1.00  0.00     0.108 A   
ATOM     21  O1  UNL     1      -1.461   0.623  -5.830  1.00  0.00    -0.316 OA  
ATOM     22  O2  UNL     1      -3.486   1.810  -5.282  1.00  0.00    -0.316 OA  
ATOM     23  C13 UNL     1      -2.859   0.828  -6.136  1.00  0.00     0.337 C   
ENDBRANCH  14  15
ENDBRANCH  11  14
ENDBRANCH   6  11
ENDBRANCH   1   6
BRANCH   3  24
ATOM     24  C16 UNL     1      -0.575  -1.065   3.445  1.00  0.00     0.147 A   
ATOM     25  C17 UNL     1      -0.368  -0.744   4.785  1.00  0.00     0.069 A   
ATOM     26  N4  UNL     1      -1.341  -2.113   3.040  1.00  0.00    -0.239 NA  
ATOM     27  C18 UNL     1      -0.997  -1.510   5.764  1.00  0.00     0.028 A   
ATOM     28  C20 UNL     1      -1.891  -2.872   4.012  1.00  0.00     0.115 A   
ATOM     29  C19 UNL     1      -1.732  -2.623   5.365  1.00  0.00     0.043 A   
BRANCH  27  30
ATOM     30  N3  UNL     1      -0.710  -1.303   7.116  1.00  0.00    -0.358 N   
ATOM     31  H22 UNL     1      -0.437  -0.356   7.363  1.00  0.00     0.143 HD  
ATOM     32  H23 UNL     1      -1.394  -1.685   7.763  1.00  0.00     0.143 HD  
ENDBRANCH  27  30
ENDBRANCH   3  24
TORSDOF 8
