REMARK SMILES CC(C)C[C@H]([NH2+]Cc1ccc2c(c1)OCO2)c1cn(-c2ccc3c(=O)cc(-c4ccccc4)oc3c2)nn1
REMARK SMILES IDX 5 1 4 2 2 3 1 4 3 5 6 6 7 9 8 10 9 11 13 12 10 13 12 14
REMARK SMILES IDX 11 15 14 16 16 17 15 18 17 19 18 20 38 21 19 22 37 23 20 24
REMARK SMILES IDX 21 25 36 26 22 27 35 28 23 29 34 30 24 31 27 32 26 33 25 34
REMARK SMILES IDX 28 35 29 36 33 37 30 38 32 39 31 40
REMARK H PARENT 6 7 6 8
ROOT
ATOM     1   C5  UNL     1      -1.369   1.101   3.793  1.00  0.00     0.114 C   
ENDROOT
BRANCH   1   2
ATOM     2   C4  UNL     1      -1.364   2.371   4.664  1.00  0.00     0.064 C   
BRANCH   2   3
ATOM     3   C2  UNL     1      -1.722   3.676   3.918  1.00  0.00    -0.012 C   
ATOM     4   C1  UNL     1      -1.639   4.861   4.886  1.00  0.00     0.007 C   
ATOM     5   C3  UNL     1      -3.114   3.624   3.285  1.00  0.00     0.007 C   
ENDBRANCH   2   3
ENDBRANCH   1   2
BRANCH   1   6
ATOM     6   N1  UNL     1      -1.043  -0.073   4.704  1.00  0.00     0.249 N   
ATOM     7   H11 UNL     1      -0.017  -0.188   4.672  1.00  0.00     0.199 HD  
ATOM     8   H12 UNL     1      -1.265   0.158   5.677  1.00  0.00     0.199 HD  
BRANCH   6   9
ATOM     9   C6  UNL     1      -1.680  -1.382   4.363  1.00  0.00     0.164 C   
BRANCH   9  10
ATOM     10  C7  UNL     1      -1.367  -1.884   2.980  1.00  0.00    -0.002 A   
ATOM     11  C8  UNL     1      -2.380  -1.916   1.989  1.00  0.00     0.012 A   
ATOM     12  C12 UNL     1      -0.059  -2.276   2.642  1.00  0.00     0.045 A   
ATOM     13  C9  UNL     1      -2.091  -2.305   0.676  1.00  0.00     0.037 A   
ATOM     14  C11 UNL     1       0.194  -2.642   1.335  1.00  0.00     0.109 A   
ATOM     15  C10 UNL     1      -0.791  -2.652   0.379  1.00  0.00     0.108 A   
ATOM     16  O1  UNL     1       1.405  -2.990   0.831  1.00  0.00    -0.316 OA  
ATOM     17  O2  UNL     1      -0.325  -3.015  -0.844  1.00  0.00    -0.316 OA  
ATOM     18  C13 UNL     1       1.066  -3.267  -0.547  1.00  0.00     0.337 C   
ENDBRANCH   9  10
ENDBRANCH   6   9
ENDBRANCH   1   6
BRANCH   1  19
ATOM     19  C14 UNL     1      -0.360   1.155   2.695  1.00  0.00     0.127 A   
ATOM     20  C15 UNL     1      -0.503   1.242   1.327  1.00  0.00     0.135 A   
ATOM     21  N4  UNL     1       0.961   0.991   2.998  1.00  0.00    -0.131 NA  
ATOM     22  N2  UNL     1       0.770   1.060   0.824  1.00  0.00    -0.181 N   
ATOM     23  N3  UNL     1       1.638   0.946   1.862  1.00  0.00    -0.071 NA  
BRANCH  22  24
ATOM     24  C16 UNL     1       1.191   0.944  -0.524  1.00  0.00     0.060 A   
ATOM     25  C17 UNL     1       2.546   0.704  -0.807  1.00  0.00     0.027 A   
ATOM     26  C30 UNL     1       0.270   1.041  -1.578  1.00  0.00     0.060 A   
ATOM     27  C18 UNL     1       2.974   0.556  -2.129  1.00  0.00     0.017 A   
ATOM     28  C29 UNL     1       0.706   0.894  -2.898  1.00  0.00     0.095 A   
ATOM     29  C19 UNL     1       2.049   0.651  -3.171  1.00  0.00     0.053 A   
ATOM     30  O4  UNL     1      -0.245   0.997  -3.882  1.00  0.00    -0.309 OA  
ATOM     31  C20 UNL     1       2.468   0.488  -4.570  1.00  0.00     0.191 A   
ATOM     32  C22 UNL     1       0.159   0.883  -5.203  1.00  0.00     0.093 A   
ATOM     33  C21 UNL     1       1.418   0.632  -5.591  1.00  0.00     0.087 A   
ATOM     34  O3  UNL     1       3.625   0.240  -4.877  1.00  0.00    -0.289 OA  
BRANCH  32  35
ATOM     35  C23 UNL     1      -0.932   1.029  -6.183  1.00  0.00     0.005 A   
ATOM     36  C24 UNL     1      -0.799   1.863  -7.304  1.00  0.00     0.011 A   
ATOM     37  C28 UNL     1      -2.142   0.344  -5.993  1.00  0.00     0.011 A   
ATOM     38  C25 UNL     1      -1.848   2.001  -8.217  1.00  0.00     0.001 A   
ATOM     39  C27 UNL     1      -3.188   0.479  -6.909  1.00  0.00     0.001 A   
ATOM     40  C26 UNL     1      -3.040   1.308  -8.020  1.00  0.00     0.000 A   
ENDBRANCH  32  35
ENDBRANCH  22  24
ENDBRANCH   1  19
TORSDOF 8
