REMARK SMILES CC(C)(C)[C@H]([NH2+]Cc1ccc2c(c1)OCO2)c1cn(C(=O)c2ccc(Cl)nc2)nn1
REMARK SMILES IDX 17 1 18 2 19 3 29 4 30 5 5 6 2 7 1 8 3 9 4 10 6 11 7 14 8 15
REMARK SMILES IDX 9 16 13 17 10 18 12 19 11 20 14 21 16 22 15 23 20 24 21 25
REMARK SMILES IDX 22 26 23 27 28 28 24 29 27 30 25 31 26 32
REMARK H PARENT 6 12 6 13
ROOT
ATOM     1   C14 UNL     1       0.324  -0.521   0.251  1.00  0.00     0.128 A   
ATOM     2   C15 UNL     1      -0.388  -0.643   1.422  1.00  0.00     0.139 A   
ATOM     3   N2  UNL     1       0.557  -0.554   2.430  1.00  0.00    -0.143 N   
ATOM     4   N4  UNL     1       1.770  -0.321   1.874  1.00  0.00    -0.068 NA  
ATOM     5   N5  UNL     1       1.643  -0.314   0.556  1.00  0.00    -0.131 NA  
ENDROOT
BRANCH   1   6
ATOM     6   C5  UNL     1      -0.122  -0.514  -1.183  1.00  0.00     0.120 C   
BRANCH   6   7
ATOM     7   C2  UNL     1      -0.079  -1.924  -1.875  1.00  0.00     0.010 C   
ATOM     8   C1  UNL     1      -0.925  -2.939  -1.072  1.00  0.00     0.017 C   
ATOM     9   C3  UNL     1       1.352  -2.482  -2.003  1.00  0.00     0.017 C   
ATOM     10  C4  UNL     1      -0.699  -1.846  -3.290  1.00  0.00     0.017 C   
ENDBRANCH   6   7
BRANCH   6  11
ATOM     11  N1  UNL     1       0.729   0.475  -1.957  1.00  0.00     0.250 N   
ATOM     12  H11 UNL     1       1.706   0.293  -1.686  1.00  0.00     0.199 HD  
ATOM     13  H12 UNL     1       0.666   0.310  -2.964  1.00  0.00     0.199 HD  
BRANCH  11  14
ATOM     14  C6  UNL     1       0.459   1.922  -1.703  1.00  0.00     0.164 C   
BRANCH  14  15
ATOM     15  C7  UNL     1      -0.859   2.372  -2.269  1.00  0.00    -0.002 A   
ATOM     16  C8  UNL     1      -1.021   2.533  -3.667  1.00  0.00     0.012 A   
ATOM     17  C12 UNL     1      -1.952   2.603  -1.416  1.00  0.00     0.045 A   
ATOM     18  C9  UNL     1      -2.254   2.912  -4.208  1.00  0.00     0.037 A   
ATOM     19  C11 UNL     1      -3.154   2.973  -1.983  1.00  0.00     0.109 A   
ATOM     20  C10 UNL     1      -3.301   3.123  -3.340  1.00  0.00     0.108 A   
ATOM     21  O1  UNL     1      -4.304   3.222  -1.305  1.00  0.00    -0.316 OA  
ATOM     22  O2  UNL     1      -4.562   3.489  -3.687  1.00  0.00    -0.316 OA  
ATOM     23  C13 UNL     1      -5.192   3.576  -2.390  1.00  0.00     0.337 C   
ENDBRANCH  14  15
ENDBRANCH  11  14
ENDBRANCH   6  11
ENDBRANCH   1   6
BRANCH   3  24
ATOM     24  C16 UNL     1       0.362  -0.613   3.819  1.00  0.00     0.272 C   
ATOM     25  O3  UNL     1      -0.810  -0.693   4.186  1.00  0.00    -0.269 OA  
BRANCH  24  26
ATOM     26  C17 UNL     1       1.423  -0.560   4.855  1.00  0.00     0.058 A   
ATOM     27  C18 UNL     1       1.098  -0.116   6.143  1.00  0.00     0.018 A   
ATOM     28  C21 UNL     1       2.732  -0.971   4.630  1.00  0.00     0.126 A   
ATOM     29  C19 UNL     1       2.082  -0.073   7.131  1.00  0.00     0.042 A   
ATOM     30  N3  UNL     1       3.707  -0.935   5.570  1.00  0.00    -0.244 NA  
ATOM     31  C20 UNL     1       3.358  -0.486   6.793  1.00  0.00     0.129 A   
ATOM     32  CL1 UNL     1       4.630  -0.459   7.939  1.00  0.00    -0.062 Cl  
ENDBRANCH  24  26
ENDBRANCH   3  24
TORSDOF 7
