REMARK SMILES Nc1ccnc(-n2cc([C@@H]([NH2+]Cc3ccc4c(c3)OCO4)C3CCCCC3)nn2)c1
REMARK SMILES IDX 7 1 8 2 9 3 28 4 29 5 6 6 2 7 3 8 30 9 4 10 5 11 1 12 10 15
REMARK SMILES IDX 11 16 12 19 13 20 14 21 18 22 15 23 17 24 16 25 19 26 21 27
REMARK SMILES IDX 20 28 22 29 23 30 27 31 24 32 26 33 25 34
REMARK H PARENT 1 13 1 14 11 17 11 18
ROOT
ATOM     1   N3  UNL     1       2.944  -0.617  -0.288  1.00  0.00    -0.162 N   
ATOM     2   C5  UNL     1       2.213   0.440  -0.798  1.00  0.00     0.137 A   
ATOM     3   C6  UNL     1       0.906   0.158  -0.475  1.00  0.00     0.128 A   
ATOM     4   N5  UNL     1       0.858  -1.041   0.186  1.00  0.00    -0.131 NA  
ATOM     5   N6  UNL     1       2.093  -1.509   0.285  1.00  0.00    -0.070 NA  
ENDROOT
BRANCH   1   6
ATOM     6   C4  UNL     1       4.352  -0.785  -0.343  1.00  0.00     0.147 A   
ATOM     7   C1  UNL     1       6.312  -2.071   0.162  1.00  0.00     0.028 A   
ATOM     8   C2  UNL     1       7.067  -1.054  -0.415  1.00  0.00     0.043 A   
ATOM     9   C22 UNL     1       4.931  -1.909   0.243  1.00  0.00     0.069 A   
ATOM     10  C3  UNL     1       6.414   0.031  -0.975  1.00  0.00     0.115 A   
ATOM     11  N2  UNL     1       5.073   0.184  -0.967  1.00  0.00    -0.239 NA  
BRANCH   7  12
ATOM     12  N1  UNL     1       6.941  -3.115   0.845  1.00  0.00    -0.358 N   
ATOM     13  H1  UNL     1       6.380  -3.952   0.972  1.00  0.00     0.143 HD  
ATOM     14  H2  UNL     1       7.881  -3.333   0.524  1.00  0.00     0.143 HD  
ENDBRANCH   7  12
ENDBRANCH   1   6
BRANCH   3  15
ATOM     15  C7  UNL     1      -0.358   0.916  -0.739  1.00  0.00     0.117 C   
BRANCH  15  16
ATOM     16  N4  UNL     1      -1.551   0.010  -0.605  1.00  0.00     0.249 N   
ATOM     17  H7  UNL     1      -1.385  -0.586   0.221  1.00  0.00     0.199 HD  
ATOM     18  H8  UNL     1      -2.412   0.529  -0.412  1.00  0.00     0.199 HD  
BRANCH  16  19
ATOM     19  C8  UNL     1      -1.796  -0.900  -1.760  1.00  0.00     0.164 C   
BRANCH  19  20
ATOM     20  C9  UNL     1      -2.913  -1.852  -1.440  1.00  0.00    -0.002 A   
ATOM     21  C10 UNL     1      -2.628  -3.101  -0.835  1.00  0.00     0.012 A   
ATOM     22  C14 UNL     1      -4.248  -1.480  -1.669  1.00  0.00     0.045 A   
ATOM     23  C11 UNL     1      -3.659  -3.975  -0.475  1.00  0.00     0.037 A   
ATOM     24  C13 UNL     1      -5.240  -2.363  -1.297  1.00  0.00     0.109 A   
ATOM     25  C12 UNL     1      -4.955  -3.576  -0.718  1.00  0.00     0.108 A   
ATOM     26  O1  UNL     1      -6.577  -2.151  -1.432  1.00  0.00    -0.316 OA  
ATOM     27  O2  UNL     1      -6.076  -4.284  -0.423  1.00  0.00    -0.316 OA  
ATOM     28  C15 UNL     1      -7.105  -3.382  -0.886  1.00  0.00     0.337 C   
ENDBRANCH  19  20
ENDBRANCH  16  19
ENDBRANCH  15  16
BRANCH  15  29
ATOM     29  C16 UNL     1      -0.507   2.146   0.199  1.00  0.00     0.043 C   
ATOM     30  C17 UNL     1      -0.734   1.778   1.679  1.00  0.00     0.010 C   
ATOM     31  C21 UNL     1      -1.610   3.106  -0.290  1.00  0.00     0.010 C   
ATOM     32  C18 UNL     1      -0.841   3.023   2.558  1.00  0.00     0.001 C   
ATOM     33  C20 UNL     1      -1.714   4.346   0.597  1.00  0.00     0.001 C   
ATOM     34  C19 UNL     1      -1.926   3.973   2.061  1.00  0.00     0.000 C   
ENDBRANCH  15  29
ENDBRANCH   3  15
TORSDOF 7
