REMARK SMILES OC[C@H](c1ccc(Cl)o1)n1cc([C@@H]([NH2+]Cc2ccc3c(c2)OCO3)C2CCCC2)nn1
REMARK SMILES IDX 10 1 11 2 12 3 30 4 31 5 3 7 2 8 1 9 4 11 5 12 9 13 6 14
REMARK SMILES IDX 7 15 8 16 13 17 14 18 15 21 16 22 17 23 21 24 18 25 20 26
REMARK SMILES IDX 19 27 22 28 24 29 23 30 25 31 26 32 29 33 27 34 28 35
REMARK H PARENT 11 6 1 10 14 19 14 20
ROOT
ATOM     1   N1  UNL     1       0.249  -1.048  -2.828  1.00  0.00    -0.200 N   
ATOM     2   C7  UNL     1      -0.805  -1.558  -2.112  1.00  0.00     0.046 A   
ATOM     3   C8  UNL     1      -0.633  -1.043  -0.847  1.00  0.00     0.127 A   
ATOM     4   N3  UNL     1       0.499  -0.268  -0.826  1.00  0.00    -0.132 NA  
ATOM     5   N4  UNL     1       1.036  -0.286  -2.034  1.00  0.00    -0.075 NA  
ATOM     6   H7  UNL     1      -1.548  -2.202  -2.563  1.00  0.00     0.083 HD  
ENDROOT
BRANCH   1   7
ATOM     7   C2  UNL     1       0.541  -1.240  -4.247  1.00  0.00     0.179 C   
BRANCH   7   8
ATOM     8   C1  UNL     1       1.940  -1.827  -4.477  1.00  0.00     0.188 C   
BRANCH   8   9
ATOM     9   O1  UNL     1       1.995  -3.178  -4.008  1.00  0.00    -0.394 OA  
ATOM     10  H1  UNL     1       2.841  -3.555  -4.314  1.00  0.00     0.210 HD  
ENDBRANCH   8   9
ENDBRANCH   7   8
BRANCH   7  11
ATOM     11  C3  UNL     1       0.333   0.042  -4.986  1.00  0.00     0.086 A   
ATOM     12  C4  UNL     1       0.990   1.257  -5.019  1.00  0.00     0.035 A   
ATOM     13  O2  UNL     1      -0.737   0.075  -5.833  1.00  0.00    -0.301 OA  
ATOM     14  C5  UNL     1       0.280   2.071  -5.936  1.00  0.00     0.049 A   
ATOM     15  C6  UNL     1      -0.766   1.309  -6.410  1.00  0.00     0.147 A   
ATOM     16  CL1 UNL     1      -1.960   1.790  -7.547  1.00  0.00    -0.056 Cl  
ENDBRANCH   7  11
ENDBRANCH   1   7
BRANCH   3  17
ATOM     17  C9  UNL     1      -1.435  -1.206   0.407  1.00  0.00     0.117 C   
BRANCH  17  18
ATOM     18  N2  UNL     1      -0.588  -0.859   1.601  1.00  0.00     0.249 N   
ATOM     19  H9  UNL     1       0.007  -0.066   1.314  1.00  0.00     0.199 HD  
ATOM     20  H10 UNL     1      -1.136  -0.522   2.395  1.00  0.00     0.199 HD  
BRANCH  18  21
ATOM     21  C10 UNL     1       0.328  -1.939   2.060  1.00  0.00     0.164 C   
BRANCH  21  22
ATOM     22  C11 UNL     1       1.224  -1.433   3.156  1.00  0.00    -0.002 A   
ATOM     23  C12 UNL     1       2.498  -0.897   2.841  1.00  0.00     0.012 A   
ATOM     24  C16 UNL     1       0.784  -1.436   4.490  1.00  0.00     0.045 A   
ATOM     25  C13 UNL     1       3.329  -0.384   3.841  1.00  0.00     0.037 A   
ATOM     26  C15 UNL     1       1.626  -0.915   5.452  1.00  0.00     0.109 A   
ATOM     27  C14 UNL     1       2.862  -0.406   5.138  1.00  0.00     0.108 A   
ATOM     28  O3  UNL     1       1.353  -0.833   6.781  1.00  0.00    -0.316 OA  
ATOM     29  O4  UNL     1       3.526   0.054   6.231  1.00  0.00    -0.316 OA  
ATOM     30  C17 UNL     1       2.566  -0.219   7.274  1.00  0.00     0.337 C   
ENDBRANCH  21  22
ENDBRANCH  18  21
ENDBRANCH  17  18
BRANCH  17  31
ATOM     31  C18 UNL     1      -2.718  -0.353   0.376  1.00  0.00     0.043 C   
ATOM     32  C19 UNL     1      -2.528   1.166   0.418  1.00  0.00     0.010 C   
ATOM     33  C22 UNL     1      -3.685  -0.601   1.536  1.00  0.00     0.010 C   
ATOM     34  C20 UNL     1      -3.880   1.724   0.866  1.00  0.00     0.001 C   
ATOM     35  C21 UNL     1      -4.685   0.538   1.393  1.00  0.00     0.001 C   
ENDBRANCH  17  31
ENDBRANCH   3  17
TORSDOF 9
