REMARK SMILES OC[C@@H](c1ccc(Cl)o1)n1cc([C@@H]([NH2+]Cc2ccc3c(c2)OCO3)C2CCCC2)nn1
REMARK SMILES IDX 10 1 11 2 12 3 30 4 31 5 3 7 2 8 1 9 4 11 5 12 9 13 6 14
REMARK SMILES IDX 7 15 8 16 13 17 14 18 15 21 16 22 17 23 21 24 18 25 20 26
REMARK SMILES IDX 19 27 22 28 24 29 23 30 25 31 26 32 29 33 27 34 28 35
REMARK H PARENT 11 6 1 10 14 19 14 20
ROOT
ATOM     1   N1  UNL     1      -1.904   1.966   0.863  1.00  0.00    -0.200 N   
ATOM     2   C7  UNL     1      -1.398   1.496  -0.321  1.00  0.00     0.046 A   
ATOM     3   C8  UNL     1      -0.506   0.519   0.054  1.00  0.00     0.127 A   
ATOM     4   N3  UNL     1      -0.464   0.451   1.423  1.00  0.00    -0.132 NA  
ATOM     5   N4  UNL     1      -1.302   1.352   1.907  1.00  0.00    -0.075 NA  
ATOM     6   H7  UNL     1      -1.725   1.880  -1.279  1.00  0.00     0.083 HD  
ENDROOT
BRANCH   1   7
ATOM     7   C2  UNL     1      -2.920   2.988   1.102  1.00  0.00     0.179 C   
BRANCH   7   8
ATOM     8   C1  UNL     1      -2.315   4.399   1.067  1.00  0.00     0.188 C   
BRANCH   8   9
ATOM     9   O1  UNL     1      -1.727   4.717  -0.198  1.00  0.00    -0.394 OA  
ATOM     10  H1  UNL     1      -1.442   5.649  -0.151  1.00  0.00     0.210 HD  
ENDBRANCH   8   9
ENDBRANCH   7   8
BRANCH   7  11
ATOM     11  C3  UNL     1      -4.090   2.804   0.184  1.00  0.00     0.086 A   
ATOM     12  C4  UNL     1      -4.537   3.428  -0.964  1.00  0.00     0.035 A   
ATOM     13  O2  UNL     1      -4.949   1.793   0.517  1.00  0.00    -0.301 OA  
ATOM     14  C5  UNL     1      -5.730   2.766  -1.345  1.00  0.00     0.049 A   
ATOM     15  C6  UNL     1      -5.944   1.775  -0.413  1.00  0.00     0.147 A   
ATOM     16  CL1 UNL     1      -7.244   0.654  -0.382  1.00  0.00    -0.056 Cl  
ENDBRANCH   7  11
ENDBRANCH   1   7
BRANCH   3  17
ATOM     17  C9  UNL     1       0.355  -0.393  -0.759  1.00  0.00     0.117 C   
BRANCH  17  18
ATOM     18  N2  UNL     1       1.452  -0.972   0.094  1.00  0.00     0.249 N   
ATOM     19  H9  UNL     1       1.032  -1.173   1.015  1.00  0.00     0.199 HD  
ATOM     20  H10 UNL     1       1.794  -1.869  -0.264  1.00  0.00     0.199 HD  
BRANCH  18  21
ATOM     21  C10 UNL     1       2.610  -0.067   0.335  1.00  0.00     0.164 C   
BRANCH  21  22
ATOM     22  C11 UNL     1       3.597  -0.720   1.261  1.00  0.00    -0.002 A   
ATOM     23  C12 UNL     1       3.445  -0.595   2.663  1.00  0.00     0.012 A   
ATOM     24  C16 UNL     1       4.640  -1.505   0.743  1.00  0.00     0.045 A   
ATOM     25  C13 UNL     1       4.330  -1.232   3.540  1.00  0.00     0.037 A   
ATOM     26  C15 UNL     1       5.493  -2.121   1.636  1.00  0.00     0.109 A   
ATOM     27  C14 UNL     1       5.343  -1.988   2.995  1.00  0.00     0.108 A   
ATOM     28  O3  UNL     1       6.546  -2.912   1.304  1.00  0.00    -0.316 OA  
ATOM     29  O4  UNL     1       6.287  -2.676   3.689  1.00  0.00    -0.316 OA  
ATOM     30  C17 UNL     1       7.068  -3.237   2.613  1.00  0.00     0.337 C   
ENDBRANCH  21  22
ENDBRANCH  18  21
ENDBRANCH  17  18
BRANCH  17  31
ATOM     31  C18 UNL     1      -0.464  -1.526  -1.411  1.00  0.00     0.043 C   
ATOM     32  C19 UNL     1       0.328  -2.379  -2.423  1.00  0.00     0.010 C   
ATOM     33  C22 UNL     1      -1.096  -2.537  -0.443  1.00  0.00     0.010 C   
ATOM     34  C20 UNL     1      -0.029  -3.834  -2.126  1.00  0.00     0.001 C   
ATOM     35  C21 UNL     1      -1.310  -3.766  -1.312  1.00  0.00     0.001 C   
ENDBRANCH  17  31
ENDBRANCH   3  17
TORSDOF 9
