REMARK SMILES CC(C)(C)[C@H]([NH2+]Cc1ccc2c(c1)OCO2)c1cn(CCCOc2c(F)c(F)cc(F)c2F)nn1
REMARK SMILES IDX 20 1 19 2 17 3 18 4 35 5 34 6 5 8 2 9 1 10 3 11 4 12 6 13
REMARK SMILES IDX 7 16 8 17 9 18 13 19 10 20 12 21 11 22 14 23 16 24 15 25
REMARK SMILES IDX 21 26 22 27 23 28 24 29 25 30 32 31 27 32 30 33 29 34 26 35
REMARK SMILES IDX 33 36 28 37 31 38
REMARK H PARENT 18 7 6 14 6 15
ROOT
ATOM     1   C16 UNL     1       0.152  -2.727  -3.610  1.00  0.00     0.136 C   
ENDROOT
BRANCH   1   2
ATOM     2   N2  UNL     1      -0.357  -1.662  -2.775  1.00  0.00    -0.212 N   
ATOM     3   C14 UNL     1      -1.219  -0.454  -1.206  1.00  0.00     0.127 A   
ATOM     4   C15 UNL     1      -0.945  -1.760  -1.546  1.00  0.00     0.045 A   
ATOM     5   N4  UNL     1      -0.792   0.372  -2.215  1.00  0.00    -0.132 NA  
ATOM     6   N3  UNL     1      -0.294  -0.382  -3.181  1.00  0.00    -0.076 NA  
ATOM     7   H20 UNL     1      -1.091  -2.707  -1.045  1.00  0.00     0.083 HD  
BRANCH   3   8
ATOM     8   C5  UNL     1      -1.784   0.147   0.045  1.00  0.00     0.120 C   
BRANCH   8   9
ATOM     9   C2  UNL     1      -3.281   0.595  -0.067  1.00  0.00     0.010 C   
ATOM     10  C1  UNL     1      -3.801   1.070   1.310  1.00  0.00     0.017 C   
ATOM     11  C3  UNL     1      -3.497   1.733  -1.085  1.00  0.00     0.017 C   
ATOM     12  C4  UNL     1      -4.159  -0.606  -0.490  1.00  0.00     0.017 C   
ENDBRANCH   8   9
BRANCH   8  13
ATOM     13  N1  UNL     1      -0.898   1.307   0.446  1.00  0.00     0.250 N   
ATOM     14  H11 UNL     1      -1.440   2.112   0.768  1.00  0.00     0.199 HD  
ATOM     15  H12 UNL     1      -0.431   1.617  -0.423  1.00  0.00     0.199 HD  
BRANCH  13  16
ATOM     16  C6  UNL     1       0.170   1.001   1.438  1.00  0.00     0.164 C   
BRANCH  16  17
ATOM     17  C7  UNL     1      -0.359   0.941   2.845  1.00  0.00    -0.002 A   
ATOM     18  C8  UNL     1      -0.669   2.134   3.542  1.00  0.00     0.012 A   
ATOM     19  C12 UNL     1      -0.580  -0.299   3.468  1.00  0.00     0.045 A   
ATOM     20  C9  UNL     1      -1.197   2.095   4.836  1.00  0.00     0.037 A   
ATOM     21  C11 UNL     1      -1.104  -0.302   4.744  1.00  0.00     0.109 A   
ATOM     22  C10 UNL     1      -1.404   0.860   5.409  1.00  0.00     0.108 A   
ATOM     23  O1  UNL     1      -1.385  -1.409   5.480  1.00  0.00    -0.316 OA  
ATOM     24  O2  UNL     1      -1.908   0.632   6.649  1.00  0.00    -0.316 OA  
ATOM     25  C13 UNL     1      -1.872  -0.810   6.702  1.00  0.00     0.337 C   
ENDBRANCH  16  17
ENDBRANCH  13  16
ENDBRANCH   8  13
ENDBRANCH   3   8
ENDBRANCH   1   2
BRANCH   1  26
ATOM     26  C17 UNL     1       1.530  -3.248  -3.194  1.00  0.00     0.050 C   
BRANCH  26  27
ATOM     27  C18 UNL     1       2.649  -2.223  -3.385  1.00  0.00     0.170 C   
BRANCH  27  28
ATOM     28  O3  UNL     1       2.564  -1.247  -2.344  1.00  0.00    -0.340 OA  
BRANCH  28  29
ATOM     29  C19 UNL     1       3.254  -0.079  -2.536  1.00  0.00     0.153 A   
ATOM     30  C20 UNL     1       4.308   0.129  -3.428  1.00  0.00     0.192 A   
ATOM     31  C24 UNL     1       2.858   0.994  -1.731  1.00  0.00     0.192 A   
ATOM     32  C21 UNL     1       4.924   1.379  -3.521  1.00  0.00     0.164 A   
ATOM     33  C23 UNL     1       3.477   2.238  -1.832  1.00  0.00     0.164 A   
ATOM     34  C22 UNL     1       4.513   2.445  -2.729  1.00  0.00     0.085 A   
ATOM     35  F1  UNL     1       4.766  -0.866  -4.202  1.00  0.00    -0.201 F   
ATOM     36  F4  UNL     1       1.861   0.841  -0.844  1.00  0.00    -0.201 F   
ATOM     37  F2  UNL     1       5.932   1.562  -4.385  1.00  0.00    -0.204 F   
ATOM     38  F3  UNL     1       3.062   3.245  -1.050  1.00  0.00    -0.204 F   
ENDBRANCH  28  29
ENDBRANCH  27  28
ENDBRANCH  26  27
ENDBRANCH   1  26
TORSDOF 10
