REMARK SMILES CC(C)C[C@H]([NH2+]Cc1ccc2c(c1)OCO2)c1cn(Cc2ncoc2C(C)(C)C)nn1
REMARK SMILES IDX 17 1 18 2 19 3 30 4 31 5 5 7 4 8 2 9 1 10 3 11 6 12 7 15
REMARK SMILES IDX 8 16 9 17 13 18 10 19 12 20 11 21 14 22 16 23 15 24 20 25
REMARK SMILES IDX 21 26 22 27 25 28 23 29 24 30 26 31 27 32 28 33 29 34
REMARK H PARENT 18 6 6 13 6 14
ROOT
ATOM     1   C14 UNL     1       0.285   0.228   0.940  1.00  0.00     0.127 A   
ATOM     2   C15 UNL     1      -0.299   0.705  -0.211  1.00  0.00     0.046 A   
ATOM     3   N2  UNL     1      -1.464   1.282   0.220  1.00  0.00    -0.206 N   
ATOM     4   N4  UNL     1      -1.548   1.234   1.566  1.00  0.00    -0.076 NA  
ATOM     5   N5  UNL     1      -0.497   0.567   2.015  1.00  0.00    -0.132 NA  
ATOM     6   H20 UNL     1      -0.031   0.667  -1.258  1.00  0.00     0.083 HD  
ENDROOT
BRANCH   1   7
ATOM     7   C5  UNL     1       1.561  -0.519   1.158  1.00  0.00     0.114 C   
BRANCH   7   8
ATOM     8   C4  UNL     1       1.309  -2.041   1.131  1.00  0.00     0.064 C   
BRANCH   8   9
ATOM     9   C2  UNL     1       2.552  -2.946   1.266  1.00  0.00    -0.012 C   
ATOM     10  C1  UNL     1       2.126  -4.416   1.200  1.00  0.00     0.007 C   
ATOM     11  C3  UNL     1       3.602  -2.667   0.190  1.00  0.00     0.007 C   
ENDBRANCH   8   9
ENDBRANCH   7   8
BRANCH   7  12
ATOM     12  N1  UNL     1       2.168  -0.143   2.489  1.00  0.00     0.249 N   
ATOM     13  H11 UNL     1       1.418  -0.254   3.186  1.00  0.00     0.199 HD  
ATOM     14  H12 UNL     1       2.919  -0.789   2.741  1.00  0.00     0.199 HD  
BRANCH  12  15
ATOM     15  C6  UNL     1       2.683   1.254   2.609  1.00  0.00     0.164 C   
BRANCH  15  16
ATOM     16  C7  UNL     1       3.901   1.497   1.760  1.00  0.00    -0.002 A   
ATOM     17  C8  UNL     1       5.160   0.977   2.146  1.00  0.00     0.012 A   
ATOM     18  C12 UNL     1       3.787   2.212   0.554  1.00  0.00     0.045 A   
ATOM     19  C9  UNL     1       6.290   1.162   1.341  1.00  0.00     0.037 A   
ATOM     20  C11 UNL     1       4.920   2.373  -0.216  1.00  0.00     0.109 A   
ATOM     21  C10 UNL     1       6.136   1.863   0.166  1.00  0.00     0.108 A   
ATOM     22  O1  UNL     1       4.980   3.025  -1.406  1.00  0.00    -0.316 OA  
ATOM     23  O2  UNL     1       7.117   2.132  -0.735  1.00  0.00    -0.316 OA  
ATOM     24  C13 UNL     1       6.387   2.898  -1.718  1.00  0.00     0.337 C   
ENDBRANCH  15  16
ENDBRANCH  12  15
ENDBRANCH   7  12
ENDBRANCH   1   7
BRANCH   3  25
ATOM     25  C16 UNL     1      -2.486   1.954  -0.566  1.00  0.00     0.192 C   
BRANCH  25  26
ATOM     26  C17 UNL     1      -3.160   0.993  -1.476  1.00  0.00     0.089 A   
ATOM     27  N3  UNL     1      -2.531   0.603  -2.646  1.00  0.00    -0.232 NA  
ATOM     28  C19 UNL     1      -4.399   0.375  -1.386  1.00  0.00     0.089 A   
ATOM     29  C18 UNL     1      -3.397  -0.204  -3.214  1.00  0.00     0.247 A   
ATOM     30  O3  UNL     1      -4.541  -0.396  -2.513  1.00  0.00    -0.300 OA  
BRANCH  28  31
ATOM     31  C20 UNL     1      -5.549   0.380  -0.408  1.00  0.00     0.011 C   
ATOM     32  C21 UNL     1      -6.215   1.766  -0.401  1.00  0.00     0.018 C   
ATOM     33  C22 UNL     1      -6.617  -0.666  -0.793  1.00  0.00     0.018 C   
ATOM     34  C23 UNL     1      -5.048   0.040   1.007  1.00  0.00     0.018 C   
ENDBRANCH  28  31
ENDBRANCH  25  26
ENDBRANCH   3  25
TORSDOF 9
