REMARK SMILES Cc1ncccc1[C@H](CO)n1cc([C@@H]([NH2+]Cc2ccc3c(c2)OCO3)C2CCCC2)nn1
REMARK SMILES IDX 11 1 12 2 13 3 31 4 32 5 8 7 7 8 2 9 3 10 4 11 6 12 5 13
REMARK SMILES IDX 1 14 9 15 10 16 14 18 15 19 16 22 17 23 18 24 22 25 19 26
REMARK SMILES IDX 21 27 20 28 23 29 25 30 24 31 26 32 27 33 30 34 28 35 29 36
REMARK H PARENT 12 6 10 17 15 20 15 21
ROOT
ATOM     1   N2  UNL     1       2.388  -0.462   1.033  1.00  0.00    -0.202 N   
ATOM     2   C9  UNL     1       1.158  -0.011   0.636  1.00  0.00     0.046 A   
ATOM     3   C10 UNL     1       0.991  -0.552  -0.618  1.00  0.00     0.127 A   
ATOM     4   N4  UNL     1       2.113  -1.264  -0.955  1.00  0.00    -0.132 NA  
ATOM     5   N5  UNL     1       2.966  -1.189   0.053  1.00  0.00    -0.075 NA  
ATOM     6   H11 UNL     1       0.541   0.617   1.264  1.00  0.00     0.083 HD  
ENDROOT
BRANCH   1   7
ATOM     7   C7  UNL     1       3.083  -0.258   2.306  1.00  0.00     0.157 C   
BRANCH   7   8
ATOM     8   C6  UNL     1       2.137  -0.471   3.483  1.00  0.00    -0.002 A   
ATOM     9   C2  UNL     1       1.722  -1.761   3.865  1.00  0.00     0.042 A   
ATOM     10  N1  UNL     1       0.853  -1.981   4.883  1.00  0.00    -0.261 NA  
ATOM     11  C3  UNL     1       0.386  -0.918   5.566  1.00  0.00     0.111 A   
ATOM     12  C5  UNL     1       1.612   0.605   4.218  1.00  0.00     0.009 A   
ATOM     13  C4  UNL     1       0.733   0.383   5.273  1.00  0.00     0.020 A   
ATOM     14  C1  UNL     1       2.201  -3.010   3.178  1.00  0.00     0.067 C   
ENDBRANCH   7   8
BRANCH   7  15
ATOM     15  C8  UNL     1       3.891   1.058   2.271  1.00  0.00     0.186 C   
BRANCH  15  16
ATOM     16  O1  UNL     1       3.091   2.198   1.951  1.00  0.00    -0.394 OA  
ATOM     17  H10 UNL     1       3.673   2.979   2.015  1.00  0.00     0.210 HD  
ENDBRANCH  15  16
ENDBRANCH   7  15
ENDBRANCH   1   7
BRANCH   3  18
ATOM     18  C11 UNL     1      -0.134  -0.431  -1.591  1.00  0.00     0.117 C   
BRANCH  18  19
ATOM     19  N3  UNL     1       0.414  -0.281  -2.995  1.00  0.00     0.249 N   
ATOM     20  H13 UNL     1       1.048  -1.079  -3.143  1.00  0.00     0.199 HD  
ATOM     21  H14 UNL     1      -0.339  -0.354  -3.683  1.00  0.00     0.199 HD  
BRANCH  19  22
ATOM     22  C12 UNL     1       1.193   0.963  -3.272  1.00  0.00     0.164 C   
BRANCH  22  23
ATOM     23  C13 UNL     1       0.357   2.210  -3.186  1.00  0.00    -0.002 A   
ATOM     24  C14 UNL     1      -0.588   2.513  -4.195  1.00  0.00     0.012 A   
ATOM     25  C18 UNL     1       0.488   3.068  -2.080  1.00  0.00     0.045 A   
ATOM     26  C15 UNL     1      -1.397   3.651  -4.104  1.00  0.00     0.037 A   
ATOM     27  C17 UNL     1      -0.324   4.182  -2.022  1.00  0.00     0.109 A   
ATOM     28  C16 UNL     1      -1.240   4.464  -3.004  1.00  0.00     0.108 A   
ATOM     29  O2  UNL     1      -0.328   5.105  -1.026  1.00  0.00    -0.316 OA  
ATOM     30  O3  UNL     1      -1.935   5.603  -2.752  1.00  0.00    -0.316 OA  
ATOM     31  C19 UNL     1      -1.334   6.026  -1.510  1.00  0.00     0.337 C   
ENDBRANCH  22  23
ENDBRANCH  19  22
ENDBRANCH  18  19
BRANCH  18  32
ATOM     32  C20 UNL     1      -1.052  -1.670  -1.558  1.00  0.00     0.043 C   
ATOM     33  C21 UNL     1      -1.734  -1.883  -0.199  1.00  0.00     0.010 C   
ATOM     34  C24 UNL     1      -2.252  -1.595  -2.505  1.00  0.00     0.010 C   
ATOM     35  C22 UNL     1      -2.971  -2.731  -0.487  1.00  0.00     0.001 C   
ATOM     36  C23 UNL     1      -3.172  -2.696  -1.999  1.00  0.00     0.001 C   
ENDBRANCH  18  32
ENDBRANCH   3  18
TORSDOF 9
