REMARK SMILES Cc1ncccc1[C@@H](CO)n1cc([C@@H]([NH2+]Cc2ccc3c(c2)OCO3)C2CCCC2)nn1
REMARK SMILES IDX 11 1 12 2 13 3 31 4 32 5 8 7 7 8 2 9 3 10 4 11 6 12 5 13
REMARK SMILES IDX 1 14 9 15 10 16 14 18 15 19 16 22 17 23 18 24 22 25 19 26
REMARK SMILES IDX 21 27 20 28 23 29 25 30 24 31 26 32 27 33 30 34 28 35 29 36
REMARK H PARENT 12 6 10 17 15 20 15 21
ROOT
ATOM     1   N2  UNL     1       2.025  -1.046  -1.648  1.00  0.00    -0.202 N   
ATOM     2   C9  UNL     1       0.751  -0.567  -1.798  1.00  0.00     0.046 A   
ATOM     3   C10 UNL     1       0.653   0.435  -0.860  1.00  0.00     0.127 A   
ATOM     4   N4  UNL     1       1.838   0.524  -0.174  1.00  0.00    -0.132 NA  
ATOM     5   N5  UNL     1       2.669  -0.380  -0.666  1.00  0.00    -0.075 NA  
ATOM     6   H11 UNL     1       0.066  -0.974  -2.530  1.00  0.00     0.083 HD  
ENDROOT
BRANCH   1   7
ATOM     7   C7  UNL     1       2.683  -2.155  -2.342  1.00  0.00     0.157 C   
BRANCH   7   8
ATOM     8   C6  UNL     1       1.819  -3.411  -2.280  1.00  0.00    -0.002 A   
ATOM     9   C2  UNL     1       1.701  -4.163  -1.096  1.00  0.00     0.042 A   
ATOM     10  N1  UNL     1       0.898  -5.252  -0.996  1.00  0.00    -0.261 NA  
ATOM     11  C3  UNL     1       0.213  -5.646  -2.087  1.00  0.00     0.111 A   
ATOM     12  C5  UNL     1       1.075  -3.854  -3.386  1.00  0.00     0.009 A   
ATOM     13  C4  UNL     1       0.269  -4.985  -3.294  1.00  0.00     0.020 A   
ATOM     14  C1  UNL     1       2.445  -3.826   0.167  1.00  0.00     0.067 C   
ENDBRANCH   7   8
BRANCH   7  15
ATOM     15  C8  UNL     1       3.193  -1.700  -3.727  1.00  0.00     0.186 C   
BRANCH  15  16
ATOM     16  O1  UNL     1       2.160  -1.175  -4.561  1.00  0.00    -0.394 OA  
ATOM     17  H10 UNL     1       2.579  -0.917  -5.404  1.00  0.00     0.210 HD  
ENDBRANCH  15  16
ENDBRANCH   7  15
ENDBRANCH   1   7
BRANCH   3  18
ATOM     18  C11 UNL     1      -0.496   1.303  -0.470  1.00  0.00     0.117 C   
BRANCH  18  19
ATOM     19  N3  UNL     1      -0.465   1.554   1.018  1.00  0.00     0.249 N   
ATOM     20  H13 UNL     1      -1.053   2.352   1.278  1.00  0.00     0.199 HD  
ATOM     21  H14 UNL     1       0.504   1.817   1.254  1.00  0.00     0.199 HD  
BRANCH  19  22
ATOM     22  C12 UNL     1      -0.825   0.384   1.867  1.00  0.00     0.164 C   
BRANCH  22  23
ATOM     23  C13 UNL     1      -0.707   0.736   3.323  1.00  0.00    -0.002 A   
ATOM     24  C14 UNL     1      -1.839   1.175   4.050  1.00  0.00     0.012 A   
ATOM     25  C18 UNL     1       0.546   0.679   3.958  1.00  0.00     0.045 A   
ATOM     26  C15 UNL     1      -1.729   1.542   5.396  1.00  0.00     0.037 A   
ATOM     27  C17 UNL     1       0.618   1.048   5.285  1.00  0.00     0.109 A   
ATOM     28  C16 UNL     1      -0.487   1.467   5.984  1.00  0.00     0.108 A   
ATOM     29  O2  UNL     1       1.745   1.051   6.045  1.00  0.00    -0.316 OA  
ATOM     30  O3  UNL     1      -0.196   1.784   7.272  1.00  0.00    -0.316 OA  
ATOM     31  C19 UNL     1       1.219   1.498   7.315  1.00  0.00     0.337 C   
ENDBRANCH  22  23
ENDBRANCH  19  22
ENDBRANCH  18  19
BRANCH  18  32
ATOM     32  C20 UNL     1      -0.546   2.669  -1.177  1.00  0.00     0.043 C   
ATOM     33  C21 UNL     1       0.653   3.596  -0.966  1.00  0.00     0.010 C   
ATOM     34  C24 UNL     1      -0.636   2.604  -2.703  1.00  0.00     0.010 C   
ATOM     35  C22 UNL     1       0.512   4.654  -2.059  1.00  0.00     0.001 C   
ATOM     36  C23 UNL     1      -0.385   4.044  -3.137  1.00  0.00     0.001 C   
ENDBRANCH  18  32
ENDBRANCH   3  18
TORSDOF 9
