REMARK SMILES COc1ccc(CCn2cc([C@@H]([NH2+]Cc3ccc4c(c3)OCO4)C(C)(C)C)nn2)c(O)c1
REMARK SMILES IDX 9 1 10 2 11 3 28 4 29 5 8 7 7 8 6 9 3 10 4 11 32 12 5 13
REMARK SMILES IDX 30 14 2 15 1 16 31 17 12 19 13 20 14 23 15 24 16 25 20 26
REMARK SMILES IDX 17 27 19 28 18 29 21 30 23 31 22 32 24 33 25 34 26 35 27 36
REMARK H PARENT 10 6 31 18 13 21 13 22
ROOT
ATOM     1   N1  UNL     1      -2.374  -1.647   0.404  1.00  0.00    -0.212 N   
ATOM     2   C8  UNL     1      -1.198  -1.260   0.978  1.00  0.00     0.045 A   
ATOM     3   C9  UNL     1      -1.390   0.076   1.256  1.00  0.00     0.127 A   
ATOM     4   N3  UNL     1      -2.649   0.443   0.850  1.00  0.00    -0.132 NA  
ATOM     5   N4  UNL     1      -3.241  -0.620   0.331  1.00  0.00    -0.076 NA  
ATOM     6   H10 UNL     1      -0.356  -1.929   1.092  1.00  0.00     0.083 HD  
ENDROOT
BRANCH   1   7
ATOM     7   C7  UNL     1      -2.687  -2.911  -0.230  1.00  0.00     0.139 C   
BRANCH   7   8
ATOM     8   C6  UNL     1      -2.890  -2.781  -1.743  1.00  0.00     0.059 C   
BRANCH   8   9
ATOM     9   C5  UNL     1      -1.647  -2.319  -2.472  1.00  0.00    -0.016 A   
ATOM     10  C2  UNL     1       0.715  -1.586  -3.843  1.00  0.00     0.077 A   
ATOM     11  C3  UNL     1       0.461  -2.921  -3.532  1.00  0.00     0.034 A   
ATOM     12  C24 UNL     1      -0.207  -0.615  -3.462  1.00  0.00     0.066 A   
ATOM     13  C4  UNL     1      -0.708  -3.287  -2.862  1.00  0.00     0.009 A   
ATOM     14  C23 UNL     1      -1.367  -0.978  -2.768  1.00  0.00     0.077 A   
BRANCH  10  15
ATOM     15  O1  UNL     1       1.893  -1.365  -4.498  1.00  0.00    -0.349 OA  
ATOM     16  C1  UNL     1       2.127  -0.049  -4.985  1.00  0.00     0.203 C   
ENDBRANCH  10  15
BRANCH  14  17
ATOM     17  O4  UNL     1      -2.166   0.067  -2.390  1.00  0.00    -0.361 OA  
ATOM     18  H30 UNL     1      -2.908  -0.246  -1.839  1.00  0.00     0.218 HD  
ENDBRANCH  14  17
ENDBRANCH   8   9
ENDBRANCH   7   8
ENDBRANCH   1   7
BRANCH   3  19
ATOM     19  C10 UNL     1      -0.446   1.115   1.782  1.00  0.00     0.120 C   
BRANCH  19  20
ATOM     20  N2  UNL     1      -0.626   2.389   0.979  1.00  0.00     0.250 N   
ATOM     21  H12 UNL     1      -0.193   3.189   1.443  1.00  0.00     0.199 HD  
ATOM     22  H13 UNL     1      -1.640   2.565   0.948  1.00  0.00     0.199 HD  
BRANCH  20  23
ATOM     23  C11 UNL     1      -0.151   2.345  -0.437  1.00  0.00     0.164 C   
BRANCH  23  24
ATOM     24  C12 UNL     1       1.348   2.318  -0.549  1.00  0.00    -0.002 A   
ATOM     25  C13 UNL     1       2.106   3.493  -0.327  1.00  0.00     0.012 A   
ATOM     26  C17 UNL     1       2.010   1.115  -0.850  1.00  0.00     0.045 A   
ATOM     27  C14 UNL     1       3.503   3.472  -0.404  1.00  0.00     0.037 A   
ATOM     28  C16 UNL     1       3.387   1.129  -0.917  1.00  0.00     0.109 A   
ATOM     29  C15 UNL     1       4.113   2.273  -0.701  1.00  0.00     0.108 A   
ATOM     30  O2  UNL     1       4.176   0.058  -1.192  1.00  0.00    -0.316 OA  
ATOM     31  O3  UNL     1       5.451   2.068  -0.817  1.00  0.00    -0.316 OA  
ATOM     32  C18 UNL     1       5.487   0.665  -1.159  1.00  0.00     0.337 C   
ENDBRANCH  23  24
ENDBRANCH  20  23
ENDBRANCH  19  20
BRANCH  19  33
ATOM     33  C19 UNL     1      -0.601   1.409   3.316  1.00  0.00     0.010 C   
ATOM     34  C20 UNL     1      -1.960   2.042   3.672  1.00  0.00     0.017 C   
ATOM     35  C21 UNL     1       0.518   2.365   3.793  1.00  0.00     0.017 C   
ATOM     36  C22 UNL     1      -0.447   0.100   4.124  1.00  0.00     0.017 C   
ENDBRANCH  19  33
ENDBRANCH   3  19
TORSDOF 10
