REMARK SMILES Cc1nc(CCn2cc([C@@H]([NH2+]Cc3ccc4c(c3)OCO4)C(C)C)nn2)oc1C
REMARK SMILES IDX 7 1 8 2 9 3 25 4 26 5 6 7 5 8 4 9 2 10 3 11 28 12 27 13 1 14
REMARK SMILES IDX 29 15 10 16 11 17 12 20 13 21 14 22 18 23 15 24 17 25 16 26
REMARK SMILES IDX 19 27 21 28 20 29 22 30 23 31 24 32
REMARK H PARENT 8 6 11 18 11 19
ROOT
ATOM     1   N2  UNL     1       1.321   1.371   1.933  1.00  0.00    -0.212 N   
ATOM     2   C6  UNL     1       1.890   0.778   0.843  1.00  0.00     0.045 A   
ATOM     3   C7  UNL     1       0.820   0.263   0.148  1.00  0.00     0.127 A   
ATOM     4   N4  UNL     1      -0.332   0.507   0.855  1.00  0.00    -0.132 NA  
ATOM     5   N5  UNL     1      -0.009   1.167   1.954  1.00  0.00    -0.076 NA  
ATOM     6   H8  UNL     1       2.954   0.826   0.649  1.00  0.00     0.083 HD  
ENDROOT
BRANCH   1   7
ATOM     7   C5  UNL     1       1.967   2.127   2.987  1.00  0.00     0.142 C   
BRANCH   7   8
ATOM     8   C4  UNL     1       1.732   3.628   2.866  1.00  0.00     0.105 C   
BRANCH   8   9
ATOM     9   C3  UNL     1       2.440   4.222   1.703  1.00  0.00     0.149 A   
ATOM     10  C2  UNL     1       3.643   4.690   0.017  1.00  0.00     0.066 A   
ATOM     11  N1  UNL     1       3.288   3.662   0.863  1.00  0.00    -0.231 NA  
ATOM     12  C20 UNL     1       2.970   5.838   0.379  1.00  0.00     0.079 A   
ATOM     13  O3  UNL     1       2.193   5.543   1.463  1.00  0.00    -0.298 OA  
ATOM     14  C1  UNL     1       4.614   4.484  -1.079  1.00  0.00     0.069 C   
ATOM     15  C21 UNL     1       2.927   7.224  -0.118  1.00  0.00     0.075 C   
ENDBRANCH   8   9
ENDBRANCH   7   8
ENDBRANCH   1   7
BRANCH   3  16
ATOM     16  C8  UNL     1       0.750  -0.461  -1.158  1.00  0.00     0.117 C   
BRANCH  16  17
ATOM     17  N3  UNL     1      -0.560  -1.191  -1.283  1.00  0.00     0.249 N   
ATOM     18  H10 UNL     1      -0.805  -1.388  -2.257  1.00  0.00     0.199 HD  
ATOM     19  H11 UNL     1      -1.286  -0.552  -0.925  1.00  0.00     0.199 HD  
BRANCH  17  20
ATOM     20  C9  UNL     1      -0.662  -2.449  -0.492  1.00  0.00     0.164 C   
BRANCH  20  21
ATOM     21  C10 UNL     1      -2.043  -3.028  -0.607  1.00  0.00    -0.002 A   
ATOM     22  C11 UNL     1      -3.066  -2.603   0.275  1.00  0.00     0.012 A   
ATOM     23  C15 UNL     1      -2.344  -3.949  -1.624  1.00  0.00     0.045 A   
ATOM     24  C12 UNL     1      -4.369  -3.098   0.157  1.00  0.00     0.037 A   
ATOM     25  C14 UNL     1      -3.639  -4.417  -1.714  1.00  0.00     0.109 A   
ATOM     26  C13 UNL     1      -4.622  -4.005  -0.849  1.00  0.00     0.108 A   
ATOM     27  O1  UNL     1      -4.095  -5.306  -2.634  1.00  0.00    -0.316 OA  
ATOM     28  O2  UNL     1      -5.821  -4.586  -1.113  1.00  0.00    -0.316 OA  
ATOM     29  C16 UNL     1      -5.478  -5.431  -2.232  1.00  0.00     0.337 C   
ENDBRANCH  20  21
ENDBRANCH  17  20
ENDBRANCH  16  17
BRANCH  16  30
ATOM     30  C17 UNL     1       0.950   0.494  -2.365  1.00  0.00     0.037 C   
ATOM     31  C18 UNL     1      -0.195   1.495  -2.560  1.00  0.00     0.014 C   
ATOM     32  C19 UNL     1       1.191  -0.279  -3.667  1.00  0.00     0.014 C   
ENDBRANCH  16  30
ENDBRANCH   3  16
TORSDOF 8
