REMARK SMILES c1ccc(-c2cc(Cn3cc([C@@H]([NH2+]Cc4ccc5c(c4)OCO5)C4CCCC4)nn3)[nH]n2)cc1
REMARK SMILES IDX 9 1 10 2 11 3 29 4 30 5 8 7 7 8 5 9 6 10 32 11 31 12 4 14
REMARK SMILES IDX 1 15 2 16 34 17 3 18 33 19 12 20 13 21 14 24 15 25 16 26
REMARK SMILES IDX 20 27 17 28 19 29 18 30 21 31 23 32 22 33 24 34 25 35 28 36
REMARK SMILES IDX 26 37 27 38
REMARK H PARENT 10 6 31 13 13 22 13 23
ROOT
ATOM     1   N1  UNL     1       2.459   2.023   1.214  1.00  0.00    -0.206 N   
ATOM     2   C9  UNL     1       2.500   0.665   1.046  1.00  0.00     0.046 A   
ATOM     3   C10 UNL     1       2.793   0.505  -0.291  1.00  0.00     0.127 A   
ATOM     4   N3  UNL     1       2.979   1.738  -0.862  1.00  0.00    -0.132 NA  
ATOM     5   N4  UNL     1       2.768   2.659   0.066  1.00  0.00    -0.076 NA  
ATOM     6   H7  UNL     1       2.231  -0.025   1.834  1.00  0.00     0.083 HD  
ENDROOT
BRANCH   1   7
ATOM     7   C8  UNL     1       1.867   2.757   2.325  1.00  0.00     0.186 C   
BRANCH   7   8
ATOM     8   C7  UNL     1       0.392   2.788   2.134  1.00  0.00     0.047 A   
ATOM     9   C5  UNL     1      -1.820   2.468   2.026  1.00  0.00     0.090 A   
ATOM     10  C6  UNL     1      -0.646   2.134   2.762  1.00  0.00     0.053 A   
ATOM     11  N6  UNL     1      -1.501   3.284   1.006  1.00  0.00    -0.184 NA  
ATOM     12  N5  UNL     1      -0.193   3.525   1.143  1.00  0.00    -0.240 N   
ATOM     13  H27 UNL     1       0.250   4.156   0.481  1.00  0.00     0.175 HD  
BRANCH   9  14
ATOM     14  C4  UNL     1      -3.199   2.009   2.247  1.00  0.00     0.002 A   
ATOM     15  C1  UNL     1      -5.853   1.156   2.653  1.00  0.00     0.000 A   
ATOM     16  C2  UNL     1      -4.832   0.685   3.477  1.00  0.00     0.001 A   
ATOM     17  C26 UNL     1      -5.558   2.050   1.627  1.00  0.00     0.001 A   
ATOM     18  C3  UNL     1      -3.514   1.108   3.275  1.00  0.00     0.010 A   
ATOM     19  C25 UNL     1      -4.241   2.472   1.425  1.00  0.00     0.010 A   
ENDBRANCH   9  14
ENDBRANCH   7   8
ENDBRANCH   1   7
BRANCH   3  20
ATOM     20  C11 UNL     1       2.771  -0.719  -1.145  1.00  0.00     0.117 C   
BRANCH  20  21
ATOM     21  N2  UNL     1       2.043  -0.449  -2.448  1.00  0.00     0.249 N   
ATOM     22  H9  UNL     1       2.108  -1.270  -3.056  1.00  0.00     0.199 HD  
ATOM     23  H10 UNL     1       2.545   0.320  -2.911  1.00  0.00     0.199 HD  
BRANCH  21  24
ATOM     24  C12 UNL     1       0.609  -0.027  -2.347  1.00  0.00     0.164 C   
BRANCH  24  25
ATOM     25  C13 UNL     1      -0.262  -1.015  -1.623  1.00  0.00    -0.002 A   
ATOM     26  C14 UNL     1      -0.604  -2.252  -2.219  1.00  0.00     0.012 A   
ATOM     27  C18 UNL     1      -0.724  -0.721  -0.328  1.00  0.00     0.045 A   
ATOM     28  C15 UNL     1      -1.390  -3.186  -1.533  1.00  0.00     0.037 A   
ATOM     29  C17 UNL     1      -1.488  -1.665   0.324  1.00  0.00     0.109 A   
ATOM     30  C16 UNL     1      -1.816  -2.861  -0.264  1.00  0.00     0.108 A   
ATOM     31  O1  UNL     1      -1.990  -1.548   1.581  1.00  0.00    -0.316 OA  
ATOM     32  O2  UNL     1      -2.582  -3.640   0.544  1.00  0.00    -0.316 OA  
ATOM     33  C19 UNL     1      -2.766  -2.762   1.676  1.00  0.00     0.337 C   
ENDBRANCH  24  25
ENDBRANCH  21  24
ENDBRANCH  20  21
BRANCH  20  34
ATOM     34  C20 UNL     1       4.154  -1.301  -1.487  1.00  0.00     0.043 C   
ATOM     35  C21 UNL     1       4.996  -1.703  -0.274  1.00  0.00     0.010 C   
ATOM     36  C24 UNL     1       5.117  -0.396  -2.258  1.00  0.00     0.010 C   
ATOM     37  C22 UNL     1       6.381  -1.954  -0.860  1.00  0.00     0.001 C   
ATOM     38  C23 UNL     1       6.471  -1.089  -2.118  1.00  0.00     0.001 C   
ENDBRANCH  20  34
ENDBRANCH   3  20
TORSDOF 8
