REMARK SMILES CCn1nc(C)c(Cn2cc([C@@H]([NH2+]Cc3ccc4c(c3)OCO4)C(C)(C)C)nn2)c1C
REMARK SMILES IDX 9 1 10 2 11 3 28 4 29 5 8 7 7 8 3 9 4 10 30 11 5 12 31 13
REMARK SMILES IDX 6 14 2 15 1 16 12 17 13 18 14 21 15 22 16 23 20 24 17 25
REMARK SMILES IDX 19 26 18 27 21 28 23 29 22 30 24 31 25 32 26 33 27 34
REMARK H PARENT 10 6 13 19 13 20
ROOT
ATOM     1   N3  UNL     1      -0.699   2.838   0.831  1.00  0.00    -0.208 N   
ATOM     2   C7  UNL     1      -0.602   2.536  -0.500  1.00  0.00     0.046 A   
ATOM     3   C8  UNL     1      -1.692   1.728  -0.739  1.00  0.00     0.127 A   
ATOM     4   N5  UNL     1      -2.439   1.630   0.406  1.00  0.00    -0.132 NA  
ATOM     5   N6  UNL     1      -1.821   2.311   1.359  1.00  0.00    -0.076 NA  
ATOM     6   H11 UNL     1       0.238   2.842  -1.107  1.00  0.00     0.083 HD  
ENDROOT
BRANCH   1   7
ATOM     7   C6  UNL     1       0.288   3.502   1.670  1.00  0.00     0.173 C   
BRANCH   7   8
ATOM     8   C5  UNL     1       1.452   2.590   1.885  1.00  0.00     0.013 A   
ATOM     9   N1  UNL     1       2.824   1.032   2.624  1.00  0.00    -0.230 N   
ATOM     10  N2  UNL     1       3.435   1.521   1.533  1.00  0.00    -0.186 NA  
ATOM     11  C22 UNL     1       1.604   1.614   2.861  1.00  0.00     0.032 A   
ATOM     12  C3  UNL     1       2.649   2.516   1.118  1.00  0.00     0.062 A   
ATOM     13  C23 UNL     1       0.716   1.207   3.980  1.00  0.00     0.064 C   
ATOM     14  C4  UNL     1       3.078   3.337  -0.044  1.00  0.00     0.069 C   
BRANCH   9  15
ATOM     15  C2  UNL     1       3.481  -0.023   3.376  1.00  0.00     0.129 C   
ATOM     16  C1  UNL     1       3.225  -1.394   2.777  1.00  0.00     0.027 C   
ENDBRANCH   9  15
ENDBRANCH   7   8
ENDBRANCH   1   7
BRANCH   3  17
ATOM     17  C9  UNL     1      -2.042   0.908  -1.940  1.00  0.00     0.120 C   
BRANCH  17  18
ATOM     18  N4  UNL     1      -2.485  -0.479  -1.509  1.00  0.00     0.250 N   
ATOM     19  H13 UNL     1      -2.752  -1.037  -2.323  1.00  0.00     0.199 HD  
ATOM     20  H14 UNL     1      -3.321  -0.356  -0.925  1.00  0.00     0.199 HD  
BRANCH  18  21
ATOM     21  C10 UNL     1      -1.513  -1.275  -0.688  1.00  0.00     0.164 C   
BRANCH  21  22
ATOM     22  C11 UNL     1      -0.168  -1.457  -1.333  1.00  0.00    -0.002 A   
ATOM     23  C12 UNL     1       0.975  -0.834  -0.776  1.00  0.00     0.012 A   
ATOM     24  C16 UNL     1      -0.033  -2.230  -2.500  1.00  0.00     0.045 A   
ATOM     25  C13 UNL     1       2.233  -0.964  -1.373  1.00  0.00     0.037 A   
ATOM     26  C15 UNL     1       1.222  -2.340  -3.062  1.00  0.00     0.109 A   
ATOM     27  C14 UNL     1       2.323  -1.725  -2.517  1.00  0.00     0.108 A   
ATOM     28  O1  UNL     1       1.523  -3.041  -4.187  1.00  0.00    -0.316 OA  
ATOM     29  O2  UNL     1       3.454  -1.964  -3.229  1.00  0.00    -0.316 OA  
ATOM     30  C17 UNL     1       2.950  -2.829  -4.269  1.00  0.00     0.337 C   
ENDBRANCH  21  22
ENDBRANCH  18  21
ENDBRANCH  17  18
BRANCH  17  31
ATOM     31  C18 UNL     1      -3.120   1.562  -2.875  1.00  0.00     0.010 C   
ATOM     32  C19 UNL     1      -2.635   2.955  -3.341  1.00  0.00     0.017 C   
ATOM     33  C20 UNL     1      -4.490   1.732  -2.190  1.00  0.00     0.017 C   
ATOM     34  C21 UNL     1      -3.322   0.706  -4.146  1.00  0.00     0.017 C   
ENDBRANCH  17  31
ENDBRANCH   3  17
TORSDOF 8
