REMARK SMILES Cc1ccc(N([O-])[O-])cc1Cn1cc([C@@H]([NH2+]Cc2ccc3c(c2)OCO3)C(C)C)nn1
REMARK SMILES IDX 12 1 13 2 14 3 30 4 31 5 11 7 10 8 2 9 3 10 4 11 9 12 5 13
REMARK SMILES IDX 1 14 6 15 7 16 8 17 15 18 16 19 17 22 18 23 19 24 23 25
REMARK SMILES IDX 20 26 22 27 21 28 24 29 26 30 25 31 27 32 28 33 29 34
REMARK H PARENT 13 6 16 20 16 21
ROOT
ATOM     1   N2  UNL     1      -1.245   1.537   2.247  1.00  0.00    -0.208 N   
ATOM     2   C9  UNL     1      -0.176   0.685   2.199  1.00  0.00     0.046 A   
ATOM     3   C10 UNL     1       0.919   1.516   2.281  1.00  0.00     0.127 A   
ATOM     4   N4  UNL     1       0.490   2.809   2.430  1.00  0.00    -0.132 NA  
ATOM     5   N5  UNL     1      -0.833   2.810   2.406  1.00  0.00    -0.076 NA  
ATOM     6   H9  UNL     1      -0.286  -0.382   2.063  1.00  0.00     0.083 HD  
ENDROOT
BRANCH   1   7
ATOM     7   C8  UNL     1      -2.657   1.220   2.086  1.00  0.00     0.169 C   
BRANCH   7   8
ATOM     8   C7  UNL     1      -2.974   0.902   0.637  1.00  0.00    -0.024 A   
ATOM     9   C2  UNL     1      -3.407   1.882  -0.282  1.00  0.00    -0.046 A   
ATOM     10  C3  UNL     1      -3.628   1.525  -1.626  1.00  0.00     0.006 A   
ATOM     11  C4  UNL     1      -3.409   0.222  -2.073  1.00  0.00     0.031 A   
ATOM     12  C6  UNL     1      -2.773  -0.416   0.180  1.00  0.00     0.037 A   
ATOM     13  C5  UNL     1      -2.977  -0.745  -1.167  1.00  0.00     0.118 A   
ATOM     14  C1  UNL     1      -3.668   3.306   0.132  1.00  0.00     0.044 C   
BRANCH  13  15
ATOM     15  N1  UNL     1      -2.689  -2.107  -1.630  1.00  0.00     0.092 N   
ATOM     16  O1  UNL     1      -2.162  -2.886  -0.821  1.00  0.00    -0.138 OA  
ATOM     17  O2  UNL     1      -2.961  -2.391  -2.805  1.00  0.00    -0.138 OA  
ENDBRANCH  13  15
ENDBRANCH   7   8
ENDBRANCH   1   7
BRANCH   3  18
ATOM     18  C11 UNL     1       2.375   1.220   2.133  1.00  0.00     0.117 C   
BRANCH  18  19
ATOM     19  N3  UNL     1       3.083   2.320   1.364  1.00  0.00     0.249 N   
ATOM     20  H11 UNL     1       2.955   3.188   1.899  1.00  0.00     0.199 HD  
ATOM     21  H12 UNL     1       4.086   2.123   1.329  1.00  0.00     0.199 HD  
BRANCH  19  22
ATOM     22  C12 UNL     1       2.590   2.607  -0.021  1.00  0.00     0.164 C   
BRANCH  22  23
ATOM     23  C13 UNL     1       2.526   1.401  -0.916  1.00  0.00    -0.002 A   
ATOM     24  C14 UNL     1       3.711   0.778  -1.377  1.00  0.00     0.012 A   
ATOM     25  C18 UNL     1       1.275   0.867  -1.279  1.00  0.00     0.045 A   
ATOM     26  C15 UNL     1       3.651  -0.365  -2.182  1.00  0.00     0.037 A   
ATOM     27  C17 UNL     1       1.253  -0.262  -2.069  1.00  0.00     0.109 A   
ATOM     28  C16 UNL     1       2.407  -0.861  -2.508  1.00  0.00     0.108 A   
ATOM     29  O3  UNL     1       0.136  -0.907  -2.496  1.00  0.00    -0.316 OA  
ATOM     30  O4  UNL     1       2.163  -1.957  -3.271  1.00  0.00    -0.316 OA  
ATOM     31  C19 UNL     1       0.718  -1.976  -3.279  1.00  0.00     0.337 C   
ENDBRANCH  22  23
ENDBRANCH  19  22
ENDBRANCH  18  19
BRANCH  18  32
ATOM     32  C20 UNL     1       3.124   1.001   3.475  1.00  0.00     0.037 C   
ATOM     33  C21 UNL     1       2.645  -0.273   4.181  1.00  0.00     0.014 C   
ATOM     34  C22 UNL     1       3.050   2.185   4.445  1.00  0.00     0.014 C   
ENDBRANCH  18  32
ENDBRANCH   3  18
TORSDOF 8
