REMARK SMILES Cc1cc(N([O-])[O-])cc(-n2cc([C@@H]([NH2+]Cc3ccc4c(c3)OCO4)C(C)C)nn2)c1
REMARK SMILES IDX 10 1 11 2 12 3 28 4 29 5 9 6 2 7 30 8 3 9 4 10 8 11 1 12
REMARK SMILES IDX 5 13 6 14 7 15 13 16 14 17 15 20 16 21 17 22 21 23 18 24
REMARK SMILES IDX 20 25 19 26 22 27 24 28 23 29 25 30 26 31 27 32
REMARK H PARENT 14 18 14 19
ROOT
ATOM     1   N1  UNL     1       2.517   0.473   1.571  1.00  0.00    -0.181 N   
ATOM     2   C5  UNL     1       1.878  -0.739   1.753  1.00  0.00     0.135 A   
ATOM     3   C6  UNL     1       1.044  -0.873   0.664  1.00  0.00     0.127 A   
ATOM     4   N3  UNL     1       1.165   0.233  -0.128  1.00  0.00    -0.131 NA  
ATOM     5   N4  UNL     1       2.047   1.043   0.432  1.00  0.00    -0.071 NA  
ENDROOT
BRANCH   1   6
ATOM     6   C4  UNL     1       3.498   1.100   2.382  1.00  0.00     0.060 A   
ATOM     7   C2  UNL     1       4.972   3.008   2.795  1.00  0.00    -0.047 A   
ATOM     8   C3  UNL     1       4.008   2.356   2.008  1.00  0.00     0.029 A   
ATOM     9   C21 UNL     1       5.449   2.383   3.953  1.00  0.00     0.034 A   
ATOM     10  C20 UNL     1       4.944   1.132   4.327  1.00  0.00     0.120 A   
ATOM     11  C19 UNL     1       3.968   0.485   3.549  1.00  0.00     0.057 A   
ATOM     12  C1  UNL     1       5.529   4.337   2.369  1.00  0.00     0.044 C   
BRANCH  10  13
ATOM     13  N5  UNL     1       5.436   0.483   5.550  1.00  0.00     0.092 N   
ATOM     14  O3  UNL     1       6.341   1.044   6.180  1.00  0.00    -0.138 OA  
ATOM     15  O4  UNL     1       4.908  -0.593   5.873  1.00  0.00    -0.138 OA  
ENDBRANCH  10  13
ENDBRANCH   1   6
BRANCH   3  16
ATOM     16  C7  UNL     1       0.093  -1.964   0.278  1.00  0.00     0.117 C   
BRANCH  16  17
ATOM     17  N2  UNL     1      -0.976  -1.443  -0.643  1.00  0.00     0.249 N   
ATOM     18  H7  UNL     1      -0.508  -0.860  -1.353  1.00  0.00     0.199 HD  
ATOM     19  H8  UNL     1      -1.442  -2.196  -1.158  1.00  0.00     0.199 HD  
BRANCH  17  20
ATOM     20  C8  UNL     1      -2.019  -0.594   0.000  1.00  0.00     0.164 C   
BRANCH  20  21
ATOM     21  C9  UNL     1      -3.031  -0.150  -1.018  1.00  0.00    -0.002 A   
ATOM     22  C10 UNL     1      -4.257  -0.842  -1.160  1.00  0.00     0.012 A   
ATOM     23  C14 UNL     1      -2.740   0.927  -1.875  1.00  0.00     0.045 A   
ATOM     24  C11 UNL     1      -5.188  -0.463  -2.134  1.00  0.00     0.037 A   
ATOM     25  C13 UNL     1      -3.676   1.271  -2.828  1.00  0.00     0.109 A   
ATOM     26  C12 UNL     1      -4.865   0.596  -2.954  1.00  0.00     0.108 A   
ATOM     27  O1  UNL     1      -3.553   2.278  -3.731  1.00  0.00    -0.316 OA  
ATOM     28  O2  UNL     1      -5.640   1.091  -3.954  1.00  0.00    -0.316 OA  
ATOM     29  C15 UNL     1      -4.806   2.164  -4.444  1.00  0.00     0.337 C   
ENDBRANCH  20  21
ENDBRANCH  17  20
ENDBRANCH  16  17
BRANCH  16  30
ATOM     30  C16 UNL     1       0.825  -3.166  -0.378  1.00  0.00     0.037 C   
ATOM     31  C17 UNL     1      -0.072  -4.407  -0.453  1.00  0.00     0.014 C   
ATOM     32  C18 UNL     1       1.402  -2.859  -1.765  1.00  0.00     0.014 C   
ENDBRANCH  16  30
ENDBRANCH   3  16
TORSDOF 7
