REMARK SMILES COc1c(C)cccc1Cn1cc([C@@H]([NH2+]Cc2ccc3c(c2)OCO3)C2CCCCC2)nn1
REMARK SMILES IDX 11 1 12 2 13 3 32 4 33 5 10 7 9 8 3 9 4 10 6 11 8 12 7 13
REMARK SMILES IDX 5 14 2 15 1 16 14 17 15 18 16 21 17 22 18 23 22 24 19 25
REMARK SMILES IDX 21 26 20 27 23 28 25 29 24 30 26 31 27 32 31 33 28 34 30 35
REMARK SMILES IDX 29 36
REMARK H PARENT 12 6 15 19 15 20
ROOT
ATOM     1   N1  UNL     1       1.264   0.893   1.788  1.00  0.00    -0.208 N   
ATOM     2   C10 UNL     1       0.099   0.694   1.099  1.00  0.00     0.046 A   
ATOM     3   C11 UNL     1      -0.011   1.807   0.299  1.00  0.00     0.127 A   
ATOM     4   N3  UNL     1       1.013   2.674   0.595  1.00  0.00    -0.132 NA  
ATOM     5   N4  UNL     1       1.776   2.112   1.518  1.00  0.00    -0.076 NA  
ATOM     6   H12 UNL     1      -0.475  -0.220   1.190  1.00  0.00     0.083 HD  
ENDROOT
BRANCH   1   7
ATOM     7   C9  UNL     1       1.973  -0.039   2.651  1.00  0.00     0.172 C   
BRANCH   7   8
ATOM     8   C8  UNL     1       2.672  -1.089   1.821  1.00  0.00     0.002 A   
ATOM     9   C2  UNL     1       2.049  -2.307   1.492  1.00  0.00     0.082 A   
ATOM     10  C3  UNL     1       2.647  -3.210   0.595  1.00  0.00    -0.020 A   
ATOM     11  C5  UNL     1       3.921  -2.912   0.088  1.00  0.00     0.006 A   
ATOM     12  C7  UNL     1       3.944  -0.816   1.289  1.00  0.00     0.008 A   
ATOM     13  C6  UNL     1       4.568  -1.726   0.438  1.00  0.00     0.001 A   
ATOM     14  C4  UNL     1       1.952  -4.470   0.160  1.00  0.00     0.047 C   
BRANCH   9  15
ATOM     15  O1  UNL     1       0.791  -2.562   1.984  1.00  0.00    -0.349 OA  
ATOM     16  C1  UNL     1       0.876  -3.330   3.193  1.00  0.00     0.203 C   
ENDBRANCH   9  15
ENDBRANCH   7   8
ENDBRANCH   1   7
BRANCH   3  17
ATOM     17  C12 UNL     1      -0.996   2.177  -0.761  1.00  0.00     0.117 C   
BRANCH  17  18
ATOM     18  N2  UNL     1      -0.980   3.681  -0.956  1.00  0.00     0.249 N   
ATOM     19  H14 UNL     1       0.012   3.957  -0.907  1.00  0.00     0.199 HD  
ATOM     20  H15 UNL     1      -1.321   3.933  -1.889  1.00  0.00     0.199 HD  
BRANCH  18  21
ATOM     21  C13 UNL     1      -1.711   4.478   0.072  1.00  0.00     0.164 C   
BRANCH  21  22
ATOM     22  C14 UNL     1      -3.197   4.465  -0.164  1.00  0.00    -0.002 A   
ATOM     23  C15 UNL     1      -3.762   5.269  -1.185  1.00  0.00     0.012 A   
ATOM     24  C19 UNL     1      -4.028   3.614   0.585  1.00  0.00     0.045 A   
ATOM     25  C16 UNL     1      -5.132   5.219  -1.466  1.00  0.00     0.037 A   
ATOM     26  C18 UNL     1      -5.372   3.579   0.273  1.00  0.00     0.109 A   
ATOM     27  C17 UNL     1      -5.908   4.357  -0.724  1.00  0.00     0.108 A   
ATOM     28  O2  UNL     1      -6.303   2.792   0.874  1.00  0.00    -0.316 OA  
ATOM     29  O3  UNL     1      -7.245   4.164  -0.874  1.00  0.00    -0.316 OA  
ATOM     30  C20 UNL     1      -7.487   3.139   0.116  1.00  0.00     0.337 C   
ENDBRANCH  21  22
ENDBRANCH  18  21
ENDBRANCH  17  18
BRANCH  17  31
ATOM     31  C21 UNL     1      -0.731   1.508  -2.137  1.00  0.00     0.043 C   
ATOM     32  C22 UNL     1       0.678   1.770  -2.705  1.00  0.00     0.010 C   
ATOM     33  C26 UNL     1      -1.015  -0.007  -2.102  1.00  0.00     0.010 C   
ATOM     34  C23 UNL     1       0.865   1.117  -4.074  1.00  0.00     0.001 C   
ATOM     35  C25 UNL     1      -0.844  -0.642  -3.480  1.00  0.00     0.001 C   
ATOM     36  C24 UNL     1       0.547  -0.375  -4.048  1.00  0.00     0.000 C   
ENDBRANCH  17  31
ENDBRANCH   3  17
TORSDOF 8
