REMARK SMILES CC(C)C[C@H]([NH2+]Cc1ccc2c(c1)OCO2)c1cn(CCc2ccccc2F)nn1
REMARK SMILES IDX 17 1 18 2 19 3 29 4 30 5 5 7 4 8 2 9 1 10 3 11 6 12 7 15
REMARK SMILES IDX 8 16 9 17 13 18 10 19 12 20 11 21 14 22 16 23 15 24 20 25
REMARK SMILES IDX 21 26 22 27 23 28 27 29 24 30 26 31 25 32 28 33
REMARK H PARENT 18 6 6 13 6 14
ROOT
ATOM     1   C14 UNL     1       1.457   0.194   1.455  1.00  0.00     0.127 A   
ATOM     2   C15 UNL     1       0.307   0.377   2.191  1.00  0.00     0.045 A   
ATOM     3   N2  UNL     1       0.502   1.579   2.810  1.00  0.00    -0.212 N   
ATOM     4   N3  UNL     1       1.690   2.111   2.469  1.00  0.00    -0.076 NA  
ATOM     5   N4  UNL     1       2.288   1.268   1.643  1.00  0.00    -0.132 NA  
ATOM     6   H20 UNL     1      -0.597  -0.203   2.319  1.00  0.00     0.083 HD  
ENDROOT
BRANCH   1   7
ATOM     7   C5  UNL     1       1.852  -0.887   0.507  1.00  0.00     0.114 C   
BRANCH   7   8
ATOM     8   C4  UNL     1       2.840  -1.892   1.132  1.00  0.00     0.064 C   
BRANCH   8   9
ATOM     9   C2  UNL     1       2.291  -2.695   2.331  1.00  0.00    -0.012 C   
ATOM     10  C1  UNL     1       3.391  -3.602   2.890  1.00  0.00     0.007 C   
ATOM     11  C3  UNL     1       1.069  -3.536   1.961  1.00  0.00     0.007 C   
ENDBRANCH   8   9
ENDBRANCH   7   8
BRANCH   7  12
ATOM     12  N1  UNL     1       2.545  -0.291  -0.704  1.00  0.00     0.249 N   
ATOM     13  H11 UNL     1       3.325   0.273  -0.341  1.00  0.00     0.199 HD  
ATOM     14  H12 UNL     1       2.946  -1.038  -1.279  1.00  0.00     0.199 HD  
BRANCH  12  15
ATOM     15  C6  UNL     1       1.718   0.605  -1.568  1.00  0.00     0.164 C   
BRANCH  15  16
ATOM     16  C7  UNL     1       0.551  -0.098  -2.202  1.00  0.00    -0.002 A   
ATOM     17  C8  UNL     1      -0.762   0.135  -1.726  1.00  0.00     0.012 A   
ATOM     18  C12 UNL     1       0.755  -1.017  -3.246  1.00  0.00     0.045 A   
ATOM     19  C9  UNL     1      -1.858  -0.537  -2.276  1.00  0.00     0.037 A   
ATOM     20  C11 UNL     1      -0.347  -1.664  -3.765  1.00  0.00     0.109 A   
ATOM     21  C10 UNL     1      -1.616  -1.432  -3.295  1.00  0.00     0.108 A   
ATOM     22  O1  UNL     1      -0.325  -2.582  -4.766  1.00  0.00    -0.316 OA  
ATOM     23  O2  UNL     1      -2.553  -2.172  -3.942  1.00  0.00    -0.316 OA  
ATOM     24  C13 UNL     1      -1.733  -2.882  -4.896  1.00  0.00     0.337 C   
ENDBRANCH  15  16
ENDBRANCH  12  15
ENDBRANCH   7  12
ENDBRANCH   1   7
BRANCH   3  25
ATOM     25  C16 UNL     1      -0.395   2.278   3.704  1.00  0.00     0.139 C   
BRANCH  25  26
ATOM     26  C17 UNL     1      -1.035   3.514   3.068  1.00  0.00     0.060 C   
BRANCH  26  27
ATOM     27  C18 UNL     1      -1.843   3.247   1.819  1.00  0.00    -0.011 A   
ATOM     28  C19 UNL     1      -1.547   3.920   0.625  1.00  0.00     0.007 A   
ATOM     29  C23 UNL     1      -2.926   2.362   1.829  1.00  0.00     0.126 A   
ATOM     30  C20 UNL     1      -2.316   3.704  -0.522  1.00  0.00     0.000 A   
ATOM     31  C22 UNL     1      -3.694   2.138   0.690  1.00  0.00     0.039 A   
ATOM     32  C21 UNL     1      -3.389   2.814  -0.490  1.00  0.00     0.003 A   
ATOM     33  F1  UNL     1      -3.238   1.703   2.954  1.00  0.00    -0.207 F   
ENDBRANCH  26  27
ENDBRANCH  25  26
ENDBRANCH   3  25
TORSDOF 9
