REMARK SMILES Cc1c(F)cccc1CCn1cc([C@@H]([NH2+]Cc2ccc3c(c2)OCO3)C2CCCCC2)nn1
REMARK SMILES IDX 11 1 12 2 13 3 32 4 33 5 10 7 9 8 8 9 2 10 3 11 5 12 7 13
REMARK SMILES IDX 6 14 1 15 4 16 14 17 15 18 16 21 17 22 18 23 22 24 19 25
REMARK SMILES IDX 21 26 20 27 23 28 25 29 24 30 26 31 27 32 31 33 28 34 30 35
REMARK SMILES IDX 29 36
REMARK H PARENT 12 6 15 19 15 20
ROOT
ATOM     1   N1  UNL     1      -2.503  -0.393  -1.407  1.00  0.00    -0.212 N   
ATOM     2   C10 UNL     1      -1.467   0.078  -0.651  1.00  0.00     0.045 A   
ATOM     3   C11 UNL     1      -1.426  -0.779   0.425  1.00  0.00     0.127 A   
ATOM     4   N3  UNL     1      -2.452  -1.684   0.317  1.00  0.00    -0.132 NA  
ATOM     5   N4  UNL     1      -3.111  -1.429  -0.801  1.00  0.00    -0.076 NA  
ATOM     6   H11 UNL     1      -0.862   0.921  -0.957  1.00  0.00     0.083 HD  
ENDROOT
BRANCH   1   7
ATOM     7   C9  UNL     1      -2.975   0.097  -2.685  1.00  0.00     0.139 C   
BRANCH   7   8
ATOM     8   C8  UNL     1      -2.491  -0.745  -3.866  1.00  0.00     0.057 C   
BRANCH   8   9
ATOM     9   C7  UNL     1      -0.982  -0.781  -4.012  1.00  0.00    -0.041 A   
ATOM     10  C2  UNL     1      -0.232   0.306  -4.509  1.00  0.00    -0.012 A   
ATOM     11  C3  UNL     1       1.167   0.194  -4.548  1.00  0.00     0.126 A   
ATOM     12  C4  UNL     1       1.823  -0.965  -4.151  1.00  0.00     0.039 A   
ATOM     13  C6  UNL     1      -0.306  -1.953  -3.614  1.00  0.00     0.004 A   
ATOM     14  C5  UNL     1       1.084  -2.047  -3.691  1.00  0.00     0.003 A   
ATOM     15  C1  UNL     1      -0.856   1.595  -4.963  1.00  0.00     0.048 C   
ATOM     16  F1  UNL     1       1.906   1.228  -4.975  1.00  0.00    -0.207 F   
ENDBRANCH   8   9
ENDBRANCH   7   8
ENDBRANCH   1   7
BRANCH   3  17
ATOM     17  C12 UNL     1      -0.531  -0.820   1.621  1.00  0.00     0.117 C   
BRANCH  17  18
ATOM     18  N2  UNL     1      -1.306  -1.323   2.822  1.00  0.00     0.249 N   
ATOM     19  H13 UNL     1      -0.666  -1.636   3.557  1.00  0.00     0.199 HD  
ATOM     20  H14 UNL     1      -1.830  -2.149   2.498  1.00  0.00     0.199 HD  
BRANCH  18  21
ATOM     21  C13 UNL     1      -2.303  -0.377   3.405  1.00  0.00     0.164 C   
BRANCH  21  22
ATOM     22  C14 UNL     1      -1.659   0.789   4.103  1.00  0.00    -0.002 A   
ATOM     23  C15 UNL     1      -1.702   2.081   3.525  1.00  0.00     0.012 A   
ATOM     24  C19 UNL     1      -0.988   0.599   5.324  1.00  0.00     0.045 A   
ATOM     25  C16 UNL     1      -1.080   3.168   4.148  1.00  0.00     0.037 A   
ATOM     26  C18 UNL     1      -0.387   1.693   5.912  1.00  0.00     0.109 A   
ATOM     27  C17 UNL     1      -0.430   2.941   5.340  1.00  0.00     0.108 A   
ATOM     28  O1  UNL     1       0.299   1.680   7.084  1.00  0.00    -0.316 OA  
ATOM     29  O2  UNL     1       0.223   3.872   6.082  1.00  0.00    -0.316 OA  
ATOM     30  C20 UNL     1       0.663   3.075   7.202  1.00  0.00     0.337 C   
ENDBRANCH  21  22
ENDBRANCH  18  21
ENDBRANCH  17  18
BRANCH  17  31
ATOM     31  C21 UNL     1       0.728  -1.714   1.447  1.00  0.00     0.043 C   
ATOM     32  C22 UNL     1       1.682  -1.150   0.375  1.00  0.00     0.010 C   
ATOM     33  C26 UNL     1       0.421  -3.196   1.156  1.00  0.00     0.010 C   
ATOM     34  C23 UNL     1       2.958  -1.981   0.259  1.00  0.00     0.001 C   
ATOM     35  C25 UNL     1       1.702  -4.022   1.042  1.00  0.00     0.001 C   
ATOM     36  C24 UNL     1       2.651  -3.451  -0.004  1.00  0.00     0.000 C   
ENDBRANCH  17  31
ENDBRANCH   3  17
TORSDOF 8
