REMARK SMILES Cc1csc(C[C@@H](C)n2cc([C@H](CC(C)C)[NH2+]Cc3ccc4c(c3)OCO4)nn2)n1
REMARK SMILES IDX 9 1 10 2 11 3 28 4 29 5 7 7 8 8 6 9 5 10 2 11 3 12 30 13
REMARK SMILES IDX 4 14 1 15 12 16 13 17 14 18 15 19 16 20 17 21 18 24 19 25
REMARK SMILES IDX 20 26 24 27 21 28 23 29 22 30 25 31 27 32 26 33
REMARK H PARENT 10 6 17 22 17 23
ROOT
ATOM     1   N1  UNL     1      -1.161   0.084  -3.234  1.00  0.00    -0.209 N   
ATOM     2   C8  UNL     1      -0.363  -0.621  -2.378  1.00  0.00     0.046 A   
ATOM     3   C9  UNL     1      -1.164  -0.852  -1.284  1.00  0.00     0.127 A   
ATOM     4   N3  UNL     1      -2.406  -0.321  -1.514  1.00  0.00    -0.132 NA  
ATOM     5   N4  UNL     1      -2.390   0.254  -2.704  1.00  0.00    -0.076 NA  
ATOM     6   H11 UNL     1       0.673  -0.843  -2.596  1.00  0.00     0.083 HD  
ENDROOT
BRANCH   1   7
ATOM     7   C6  UNL     1      -0.862   0.652  -4.541  1.00  0.00     0.103 C   
ATOM     8   C7  UNL     1       0.197  -0.123  -5.333  1.00  0.00     0.031 C   
BRANCH   7   9
ATOM     9   C5  UNL     1      -0.594   2.164  -4.468  1.00  0.00     0.088 C   
BRANCH   9  10
ATOM     10  C4  UNL     1       0.691   2.556  -3.795  1.00  0.00     0.080 A   
ATOM     11  C2  UNL     1       2.580   2.450  -2.638  1.00  0.00     0.045 A   
ATOM     12  C3  UNL     1       2.651   3.765  -3.052  1.00  0.00     0.070 A   
ATOM     13  N5  UNL     1       1.437   1.775  -3.041  1.00  0.00    -0.250 NA  
ATOM     14  S1  UNL     1       1.278   4.163  -3.988  1.00  0.00    -0.081 S   
ATOM     15  C1  UNL     1       3.603   1.728  -1.839  1.00  0.00     0.067 C   
ENDBRANCH   9  10
ENDBRANCH   7   9
ENDBRANCH   1   7
BRANCH   3  16
ATOM     16  C10 UNL     1      -0.867  -1.484   0.035  1.00  0.00     0.114 C   
BRANCH  16  17
ATOM     17  C11 UNL     1      -1.258  -2.976   0.027  1.00  0.00     0.064 C   
BRANCH  17  18
ATOM     18  C12 UNL     1      -0.939  -3.776   1.307  1.00  0.00    -0.012 C   
ATOM     19  C13 UNL     1      -1.365  -5.236   1.119  1.00  0.00     0.007 C   
ATOM     20  C14 UNL     1       0.542  -3.717   1.685  1.00  0.00     0.007 C   
ENDBRANCH  17  18
ENDBRANCH  16  17
BRANCH  16  21
ATOM     21  N2  UNL     1      -1.636  -0.776   1.125  1.00  0.00     0.249 N   
ATOM     22  H22 UNL     1      -2.610  -0.722   0.793  1.00  0.00     0.199 HD  
ATOM     23  H23 UNL     1      -1.636  -1.321   1.990  1.00  0.00     0.199 HD  
BRANCH  21  24
ATOM     24  C15 UNL     1      -1.196   0.617   1.436  1.00  0.00     0.164 C   
BRANCH  24  25
ATOM     25  C16 UNL     1       0.133   0.657   2.139  1.00  0.00    -0.002 A   
ATOM     26  C17 UNL     1       0.233   0.281   3.501  1.00  0.00     0.012 A   
ATOM     27  C21 UNL     1       1.292   1.030   1.437  1.00  0.00     0.045 A   
ATOM     28  C18 UNL     1       1.470   0.270   4.154  1.00  0.00     0.037 A   
ATOM     29  C20 UNL     1       2.496   1.005   2.110  1.00  0.00     0.109 A   
ATOM     30  C19 UNL     1       2.582   0.635   3.429  1.00  0.00     0.108 A   
ATOM     31  O1  UNL     1       3.706   1.323   1.580  1.00  0.00    -0.316 OA  
ATOM     32  O2  UNL     1       3.857   0.677   3.897  1.00  0.00    -0.316 OA  
ATOM     33  C22 UNL     1       4.565   1.143   2.730  1.00  0.00     0.337 C   
ENDBRANCH  24  25
ENDBRANCH  21  24
ENDBRANCH  16  21
ENDBRANCH   3  16
TORSDOF 9
