REMARK SMILES Cc1csc(C[C@H](C)n2cc([C@H](CC(C)C)[NH2+]Cc3ccc4c(c3)OCO4)nn2)n1
REMARK SMILES IDX 9 1 10 2 11 3 28 4 29 5 7 7 8 8 6 9 5 10 2 11 3 12 30 13
REMARK SMILES IDX 4 14 1 15 12 16 13 17 14 18 15 19 16 20 17 21 18 24 19 25
REMARK SMILES IDX 20 26 24 27 21 28 23 29 22 30 25 31 27 32 26 33
REMARK H PARENT 10 6 17 22 17 23
ROOT
ATOM     1   N1  UNL     1      -0.583  -2.612   2.489  1.00  0.00    -0.209 N   
ATOM     2   C8  UNL     1      -0.502  -1.919   1.315  1.00  0.00     0.046 A   
ATOM     3   C9  UNL     1       0.851  -1.768   1.114  1.00  0.00     0.127 A   
ATOM     4   N3  UNL     1       1.531  -2.395   2.124  1.00  0.00    -0.132 NA  
ATOM     5   N4  UNL     1       0.644  -2.916   2.955  1.00  0.00    -0.076 NA  
ATOM     6   H11 UNL     1      -1.378  -1.551   0.799  1.00  0.00     0.083 HD  
ENDROOT
BRANCH   1   7
ATOM     7   C6  UNL     1      -1.781  -2.921   3.259  1.00  0.00     0.103 C   
ATOM     8   C7  UNL     1      -1.962  -4.433   3.399  1.00  0.00     0.031 C   
BRANCH   7   9
ATOM     9   C5  UNL     1      -1.766  -2.236   4.635  1.00  0.00     0.088 C   
BRANCH   9  10
ATOM     10  C4  UNL     1      -1.733  -0.735   4.539  1.00  0.00     0.080 A   
ATOM     11  C2  UNL     1      -1.962   1.318   3.732  1.00  0.00     0.045 A   
ATOM     12  C3  UNL     1      -1.574   1.629   5.021  1.00  0.00     0.070 A   
ATOM     13  N5  UNL     1      -2.024  -0.039   3.458  1.00  0.00    -0.250 NA  
ATOM     14  S1  UNL     1      -1.300   0.197   5.918  1.00  0.00    -0.081 S   
ATOM     15  C1  UNL     1      -2.307   2.289   2.663  1.00  0.00     0.067 C   
ENDBRANCH   9  10
ENDBRANCH   7   9
ENDBRANCH   1   7
BRANCH   3  16
ATOM     16  C10 UNL     1       1.602  -0.957   0.112  1.00  0.00     0.114 C   
BRANCH  16  17
ATOM     17  C11 UNL     1       2.392  -1.820  -0.886  1.00  0.00     0.064 C   
BRANCH  17  18
ATOM     18  C12 UNL     1       1.520  -2.713  -1.794  1.00  0.00    -0.012 C   
ATOM     19  C13 UNL     1       2.419  -3.568  -2.692  1.00  0.00     0.007 C   
ATOM     20  C14 UNL     1       0.558  -1.899  -2.660  1.00  0.00     0.007 C   
ENDBRANCH  17  18
ENDBRANCH  16  17
BRANCH  16  21
ATOM     21  N2  UNL     1       2.561  -0.084   0.893  1.00  0.00     0.249 N   
ATOM     22  H22 UNL     1       3.232  -0.708   1.362  1.00  0.00     0.199 HD  
ATOM     23  H23 UNL     1       2.016   0.317   1.669  1.00  0.00     0.199 HD  
BRANCH  21  24
ATOM     24  C15 UNL     1       3.263   1.017   0.189  1.00  0.00     0.164 C   
BRANCH  24  25
ATOM     25  C16 UNL     1       2.330   1.987  -0.483  1.00  0.00    -0.002 A   
ATOM     26  C17 UNL     1       2.280   2.064  -1.895  1.00  0.00     0.012 A   
ATOM     27  C21 UNL     1       1.479   2.803   0.285  1.00  0.00     0.045 A   
ATOM     28  C18 UNL     1       1.392   2.933  -2.538  1.00  0.00     0.037 A   
ATOM     29  C20 UNL     1       0.611   3.645  -0.381  1.00  0.00     0.109 A   
ATOM     30  C19 UNL     1       0.568   3.707  -1.752  1.00  0.00     0.108 A   
ATOM     31  O1  UNL     1      -0.281   4.485   0.206  1.00  0.00    -0.316 OA  
ATOM     32  O2  UNL     1      -0.354   4.597  -2.201  1.00  0.00    -0.316 OA  
ATOM     33  C22 UNL     1      -0.874   5.110  -0.956  1.00  0.00     0.337 C   
ENDBRANCH  24  25
ENDBRANCH  21  24
ENDBRANCH  16  21
ENDBRANCH   3  16
TORSDOF 9
