REMARK SMILES COc1cc(O)ccc1Cn1cc([C@H](CC(C)C)[NH2+]Cc2ccc3c(c2)OCO3)nn1
REMARK SMILES IDX 11 1 12 2 13 3 30 4 31 5 10 7 9 8 3 9 4 10 5 11 8 12 7 13
REMARK SMILES IDX 2 14 1 15 6 16 14 18 15 19 16 20 17 21 18 22 19 23 20 26
REMARK SMILES IDX 21 27 22 28 26 29 23 30 25 31 24 32 27 33 29 34 28 35
REMARK H PARENT 12 6 6 17 19 24 19 25
ROOT
ATOM     1   N1  UNL     1      -1.377  -0.496  -2.140  1.00  0.00    -0.208 N   
ATOM     2   C9  UNL     1      -0.507   0.318  -1.468  1.00  0.00     0.046 A   
ATOM     3   C10 UNL     1       0.733  -0.099  -1.894  1.00  0.00     0.127 A   
ATOM     4   N3  UNL     1       0.582  -1.088  -2.831  1.00  0.00    -0.132 NA  
ATOM     5   N4  UNL     1      -0.713  -1.325  -2.971  1.00  0.00    -0.076 NA  
ATOM     6   H10 UNL     1      -0.841   1.043  -0.739  1.00  0.00     0.083 HD  
ENDROOT
BRANCH   1   7
ATOM     7   C8  UNL     1      -2.818  -0.592  -1.985  1.00  0.00     0.172 C   
BRANCH   7   8
ATOM     8   C7  UNL     1      -3.164  -1.560  -0.877  1.00  0.00     0.002 A   
ATOM     9   C2  UNL     1      -3.243  -1.140   0.466  1.00  0.00     0.082 A   
ATOM     10  C3  UNL     1      -3.515  -2.077   1.467  1.00  0.00     0.067 A   
ATOM     11  C4  UNL     1      -3.720  -3.413   1.133  1.00  0.00     0.074 A   
ATOM     12  C6  UNL     1      -3.371  -2.917  -1.189  1.00  0.00     0.011 A   
ATOM     13  C5  UNL     1      -3.654  -3.843  -0.186  1.00  0.00     0.034 A   
BRANCH   9  14
ATOM     14  O1  UNL     1      -3.007   0.191   0.697  1.00  0.00    -0.349 OA  
ATOM     15  C1  UNL     1      -3.398   0.698   1.972  1.00  0.00     0.203 C   
ENDBRANCH   9  14
BRANCH  11  16
ATOM     16  O2  UNL     1      -3.976  -4.283   2.151  1.00  0.00    -0.361 OA  
ATOM     17  H5  UNL     1      -4.208  -5.152   1.778  1.00  0.00     0.218 HD  
ENDBRANCH  11  16
ENDBRANCH   7   8
ENDBRANCH   1   7
BRANCH   3  18
ATOM     18  C11 UNL     1       2.098   0.288  -1.434  1.00  0.00     0.114 C   
BRANCH  18  19
ATOM     19  C12 UNL     1       2.758   1.257  -2.437  1.00  0.00     0.064 C   
BRANCH  19  20
ATOM     20  C13 UNL     1       4.164   1.774  -2.068  1.00  0.00    -0.012 C   
ATOM     21  C14 UNL     1       4.198   2.465  -0.705  1.00  0.00     0.007 C   
ATOM     22  C15 UNL     1       4.653   2.741  -3.151  1.00  0.00     0.007 C   
ENDBRANCH  19  20
ENDBRANCH  18  19
BRANCH  18  23
ATOM     23  N2  UNL     1       2.980  -0.930  -1.274  1.00  0.00     0.249 N   
ATOM     24  H21 UNL     1       3.048  -1.367  -2.203  1.00  0.00     0.199 HD  
ATOM     25  H22 UNL     1       3.922  -0.647  -0.995  1.00  0.00     0.199 HD  
BRANCH  23  26
ATOM     26  C16 UNL     1       2.500  -1.987  -0.328  1.00  0.00     0.164 C   
BRANCH  26  27
ATOM     27  C17 UNL     1       2.268  -1.484   1.070  1.00  0.00    -0.002 A   
ATOM     28  C18 UNL     1       0.951  -1.406   1.585  1.00  0.00     0.012 A   
ATOM     29  C22 UNL     1       3.348  -1.067   1.867  1.00  0.00     0.045 A   
ATOM     30  C19 UNL     1       0.708  -0.910   2.870  1.00  0.00     0.037 A   
ATOM     31  C21 UNL     1       3.073  -0.583   3.130  1.00  0.00     0.109 A   
ATOM     32  C20 UNL     1       1.792  -0.504   3.617  1.00  0.00     0.108 A   
ATOM     33  O3  UNL     1       3.997  -0.138   4.021  1.00  0.00    -0.316 OA  
ATOM     34  O4  UNL     1       1.747   0.001   4.877  1.00  0.00    -0.316 OA  
ATOM     35  C23 UNL     1       3.152   0.192   5.149  1.00  0.00     0.337 C   
ENDBRANCH  26  27
ENDBRANCH  23  26
ENDBRANCH  18  23
ENDBRANCH   3  18
TORSDOF 10
