REMARK SMILES Oc1ccc(O)c(CCn2cc([C@@H]([NH2+]Cc3ccc4c(c3)OCO4)C3CCCC3)nn2)c1
REMARK SMILES IDX 10 1 11 2 12 3 30 4 31 5 9 7 8 8 7 9 2 10 3 11 32 12 4 13
REMARK SMILES IDX 5 14 1 15 6 17 13 19 14 20 15 23 16 24 17 25 21 26 18 27
REMARK SMILES IDX 20 28 19 29 22 30 24 31 23 32 25 33 26 34 29 35 27 36 28 37
REMARK H PARENT 11 6 1 16 6 18 14 21 14 22
ROOT
ATOM     1   N1  UNL     1       0.218  -2.962   1.914  1.00  0.00    -0.212 N   
ATOM     2   C8  UNL     1      -0.574  -1.848   2.020  1.00  0.00     0.045 A   
ATOM     3   C9  UNL     1       0.321  -0.798   2.014  1.00  0.00     0.127 A   
ATOM     4   N3  UNL     1       1.595  -1.314   2.057  1.00  0.00    -0.132 NA  
ATOM     5   N4  UNL     1       1.518  -2.632   1.989  1.00  0.00    -0.076 NA  
ATOM     6   H9  UNL     1      -1.650  -1.917   1.966  1.00  0.00     0.083 HD  
ENDROOT
BRANCH   1   7
ATOM     7   C7  UNL     1      -0.187  -4.288   1.480  1.00  0.00     0.139 C   
BRANCH   7   8
ATOM     8   C6  UNL     1       0.020  -4.486  -0.029  1.00  0.00     0.060 C   
BRANCH   8   9
ATOM     9   C5  UNL     1      -0.798  -3.513  -0.858  1.00  0.00    -0.014 A   
ATOM     10  C1  UNL     1      -1.027  -1.316  -1.849  1.00  0.00     0.072 A   
ATOM     11  C2  UNL     1      -2.341  -1.590  -2.209  1.00  0.00     0.036 A   
ATOM     12  C24 UNL     1      -0.246  -2.272  -1.214  1.00  0.00     0.039 A   
ATOM     13  C3  UNL     1      -2.892  -2.833  -1.890  1.00  0.00     0.036 A   
ATOM     14  C4  UNL     1      -2.128  -3.775  -1.200  1.00  0.00     0.075 A   
BRANCH  10  15
ATOM     15  O1  UNL     1      -0.489  -0.075  -2.047  1.00  0.00    -0.361 OA  
ATOM     16  H1  UNL     1      -0.879   0.259  -2.883  1.00  0.00     0.218 HD  
ENDBRANCH  10  15
BRANCH  14  17
ATOM     17  O2  UNL     1      -2.677  -4.963  -0.816  1.00  0.00    -0.361 OA  
ATOM     18  H4  UNL     1      -3.532  -5.083  -1.266  1.00  0.00     0.218 HD  
ENDBRANCH  14  17
ENDBRANCH   8   9
ENDBRANCH   7   8
ENDBRANCH   1   7
BRANCH   3  19
ATOM     19  C10 UNL     1       0.152   0.682   1.867  1.00  0.00     0.117 C   
BRANCH  19  20
ATOM     20  N2  UNL     1       0.519   1.133   0.468  1.00  0.00     0.249 N   
ATOM     21  H11 UNL     1       0.111   2.051   0.273  1.00  0.00     0.199 HD  
ATOM     22  H12 UNL     1       0.099   0.496  -0.233  1.00  0.00     0.199 HD  
BRANCH  20  23
ATOM     23  C11 UNL     1       1.982   1.204   0.180  1.00  0.00     0.164 C   
BRANCH  23  24
ATOM     24  C12 UNL     1       2.239   1.774  -1.190  1.00  0.00    -0.002 A   
ATOM     25  C13 UNL     1       2.720   0.939  -2.227  1.00  0.00     0.012 A   
ATOM     26  C17 UNL     1       1.979   3.130  -1.459  1.00  0.00     0.045 A   
ATOM     27  C14 UNL     1       2.950   1.445  -3.511  1.00  0.00     0.037 A   
ATOM     28  C16 UNL     1       2.203   3.594  -2.740  1.00  0.00     0.109 A   
ATOM     29  C15 UNL     1       2.681   2.776  -3.736  1.00  0.00     0.108 A   
ATOM     30  O3  UNL     1       1.986   4.865  -3.170  1.00  0.00    -0.316 OA  
ATOM     31  O4  UNL     1       2.840   3.432  -4.914  1.00  0.00    -0.316 OA  
ATOM     32  C18 UNL     1       2.406   4.762  -4.551  1.00  0.00     0.337 C   
ENDBRANCH  23  24
ENDBRANCH  20  23
ENDBRANCH  19  20
BRANCH  19  33
ATOM     33  C19 UNL     1      -1.231   1.276   2.204  1.00  0.00     0.043 C   
ATOM     34  C20 UNL     1      -2.373   0.968   1.225  1.00  0.00     0.010 C   
ATOM     35  C23 UNL     1      -1.773   0.928   3.603  1.00  0.00     0.010 C   
ATOM     36  C21 UNL     1      -3.624   1.159   2.068  1.00  0.00     0.001 C   
ATOM     37  C22 UNL     1      -3.239   0.552   3.406  1.00  0.00     0.001 C   
ENDBRANCH  19  33
ENDBRANCH   3  19
TORSDOF 10
