REMARK SMILES CC(C)C[C@H]([NH2+]Cc1ccc2c(c1)OCO2)c1cn(CCc2ccnn2C(C)C)nn1
REMARK SMILES IDX 17 1 18 2 19 3 30 4 31 5 5 7 4 8 2 9 1 10 3 11 6 12 7 15
REMARK SMILES IDX 8 16 9 17 13 18 10 19 12 20 11 21 14 22 16 23 15 24 20 25
REMARK SMILES IDX 21 26 22 27 23 28 26 29 24 30 25 31 27 32 28 33 29 34
REMARK H PARENT 18 6 6 13 6 14
ROOT
ATOM     1   C14 UNL     1      -0.101   1.131  -1.514  1.00  0.00     0.127 A   
ATOM     2   C15 UNL     1       0.440   0.994  -2.774  1.00  0.00     0.045 A   
ATOM     3   N2  UNL     1       1.720   1.458  -2.629  1.00  0.00    -0.212 N   
ATOM     4   N5  UNL     1       1.898   2.009  -1.414  1.00  0.00    -0.076 NA  
ATOM     5   N6  UNL     1       0.793   1.796  -0.714  1.00  0.00    -0.132 NA  
ATOM     6   H20 UNL     1       0.108   0.486  -3.670  1.00  0.00     0.083 HD  
ENDROOT
BRANCH   1   7
ATOM     7   C5  UNL     1      -1.338   0.527  -0.929  1.00  0.00     0.114 C   
BRANCH   7   8
ATOM     8   C4  UNL     1      -2.245   1.571  -0.244  1.00  0.00     0.064 C   
BRANCH   8   9
ATOM     9   C2  UNL     1      -3.237   2.284  -1.192  1.00  0.00    -0.012 C   
ATOM     10  C1  UNL     1      -2.562   3.086  -2.305  1.00  0.00     0.007 C   
ATOM     11  C3  UNL     1      -4.147   3.208  -0.377  1.00  0.00     0.007 C   
ENDBRANCH   8   9
ENDBRANCH   7   8
BRANCH   7  12
ATOM     12  N1  UNL     1      -0.897  -0.494   0.091  1.00  0.00     0.249 N   
ATOM     13  H11 UNL     1      -0.508   0.000   0.902  1.00  0.00     0.199 HD  
ATOM     14  H12 UNL     1      -0.072  -1.013  -0.286  1.00  0.00     0.199 HD  
BRANCH  12  15
ATOM     15  C6  UNL     1      -1.872  -1.523   0.517  1.00  0.00     0.164 C   
BRANCH  15  16
ATOM     16  C7  UNL     1      -1.348  -2.319   1.679  1.00  0.00    -0.002 A   
ATOM     17  C8  UNL     1      -0.800  -3.607   1.478  1.00  0.00     0.012 A   
ATOM     18  C12 UNL     1      -1.355  -1.766   2.973  1.00  0.00     0.045 A   
ATOM     19  C9  UNL     1      -0.277  -4.342   2.547  1.00  0.00     0.037 A   
ATOM     20  C11 UNL     1      -0.825  -2.514   4.005  1.00  0.00     0.109 A   
ATOM     21  C10 UNL     1      -0.304  -3.768   3.799  1.00  0.00     0.108 A   
ATOM     22  O1  UNL     1      -0.748  -2.127   5.306  1.00  0.00    -0.316 OA  
ATOM     23  O2  UNL     1       0.160  -4.333   4.944  1.00  0.00    -0.316 OA  
ATOM     24  C13 UNL     1      -0.111  -3.284   5.898  1.00  0.00     0.337 C   
ENDBRANCH  15  16
ENDBRANCH  12  15
ENDBRANCH   7  12
ENDBRANCH   1   7
BRANCH   3  25
ATOM     25  C16 UNL     1       2.864   1.090  -3.445  1.00  0.00     0.140 C   
BRANCH  25  26
ATOM     26  C17 UNL     1       3.678  -0.073  -2.841  1.00  0.00     0.074 C   
BRANCH  26  27
ATOM     27  C18 UNL     1       2.793  -1.161  -2.304  1.00  0.00     0.032 A   
ATOM     28  C19 UNL     1       2.078  -2.138  -2.967  1.00  0.00     0.043 A   
ATOM     29  N4  UNL     1       2.488  -1.336  -0.968  1.00  0.00    -0.227 N   
ATOM     30  C20 UNL     1       1.231  -2.690  -1.992  1.00  0.00     0.133 A   
ATOM     31  N3  UNL     1       1.352  -2.075  -0.809  1.00  0.00    -0.190 NA  
BRANCH  29  32
ATOM     32  C21 UNL     1       3.256  -0.882   0.196  1.00  0.00     0.092 C   
ATOM     33  C22 UNL     1       4.388  -1.869   0.481  1.00  0.00     0.030 C   
ATOM     34  C23 UNL     1       2.414  -0.670   1.457  1.00  0.00     0.030 C   
ENDBRANCH  29  32
ENDBRANCH  26  27
ENDBRANCH  25  26
ENDBRANCH   3  25
TORSDOF 10
