REMARK SMILES CC(C)(C)[C@H]([NH2+]Cc1ccc2c(c1)OCO2)c1cn(CCc2cccc(F)c2F)nn1
REMARK SMILES IDX 17 1 18 2 19 3 30 4 31 5 5 7 2 8 1 9 3 10 4 11 6 12 7 15
REMARK SMILES IDX 8 16 9 17 13 18 10 19 12 20 11 21 14 22 16 23 15 24 20 25
REMARK SMILES IDX 21 26 22 27 23 28 28 29 24 30 26 31 25 32 29 33 27 34
REMARK H PARENT 18 6 6 13 6 14
ROOT
ATOM     1   C14 UNL     1       1.686   0.554   0.519  1.00  0.00     0.127 A   
ATOM     2   C15 UNL     1       2.161   0.716  -0.764  1.00  0.00     0.045 A   
ATOM     3   N2  UNL     1       3.193  -0.176  -0.844  1.00  0.00    -0.212 N   
ATOM     4   N3  UNL     1       3.374  -0.812   0.327  1.00  0.00    -0.076 NA  
ATOM     5   N4  UNL     1       2.453  -0.379   1.169  1.00  0.00    -0.132 NA  
ATOM     6   H20 UNL     1       1.840   1.312  -1.606  1.00  0.00     0.083 HD  
ENDROOT
BRANCH   1   7
ATOM     7   C5  UNL     1       0.483   1.120   1.210  1.00  0.00     0.120 C   
BRANCH   7   8
ATOM     8   C2  UNL     1       0.778   2.385   2.089  1.00  0.00     0.010 C   
ATOM     9   C1  UNL     1       1.448   3.483   1.230  1.00  0.00     0.017 C   
ATOM     10  C3  UNL     1      -0.543   2.981   2.628  1.00  0.00     0.017 C   
ATOM     11  C4  UNL     1       1.698   2.079   3.287  1.00  0.00     0.017 C   
ENDBRANCH   7   8
BRANCH   7  12
ATOM     12  N1  UNL     1      -0.138   0.022   2.055  1.00  0.00     0.250 N   
ATOM     13  H11 UNL     1      -0.722   0.403   2.801  1.00  0.00     0.199 HD  
ATOM     14  H12 UNL     1       0.652  -0.461   2.511  1.00  0.00     0.199 HD  
BRANCH  12  15
ATOM     15  C6  UNL     1      -0.915  -1.016   1.314  1.00  0.00     0.164 C   
BRANCH  15  16
ATOM     16  C7  UNL     1      -2.207  -0.483   0.756  1.00  0.00    -0.002 A   
ATOM     17  C8  UNL     1      -2.386  -0.370  -0.642  1.00  0.00     0.012 A   
ATOM     18  C12 UNL     1      -3.237  -0.070   1.619  1.00  0.00     0.045 A   
ATOM     19  C9  UNL     1      -3.567   0.156  -1.177  1.00  0.00     0.037 A   
ATOM     20  C11 UNL     1      -4.387   0.447   1.060  1.00  0.00     0.109 A   
ATOM     21  C10 UNL     1      -4.547   0.558  -0.299  1.00  0.00     0.108 A   
ATOM     22  O1  UNL     1      -5.467   0.898   1.750  1.00  0.00    -0.316 OA  
ATOM     23  O2  UNL     1      -5.749   1.093  -0.637  1.00  0.00    -0.316 OA  
ATOM     24  C13 UNL     1      -6.342   1.284   0.666  1.00  0.00     0.337 C   
ENDBRANCH  15  16
ENDBRANCH  12  15
ENDBRANCH   7  12
ENDBRANCH   1   7
BRANCH   3  25
ATOM     25  C16 UNL     1       3.965  -0.552  -2.010  1.00  0.00     0.139 C   
BRANCH  25  26
ATOM     26  C17 UNL     1       3.174  -1.395  -3.017  1.00  0.00     0.060 C   
BRANCH  26  27
ATOM     27  C18 UNL     1       2.694  -2.711  -2.458  1.00  0.00    -0.008 A   
ATOM     28  C19 UNL     1       3.513  -3.848  -2.481  1.00  0.00     0.007 A   
ATOM     29  C23 UNL     1       1.434  -2.811  -1.857  1.00  0.00     0.162 A   
ATOM     30  C20 UNL     1       3.074  -5.050  -1.914  1.00  0.00     0.004 A   
ATOM     31  C22 UNL     1       1.008  -4.000  -1.277  1.00  0.00     0.159 A   
ATOM     32  C21 UNL     1       1.819  -5.126  -1.306  1.00  0.00     0.042 A   
ATOM     33  F2  UNL     1       0.631  -1.736  -1.809  1.00  0.00    -0.203 F   
ATOM     34  F1  UNL     1      -0.184  -4.050  -0.663  1.00  0.00    -0.204 F   
ENDBRANCH  26  27
ENDBRANCH  25  26
ENDBRANCH   3  25
TORSDOF 8
