REMARK SMILES CC(C)(C)[C@H]([NH2+]Cc1ccc2c(c1)OCO2)c1cn(C[C@@H](O)c2ccc(Cl)cn2)nn1
REMARK SMILES IDX 17 1 18 2 19 3 30 4 31 5 5 7 2 8 1 9 3 10 4 11 6 12 7 15
REMARK SMILES IDX 8 16 9 17 13 18 10 19 12 20 11 21 14 22 16 23 15 24 20 25
REMARK SMILES IDX 21 26 22 27 23 29 24 30 29 31 25 32 28 33 26 34 27 35
REMARK H PARENT 18 6 6 13 6 14 22 28
ROOT
ATOM     1   C14 UNL     1      -1.571  -0.082  -0.121  1.00  0.00     0.127 A   
ATOM     2   C15 UNL     1      -2.861  -0.384  -0.496  1.00  0.00     0.046 A   
ATOM     3   N2  UNL     1      -3.214  -1.407   0.336  1.00  0.00    -0.209 N   
ATOM     4   N4  UNL     1      -2.252  -1.639   1.249  1.00  0.00    -0.076 NA  
ATOM     5   N5  UNL     1      -1.232  -0.846   0.969  1.00  0.00    -0.132 NA  
ATOM     6   H20 UNL     1      -3.513  -0.029  -1.284  1.00  0.00     0.083 HD  
ENDROOT
BRANCH   1   7
ATOM     7   C5  UNL     1      -0.589   0.912  -0.660  1.00  0.00     0.120 C   
BRANCH   7   8
ATOM     8   C2  UNL     1       0.326   0.347  -1.805  1.00  0.00     0.010 C   
ATOM     9   C1  UNL     1       1.234   1.463  -2.372  1.00  0.00     0.017 C   
ATOM     10  C3  UNL     1       1.225  -0.812  -1.330  1.00  0.00     0.017 C   
ATOM     11  C4  UNL     1      -0.542  -0.162  -2.979  1.00  0.00     0.017 C   
ENDBRANCH   7   8
BRANCH   7  12
ATOM     12  N1  UNL     1       0.257   1.426   0.481  1.00  0.00     0.250 N   
ATOM     13  H11 UNL     1       0.547   0.601   1.028  1.00  0.00     0.199 HD  
ATOM     14  H12 UNL     1       1.119   1.872   0.161  1.00  0.00     0.199 HD  
BRANCH  12  15
ATOM     15  C6  UNL     1      -0.435   2.353   1.420  1.00  0.00     0.164 C   
BRANCH  15  16
ATOM     16  C7  UNL     1       0.501   2.786   2.513  1.00  0.00    -0.002 A   
ATOM     17  C8  UNL     1       0.659   1.989   3.671  1.00  0.00     0.012 A   
ATOM     18  C12 UNL     1       1.265   3.956   2.367  1.00  0.00     0.045 A   
ATOM     19  C9  UNL     1       1.554   2.359   4.680  1.00  0.00     0.037 A   
ATOM     20  C11 UNL     1       2.139   4.293   3.380  1.00  0.00     0.109 A   
ATOM     21  C10 UNL     1       2.280   3.518   4.504  1.00  0.00     0.108 A   
ATOM     22  O1  UNL     1       2.940   5.389   3.401  1.00  0.00    -0.316 OA  
ATOM     23  O2  UNL     1       3.187   4.029   5.375  1.00  0.00    -0.316 OA  
ATOM     24  C13 UNL     1       3.592   5.229   4.681  1.00  0.00     0.337 C   
ENDBRANCH  15  16
ENDBRANCH  12  15
ENDBRANCH   7  12
ENDBRANCH   1   7
BRANCH   3  25
ATOM     25  C16 UNL     1      -4.429  -2.198   0.330  1.00  0.00     0.172 C   
BRANCH  25  26
ATOM     26  C17 UNL     1      -4.520  -3.155  -0.861  1.00  0.00     0.182 C   
BRANCH  26  27
ATOM     27  O3  UNL     1      -4.766  -2.394  -2.057  1.00  0.00    -0.385 OA  
ATOM     28  H24 UNL     1      -4.107  -2.721  -2.707  1.00  0.00     0.211 HD  
ENDBRANCH  26  27
BRANCH  26  29
ATOM     29  C18 UNL     1      -3.293  -4.031  -1.042  1.00  0.00     0.071 A   
ATOM     30  C19 UNL     1      -3.009  -5.069  -0.157  1.00  0.00     0.028 A   
ATOM     31  N3  UNL     1      -2.494  -3.732  -2.105  1.00  0.00    -0.257 NA  
ATOM     32  C20 UNL     1      -1.857  -5.829  -0.358  1.00  0.00     0.024 A   
ATOM     33  C22 UNL     1      -1.384  -4.495  -2.274  1.00  0.00     0.131 A   
ATOM     34  C21 UNL     1      -1.028  -5.536  -1.432  1.00  0.00     0.059 A   
ATOM     35  CL1 UNL     1       0.406  -6.436  -1.705  1.00  0.00    -0.083 Cl  
ENDBRANCH  26  29
ENDBRANCH  25  26
ENDBRANCH   3  25
TORSDOF 9
