REMARK SMILES CC(C)(C)[C@H]([NH2+]Cc1ccc2c(c1)OCO2)c1cn(C[C@H](O)c2ccc(Cl)cn2)nn1
REMARK SMILES IDX 17 1 18 2 19 3 30 4 31 5 5 7 2 8 1 9 3 10 4 11 6 12 7 15
REMARK SMILES IDX 8 16 9 17 13 18 10 19 12 20 11 21 14 22 16 23 15 24 20 25
REMARK SMILES IDX 21 26 22 27 23 29 24 30 29 31 25 32 28 33 26 34 27 35
REMARK H PARENT 18 6 6 13 6 14 22 28
ROOT
ATOM     1   C14 UNL     1       0.608   1.905  -1.190  1.00  0.00     0.127 A   
ATOM     2   C15 UNL     1       0.101   3.049  -0.616  1.00  0.00     0.046 A   
ATOM     3   N2  UNL     1      -1.216   3.041  -0.979  1.00  0.00    -0.209 N   
ATOM     4   N4  UNL     1      -1.494   1.990  -1.772  1.00  0.00    -0.076 NA  
ATOM     5   N5  UNL     1      -0.386   1.279  -1.900  1.00  0.00    -0.132 NA  
ATOM     6   H20 UNL     1       0.511   3.800   0.046  1.00  0.00     0.083 HD  
ENDROOT
BRANCH   1   7
ATOM     7   C5  UNL     1       1.930   1.222  -1.020  1.00  0.00     0.120 C   
BRANCH   7   8
ATOM     8   C2  UNL     1       2.932   1.441  -2.203  1.00  0.00     0.010 C   
ATOM     9   C1  UNL     1       4.306   0.821  -1.861  1.00  0.00     0.017 C   
ATOM     10  C3  UNL     1       2.442   0.824  -3.528  1.00  0.00     0.017 C   
ATOM     11  C4  UNL     1       3.161   2.953  -2.426  1.00  0.00     0.017 C   
ENDBRANCH   7   8
BRANCH   7  12
ATOM     12  N1  UNL     1       1.659  -0.251  -0.812  1.00  0.00     0.250 N   
ATOM     13  H11 UNL     1       2.482  -0.837  -0.969  1.00  0.00     0.199 HD  
ATOM     14  H12 UNL     1       0.973  -0.518  -1.534  1.00  0.00     0.199 HD  
BRANCH  12  15
ATOM     15  C6  UNL     1       1.059  -0.597   0.509  1.00  0.00     0.164 C   
BRANCH  15  16
ATOM     16  C7  UNL     1       0.504  -1.992   0.491  1.00  0.00    -0.002 A   
ATOM     17  C8  UNL     1      -0.777  -2.231  -0.064  1.00  0.00     0.012 A   
ATOM     18  C12 UNL     1       1.262  -3.069   0.977  1.00  0.00     0.045 A   
ATOM     19  C9  UNL     1      -1.306  -3.525  -0.119  1.00  0.00     0.037 A   
ATOM     20  C11 UNL     1       0.711  -4.332   0.905  1.00  0.00     0.109 A   
ATOM     21  C10 UNL     1      -0.536  -4.554   0.374  1.00  0.00     0.108 A   
ATOM     22  O1  UNL     1       1.307  -5.478   1.328  1.00  0.00    -0.316 OA  
ATOM     23  O2  UNL     1      -0.883  -5.867   0.398  1.00  0.00    -0.316 OA  
ATOM     24  C13 UNL     1       0.283  -6.450   1.017  1.00  0.00     0.337 C   
ENDBRANCH  15  16
ENDBRANCH  12  15
ENDBRANCH   7  12
ENDBRANCH   1   7
BRANCH   3  25
ATOM     25  C16 UNL     1      -2.271   3.936  -0.550  1.00  0.00     0.172 C   
BRANCH  25  26
ATOM     26  C17 UNL     1      -2.777   3.620   0.860  1.00  0.00     0.182 C   
BRANCH  26  27
ATOM     27  O3  UNL     1      -1.753   3.948   1.817  1.00  0.00    -0.385 OA  
ATOM     28  H24 UNL     1      -1.739   3.195   2.445  1.00  0.00     0.211 HD  
ENDBRANCH  26  27
BRANCH  26  29
ATOM     29  C18 UNL     1      -3.234   2.183   1.060  1.00  0.00     0.071 A   
ATOM     30  C19 UNL     1      -4.384   1.703   0.433  1.00  0.00     0.028 A   
ATOM     31  N3  UNL     1      -2.474   1.411   1.890  1.00  0.00    -0.257 NA  
ATOM     32  C20 UNL     1      -4.776   0.384   0.660  1.00  0.00     0.024 A   
ATOM     33  C22 UNL     1      -2.900   0.139   2.106  1.00  0.00     0.131 A   
ATOM     34  C21 UNL     1      -4.024  -0.412   1.513  1.00  0.00     0.059 A   
ATOM     35  CL1 UNL     1      -4.468  -2.041   1.814  1.00  0.00    -0.083 Cl  
ENDBRANCH  26  29
ENDBRANCH  25  26
ENDBRANCH   3  25
TORSDOF 9
