REMARK SMILES O=C(c1cncc(O)c1)n1cc([C@@H]([NH2+]Cc2ccc3c(c2)OCO3)C2CCCCC2)nn1
REMARK SMILES IDX 10 1 11 2 12 3 31 4 32 5 2 6 1 7 3 8 4 9 9 10 5 11 7 12 6 13
REMARK SMILES IDX 8 14 13 16 14 17 15 20 16 21 17 22 21 23 18 24 20 25 19 26
REMARK SMILES IDX 22 27 24 28 23 29 25 30 26 31 30 32 27 33 29 34 28 35
REMARK H PARENT 8 15 14 18 14 19
ROOT
ATOM     1   N2  UNL     1      -1.424   1.394   2.117  1.00  0.00    -0.143 N   
ATOM     2   C7  UNL     1      -0.332   1.356   1.268  1.00  0.00     0.139 A   
ATOM     3   C8  UNL     1      -0.558   0.285   0.436  1.00  0.00     0.128 A   
ATOM     4   N4  UNL     1      -1.734  -0.316   0.801  1.00  0.00    -0.131 NA  
ATOM     5   N5  UNL     1      -2.246   0.357   1.821  1.00  0.00    -0.068 NA  
ENDROOT
BRANCH   1   6
ATOM     6   C1  UNL     1      -1.674   2.284   3.173  1.00  0.00     0.272 C   
ATOM     7   O1  UNL     1      -0.788   3.109   3.392  1.00  0.00    -0.269 OA  
BRANCH   6   8
ATOM     8   C2  UNL     1      -2.875   2.291   4.040  1.00  0.00     0.060 A   
ATOM     9   C3  UNL     1      -2.740   2.777   5.338  1.00  0.00     0.124 A   
ATOM     10  C6  UNL     1      -4.141   1.865   3.626  1.00  0.00     0.050 A   
ATOM     11  N1  UNL     1      -3.752   2.828   6.235  1.00  0.00    -0.261 NA  
ATOM     12  C5  UNL     1      -5.195   1.917   4.533  1.00  0.00     0.090 A   
ATOM     13  C4  UNL     1      -4.961   2.395   5.813  1.00  0.00     0.144 A   
BRANCH  12  14
ATOM     14  O2  UNL     1      -6.451   1.512   4.200  1.00  0.00    -0.359 OA  
ATOM     15  H3  UNL     1      -6.475   1.216   3.275  1.00  0.00     0.218 HD  
ENDBRANCH  12  14
ENDBRANCH   6   8
ENDBRANCH   1   6
BRANCH   3  16
ATOM     16  C9  UNL     1       0.273  -0.299  -0.669  1.00  0.00     0.117 C   
BRANCH  16  17
ATOM     17  N3  UNL     1       0.088  -1.801  -0.648  1.00  0.00     0.249 N   
ATOM     18  H7  UNL     1      -0.904  -2.003  -0.829  1.00  0.00     0.199 HD  
ATOM     19  H8  UNL     1       0.223  -2.098   0.327  1.00  0.00     0.199 HD  
BRANCH  17  20
ATOM     20  C10 UNL     1       0.955  -2.650  -1.507  1.00  0.00     0.164 C   
BRANCH  20  21
ATOM     21  C11 UNL     1       2.415  -2.529  -1.172  1.00  0.00    -0.002 A   
ATOM     22  C12 UNL     1       2.931  -3.129   0.003  1.00  0.00     0.012 A   
ATOM     23  C16 UNL     1       3.273  -1.788  -2.003  1.00  0.00     0.045 A   
ATOM     24  C13 UNL     1       4.280  -2.989   0.348  1.00  0.00     0.037 A   
ATOM     25  C15 UNL     1       4.596  -1.669  -1.632  1.00  0.00     0.109 A   
ATOM     26  C14 UNL     1       5.086  -2.252  -0.489  1.00  0.00     0.108 A   
ATOM     27  O3  UNL     1       5.550  -0.984  -2.316  1.00  0.00    -0.316 OA  
ATOM     28  O4  UNL     1       6.410  -2.009  -0.311  1.00  0.00    -0.316 OA  
ATOM     29  C17 UNL     1       6.711  -1.230  -1.489  1.00  0.00     0.337 C   
ENDBRANCH  20  21
ENDBRANCH  17  20
ENDBRANCH  16  17
BRANCH  16  30
ATOM     30  C18 UNL     1      -0.046   0.282  -2.073  1.00  0.00     0.043 C   
ATOM     31  C19 UNL     1      -1.495   0.051  -2.545  1.00  0.00     0.010 C   
ATOM     32  C23 UNL     1       0.306   1.782  -2.157  1.00  0.00     0.010 C   
ATOM     33  C20 UNL     1      -1.729   0.619  -3.945  1.00  0.00     0.001 C   
ATOM     34  C22 UNL     1       0.075   2.338  -3.561  1.00  0.00     0.001 C   
ATOM     35  C21 UNL     1      -1.356   2.095  -4.029  1.00  0.00     0.000 C   
ENDBRANCH  16  30
ENDBRANCH   3  16
TORSDOF 8
