REMARK SMILES COc1c(C)cccc1CCn1cc([C@@H]([NH2+]Cc2ccc3c(c2)OCO3)C(C)(C)C)nn1
REMARK SMILES IDX 12 1 13 2 14 3 31 4 32 5 11 7 10 8 9 9 3 10 4 11 6 12 8 13
REMARK SMILES IDX 7 14 5 15 2 16 1 17 15 18 16 19 17 22 18 23 19 24 23 25
REMARK SMILES IDX 20 26 22 27 21 28 24 29 26 30 25 31 27 32 28 33 29 34 30 35
REMARK H PARENT 13 6 16 20 16 21
ROOT
ATOM     1   N1  UNL     1      -2.901   1.363   0.579  1.00  0.00    -0.212 N   
ATOM     2   C11 UNL     1      -2.369   0.305   1.262  1.00  0.00     0.045 A   
ATOM     3   C12 UNL     1      -1.106   0.736   1.599  1.00  0.00     0.127 A   
ATOM     4   N3  UNL     1      -0.935   2.025   1.159  1.00  0.00    -0.132 NA  
ATOM     5   N4  UNL     1      -2.043   2.398   0.542  1.00  0.00    -0.076 NA  
ATOM     6   H14 UNL     1      -2.892  -0.634   1.373  1.00  0.00     0.083 HD  
ENDROOT
BRANCH   1   7
ATOM     7   C10 UNL     1      -4.167   1.427  -0.118  1.00  0.00     0.139 C   
BRANCH   7   8
ATOM     8   C9  UNL     1      -4.039   1.080  -1.603  1.00  0.00     0.059 C   
BRANCH   8   9
ATOM     9   C8  UNL     1      -3.670  -0.370  -1.845  1.00  0.00    -0.016 A   
ATOM     10  C2  UNL     1      -2.372  -0.771  -2.214  1.00  0.00     0.081 A   
ATOM     11  C3  UNL     1      -2.036  -2.131  -2.331  1.00  0.00    -0.021 A   
ATOM     12  C5  UNL     1      -3.040  -3.091  -2.149  1.00  0.00     0.006 A   
ATOM     13  C7  UNL     1      -4.650  -1.357  -1.660  1.00  0.00     0.006 A   
ATOM     14  C6  UNL     1      -4.338  -2.707  -1.818  1.00  0.00     0.001 A   
ATOM     15  C4  UNL     1      -0.656  -2.589  -2.713  1.00  0.00     0.047 C   
BRANCH  10  16
ATOM     16  O1  UNL     1      -1.394   0.178  -2.389  1.00  0.00    -0.349 OA  
ATOM     17  C1  UNL     1      -1.331   0.561  -3.769  1.00  0.00     0.203 C   
ENDBRANCH  10  16
ENDBRANCH   8   9
ENDBRANCH   7   8
ENDBRANCH   1   7
BRANCH   3  18
ATOM     18  C13 UNL     1       0.059   0.001   2.186  1.00  0.00     0.120 C   
BRANCH  18  19
ATOM     19  N2  UNL     1       1.290   0.385   1.397  1.00  0.00     0.250 N   
ATOM     20  H16 UNL     1       1.242   1.408   1.269  1.00  0.00     0.199 HD  
ATOM     21  H17 UNL     1       2.161   0.200   1.897  1.00  0.00     0.199 HD  
BRANCH  19  22
ATOM     22  C14 UNL     1       1.367  -0.215   0.035  1.00  0.00     0.164 C   
BRANCH  22  23
ATOM     23  C15 UNL     1       2.485   0.404  -0.754  1.00  0.00    -0.002 A   
ATOM     24  C16 UNL     1       2.223   1.510  -1.599  1.00  0.00     0.012 A   
ATOM     25  C20 UNL     1       3.800  -0.072  -0.619  1.00  0.00     0.045 A   
ATOM     26  C17 UNL     1       3.254   2.126  -2.315  1.00  0.00     0.037 A   
ATOM     27  C19 UNL     1       4.794   0.563  -1.335  1.00  0.00     0.109 A   
ATOM     28  C18 UNL     1       4.530   1.629  -2.160  1.00  0.00     0.108 A   
ATOM     29  O2  UNL     1       6.112   0.232  -1.318  1.00  0.00    -0.316 OA  
ATOM     30  O3  UNL     1       5.648   2.100  -2.770  1.00  0.00    -0.316 OA  
ATOM     31  C21 UNL     1       6.652   1.214  -2.232  1.00  0.00     0.337 C   
ENDBRANCH  22  23
ENDBRANCH  19  22
ENDBRANCH  18  19
BRANCH  18  32
ATOM     32  C22 UNL     1       0.282   0.248   3.716  1.00  0.00     0.010 C   
ATOM     33  C23 UNL     1      -1.001  -0.109   4.500  1.00  0.00     0.017 C   
ATOM     34  C24 UNL     1       0.662   1.706   4.040  1.00  0.00     0.017 C   
ATOM     35  C25 UNL     1       1.406  -0.674   4.245  1.00  0.00     0.017 C   
ENDBRANCH  18  32
ENDBRANCH   3  18
TORSDOF 9
