REMARK SMILES CC(C)[C@H]([NH2+]Cc1ccc2c(c1)OCO2)c1cn(CCc2cnn(C(C)C)c2)nn1
REMARK SMILES IDX 16 1 17 2 18 3 29 4 30 5 4 7 2 8 1 9 3 10 5 11 6 14 7 15
REMARK SMILES IDX 8 16 12 17 9 18 11 19 10 20 13 21 15 22 14 23 19 24 20 25
REMARK SMILES IDX 21 26 22 27 28 28 23 29 24 30 25 31 26 32 27 33
REMARK H PARENT 17 6 5 12 5 13
ROOT
ATOM     1   C13 UNL     1      -0.224   0.837  -3.158  1.00  0.00     0.127 A   
ATOM     2   C14 UNL     1       0.970   1.526  -3.090  1.00  0.00     0.045 A   
ATOM     3   N2  UNL     1       1.900   0.617  -3.523  1.00  0.00    -0.212 N   
ATOM     4   N5  UNL     1       1.299  -0.478  -4.021  1.00  0.00    -0.076 NA  
ATOM     5   N6  UNL     1      -0.003  -0.354  -3.804  1.00  0.00    -0.132 NA  
ATOM     6   H18 UNL     1       1.264   2.464  -2.643  1.00  0.00     0.083 HD  
ENDROOT
BRANCH   1   7
ATOM     7   C4  UNL     1      -1.575   1.107  -2.562  1.00  0.00     0.117 C   
BRANCH   7   8
ATOM     8   C2  UNL     1      -1.848   2.597  -2.219  1.00  0.00     0.037 C   
ATOM     9   C1  UNL     1      -1.207   3.086  -0.913  1.00  0.00     0.014 C   
ATOM     10  C3  UNL     1      -3.357   2.874  -2.168  1.00  0.00     0.014 C   
ENDBRANCH   7   8
BRANCH   7  11
ATOM     11  N1  UNL     1      -1.819   0.244  -1.347  1.00  0.00     0.249 N   
ATOM     12  H9  UNL     1      -2.438   0.698  -0.674  1.00  0.00     0.199 HD  
ATOM     13  H10 UNL     1      -0.925   0.118  -0.823  1.00  0.00     0.199 HD  
BRANCH  11  14
ATOM     14  C5  UNL     1      -2.358  -1.115  -1.628  1.00  0.00     0.164 C   
BRANCH  14  15
ATOM     15  C6  UNL     1      -2.546  -1.906  -0.360  1.00  0.00    -0.002 A   
ATOM     16  C7  UNL     1      -3.548  -1.553   0.578  1.00  0.00     0.012 A   
ATOM     17  C11 UNL     1      -1.693  -2.989  -0.083  1.00  0.00     0.045 A   
ATOM     18  C8  UNL     1      -3.686  -2.257   1.781  1.00  0.00     0.037 A   
ATOM     19  C10 UNL     1      -1.856  -3.661   1.109  1.00  0.00     0.109 A   
ATOM     20  C9  UNL     1      -2.821  -3.303   2.019  1.00  0.00     0.108 A   
ATOM     21  O1  UNL     1      -1.110  -4.718   1.526  1.00  0.00    -0.316 OA  
ATOM     22  O2  UNL     1      -2.802  -4.087   3.130  1.00  0.00    -0.316 OA  
ATOM     23  C12 UNL     1      -1.720  -4.991   2.809  1.00  0.00     0.337 C   
ENDBRANCH  14  15
ENDBRANCH  11  14
ENDBRANCH   7  11
ENDBRANCH   1   7
BRANCH   3  24
ATOM     24  C15 UNL     1       3.307   0.589  -3.160  1.00  0.00     0.139 C   
BRANCH  24  25
ATOM     25  C16 UNL     1       3.591  -0.319  -1.946  1.00  0.00     0.060 C   
BRANCH  25  26
ATOM     26  C17 UNL     1       2.612  -0.118  -0.831  1.00  0.00    -0.011 A   
ATOM     27  C18 UNL     1       1.387  -0.803  -0.667  1.00  0.00     0.136 A   
ATOM     28  C22 UNL     1       2.624   0.790   0.204  1.00  0.00     0.101 A   
ATOM     29  N3  UNL     1       0.585  -0.209   0.226  1.00  0.00    -0.190 NA  
ATOM     30  N4  UNL     1       1.430   0.647   0.861  1.00  0.00    -0.230 N   
BRANCH  30  31
ATOM     31  C19 UNL     1       0.996   1.298   2.097  1.00  0.00     0.091 C   
ATOM     32  C20 UNL     1       1.467   2.748   2.215  1.00  0.00     0.030 C   
ATOM     33  C21 UNL     1       1.427   0.482   3.313  1.00  0.00     0.030 C   
ENDBRANCH  30  31
ENDBRANCH  25  26
ENDBRANCH  24  25
ENDBRANCH   3  24
TORSDOF 9
