REMARK SMILES Cn1cnc(Cl)c1Cn1cc([C@@H]([NH2+]Cc2ccc3c(c2)OCO3)C2CCCCC2)nn1
REMARK SMILES IDX 9 1 10 2 11 3 30 4 31 5 8 7 7 8 2 9 3 10 4 11 5 12 1 13 6 14
REMARK SMILES IDX 12 15 13 16 14 19 15 20 16 21 20 22 17 23 19 24 18 25 21 26
REMARK SMILES IDX 23 27 22 28 24 29 25 30 29 31 26 32 28 33 27 34
REMARK H PARENT 10 6 13 17 13 18
ROOT
ATOM     1   N3  UNL     1       0.567   0.753   2.949  1.00  0.00    -0.206 N   
ATOM     2   C6  UNL     1       0.590   1.065   1.619  1.00  0.00     0.046 A   
ATOM     3   C7  UNL     1      -0.609   0.579   1.142  1.00  0.00     0.127 A   
ATOM     4   N5  UNL     1      -1.310   0.015   2.176  1.00  0.00    -0.132 NA  
ATOM     5   N6  UNL     1      -0.590   0.138   3.280  1.00  0.00    -0.076 NA  
ATOM     6   H7  UNL     1       1.438   1.544   1.147  1.00  0.00     0.083 HD  
ENDROOT
BRANCH   1   7
ATOM     7   C5  UNL     1       1.632   0.912   3.930  1.00  0.00     0.188 C   
BRANCH   7   8
ATOM     8   C4  UNL     1       2.240  -0.411   4.245  1.00  0.00     0.068 A   
ATOM     9   N1  UNL     1       2.039  -1.116   5.411  1.00  0.00    -0.294 N   
ATOM     10  C2  UNL     1       2.723  -2.297   5.304  1.00  0.00     0.190 A   
ATOM     11  N2  UNL     1       3.337  -2.394   4.147  1.00  0.00    -0.227 NA  
ATOM     12  C3  UNL     1       3.063  -1.226   3.487  1.00  0.00     0.149 A   
ATOM     13  C1  UNL     1       1.279  -0.714   6.571  1.00  0.00     0.137 C   
ATOM     14  CL1 UNL     1       3.649  -0.914   1.920  1.00  0.00    -0.060 Cl  
ENDBRANCH   7   8
ENDBRANCH   1   7
BRANCH   3  15
ATOM     15  C8  UNL     1      -1.147   0.499  -0.248  1.00  0.00     0.117 C   
BRANCH  15  16
ATOM     16  N4  UNL     1      -1.719  -0.880  -0.499  1.00  0.00     0.249 N   
ATOM     17  H9  UNL     1      -2.297  -0.875  -1.343  1.00  0.00     0.199 HD  
ATOM     18  H10 UNL     1      -2.337  -1.089   0.296  1.00  0.00     0.199 HD  
BRANCH  16  19
ATOM     19  C9  UNL     1      -0.728  -1.996  -0.596  1.00  0.00     0.164 C   
BRANCH  19  20
ATOM     20  C10 UNL     1       0.129  -1.906  -1.830  1.00  0.00    -0.002 A   
ATOM     21  C11 UNL     1       1.487  -1.514  -1.729  1.00  0.00     0.012 A   
ATOM     22  C15 UNL     1      -0.421  -2.174  -3.095  1.00  0.00     0.045 A   
ATOM     23  C12 UNL     1       2.284  -1.377  -2.872  1.00  0.00     0.037 A   
ATOM     24  C14 UNL     1       0.392  -2.028  -4.200  1.00  0.00     0.109 A   
ATOM     25  C13 UNL     1       1.704  -1.636  -4.093  1.00  0.00     0.108 A   
ATOM     26  O1  UNL     1       0.017  -2.237  -5.487  1.00  0.00    -0.316 OA  
ATOM     27  O2  UNL     1       2.317  -1.542  -5.300  1.00  0.00    -0.316 OA  
ATOM     28  C16 UNL     1       1.253  -1.954  -6.184  1.00  0.00     0.337 C   
ENDBRANCH  19  20
ENDBRANCH  16  19
ENDBRANCH  15  16
BRANCH  15  29
ATOM     29  C17 UNL     1      -2.233   1.558  -0.583  1.00  0.00     0.043 C   
ATOM     30  C18 UNL     1      -3.520   1.451   0.261  1.00  0.00     0.010 C   
ATOM     31  C22 UNL     1      -1.664   2.991  -0.505  1.00  0.00     0.010 C   
ATOM     32  C19 UNL     1      -4.551   2.502  -0.153  1.00  0.00     0.001 C   
ATOM     33  C21 UNL     1      -2.702   4.036  -0.917  1.00  0.00     0.001 C   
ATOM     34  C20 UNL     1      -3.974   3.912  -0.086  1.00  0.00     0.000 C   
ENDBRANCH  15  29
ENDBRANCH   3  15
TORSDOF 7
