REMARK SMILES OC[C@@H](c1ccc(Cl)cc1)n1cc([C@@H]([NH2+]Cc2ccc3c(c2)OCO3)C2CCCC2)nn1
REMARK SMILES IDX 11 1 12 2 13 3 31 4 32 5 3 7 2 8 1 9 4 11 5 12 10 13 6 14
REMARK SMILES IDX 9 15 7 16 8 17 14 18 15 19 16 22 17 23 18 24 22 25 19 26
REMARK SMILES IDX 21 27 20 28 23 29 25 30 24 31 26 32 27 33 30 34 28 35 29 36
REMARK H PARENT 12 6 1 10 15 20 15 21
ROOT
ATOM     1   N1  UNL     1      -0.815  -0.379  -0.899  1.00  0.00    -0.202 N   
ATOM     2   C9  UNL     1       0.364  -0.227  -0.220  1.00  0.00     0.046 A   
ATOM     3   C10 UNL     1       0.440  -1.347   0.574  1.00  0.00     0.127 A   
ATOM     4   N3  UNL     1      -0.664  -2.131   0.356  1.00  0.00    -0.132 NA  
ATOM     5   N4  UNL     1      -1.428  -1.526  -0.538  1.00  0.00    -0.075 NA  
ATOM     6   H9  UNL     1       0.997   0.641  -0.353  1.00  0.00     0.083 HD  
ENDROOT
BRANCH   1   7
ATOM     7   C2  UNL     1      -1.409   0.491  -1.916  1.00  0.00     0.155 C   
BRANCH   7   8
ATOM     8   C1  UNL     1      -1.944   1.800  -1.288  1.00  0.00     0.185 C   
BRANCH   8   9
ATOM     9   O1  UNL     1      -0.937   2.561  -0.613  1.00  0.00    -0.394 OA  
ATOM     10  H1  UNL     1      -1.386   3.328  -0.201  1.00  0.00     0.210 HD  
ENDBRANCH   8   9
ENDBRANCH   7   8
BRANCH   7  11
ATOM     11  C3  UNL     1      -0.468   0.597  -3.114  1.00  0.00    -0.023 A   
ATOM     12  C4  UNL     1      -0.316  -0.524  -3.955  1.00  0.00     0.007 A   
ATOM     13  C8  UNL     1       0.280   1.749  -3.406  1.00  0.00     0.007 A   
ATOM     14  C5  UNL     1       0.557  -0.497  -5.044  1.00  0.00     0.021 A   
ATOM     15  C7  UNL     1       1.153   1.778  -4.499  1.00  0.00     0.021 A   
ATOM     16  C6  UNL     1       1.291   0.656  -5.310  1.00  0.00     0.041 A   
ATOM     17  CL1 UNL     1       2.376   0.690  -6.645  1.00  0.00    -0.084 Cl  
ENDBRANCH   7  11
ENDBRANCH   1   7
BRANCH   3  18
ATOM     18  C11 UNL     1       1.428  -1.750   1.618  1.00  0.00     0.117 C   
BRANCH  18  19
ATOM     19  N2  UNL     1       0.678  -2.452   2.734  1.00  0.00     0.249 N   
ATOM     20  H11 UNL     1      -0.201  -2.789   2.301  1.00  0.00     0.199 HD  
ATOM     21  H12 UNL     1       1.171  -3.297   3.039  1.00  0.00     0.199 HD  
BRANCH  19  22
ATOM     22  C12 UNL     1       0.321  -1.622   3.920  1.00  0.00     0.164 C   
BRANCH  22  23
ATOM     23  C13 UNL     1      -0.532  -0.422   3.602  1.00  0.00    -0.002 A   
ATOM     24  C14 UNL     1       0.018   0.884   3.646  1.00  0.00     0.012 A   
ATOM     25  C18 UNL     1      -1.876  -0.589   3.226  1.00  0.00     0.045 A   
ATOM     26  C15 UNL     1      -0.751   2.006   3.312  1.00  0.00     0.037 A   
ATOM     27  C17 UNL     1      -2.610   0.537   2.910  1.00  0.00     0.109 A   
ATOM     28  C16 UNL     1      -2.063   1.799   2.946  1.00  0.00     0.108 A   
ATOM     29  O2  UNL     1      -3.914   0.546   2.534  1.00  0.00    -0.316 OA  
ATOM     30  O3  UNL     1      -2.954   2.759   2.592  1.00  0.00    -0.316 OA  
ATOM     31  C19 UNL     1      -4.156   1.966   2.433  1.00  0.00     0.337 C   
ENDBRANCH  22  23
ENDBRANCH  19  22
ENDBRANCH  18  19
BRANCH  18  32
ATOM     32  C20 UNL     1       2.514  -2.693   1.066  1.00  0.00     0.043 C   
ATOM     33  C21 UNL     1       3.342  -2.061  -0.066  1.00  0.00     0.010 C   
ATOM     34  C24 UNL     1       3.591  -3.071   2.090  1.00  0.00     0.010 C   
ATOM     35  C22 UNL     1       4.721  -2.719  -0.014  1.00  0.00     0.001 C   
ATOM     36  C23 UNL     1       4.722  -3.608   1.223  1.00  0.00     0.001 C   
ENDBRANCH  18  32
ENDBRANCH   3  18
TORSDOF 9
