REMARK SMILES OC[C@H](c1ccc(Cl)cc1)n1cc([C@@H]([NH2+]Cc2ccc3c(c2)OCO3)C2CCCC2)nn1
REMARK SMILES IDX 11 1 12 2 13 3 31 4 32 5 3 7 2 8 1 9 4 11 5 12 10 13 6 14
REMARK SMILES IDX 9 15 7 16 8 17 14 18 15 19 16 22 17 23 18 24 22 25 19 26
REMARK SMILES IDX 21 27 20 28 23 29 25 30 24 31 26 32 27 33 30 34 28 35 29 36
REMARK H PARENT 12 6 1 10 15 20 15 21
ROOT
ATOM     1   N1  UNL     1       2.956  -1.045   2.127  1.00  0.00    -0.202 N   
ATOM     2   C9  UNL     1       1.678  -0.780   1.706  1.00  0.00     0.046 A   
ATOM     3   C10 UNL     1       1.631  -1.292   0.431  1.00  0.00     0.127 A   
ATOM     4   N3  UNL     1       2.859  -1.810   0.106  1.00  0.00    -0.132 NA  
ATOM     5   N4  UNL     1       3.659  -1.653   1.146  1.00  0.00    -0.075 NA  
ATOM     6   H9  UNL     1       0.956  -0.286   2.341  1.00  0.00     0.083 HD  
ENDROOT
BRANCH   1   7
ATOM     7   C2  UNL     1       3.592  -0.729   3.406  1.00  0.00     0.155 C   
BRANCH   7   8
ATOM     8   C1  UNL     1       3.004  -1.560   4.568  1.00  0.00     0.185 C   
BRANCH   8   9
ATOM     9   O1  UNL     1       1.595  -1.390   4.738  1.00  0.00    -0.394 OA  
ATOM     10  H1  UNL     1       1.337  -1.921   5.516  1.00  0.00     0.210 HD  
ENDBRANCH   8   9
ENDBRANCH   7   8
BRANCH   7  11
ATOM     11  C3  UNL     1       3.671   0.784   3.600  1.00  0.00    -0.023 A   
ATOM     12  C4  UNL     1       2.725   1.512   4.341  1.00  0.00     0.007 A   
ATOM     13  C8  UNL     1       4.727   1.492   2.989  1.00  0.00     0.007 A   
ATOM     14  C5  UNL     1       2.837   2.901   4.476  1.00  0.00     0.021 A   
ATOM     15  C7  UNL     1       4.838   2.879   3.125  1.00  0.00     0.021 A   
ATOM     16  C6  UNL     1       3.893   3.577   3.870  1.00  0.00     0.041 A   
ATOM     17  CL1 UNL     1       4.025   5.283   4.033  1.00  0.00    -0.084 Cl  
ENDBRANCH   7  11
ENDBRANCH   1   7
BRANCH   3  18
ATOM     18  C11 UNL     1       0.527  -1.333  -0.573  1.00  0.00     0.117 C   
BRANCH  18  19
ATOM     19  N2  UNL     1       1.109  -1.295  -1.967  1.00  0.00     0.249 N   
ATOM     20  H11 UNL     1       1.982  -1.841  -1.919  1.00  0.00     0.199 HD  
ATOM     21  H12 UNL     1       0.499  -1.772  -2.637  1.00  0.00     0.199 HD  
BRANCH  19  22
ATOM     22  C12 UNL     1       1.454   0.059  -2.486  1.00  0.00     0.164 C   
BRANCH  22  23
ATOM     23  C13 UNL     1       0.243   0.785  -3.004  1.00  0.00    -0.002 A   
ATOM     24  C14 UNL     1      -0.314   0.433  -4.260  1.00  0.00     0.012 A   
ATOM     25  C18 UNL     1      -0.372   1.788  -2.231  1.00  0.00     0.045 A   
ATOM     26  C15 UNL     1      -1.465   1.069  -4.741  1.00  0.00     0.037 A   
ATOM     27  C17 UNL     1      -1.509   2.389  -2.731  1.00  0.00     0.109 A   
ATOM     28  C16 UNL     1      -2.041   2.041  -3.951  1.00  0.00     0.108 A   
ATOM     29  O2  UNL     1      -2.226   3.363  -2.108  1.00  0.00    -0.316 OA  
ATOM     30  O3  UNL     1      -3.158   2.754  -4.251  1.00  0.00    -0.316 OA  
ATOM     31  C19 UNL     1      -3.253   3.619  -3.095  1.00  0.00     0.337 C   
ENDBRANCH  22  23
ENDBRANCH  19  22
ENDBRANCH  18  19
BRANCH  18  32
ATOM     32  C20 UNL     1      -0.362  -2.580  -0.399  1.00  0.00     0.043 C   
ATOM     33  C21 UNL     1      -1.648  -2.558  -1.249  1.00  0.00     0.010 C   
ATOM     34  C24 UNL     1       0.300  -3.931  -0.712  1.00  0.00     0.010 C   
ATOM     35  C22 UNL     1      -1.800  -3.961  -1.833  1.00  0.00     0.001 C   
ATOM     36  C23 UNL     1      -0.882  -4.841  -0.997  1.00  0.00     0.001 C   
ENDBRANCH  18  32
ENDBRANCH   3  18
TORSDOF 9
