REMARK SMILES Cc1nn2cc[nH]c2c1Cn1cc([C@@H]([NH2+]Cc2ccc3c(c2)OCO3)C(C)(C)C)nn1
REMARK SMILES IDX 11 1 12 2 13 3 30 4 31 5 10 7 9 8 2 9 3 10 4 11 8 12 5 13
REMARK SMILES IDX 7 14 6 15 1 16 14 18 15 19 16 22 17 23 18 24 22 25 19 26
REMARK SMILES IDX 21 27 20 28 23 29 25 30 24 31 26 32 27 33 28 34 29 35
REMARK H PARENT 12 6 7 17 15 20 15 21
ROOT
ATOM     1   N4  UNL     1       0.527   1.298   1.492  1.00  0.00    -0.208 N   
ATOM     2   C8  UNL     1       0.790   0.559   0.370  1.00  0.00     0.046 A   
ATOM     3   C9  UNL     1       0.049   1.175  -0.614  1.00  0.00     0.127 A   
ATOM     4   N6  UNL     1      -0.579   2.272  -0.084  1.00  0.00    -0.132 NA  
ATOM     5   N7  UNL     1      -0.279   2.338   1.203  1.00  0.00    -0.076 NA  
ATOM     6   H9  UNL     1       1.385  -0.344   0.398  1.00  0.00     0.083 HD  
ENDROOT
BRANCH   1   7
ATOM     7   C7  UNL     1       0.847   0.965   2.872  1.00  0.00     0.175 C   
BRANCH   7   8
ATOM     8   C6  UNL     1       0.040  -0.212   3.280  1.00  0.00     0.032 A   
ATOM     9   C2  UNL     1      -1.363  -0.275   3.591  1.00  0.00     0.064 A   
ATOM     10  N1  UNL     1      -1.795  -1.530   3.810  1.00  0.00    -0.180 NA  
ATOM     11  N2  UNL     1      -0.681  -2.268   3.727  1.00  0.00    -0.185 N   
ATOM     12  C5  UNL     1       0.421  -1.517   3.382  1.00  0.00     0.120 A   
ATOM     13  C3  UNL     1      -0.295  -3.587   3.889  1.00  0.00     0.118 A   
ATOM     14  N3  UNL     1       1.480  -2.359   3.282  1.00  0.00    -0.306 N   
ATOM     15  C4  UNL     1       1.031  -3.631   3.643  1.00  0.00     0.091 A   
ATOM     16  C1  UNL     1      -2.336   0.849   3.644  1.00  0.00     0.069 C   
ATOM     17  H6  UNL     1       2.461  -2.129   3.417  1.00  0.00     0.154 HD  
ENDBRANCH   7   8
ENDBRANCH   1   7
BRANCH   3  18
ATOM     18  C10 UNL     1      -0.253   0.743  -2.015  1.00  0.00     0.120 C   
BRANCH  18  19
ATOM     19  N5  UNL     1      -1.744   0.878  -2.270  1.00  0.00     0.250 N   
ATOM     20  H11 UNL     1      -1.963   0.682  -3.249  1.00  0.00     0.199 HD  
ATOM     21  H12 UNL     1      -1.985   1.862  -2.088  1.00  0.00     0.199 HD  
BRANCH  19  22
ATOM     22  C11 UNL     1      -2.649   0.051  -1.407  1.00  0.00     0.164 C   
BRANCH  22  23
ATOM     23  C12 UNL     1      -2.388  -1.426  -1.502  1.00  0.00    -0.002 A   
ATOM     24  C13 UNL     1      -1.885  -2.131  -0.380  1.00  0.00     0.012 A   
ATOM     25  C17 UNL     1      -2.619  -2.116  -2.704  1.00  0.00     0.045 A   
ATOM     26  C14 UNL     1      -1.600  -3.498  -0.457  1.00  0.00     0.037 A   
ATOM     27  C16 UNL     1      -2.328  -3.464  -2.744  1.00  0.00     0.109 A   
ATOM     28  C15 UNL     1      -1.830  -4.136  -1.655  1.00  0.00     0.108 A   
ATOM     29  O1  UNL     1      -2.486  -4.272  -3.826  1.00  0.00    -0.316 OA  
ATOM     30  O2  UNL     1      -1.612  -5.452  -1.913  1.00  0.00    -0.316 OA  
ATOM     31  C18 UNL     1      -2.064  -5.544  -3.281  1.00  0.00     0.337 C   
ENDBRANCH  22  23
ENDBRANCH  19  22
ENDBRANCH  18  19
BRANCH  18  32
ATOM     32  C19 UNL     1       0.565   1.505  -3.116  1.00  0.00     0.010 C   
ATOM     33  C20 UNL     1       2.080   1.344  -2.851  1.00  0.00     0.017 C   
ATOM     34  C21 UNL     1       0.243   3.012  -3.176  1.00  0.00     0.017 C   
ATOM     35  C22 UNL     1       0.283   0.898  -4.510  1.00  0.00     0.017 C   
ENDBRANCH  18  32
ENDBRANCH   3  18
TORSDOF 7
