REMARK SMILES Cc1ncccc1Cn1cc([C@@H]([NH2+]Cc2ccc3c(c2)OCO3)C2CCCC2)nn1
REMARK SMILES IDX 9 1 10 2 11 3 29 4 30 5 8 7 7 8 2 9 3 10 4 11 6 12 5 13 1 14
REMARK SMILES IDX 12 15 13 16 14 19 15 20 16 21 20 22 17 23 19 24 18 25 21 26
REMARK SMILES IDX 23 27 22 28 24 29 25 30 28 31 26 32 27 33
REMARK H PARENT 10 6 13 17 13 18
ROOT
ATOM     1   N2  UNL     1       1.952   0.356  -2.337  1.00  0.00    -0.208 N   
ATOM     2   C8  UNL     1       0.662  -0.072  -2.176  1.00  0.00     0.046 A   
ATOM     3   C9  UNL     1       0.056   0.949  -1.479  1.00  0.00     0.127 A   
ATOM     4   N4  UNL     1       0.970   1.947  -1.255  1.00  0.00    -0.132 NA  
ATOM     5   N5  UNL     1       2.121   1.578  -1.793  1.00  0.00    -0.076 NA  
ATOM     6   H9  UNL     1       0.315  -1.026  -2.548  1.00  0.00     0.083 HD  
ENDROOT
BRANCH   1   7
ATOM     7   C7  UNL     1       3.046  -0.291  -3.047  1.00  0.00     0.171 C   
BRANCH   7   8
ATOM     8   C6  UNL     1       3.274  -1.702  -2.571  1.00  0.00    -0.007 A   
ATOM     9   C2  UNL     1       3.940  -1.998  -1.374  1.00  0.00     0.042 A   
ATOM     10  N1  UNL     1       4.109  -3.269  -0.933  1.00  0.00    -0.261 NA  
ATOM     11  C3  UNL     1       3.637  -4.277  -1.696  1.00  0.00     0.111 A   
ATOM     12  C5  UNL     1       2.794  -2.778  -3.333  1.00  0.00     0.009 A   
ATOM     13  C4  UNL     1       2.980  -4.084  -2.894  1.00  0.00     0.020 A   
ATOM     14  C1  UNL     1       4.537  -0.929  -0.503  1.00  0.00     0.067 C   
ENDBRANCH   7   8
ENDBRANCH   1   7
BRANCH   3  15
ATOM     15  C10 UNL     1      -1.338   1.104  -0.964  1.00  0.00     0.117 C   
BRANCH  15  16
ATOM     16  N3  UNL     1      -1.345   2.005   0.251  1.00  0.00     0.249 N   
ATOM     17  H11 UNL     1      -0.471   2.555   0.198  1.00  0.00     0.199 HD  
ATOM     18  H12 UNL     1      -2.105   2.688   0.200  1.00  0.00     0.199 HD  
BRANCH  16  19
ATOM     19  C11 UNL     1      -1.389   1.326   1.575  1.00  0.00     0.164 C   
BRANCH  19  20
ATOM     20  C12 UNL     1      -0.157   0.527   1.890  1.00  0.00    -0.002 A   
ATOM     21  C13 UNL     1       1.036   1.182   2.279  1.00  0.00     0.012 A   
ATOM     22  C17 UNL     1      -0.170  -0.873   1.777  1.00  0.00     0.045 A   
ATOM     23  C14 UNL     1       2.198   0.455   2.558  1.00  0.00     0.037 A   
ATOM     24  C16 UNL     1       0.994  -1.560   2.052  1.00  0.00     0.109 A   
ATOM     25  C15 UNL     1       2.144  -0.915   2.435  1.00  0.00     0.108 A   
ATOM     26  O1  UNL     1       1.151  -2.908   1.984  1.00  0.00    -0.316 OA  
ATOM     27  O2  UNL     1       3.170  -1.775   2.662  1.00  0.00    -0.316 OA  
ATOM     28  C18 UNL     1       2.538  -3.042   2.377  1.00  0.00     0.337 C   
ENDBRANCH  19  20
ENDBRANCH  16  19
ENDBRANCH  15  16
BRANCH  15  29
ATOM     29  C19 UNL     1      -2.284   1.660  -2.049  1.00  0.00     0.043 C   
ATOM     30  C20 UNL     1      -3.769   1.696  -1.636  1.00  0.00     0.010 C   
ATOM     31  C23 UNL     1      -1.976   3.080  -2.544  1.00  0.00     0.010 C   
ATOM     32  C21 UNL     1      -4.321   3.028  -2.141  1.00  0.00     0.001 C   
ATOM     33  C22 UNL     1      -3.298   3.531  -3.145  1.00  0.00     0.001 C   
ENDBRANCH  15  29
ENDBRANCH   3  15
TORSDOF 7
