REMARK SMILES O=C(c1c[nH]c2ccccc12)n1cc([C@@H]([NH2+]Cc2ccc3c(c2)OCO3)C2CCCCC2)nn1
REMARK SMILES IDX 12 1 13 2 14 3 33 4 34 5 2 6 1 7 3 8 4 9 11 10 5 11 6 12
REMARK SMILES IDX 10 13 7 14 9 15 8 16 15 18 16 19 17 22 18 23 19 24 23 25
REMARK SMILES IDX 20 26 22 27 21 28 24 29 26 30 25 31 27 32 28 33 32 34 29 35
REMARK SMILES IDX 31 36 30 37
REMARK H PARENT 5 17 16 20 16 21
ROOT
ATOM     1   N2  UNL     1      -0.816   1.360  -1.384  1.00  0.00    -0.143 N   
ATOM     2   C10 UNL     1       0.146   1.551  -0.403  1.00  0.00     0.139 A   
ATOM     3   C11 UNL     1       0.418   0.296   0.086  1.00  0.00     0.128 A   
ATOM     4   N4  UNL     1      -0.369  -0.614  -0.566  1.00  0.00    -0.131 NA  
ATOM     5   N5  UNL     1      -1.104   0.035  -1.455  1.00  0.00    -0.068 NA  
ENDROOT
BRANCH   1   6
ATOM     6   C1  UNL     1      -1.388   2.320  -2.242  1.00  0.00     0.272 C   
ATOM     7   O1  UNL     1      -0.912   3.451  -2.143  1.00  0.00    -0.269 OA  
BRANCH   6   8
ATOM     8   C2  UNL     1      -2.433   2.028  -3.220  1.00  0.00     0.062 A   
ATOM     9   C3  UNL     1      -2.475   2.621  -4.472  1.00  0.00     0.086 A   
ATOM     10  C9  UNL     1      -3.596   1.189  -3.126  1.00  0.00     0.010 A   
ATOM     11  N1  UNL     1      -3.561   2.141  -5.149  1.00  0.00    -0.320 N   
ATOM     12  C4  UNL     1      -4.265   1.271  -4.351  1.00  0.00     0.038 A   
ATOM     13  C8  UNL     1      -4.174   0.388  -2.115  1.00  0.00     0.011 A   
ATOM     14  C5  UNL     1      -5.446   0.570  -4.625  1.00  0.00     0.024 A   
ATOM     15  C7  UNL     1      -5.358  -0.317  -2.372  1.00  0.00     0.001 A   
ATOM     16  C6  UNL     1      -5.980  -0.229  -3.612  1.00  0.00     0.002 A   
ATOM     17  H2  UNL     1      -3.830   2.403  -6.088  1.00  0.00     0.152 HD  
ENDBRANCH   6   8
ENDBRANCH   1   6
BRANCH   3  18
ATOM     18  C12 UNL     1       1.375  -0.171   1.142  1.00  0.00     0.117 C   
BRANCH  18  19
ATOM     19  N3  UNL     1       0.986  -1.549   1.622  1.00  0.00     0.249 N   
ATOM     20  H9  UNL     1       0.653  -2.060   0.790  1.00  0.00     0.199 HD  
ATOM     21  H10 UNL     1       1.797  -2.063   1.975  1.00  0.00     0.199 HD  
BRANCH  19  22
ATOM     22  C13 UNL     1      -0.099  -1.602   2.644  1.00  0.00     0.164 C   
BRANCH  22  23
ATOM     23  C14 UNL     1       0.397  -1.227   4.014  1.00  0.00    -0.002 A   
ATOM     24  C15 UNL     1       1.199  -2.130   4.754  1.00  0.00     0.012 A   
ATOM     25  C19 UNL     1       0.099   0.035   4.556  1.00  0.00     0.045 A   
ATOM     26  C16 UNL     1       1.704  -1.780   6.011  1.00  0.00     0.037 A   
ATOM     27  C18 UNL     1       0.614   0.349   5.797  1.00  0.00     0.109 A   
ATOM     28  C17 UNL     1       1.396  -0.532   6.503  1.00  0.00     0.108 A   
ATOM     29  O2  UNL     1       0.431   1.523   6.455  1.00  0.00    -0.316 OA  
ATOM     30  O3  UNL     1       1.801  -0.024   7.696  1.00  0.00    -0.316 OA  
ATOM     31  C20 UNL     1       1.160   1.270   7.678  1.00  0.00     0.337 C   
ENDBRANCH  22  23
ENDBRANCH  19  22
ENDBRANCH  18  19
BRANCH  18  32
ATOM     32  C21 UNL     1       2.845  -0.168   0.642  1.00  0.00     0.043 C   
ATOM     33  C22 UNL     1       3.841  -0.307   1.811  1.00  0.00     0.010 C   
ATOM     34  C26 UNL     1       3.140  -1.223  -0.442  1.00  0.00     0.010 C   
ATOM     35  C23 UNL     1       5.288  -0.232   1.327  1.00  0.00     0.001 C   
ATOM     36  C25 UNL     1       4.591  -1.148  -0.918  1.00  0.00     0.001 C   
ATOM     37  C24 UNL     1       5.573  -1.267   0.243  1.00  0.00     0.000 C   
ENDBRANCH  18  32
ENDBRANCH   3  18
TORSDOF 7
