REMARK SMILES CC(C)Oc1cccc(Cn2cc([C@@H]([NH2+]Cc3ccc4c(c3)OCO4)C3CCCC3)nn2)n1
REMARK SMILES IDX 11 1 12 2 13 3 31 4 32 5 10 7 9 8 5 9 6 10 33 11 7 12 8 13
REMARK SMILES IDX 4 14 2 15 1 16 3 17 14 18 15 19 16 22 17 23 18 24 22 25
REMARK SMILES IDX 19 26 21 27 20 28 23 29 25 30 24 31 26 32 27 33 30 34 28 35
REMARK SMILES IDX 29 36
REMARK H PARENT 12 6 15 20 15 21
ROOT
ATOM     1   N1  UNL     1       3.333   0.890   1.348  1.00  0.00    -0.206 N   
ATOM     2   C10 UNL     1       2.149   1.119   0.702  1.00  0.00     0.046 A   
ATOM     3   C11 UNL     1       1.361   1.720   1.657  1.00  0.00     0.127 A   
ATOM     4   N3  UNL     1       2.092   1.887   2.805  1.00  0.00    -0.132 NA  
ATOM     5   N4  UNL     1       3.294   1.370   2.607  1.00  0.00    -0.076 NA  
ATOM     6   H13 UNL     1       1.969   0.776  -0.308  1.00  0.00     0.083 HD  
ENDROOT
BRANCH   1   7
ATOM     7   C9  UNL     1       4.482   0.150   0.864  1.00  0.00     0.190 C   
BRANCH   7   8
ATOM     8   C8  UNL     1       4.200  -1.326   0.953  1.00  0.00     0.063 A   
ATOM     9   C4  UNL     1       3.171  -3.186   0.035  1.00  0.00     0.167 A   
ATOM     10  C5  UNL     1       3.579  -3.995   1.081  1.00  0.00     0.055 A   
ATOM     11  N5  UNL     1       3.446  -1.866  -0.041  1.00  0.00    -0.228 NA  
ATOM     12  C6  UNL     1       4.334  -3.426   2.100  1.00  0.00     0.006 A   
ATOM     13  C7  UNL     1       4.653  -2.073   2.039  1.00  0.00     0.026 A   
BRANCH   9  14
ATOM     14  O1  UNL     1       2.415  -3.792  -0.946  1.00  0.00    -0.327 OA  
BRANCH  14  15
ATOM     15  C2  UNL     1       2.227  -3.026  -2.143  1.00  0.00     0.121 C   
ATOM     16  C1  UNL     1       3.470  -3.099  -3.028  1.00  0.00     0.039 C   
ATOM     17  C3  UNL     1       1.038  -3.645  -2.877  1.00  0.00     0.039 C   
ENDBRANCH  14  15
ENDBRANCH   9  14
ENDBRANCH   7   8
ENDBRANCH   1   7
BRANCH   3  18
ATOM     18  C12 UNL     1      -0.088   2.072   1.634  1.00  0.00     0.117 C   
BRANCH  18  19
ATOM     19  N2  UNL     1      -0.748   1.709   2.945  1.00  0.00     0.249 N   
ATOM     20  H15 UNL     1      -0.237   2.206   3.685  1.00  0.00     0.199 HD  
ATOM     21  H16 UNL     1      -1.716   2.038   2.964  1.00  0.00     0.199 HD  
BRANCH  19  22
ATOM     22  C13 UNL     1      -0.723   0.261   3.326  1.00  0.00     0.164 C   
BRANCH  22  23
ATOM     23  C14 UNL     1      -1.390  -0.638   2.324  1.00  0.00    -0.002 A   
ATOM     24  C15 UNL     1      -0.613  -1.520   1.534  1.00  0.00     0.012 A   
ATOM     25  C19 UNL     1      -2.783  -0.597   2.148  1.00  0.00     0.045 A   
ATOM     26  C16 UNL     1      -1.212  -2.348   0.579  1.00  0.00     0.037 A   
ATOM     27  C18 UNL     1      -3.341  -1.422   1.193  1.00  0.00     0.109 A   
ATOM     28  C17 UNL     1      -2.579  -2.272   0.430  1.00  0.00     0.108 A   
ATOM     29  O2  UNL     1      -4.663  -1.494   0.888  1.00  0.00    -0.316 OA  
ATOM     30  O3  UNL     1      -3.325  -2.990  -0.449  1.00  0.00    -0.316 OA  
ATOM     31  C20 UNL     1      -4.653  -2.518  -0.133  1.00  0.00     0.337 C   
ENDBRANCH  22  23
ENDBRANCH  19  22
ENDBRANCH  18  19
BRANCH  18  32
ATOM     32  C21 UNL     1      -0.315   3.560   1.295  1.00  0.00     0.043 C   
ATOM     33  C22 UNL     1       0.149   4.593   2.339  1.00  0.00     0.010 C   
ATOM     34  C25 UNL     1      -1.774   3.930   1.004  1.00  0.00     0.010 C   
ATOM     35  C23 UNL     1      -0.907   5.700   2.343  1.00  0.00     0.001 C   
ATOM     36  C24 UNL     1      -1.770   5.447   1.118  1.00  0.00     0.001 C   
ENDBRANCH  18  32
ENDBRANCH   3  18
TORSDOF 9
