REMARK SMILES Cc1cc([C@@H](CO)n2cc([C@@H]([NH2+]Cc3ccc4c(c3)OCO4)C3CCCC3)nn2)c(C)[nH]1
REMARK SMILES IDX 8 1 9 2 10 3 28 4 29 5 5 7 4 8 2 9 3 10 32 11 30 12 1 13
REMARK SMILES IDX 31 15 6 16 7 17 11 19 12 20 13 23 14 24 15 25 19 26 16 27
REMARK SMILES IDX 18 28 17 29 20 30 22 31 21 32 23 33 24 34 27 35 25 36 26 37
REMARK H PARENT 9 6 32 14 7 18 12 21 12 22
ROOT
ATOM     1   N1  UNL     1      -0.295   1.249  -2.398  1.00  0.00    -0.202 N   
ATOM     2   C7  UNL     1      -0.049   1.847  -1.186  1.00  0.00     0.046 A   
ATOM     3   C8  UNL     1       0.066   0.793  -0.310  1.00  0.00     0.127 A   
ATOM     4   N3  UNL     1      -0.176  -0.379  -0.980  1.00  0.00    -0.132 NA  
ATOM     5   N4  UNL     1      -0.410  -0.088  -2.249  1.00  0.00    -0.075 NA  
ATOM     6   H9  UNL     1       0.064   2.919  -1.089  1.00  0.00     0.083 HD  
ENDROOT
BRANCH   1   7
ATOM     7   C5  UNL     1      -0.440   1.903  -3.697  1.00  0.00     0.157 C   
BRANCH   7   8
ATOM     8   C4  UNL     1       0.900   2.438  -4.166  1.00  0.00    -0.005 A   
ATOM     9   C2  UNL     1       2.456   3.904  -4.935  1.00  0.00     0.004 A   
ATOM     10  C3  UNL     1       1.143   3.794  -4.538  1.00  0.00     0.026 A   
ATOM     11  N5  UNL     1       3.028   2.664  -4.813  1.00  0.00    -0.322 N   
ATOM     12  C23 UNL     1       2.101   1.761  -4.349  1.00  0.00     0.009 A   
ATOM     13  C1  UNL     1       3.227   5.073  -5.431  1.00  0.00     0.061 C   
ATOM     14  H32 UNL     1       3.989   2.445  -5.049  1.00  0.00     0.152 HD  
ATOM     15  C24 UNL     1       2.475   0.335  -4.139  1.00  0.00     0.062 C   
ENDBRANCH   7   8
BRANCH   7  16
ATOM     16  C6  UNL     1      -1.133   1.034  -4.761  1.00  0.00     0.186 C   
BRANCH  16  17
ATOM     17  O1  UNL     1      -1.536   1.814  -5.892  1.00  0.00    -0.394 OA  
ATOM     18  H8  UNL     1      -0.724   2.079  -6.366  1.00  0.00     0.210 HD  
ENDBRANCH  16  17
ENDBRANCH   7  16
ENDBRANCH   1   7
BRANCH   3  19
ATOM     19  C9  UNL     1       0.380   0.749   1.151  1.00  0.00     0.117 C   
BRANCH  19  20
ATOM     20  N2  UNL     1      -0.352  -0.405   1.791  1.00  0.00     0.249 N   
ATOM     21  H11 UNL     1       0.055  -0.661   2.695  1.00  0.00     0.199 HD  
ATOM     22  H12 UNL     1      -0.219  -1.221   1.173  1.00  0.00     0.199 HD  
BRANCH  20  23
ATOM     23  C10 UNL     1      -1.817  -0.213   1.966  1.00  0.00     0.164 C   
BRANCH  23  24
ATOM     24  C11 UNL     1      -2.433  -1.442   2.574  1.00  0.00    -0.002 A   
ATOM     25  C12 UNL     1      -2.935  -2.473   1.742  1.00  0.00     0.012 A   
ATOM     26  C16 UNL     1      -2.457  -1.605   3.971  1.00  0.00     0.045 A   
ATOM     27  C13 UNL     1      -3.472  -3.642   2.292  1.00  0.00     0.037 A   
ATOM     28  C15 UNL     1      -2.994  -2.770   4.480  1.00  0.00     0.109 A   
ATOM     29  C14 UNL     1      -3.490  -3.759   3.665  1.00  0.00     0.108 A   
ATOM     30  O2  UNL     1      -3.103  -3.078   5.798  1.00  0.00    -0.316 OA  
ATOM     31  O3  UNL     1      -3.970  -4.816   4.369  1.00  0.00    -0.316 OA  
ATOM     32  C17 UNL     1      -3.752  -4.368   5.725  1.00  0.00     0.337 C   
ENDBRANCH  23  24
ENDBRANCH  20  23
ENDBRANCH  19  20
BRANCH  19  33
ATOM     33  C18 UNL     1       1.890   0.567   1.405  1.00  0.00     0.043 C   
ATOM     34  C19 UNL     1       2.747   1.720   0.871  1.00  0.00     0.010 C   
ATOM     35  C22 UNL     1       2.281   0.499   2.890  1.00  0.00     0.010 C   
ATOM     36  C20 UNL     1       4.071   1.525   1.590  1.00  0.00     0.001 C   
ATOM     37  C21 UNL     1       3.667   1.135   3.005  1.00  0.00     0.001 C   
ENDBRANCH  19  33
ENDBRANCH   3  19
TORSDOF 9
