REMARK SMILES Cc1cc([C@H](CO)n2cc([C@@H]([NH2+]Cc3ccc4c(c3)OCO4)C3CCCC3)nn2)c(C)[nH]1
REMARK SMILES IDX 8 1 9 2 10 3 28 4 29 5 5 7 4 8 2 9 3 10 32 11 30 12 1 13
REMARK SMILES IDX 31 15 6 16 7 17 11 19 12 20 13 23 14 24 15 25 19 26 16 27
REMARK SMILES IDX 18 28 17 29 20 30 22 31 21 32 23 33 24 34 27 35 25 36 26 37
REMARK H PARENT 9 6 32 14 7 18 12 21 12 22
ROOT
ATOM     1   N1  UNL     1      -1.293  -1.094   0.259  1.00  0.00    -0.202 N   
ATOM     2   C7  UNL     1       0.000  -1.397   0.591  1.00  0.00     0.046 A   
ATOM     3   C8  UNL     1       0.444  -2.186  -0.446  1.00  0.00     0.127 A   
ATOM     4   N3  UNL     1      -0.559  -2.323  -1.365  1.00  0.00    -0.132 NA  
ATOM     5   N4  UNL     1      -1.617  -1.659  -0.924  1.00  0.00    -0.075 NA  
ATOM     6   H9  UNL     1       0.452  -1.038   1.504  1.00  0.00     0.083 HD  
ENDROOT
BRANCH   1   7
ATOM     7   C5  UNL     1      -2.267  -0.282   0.987  1.00  0.00     0.157 C   
BRANCH   7   8
ATOM     8   C4  UNL     1      -1.774   1.145   1.111  1.00  0.00    -0.005 A   
ATOM     9   C2  UNL     1      -0.662   3.003   1.807  1.00  0.00     0.004 A   
ATOM     10  C3  UNL     1      -0.839   1.660   2.058  1.00  0.00     0.026 A   
ATOM     11  N5  UNL     1      -1.462   3.332   0.744  1.00  0.00    -0.322 N   
ATOM     12  C23 UNL     1      -2.155   2.223   0.321  1.00  0.00     0.009 A   
ATOM     13  C1  UNL     1       0.188   4.013   2.484  1.00  0.00     0.061 C   
ATOM     14  H32 UNL     1      -1.538   4.256   0.338  1.00  0.00     0.152 HD  
ATOM     15  C24 UNL     1      -3.122   2.311  -0.807  1.00  0.00     0.062 C   
ENDBRANCH   7   8
BRANCH   7  16
ATOM     16  C6  UNL     1      -2.704  -0.935   2.312  1.00  0.00     0.186 C   
BRANCH  16  17
ATOM     17  O1  UNL     1      -1.622  -1.176   3.216  1.00  0.00    -0.394 OA  
ATOM     18  H8  UNL     1      -2.023  -1.449   4.063  1.00  0.00     0.210 HD  
ENDBRANCH  16  17
ENDBRANCH   7  16
ENDBRANCH   1   7
BRANCH   3  19
ATOM     19  C9  UNL     1       1.782  -2.795  -0.700  1.00  0.00     0.117 C   
BRANCH  19  20
ATOM     20  N2  UNL     1       2.783  -1.738  -1.104  1.00  0.00     0.249 N   
ATOM     21  H11 UNL     1       3.721  -2.142  -1.144  1.00  0.00     0.199 HD  
ATOM     22  H12 UNL     1       2.798  -1.022  -0.368  1.00  0.00     0.199 HD  
BRANCH  20  23
ATOM     23  C10 UNL     1       2.509  -1.066  -2.416  1.00  0.00     0.164 C   
BRANCH  23  24
ATOM     24  C11 UNL     1       2.058   0.359  -2.254  1.00  0.00    -0.002 A   
ATOM     25  C12 UNL     1       0.740   0.735  -2.601  1.00  0.00     0.012 A   
ATOM     26  C16 UNL     1       2.942   1.332  -1.753  1.00  0.00     0.045 A   
ATOM     27  C13 UNL     1       0.303   2.057  -2.453  1.00  0.00     0.037 A   
ATOM     28  C15 UNL     1       2.476   2.623  -1.611  1.00  0.00     0.109 A   
ATOM     29  C14 UNL     1       1.194   2.977  -1.949  1.00  0.00     0.108 A   
ATOM     30  O2  UNL     1       3.198   3.674  -1.141  1.00  0.00    -0.316 OA  
ATOM     31  O3  UNL     1       0.943   4.294  -1.730  1.00  0.00    -0.316 OA  
ATOM     32  C17 UNL     1       2.234   4.743  -1.266  1.00  0.00     0.337 C   
ENDBRANCH  23  24
ENDBRANCH  20  23
ENDBRANCH  19  20
BRANCH  19  33
ATOM     33  C18 UNL     1       2.334  -3.560   0.520  1.00  0.00     0.043 C   
ATOM     34  C19 UNL     1       1.442  -4.730   0.950  1.00  0.00     0.010 C   
ATOM     35  C22 UNL     1       3.671  -4.266   0.269  1.00  0.00     0.010 C   
ATOM     36  C20 UNL     1       2.338  -5.563   1.855  1.00  0.00     0.001 C   
ATOM     37  C21 UNL     1       3.760  -5.346   1.345  1.00  0.00     0.001 C   
ENDBRANCH  19  33
ENDBRANCH   3  19
TORSDOF 9
