REMARK SMILES O[C@@H](Cn1cc([C@@H]([NH2+]Cc2ccc3c(c2)OCO3)C2CCCC2)nn1)c1cc(F)cc(F)c1
REMARK SMILES IDX 4 1 5 2 6 3 24 4 25 5 3 7 2 8 1 9 26 11 27 12 33 13 28 14
REMARK SMILES IDX 31 15 30 16 29 17 32 18 7 19 8 20 9 23 10 24 11 25 15 26
REMARK SMILES IDX 12 27 14 28 13 29 16 30 18 31 17 32 19 33 20 34 23 35 21 36
REMARK SMILES IDX 22 37
REMARK H PARENT 5 6 1 10 8 21 8 22
ROOT
ATOM     1   N1  UNL     1       0.808  -2.647  -0.769  1.00  0.00    -0.209 N   
ATOM     2   C3  UNL     1      -0.229  -1.768  -0.910  1.00  0.00     0.045 A   
ATOM     3   C4  UNL     1       0.295  -0.754  -1.681  1.00  0.00     0.127 A   
ATOM     4   N3  UNL     1       1.600  -1.051  -1.984  1.00  0.00    -0.132 NA  
ATOM     5   N4  UNL     1       1.900  -2.211  -1.425  1.00  0.00    -0.076 NA  
ATOM     6   H5  UNL     1      -1.192  -1.933  -0.444  1.00  0.00     0.083 HD  
ENDROOT
BRANCH   1   7
ATOM     7   C2  UNL     1       0.852  -3.885  -0.017  1.00  0.00     0.170 C   
BRANCH   7   8
ATOM     8   C1  UNL     1       0.909  -3.683   1.506  1.00  0.00     0.164 C   
BRANCH   8   9
ATOM     9   O1  UNL     1      -0.366  -3.241   1.984  1.00  0.00    -0.387 OA  
ATOM     10  H1  UNL     1      -0.321  -3.260   2.959  1.00  0.00     0.211 HD  
ENDBRANCH   8   9
BRANCH   8  11
ATOM     11  C19 UNL     1       2.000  -2.733   1.959  1.00  0.00    -0.012 A   
ATOM     12  C20 UNL     1       3.318  -3.188   2.104  1.00  0.00     0.046 A   
ATOM     13  C24 UNL     1       1.739  -1.370   2.178  1.00  0.00     0.046 A   
ATOM     14  C21 UNL     1       4.333  -2.298   2.456  1.00  0.00     0.126 A   
ATOM     15  C23 UNL     1       2.772  -0.498   2.513  1.00  0.00     0.126 A   
ATOM     16  C22 UNL     1       4.072  -0.951   2.662  1.00  0.00     0.078 A   
ATOM     17  F1  UNL     1       5.586  -2.752   2.576  1.00  0.00    -0.207 F   
ATOM     18  F2  UNL     1       2.498   0.805   2.664  1.00  0.00    -0.207 F   
ENDBRANCH   8  11
ENDBRANCH   7   8
ENDBRANCH   1   7
BRANCH   3  19
ATOM     19  C5  UNL     1      -0.280   0.548  -2.133  1.00  0.00     0.117 C   
BRANCH  19  20
ATOM     20  N2  UNL     1       0.820   1.589  -2.215  1.00  0.00     0.249 N   
ATOM     21  H7  UNL     1       1.607   1.131  -2.698  1.00  0.00     0.199 HD  
ATOM     22  H8  UNL     1       0.525   2.378  -2.797  1.00  0.00     0.199 HD  
BRANCH  20  23
ATOM     23  C6  UNL     1       1.343   2.102  -0.914  1.00  0.00     0.164 C   
BRANCH  23  24
ATOM     24  C7  UNL     1       0.349   2.961  -0.182  1.00  0.00    -0.002 A   
ATOM     25  C8  UNL     1      -0.192   2.530   1.053  1.00  0.00     0.012 A   
ATOM     26  C12 UNL     1      -0.060   4.194  -0.721  1.00  0.00     0.045 A   
ATOM     27  C9  UNL     1      -1.132   3.308   1.738  1.00  0.00     0.037 A   
ATOM     28  C11 UNL     1      -0.991   4.934  -0.022  1.00  0.00     0.109 A   
ATOM     29  C10 UNL     1      -1.513   4.504   1.172  1.00  0.00     0.108 A   
ATOM     30  O2  UNL     1      -1.492   6.136  -0.406  1.00  0.00    -0.316 OA  
ATOM     31  O3  UNL     1      -2.409   5.382   1.693  1.00  0.00    -0.316 OA  
ATOM     32  C13 UNL     1      -2.375   6.431   0.701  1.00  0.00     0.337 C   
ENDBRANCH  23  24
ENDBRANCH  20  23
ENDBRANCH  19  20
BRANCH  19  33
ATOM     33  C14 UNL     1      -0.979   0.505  -3.505  1.00  0.00     0.043 C   
ATOM     34  C15 UNL     1      -0.121   0.073  -4.698  1.00  0.00     0.010 C   
ATOM     35  C18 UNL     1      -2.167  -0.452  -3.599  1.00  0.00     0.010 C   
ATOM     36  C16 UNL     1      -1.131  -0.262  -5.794  1.00  0.00     0.001 C   
ATOM     37  C17 UNL     1      -2.470  -0.491  -5.092  1.00  0.00     0.001 C   
ENDBRANCH  19  33
ENDBRANCH   3  19
TORSDOF 9
