REMARK SMILES O[C@H](Cn1cc([C@@H]([NH2+]Cc2ccc3c(c2)OCO3)C2CCCC2)nn1)c1cc(F)cc(F)c1
REMARK SMILES IDX 4 1 5 2 6 3 24 4 25 5 3 7 2 8 1 9 26 11 27 12 33 13 28 14
REMARK SMILES IDX 31 15 30 16 29 17 32 18 7 19 8 20 9 23 10 24 11 25 15 26
REMARK SMILES IDX 12 27 14 28 13 29 16 30 18 31 17 32 19 33 20 34 23 35 21 36
REMARK SMILES IDX 22 37
REMARK H PARENT 5 6 1 10 8 21 8 22
ROOT
ATOM     1   N1  UNL     1       0.906  -1.691  -2.504  1.00  0.00    -0.209 N   
ATOM     2   C3  UNL     1       1.228  -0.371  -2.356  1.00  0.00     0.045 A   
ATOM     3   C4  UNL     1       0.273   0.107  -1.486  1.00  0.00     0.127 A   
ATOM     4   N3  UNL     1      -0.602  -0.904  -1.179  1.00  0.00    -0.132 NA  
ATOM     5   N4  UNL     1      -0.213  -1.994  -1.821  1.00  0.00    -0.076 NA  
ATOM     6   H5  UNL     1       2.092   0.072  -2.830  1.00  0.00     0.083 HD  
ENDROOT
BRANCH   1   7
ATOM     7   C2  UNL     1       1.639  -2.718  -3.208  1.00  0.00     0.170 C   
BRANCH   7   8
ATOM     8   C1  UNL     1       2.313  -3.722  -2.264  1.00  0.00     0.164 C   
BRANCH   8   9
ATOM     9   O1  UNL     1       2.972  -4.714  -3.054  1.00  0.00    -0.387 OA  
ATOM     10  H1  UNL     1       3.422  -5.325  -2.439  1.00  0.00     0.211 HD  
ENDBRANCH   8   9
BRANCH   8  11
ATOM     11  C19 UNL     1       3.323  -3.069  -1.340  1.00  0.00    -0.012 A   
ATOM     12  C20 UNL     1       2.973  -2.769  -0.013  1.00  0.00     0.046 A   
ATOM     13  C24 UNL     1       4.600  -2.698  -1.794  1.00  0.00     0.046 A   
ATOM     14  C21 UNL     1       3.877  -2.111   0.821  1.00  0.00     0.126 A   
ATOM     15  C23 UNL     1       5.489  -2.048  -0.938  1.00  0.00     0.126 A   
ATOM     16  C22 UNL     1       5.138  -1.747   0.371  1.00  0.00     0.078 A   
ATOM     17  F1  UNL     1       3.507  -1.804   2.072  1.00  0.00    -0.207 F   
ATOM     18  F2  UNL     1       6.696  -1.691  -1.395  1.00  0.00    -0.207 F   
ENDBRANCH   8  11
ENDBRANCH   7   8
ENDBRANCH   1   7
BRANCH   3  19
ATOM     19  C5  UNL     1       0.083   1.458  -0.870  1.00  0.00     0.117 C   
BRANCH  19  20
ATOM     20  N2  UNL     1      -1.345   1.633  -0.432  1.00  0.00     0.249 N   
ATOM     21  H7  UNL     1      -1.446   2.335   0.306  1.00  0.00     0.199 HD  
ATOM     22  H8  UNL     1      -1.637   0.737  -0.013  1.00  0.00     0.199 HD  
BRANCH  20  23
ATOM     23  C6  UNL     1      -2.316   1.934  -1.521  1.00  0.00     0.164 C   
BRANCH  23  24
ATOM     24  C7  UNL     1      -3.707   2.037  -0.959  1.00  0.00    -0.002 A   
ATOM     25  C8  UNL     1      -4.229   3.290  -0.558  1.00  0.00     0.012 A   
ATOM     26  C12 UNL     1      -4.471   0.873  -0.766  1.00  0.00     0.045 A   
ATOM     27  C9  UNL     1      -5.498   3.386   0.022  1.00  0.00     0.037 A   
ATOM     28  C11 UNL     1      -5.719   1.004  -0.191  1.00  0.00     0.109 A   
ATOM     29  C10 UNL     1      -6.217   2.224   0.193  1.00  0.00     0.108 A   
ATOM     30  O2  UNL     1      -6.579  -0.015   0.070  1.00  0.00    -0.316 OA  
ATOM     31  O3  UNL     1      -7.455   2.128   0.746  1.00  0.00    -0.316 OA  
ATOM     32  C13 UNL     1      -7.693   0.707   0.643  1.00  0.00     0.337 C   
ENDBRANCH  23  24
ENDBRANCH  20  23
ENDBRANCH  19  20
BRANCH  19  33
ATOM     33  C14 UNL     1       1.047   1.671   0.315  1.00  0.00     0.043 C   
ATOM     34  C15 UNL     1       0.797   0.809   1.559  1.00  0.00     0.010 C   
ATOM     35  C18 UNL     1       1.075   3.094   0.877  1.00  0.00     0.010 C   
ATOM     36  C16 UNL     1       1.419   1.579   2.728  1.00  0.00     0.001 C   
ATOM     37  C17 UNL     1       1.861   2.929   2.169  1.00  0.00     0.001 C   
ENDBRANCH  19  33
ENDBRANCH   3  19
TORSDOF 9
