REMARK SMILES CC(C)C[C@H]([NH2+]Cc1ccc2c(c1)OCO2)c1cn(Cc2ccc(-n3cccn3)cc2)nn1
REMARK SMILES IDX 17 1 18 2 19 3 32 4 33 5 5 7 4 8 2 9 1 10 3 11 6 12 7 15
REMARK SMILES IDX 8 16 9 17 13 18 10 19 12 20 11 21 14 22 16 23 15 24 20 25
REMARK SMILES IDX 21 26 22 27 31 28 23 29 30 30 24 31 25 32 26 33 29 34 27 35
REMARK SMILES IDX 28 36
REMARK H PARENT 18 6 6 13 6 14
ROOT
ATOM     1   C14 UNL     1       0.338   1.945   0.300  1.00  0.00     0.127 A   
ATOM     2   C15 UNL     1       1.710   1.879   0.407  1.00  0.00     0.046 A   
ATOM     3   N2  UNL     1       1.950   2.152   1.727  1.00  0.00    -0.208 N   
ATOM     4   N5  UNL     1       0.798   2.391   2.384  1.00  0.00    -0.076 NA  
ATOM     5   N6  UNL     1      -0.196   2.269   1.519  1.00  0.00    -0.132 NA  
ATOM     6   H20 UNL     1       2.504   1.642  -0.287  1.00  0.00     0.083 HD  
ENDROOT
BRANCH   1   7
ATOM     7   C5  UNL     1      -0.573   1.661  -0.850  1.00  0.00     0.114 C   
BRANCH   7   8
ATOM     8   C4  UNL     1      -1.036   2.973  -1.516  1.00  0.00     0.064 C   
BRANCH   8   9
ATOM     9   C2  UNL     1      -1.928   2.834  -2.770  1.00  0.00    -0.012 C   
ATOM     10  C1  UNL     1      -2.287   4.227  -3.302  1.00  0.00     0.007 C   
ATOM     11  C3  UNL     1      -1.256   2.024  -3.880  1.00  0.00     0.007 C   
ENDBRANCH   8   9
ENDBRANCH   7   8
BRANCH   7  12
ATOM     12  N1  UNL     1      -1.776   0.882  -0.392  1.00  0.00     0.249 N   
ATOM     13  H11 UNL     1      -2.469   0.795  -1.140  1.00  0.00     0.199 HD  
ATOM     14  H12 UNL     1      -2.222   1.416   0.366  1.00  0.00     0.199 HD  
BRANCH  12  15
ATOM     15  C6  UNL     1      -1.483  -0.481   0.143  1.00  0.00     0.164 C   
BRANCH  15  16
ATOM     16  C7  UNL     1      -2.755  -1.258   0.336  1.00  0.00    -0.002 A   
ATOM     17  C8  UNL     1      -3.423  -1.243   1.586  1.00  0.00     0.012 A   
ATOM     18  C12 UNL     1      -3.312  -1.973  -0.741  1.00  0.00     0.045 A   
ATOM     19  C9  UNL     1      -4.615  -1.957   1.771  1.00  0.00     0.037 A   
ATOM     20  C11 UNL     1      -4.488  -2.663  -0.525  1.00  0.00     0.109 A   
ATOM     21  C10 UNL     1      -5.122  -2.657   0.697  1.00  0.00     0.108 A   
ATOM     22  O1  UNL     1      -5.141  -3.416  -1.452  1.00  0.00    -0.316 OA  
ATOM     23  O2  UNL     1      -6.249  -3.419   0.699  1.00  0.00    -0.316 OA  
ATOM     24  C13 UNL     1      -6.261  -3.898  -0.667  1.00  0.00     0.337 C   
ENDBRANCH  15  16
ENDBRANCH  12  15
ENDBRANCH   7  12
ENDBRANCH   1   7
BRANCH   3  25
ATOM     25  C16 UNL     1       3.222   2.143   2.434  1.00  0.00     0.169 C   
BRANCH  25  26
ATOM     26  C17 UNL     1       3.708   0.729   2.642  1.00  0.00    -0.028 A   
ATOM     27  C18 UNL     1       3.013  -0.138   3.500  1.00  0.00     0.007 A   
ATOM     28  C25 UNL     1       4.851   0.255   1.980  1.00  0.00     0.007 A   
ATOM     29  C19 UNL     1       3.435  -1.459   3.671  1.00  0.00     0.026 A   
ATOM     30  C24 UNL     1       5.282  -1.066   2.158  1.00  0.00     0.026 A   
ATOM     31  C20 UNL     1       4.571  -1.933   2.998  1.00  0.00     0.056 A   
BRANCH  31  32
ATOM     32  N3  UNL     1       4.979  -3.284   3.187  1.00  0.00    -0.201 N   
ATOM     33  C21 UNL     1       6.088  -3.923   2.668  1.00  0.00     0.103 A   
ATOM     34  N4  UNL     1       4.235  -4.133   3.946  1.00  0.00    -0.185 NA  
ATOM     35  C22 UNL     1       6.070  -5.213   3.142  1.00  0.00     0.039 A   
ATOM     36  C23 UNL     1       4.909  -5.283   3.930  1.00  0.00     0.133 A   
ENDBRANCH  31  32
ENDBRANCH  25  26
ENDBRANCH   3  25
TORSDOF 9
