REMARK SMILES COc1ccc(OC)c(-n2cc([C@@H]([NH2+]Cc3ccc4c(c3)OCO4)C(C)C)nn2)c1
REMARK SMILES IDX 10 1 11 2 12 3 28 4 29 5 9 6 3 7 4 8 30 9 5 10 6 11 2 12
REMARK SMILES IDX 1 13 7 14 8 15 13 16 14 17 15 20 16 21 17 22 21 23 18 24
REMARK SMILES IDX 20 25 19 26 22 27 24 28 23 29 25 30 26 31 27 32
REMARK H PARENT 14 18 14 19
ROOT
ATOM     1   N1  UNL     1       0.830   0.355  -0.506  1.00  0.00    -0.178 N   
ATOM     2   C8  UNL     1       1.222  -0.154   0.719  1.00  0.00     0.135 A   
ATOM     3   C9  UNL     1       1.827  -1.357   0.438  1.00  0.00     0.127 A   
ATOM     4   N3  UNL     1       1.860  -1.540  -0.911  1.00  0.00    -0.131 NA  
ATOM     5   N4  UNL     1       1.288  -0.491  -1.476  1.00  0.00    -0.071 NA  
ENDROOT
BRANCH   1   6
ATOM     6   C7  UNL     1       0.064   1.508  -0.840  1.00  0.00     0.090 A   
ATOM     7   C2  UNL     1      -0.790   2.942  -2.634  1.00  0.00     0.077 A   
ATOM     8   C3  UNL     1      -1.399   3.752  -1.686  1.00  0.00     0.036 A   
ATOM     9   C22 UNL     1      -0.065   1.827  -2.209  1.00  0.00     0.062 A   
ATOM     10  C4  UNL     1      -1.293   3.442  -0.325  1.00  0.00     0.038 A   
ATOM     11  C5  UNL     1      -0.578   2.317   0.116  1.00  0.00     0.098 A   
BRANCH   7  12
ATOM     12  O1  UNL     1      -0.821   3.122  -3.988  1.00  0.00    -0.349 OA  
ATOM     13  C1  UNL     1      -1.492   4.278  -4.474  1.00  0.00     0.203 C   
ENDBRANCH   7  12
BRANCH  11  14
ATOM     14  O2  UNL     1      -0.489   1.977   1.438  1.00  0.00    -0.347 OA  
ATOM     15  C6  UNL     1      -1.388   2.603   2.349  1.00  0.00     0.203 C   
ENDBRANCH  11  14
ENDBRANCH   1   6
BRANCH   3  16
ATOM     16  C10 UNL     1       2.293  -2.458   1.336  1.00  0.00     0.117 C   
BRANCH  16  17
ATOM     17  N2  UNL     1       1.651  -3.748   0.844  1.00  0.00     0.249 N   
ATOM     18  H11 UNL     1       1.468  -3.603  -0.162  1.00  0.00     0.199 HD  
ATOM     19  H12 UNL     1       2.309  -4.531   0.878  1.00  0.00     0.199 HD  
BRANCH  17  20
ATOM     20  C11 UNL     1       0.373  -4.150   1.503  1.00  0.00     0.164 C   
BRANCH  20  21
ATOM     21  C12 UNL     1      -0.724  -3.126   1.399  1.00  0.00    -0.002 A   
ATOM     22  C13 UNL     1      -1.147  -2.413   2.547  1.00  0.00     0.012 A   
ATOM     23  C17 UNL     1      -1.302  -2.827   0.152  1.00  0.00     0.045 A   
ATOM     24  C14 UNL     1      -2.107  -1.399   2.454  1.00  0.00     0.037 A   
ATOM     25  C16 UNL     1      -2.238  -1.815   0.094  1.00  0.00     0.109 A   
ATOM     26  C15 UNL     1      -2.626  -1.117   1.210  1.00  0.00     0.108 A   
ATOM     27  O3  UNL     1      -2.859  -1.379  -1.033  1.00  0.00    -0.316 OA  
ATOM     28  O4  UNL     1      -3.538  -0.151   0.928  1.00  0.00    -0.316 OA  
ATOM     29  C18 UNL     1      -3.684  -0.320  -0.500  1.00  0.00     0.337 C   
ENDBRANCH  20  21
ENDBRANCH  17  20
ENDBRANCH  16  17
BRANCH  16  30
ATOM     30  C19 UNL     1       3.836  -2.626   1.348  1.00  0.00     0.037 C   
ATOM     31  C20 UNL     1       4.545  -1.308   1.698  1.00  0.00     0.014 C   
ATOM     32  C21 UNL     1       4.288  -3.693   2.356  1.00  0.00     0.014 C   
ENDBRANCH  16  30
ENDBRANCH   3  16
TORSDOF 8
