REMARK SMILES CC(C)[C@H]([NH2+]Cc1ccc2c(c1)OCO2)c1cn([C@@H](CO)c2ccc(Cl)cc2)nn1
REMARK SMILES IDX 16 1 17 2 18 3 29 4 30 5 4 7 2 8 1 9 3 10 5 11 6 14 7 15
REMARK SMILES IDX 8 16 12 17 9 18 11 19 10 20 13 21 15 22 14 23 19 24 20 25
REMARK SMILES IDX 21 26 22 28 23 29 28 30 24 31 27 32 25 33 26 34
REMARK H PARENT 17 6 5 12 5 13 21 27
ROOT
ATOM     1   C13 UNL     1       0.709   0.119  -0.700  1.00  0.00     0.127 A   
ATOM     2   C14 UNL     1       1.146   0.722   0.457  1.00  0.00     0.046 A   
ATOM     3   N2  UNL     1       1.991   1.708   0.024  1.00  0.00    -0.202 N   
ATOM     4   N3  UNL     1       2.030   1.740  -1.325  1.00  0.00    -0.075 NA  
ATOM     5   N4  UNL     1       1.256   0.767  -1.778  1.00  0.00    -0.132 NA  
ATOM     6   H18 UNL     1       0.949   0.551   1.507  1.00  0.00     0.083 HD  
ENDROOT
BRANCH   1   7
ATOM     7   C4  UNL     1      -0.253  -1.001  -0.916  1.00  0.00     0.117 C   
BRANCH   7   8
ATOM     8   C2  UNL     1       0.416  -2.398  -1.028  1.00  0.00     0.037 C   
ATOM     9   C1  UNL     1       1.410  -2.534  -2.187  1.00  0.00     0.014 C   
ATOM     10  C3  UNL     1       1.097  -2.804   0.285  1.00  0.00     0.014 C   
ENDBRANCH   7   8
BRANCH   7  11
ATOM     11  N1  UNL     1      -1.065  -0.758  -2.171  1.00  0.00     0.249 N   
ATOM     12  H9  UNL     1      -0.386  -0.535  -2.912  1.00  0.00     0.199 HD  
ATOM     13  H10 UNL     1      -1.555  -1.614  -2.446  1.00  0.00     0.199 HD  
BRANCH  11  14
ATOM     14  C5  UNL     1      -2.037   0.374  -2.119  1.00  0.00     0.164 C   
BRANCH  14  15
ATOM     15  C6  UNL     1      -3.187   0.119  -1.186  1.00  0.00    -0.002 A   
ATOM     16  C7  UNL     1      -4.222  -0.775  -1.550  1.00  0.00     0.012 A   
ATOM     17  C11 UNL     1      -3.224   0.746   0.073  1.00  0.00     0.045 A   
ATOM     18  C8  UNL     1      -5.279  -1.045  -0.674  1.00  0.00     0.037 A   
ATOM     19  C10 UNL     1      -4.280   0.456   0.912  1.00  0.00     0.109 A   
ATOM     20  C9  UNL     1      -5.278  -0.414   0.550  1.00  0.00     0.108 A   
ATOM     21  O1  UNL     1      -4.463   0.968   2.157  1.00  0.00    -0.316 OA  
ATOM     22  O2  UNL     1      -6.217  -0.558   1.520  1.00  0.00    -0.316 OA  
ATOM     23  C12 UNL     1      -5.712   0.342   2.530  1.00  0.00     0.337 C   
ENDBRANCH  14  15
ENDBRANCH  11  14
ENDBRANCH   7  11
ENDBRANCH   1   7
BRANCH   3  24
ATOM     24  C15 UNL     1       2.782   2.657   0.809  1.00  0.00     0.155 C   
BRANCH  24  25
ATOM     25  C16 UNL     1       1.920   3.851   1.267  1.00  0.00     0.185 C   
BRANCH  25  26
ATOM     26  O3  UNL     1       0.771   3.457   2.019  1.00  0.00    -0.394 OA  
ATOM     27  H22 UNL     1       0.339   4.277   2.325  1.00  0.00     0.210 HD  
ENDBRANCH  25  26
ENDBRANCH  24  25
BRANCH  24  28
ATOM     28  C17 UNL     1       3.593   1.926   1.877  1.00  0.00    -0.023 A   
ATOM     29  C18 UNL     1       3.229   1.900   3.232  1.00  0.00     0.007 A   
ATOM     30  C22 UNL     1       4.747   1.219   1.485  1.00  0.00     0.007 A   
ATOM     31  C19 UNL     1       3.996   1.196   4.167  1.00  0.00     0.021 A   
ATOM     32  C21 UNL     1       5.513   0.516   2.418  1.00  0.00     0.021 A   
ATOM     33  C20 UNL     1       5.133   0.507   3.756  1.00  0.00     0.041 A   
ATOM     34  CL1 UNL     1       6.068  -0.364   4.906  1.00  0.00    -0.084 Cl  
ENDBRANCH  24  28
ENDBRANCH   3  24
TORSDOF 9
