REMARK SMILES Cc1noc(C)c1CCn1cc([C@H](CC(C)C)[NH2+]Cc2ccc3c(c2)OCO3)nn1
REMARK SMILES IDX 10 1 11 2 12 3 29 4 30 5 9 7 8 8 7 9 2 10 3 11 4 12 5 13
REMARK SMILES IDX 1 14 6 15 13 16 14 17 15 18 16 19 17 20 18 21 19 24 20 25
REMARK SMILES IDX 21 26 25 27 22 28 24 29 23 30 26 31 28 32 27 33
REMARK H PARENT 11 6 18 22 18 23
ROOT
ATOM     1   N2  UNL     1      -0.472   1.179   3.906  1.00  0.00    -0.212 N   
ATOM     2   C8  UNL     1      -1.482   1.087   2.989  1.00  0.00     0.045 A   
ATOM     3   C9  UNL     1      -0.895   1.477   1.806  1.00  0.00     0.127 A   
ATOM     4   N4  UNL     1       0.400   1.859   2.058  1.00  0.00    -0.132 NA  
ATOM     5   N5  UNL     1       0.644   1.674   3.346  1.00  0.00    -0.076 NA  
ATOM     6   H11 UNL     1      -2.457   0.694   3.240  1.00  0.00     0.083 HD  
ENDROOT
BRANCH   1   7
ATOM     7   C7  UNL     1      -0.456   0.646   5.255  1.00  0.00     0.139 C   
BRANCH   7   8
ATOM     8   C6  UNL     1       0.359  -0.649   5.379  1.00  0.00     0.061 C   
BRANCH   8   9
ATOM     9   C5  UNL     1       0.023  -1.659   4.329  1.00  0.00     0.006 A   
ATOM     10  C2  UNL     1       0.832  -2.079   3.234  1.00  0.00     0.071 A   
ATOM     11  N1  UNL     1       0.148  -2.870   2.399  1.00  0.00    -0.134 NA  
ATOM     12  O1  UNL     1      -1.079  -3.076   2.997  1.00  0.00    -0.218 OA  
ATOM     13  C3  UNL     1      -1.147  -2.370   4.156  1.00  0.00     0.087 A   
ATOM     14  C1  UNL     1       2.237  -1.713   2.929  1.00  0.00     0.070 C   
ATOM     15  C4  UNL     1      -2.409  -2.490   4.912  1.00  0.00     0.076 C   
ENDBRANCH   8   9
ENDBRANCH   7   8
ENDBRANCH   1   7
BRANCH   3  16
ATOM     16  C10 UNL     1      -1.383   1.467   0.390  1.00  0.00     0.114 C   
BRANCH  16  17
ATOM     17  C11 UNL     1      -2.715   0.723   0.185  1.00  0.00     0.064 C   
BRANCH  17  18
ATOM     18  C12 UNL     1      -3.249   0.666  -1.262  1.00  0.00    -0.012 C   
ATOM     19  C13 UNL     1      -3.469   2.056  -1.859  1.00  0.00     0.007 C   
ATOM     20  C14 UNL     1      -4.561  -0.123  -1.296  1.00  0.00     0.007 C   
ENDBRANCH  17  18
ENDBRANCH  16  17
BRANCH  16  21
ATOM     21  N3  UNL     1      -0.315   0.935  -0.527  1.00  0.00     0.249 N   
ATOM     22  H22 UNL     1       0.522   1.505  -0.337  1.00  0.00     0.199 HD  
ATOM     23  H23 UNL     1      -0.546   1.103  -1.510  1.00  0.00     0.199 HD  
BRANCH  21  24
ATOM     24  C15 UNL     1       0.103  -0.488  -0.343  1.00  0.00     0.164 C   
BRANCH  24  25
ATOM     25  C16 UNL     1       1.253  -0.811  -1.256  1.00  0.00    -0.002 A   
ATOM     26  C17 UNL     1       1.026  -1.437  -2.504  1.00  0.00     0.012 A   
ATOM     27  C21 UNL     1       2.561  -0.445  -0.891  1.00  0.00     0.045 A   
ATOM     28  C18 UNL     1       2.087  -1.704  -3.376  1.00  0.00     0.037 A   
ATOM     29  C20 UNL     1       3.584  -0.724  -1.773  1.00  0.00     0.109 A   
ATOM     30  C19 UNL     1       3.354  -1.335  -2.981  1.00  0.00     0.108 A   
ATOM     31  O2  UNL     1       4.897  -0.439  -1.577  1.00  0.00    -0.316 OA  
ATOM     32  O3  UNL     1       4.495  -1.513  -3.697  1.00  0.00    -0.316 OA  
ATOM     33  C22 UNL     1       5.477  -0.966  -2.792  1.00  0.00     0.337 C   
ENDBRANCH  24  25
ENDBRANCH  21  24
ENDBRANCH  16  21
ENDBRANCH   3  16
TORSDOF 9
