REMARK SMILES Cc1ccc(F)cc1[C@H](CO)n1cc([C@@H]([NH2+]Cc2ccc3c(c2)OCO3)C(C)(C)C)nn1
REMARK SMILES IDX 12 1 13 2 14 3 31 4 32 5 9 7 8 8 2 9 3 10 4 11 7 12 5 13
REMARK SMILES IDX 1 14 6 15 10 16 11 17 15 19 16 20 17 23 18 24 19 25 23 26
REMARK SMILES IDX 20 27 22 28 21 29 24 30 26 31 25 32 27 33 28 34 29 35 30 36
REMARK H PARENT 13 6 11 18 16 21 16 22
ROOT
ATOM     1   N1  UNL     1       0.141  -1.120  -0.231  1.00  0.00    -0.202 N   
ATOM     2   C10 UNL     1      -0.139   0.205  -0.435  1.00  0.00     0.046 A   
ATOM     3   C11 UNL     1       1.052   0.845  -0.182  1.00  0.00     0.127 A   
ATOM     4   N3  UNL     1       1.991  -0.083   0.194  1.00  0.00    -0.132 NA  
ATOM     5   N4  UNL     1       1.424  -1.278   0.167  1.00  0.00    -0.075 NA  
ATOM     6   H11 UNL     1      -1.125   0.549  -0.715  1.00  0.00     0.083 HD  
ENDROOT
BRANCH   1   7
ATOM     7   C8  UNL     1      -0.737  -2.285  -0.354  1.00  0.00     0.155 C   
BRANCH   7   8
ATOM     8   C7  UNL     1      -1.518  -2.250  -1.671  1.00  0.00    -0.017 A   
ATOM     9   C2  UNL     1      -0.912  -2.637  -2.896  1.00  0.00    -0.046 A   
ATOM     10  C3  UNL     1      -1.653  -2.578  -4.093  1.00  0.00     0.007 A   
ATOM     11  C4  UNL     1      -2.973  -2.137  -4.097  1.00  0.00     0.039 A   
ATOM     12  C6  UNL     1      -2.854  -1.804  -1.707  1.00  0.00     0.045 A   
ATOM     13  C5  UNL     1      -3.560  -1.752  -2.905  1.00  0.00     0.123 A   
ATOM     14  C1  UNL     1       0.512  -3.128  -2.974  1.00  0.00     0.045 C   
ATOM     15  F1  UNL     1      -4.826  -1.316  -2.901  1.00  0.00    -0.207 F   
ENDBRANCH   7   8
BRANCH   7  16
ATOM     16  C9  UNL     1      -1.537  -2.499   0.950  1.00  0.00     0.185 C   
BRANCH  16  17
ATOM     17  O1  UNL     1      -2.322  -1.365   1.320  1.00  0.00    -0.394 OA  
ATOM     18  H10 UNL     1      -2.641  -1.526   2.229  1.00  0.00     0.210 HD  
ENDBRANCH  16  17
ENDBRANCH   7  16
ENDBRANCH   1   7
BRANCH   3  19
ATOM     19  C12 UNL     1       1.410   2.299  -0.161  1.00  0.00     0.120 C   
BRANCH  19  20
ATOM     20  N2  UNL     1       2.352   2.531   1.010  1.00  0.00     0.250 N   
ATOM     21  H13 UNL     1       2.754   1.605   1.227  1.00  0.00     0.199 HD  
ATOM     22  H14 UNL     1       3.149   3.112   0.743  1.00  0.00     0.199 HD  
BRANCH  20  23
ATOM     23  C13 UNL     1       1.742   3.079   2.255  1.00  0.00     0.164 C   
BRANCH  23  24
ATOM     24  C14 UNL     1       0.641   2.232   2.829  1.00  0.00    -0.002 A   
ATOM     25  C15 UNL     1       0.924   0.963   3.392  1.00  0.00     0.012 A   
ATOM     26  C19 UNL     1      -0.690   2.681   2.780  1.00  0.00     0.045 A   
ATOM     27  C16 UNL     1      -0.102   0.145   3.877  1.00  0.00     0.037 A   
ATOM     28  C18 UNL     1      -1.677   1.851   3.268  1.00  0.00     0.109 A   
ATOM     29  C17 UNL     1      -1.393   0.616   3.796  1.00  0.00     0.108 A   
ATOM     30  O2  UNL     1      -3.006   2.129   3.277  1.00  0.00    -0.316 OA  
ATOM     31  O3  UNL     1      -2.512  -0.050   4.186  1.00  0.00    -0.316 OA  
ATOM     32  C20 UNL     1      -3.531   0.935   3.899  1.00  0.00     0.337 C   
ENDBRANCH  23  24
ENDBRANCH  20  23
ENDBRANCH  19  20
BRANCH  19  33
ATOM     33  C21 UNL     1       2.047   2.824  -1.494  1.00  0.00     0.010 C   
ATOM     34  C22 UNL     1       3.388   2.141  -1.830  1.00  0.00     0.017 C   
ATOM     35  C23 UNL     1       2.280   4.350  -1.407  1.00  0.00     0.017 C   
ATOM     36  C24 UNL     1       1.076   2.584  -2.674  1.00  0.00     0.017 C   
ENDBRANCH  19  33
ENDBRANCH   3  19
TORSDOF 9
