REMARK SMILES Cc1ccc(F)cc1[C@@H](CO)n1cc([C@@H]([NH2+]Cc2ccc3c(c2)OCO3)C(C)(C)C)nn1
REMARK SMILES IDX 12 1 13 2 14 3 31 4 32 5 9 7 8 8 2 9 3 10 4 11 7 12 5 13
REMARK SMILES IDX 1 14 6 15 10 16 11 17 15 19 16 20 17 23 18 24 19 25 23 26
REMARK SMILES IDX 20 27 22 28 21 29 24 30 26 31 25 32 27 33 28 34 29 35 30 36
REMARK H PARENT 13 6 11 18 16 21 16 22
ROOT
ATOM     1   N1  UNL     1      -1.394  -1.909   0.140  1.00  0.00    -0.202 N   
ATOM     2   C10 UNL     1      -1.476  -0.549   0.268  1.00  0.00     0.046 A   
ATOM     3   C11 UNL     1      -1.571  -0.089  -1.025  1.00  0.00     0.127 A   
ATOM     4   N3  UNL     1      -1.558  -1.157  -1.883  1.00  0.00    -0.132 NA  
ATOM     5   N4  UNL     1      -1.454  -2.263  -1.163  1.00  0.00    -0.075 NA  
ATOM     6   H11 UNL     1      -1.432  -0.055   1.229  1.00  0.00     0.083 HD  
ENDROOT
BRANCH   1   7
ATOM     7   C8  UNL     1      -1.159  -2.917   1.175  1.00  0.00     0.155 C   
BRANCH   7   8
ATOM     8   C7  UNL     1       0.174  -2.646   1.881  1.00  0.00    -0.017 A   
ATOM     9   C2  UNL     1       1.399  -3.158   1.376  1.00  0.00    -0.046 A   
ATOM     10  C3  UNL     1       2.609  -2.851   2.029  1.00  0.00     0.007 A   
ATOM     11  C4  UNL     1       2.627  -2.042   3.161  1.00  0.00     0.039 A   
ATOM     12  C6  UNL     1       0.224  -1.830   3.029  1.00  0.00     0.045 A   
ATOM     13  C5  UNL     1       1.435  -1.537   3.650  1.00  0.00     0.123 A   
ATOM     14  C1  UNL     1       1.464  -4.042   0.156  1.00  0.00     0.045 C   
ATOM     15  F1  UNL     1       1.445  -0.746   4.730  1.00  0.00    -0.207 F   
ENDBRANCH   7   8
BRANCH   7  16
ATOM     16  C9  UNL     1      -2.402  -3.119   2.070  1.00  0.00     0.185 C   
BRANCH  16  17
ATOM     17  O1  UNL     1      -2.864  -1.919   2.688  1.00  0.00    -0.394 OA  
ATOM     18  H10 UNL     1      -3.616  -2.164   3.261  1.00  0.00     0.210 HD  
ENDBRANCH  16  17
ENDBRANCH   7  16
ENDBRANCH   1   7
BRANCH   3  19
ATOM     19  C12 UNL     1      -1.562   1.309  -1.554  1.00  0.00     0.120 C   
BRANCH  19  20
ATOM     20  N2  UNL     1      -0.623   1.406  -2.743  1.00  0.00     0.250 N   
ATOM     21  H13 UNL     1      -0.977   0.752  -3.452  1.00  0.00     0.199 HD  
ATOM     22  H14 UNL     1      -0.651   2.345  -3.143  1.00  0.00     0.199 HD  
BRANCH  20  23
ATOM     23  C13 UNL     1       0.809   1.037  -2.502  1.00  0.00     0.164 C   
BRANCH  23  24
ATOM     24  C14 UNL     1       1.463   1.819  -1.398  1.00  0.00    -0.002 A   
ATOM     25  C15 UNL     1       1.728   3.201  -1.549  1.00  0.00     0.012 A   
ATOM     26  C19 UNL     1       1.790   1.180  -0.188  1.00  0.00     0.045 A   
ATOM     27  C16 UNL     1       2.296   3.941  -0.505  1.00  0.00     0.037 A   
ATOM     28  C18 UNL     1       2.345   1.938   0.820  1.00  0.00     0.109 A   
ATOM     29  C17 UNL     1       2.588   3.280   0.668  1.00  0.00     0.108 A   
ATOM     30  O2  UNL     1       2.704   1.480   2.047  1.00  0.00    -0.316 OA  
ATOM     31  O3  UNL     1       3.131   3.837   1.782  1.00  0.00    -0.316 OA  
ATOM     32  C20 UNL     1       3.215   2.688   2.653  1.00  0.00     0.337 C   
ENDBRANCH  23  24
ENDBRANCH  20  23
ENDBRANCH  19  20
BRANCH  19  33
ATOM     33  C21 UNL     1      -2.984   1.862  -1.931  1.00  0.00     0.010 C   
ATOM     34  C22 UNL     1      -3.919   1.790  -0.701  1.00  0.00     0.017 C   
ATOM     35  C23 UNL     1      -2.891   3.351  -2.340  1.00  0.00     0.017 C   
ATOM     36  C24 UNL     1      -3.647   1.089  -3.087  1.00  0.00     0.017 C   
ENDBRANCH  19  33
ENDBRANCH   3  19
TORSDOF 9
