REMARK SMILES [O-]N([O-])c1ccccc1CCn1cc([C@@H]([NH2+]Cc2ccc3c(c2)OCO3)C2CCCC2)nn1
REMARK SMILES IDX 12 1 13 2 14 3 32 4 33 5 11 7 10 8 9 9 4 10 5 11 6 12 8 13
REMARK SMILES IDX 7 14 2 15 1 16 3 17 15 18 16 19 17 22 18 23 19 24 23 25
REMARK SMILES IDX 20 26 22 27 21 28 24 29 26 30 25 31 27 32 28 33 31 34 29 35
REMARK SMILES IDX 30 36
REMARK H PARENT 13 6 16 20 16 21
ROOT
ATOM     1   N2  UNL     1       0.300  -3.212  -0.283  1.00  0.00    -0.212 N   
ATOM     2   C9  UNL     1       0.894  -2.666  -1.386  1.00  0.00     0.045 A   
ATOM     3   C10 UNL     1      -0.060  -1.804  -1.888  1.00  0.00     0.127 A   
ATOM     4   N4  UNL     1      -1.201  -1.933  -1.136  1.00  0.00    -0.132 NA  
ATOM     5   N5  UNL     1      -0.965  -2.788  -0.157  1.00  0.00    -0.076 NA  
ATOM     6   H9  UNL     1       1.923  -2.872  -1.646  1.00  0.00     0.083 HD  
ENDROOT
BRANCH   1   7
ATOM     7   C8  UNL     1       0.918  -3.990   0.770  1.00  0.00     0.139 C   
BRANCH   7   8
ATOM     8   C7  UNL     1       1.770  -3.130   1.714  1.00  0.00     0.059 C   
BRANCH   8   9
ATOM     9   C6  UNL     1       0.977  -2.122   2.524  1.00  0.00    -0.018 A   
ATOM     10  C1  UNL     1       0.829  -0.755   2.200  1.00  0.00     0.121 A   
ATOM     11  C2  UNL     1       0.031   0.108   2.967  1.00  0.00     0.031 A   
ATOM     12  C3  UNL     1      -0.630  -0.387   4.088  1.00  0.00     0.002 A   
ATOM     13  C5  UNL     1       0.294  -2.587   3.663  1.00  0.00     0.006 A   
ATOM     14  C4  UNL     1      -0.495  -1.729   4.435  1.00  0.00     0.000 A   
BRANCH  10  15
ATOM     15  N1  UNL     1       1.485  -0.167   1.042  1.00  0.00     0.092 N   
ATOM     16  O1  UNL     1       0.765   0.394   0.191  1.00  0.00    -0.138 OA  
ATOM     17  O2  UNL     1       2.714  -0.265   0.959  1.00  0.00    -0.138 OA  
ENDBRANCH  10  15
ENDBRANCH   8   9
ENDBRANCH   7   8
ENDBRANCH   1   7
BRANCH   3  18
ATOM     18  C11 UNL     1      -0.015  -0.743  -2.951  1.00  0.00     0.117 C   
BRANCH  18  19
ATOM     19  N3  UNL     1      -0.346   0.598  -2.345  1.00  0.00     0.249 N   
ATOM     20  H11 UNL     1       0.164   1.369  -2.779  1.00  0.00     0.199 HD  
ATOM     21  H12 UNL     1      -0.003   0.580  -1.363  1.00  0.00     0.199 HD  
BRANCH  19  22
ATOM     22  C12 UNL     1      -1.790   0.949  -2.296  1.00  0.00     0.164 C   
BRANCH  22  23
ATOM     23  C13 UNL     1      -2.011   2.140  -1.406  1.00  0.00    -0.002 A   
ATOM     24  C14 UNL     1      -1.914   3.454  -1.920  1.00  0.00     0.012 A   
ATOM     25  C18 UNL     1      -2.246   1.946  -0.032  1.00  0.00     0.045 A   
ATOM     26  C15 UNL     1      -2.058   4.563  -1.079  1.00  0.00     0.037 A   
ATOM     27  C17 UNL     1      -2.383   3.060   0.767  1.00  0.00     0.109 A   
ATOM     28  C16 UNL     1      -2.293   4.332   0.258  1.00  0.00     0.108 A   
ATOM     29  O3  UNL     1      -2.606   3.051   2.107  1.00  0.00    -0.316 OA  
ATOM     30  O4  UNL     1      -2.452   5.284   1.213  1.00  0.00    -0.316 OA  
ATOM     31  C19 UNL     1      -2.706   4.468   2.376  1.00  0.00     0.337 C   
ENDBRANCH  22  23
ENDBRANCH  19  22
ENDBRANCH  18  19
BRANCH  18  32
ATOM     32  C20 UNL     1       1.323  -0.669  -3.715  1.00  0.00     0.043 C   
ATOM     33  C21 UNL     1       1.258   0.184  -4.989  1.00  0.00     0.010 C   
ATOM     34  C24 UNL     1       2.517  -0.061  -2.972  1.00  0.00     0.010 C   
ATOM     35  C22 UNL     1       2.709   0.548  -5.309  1.00  0.00     0.001 C   
ATOM     36  C23 UNL     1       3.533   0.158  -4.085  1.00  0.00     0.001 C   
ENDBRANCH  18  32
ENDBRANCH   3  18
TORSDOF 9
