REMARK SMILES Cc1cccc(N([O-])[O-])c1-n1cc([C@@H]([NH2+]Cc2ccc3c(c2)OCO3)C(C)C)nn1
REMARK SMILES IDX 11 1 12 2 13 3 29 4 30 5 10 6 2 7 3 8 4 9 6 10 5 11 1 12
REMARK SMILES IDX 7 13 8 14 9 15 14 16 15 17 16 20 17 21 18 22 22 23 19 24
REMARK SMILES IDX 21 25 20 26 23 27 25 28 24 29 26 30 27 31 28 32
REMARK H PARENT 15 18 15 19
ROOT
ATOM     1   N2  UNL     1      -1.772  -0.962  -2.015  1.00  0.00    -0.178 N   
ATOM     2   C8  UNL     1      -1.906   0.141  -1.191  1.00  0.00     0.135 A   
ATOM     3   C9  UNL     1      -0.690   0.271  -0.562  1.00  0.00     0.127 A   
ATOM     4   N4  UNL     1       0.168  -0.668  -1.057  1.00  0.00    -0.131 NA  
ATOM     5   N5  UNL     1      -0.484  -1.379  -1.963  1.00  0.00    -0.071 NA  
ENDROOT
BRANCH   1   6
ATOM     6   C7  UNL     1      -2.759  -1.632  -2.790  1.00  0.00     0.089 A   
ATOM     7   C2  UNL     1      -2.425  -2.224  -4.034  1.00  0.00    -0.025 A   
ATOM     8   C3  UNL     1      -3.440  -2.856  -4.782  1.00  0.00     0.005 A   
ATOM     9   C4  UNL     1      -4.761  -2.901  -4.337  1.00  0.00     0.003 A   
ATOM     10  C6  UNL     1      -4.098  -1.720  -2.349  1.00  0.00     0.141 A   
ATOM     11  C5  UNL     1      -5.098  -2.336  -3.115  1.00  0.00     0.033 A   
ATOM     12  C1  UNL     1      -1.043  -2.201  -4.641  1.00  0.00     0.046 C   
BRANCH  10  13
ATOM     13  N1  UNL     1      -4.492  -1.310  -1.012  1.00  0.00     0.094 N   
ATOM     14  O1  UNL     1      -5.374  -0.448  -0.924  1.00  0.00    -0.138 OA  
ATOM     15  O2  UNL     1      -3.878  -1.811  -0.059  1.00  0.00    -0.138 OA  
ENDBRANCH  10  13
ENDBRANCH   1   6
BRANCH   3  16
ATOM     16  C10 UNL     1      -0.241   1.190   0.530  1.00  0.00     0.117 C   
BRANCH  16  17
ATOM     17  N3  UNL     1       0.768   0.503   1.409  1.00  0.00     0.249 N   
ATOM     18  H9  UNL     1       1.450   0.044   0.787  1.00  0.00     0.199 HD  
ATOM     19  H10 UNL     1       1.301   1.170   1.976  1.00  0.00     0.199 HD  
BRANCH  17  20
ATOM     20  C11 UNL     1       0.214  -0.551   2.307  1.00  0.00     0.164 C   
BRANCH  20  21
ATOM     21  C12 UNL     1       1.319  -1.198   3.093  1.00  0.00    -0.002 A   
ATOM     22  C13 UNL     1       1.651  -0.728   4.386  1.00  0.00     0.012 A   
ATOM     23  C17 UNL     1       2.068  -2.242   2.522  1.00  0.00     0.045 A   
ATOM     24  C14 UNL     1       2.708  -1.295   5.106  1.00  0.00     0.037 A   
ATOM     25  C16 UNL     1       3.103  -2.778   3.259  1.00  0.00     0.109 A   
ATOM     26  C15 UNL     1       3.415  -2.318   4.514  1.00  0.00     0.108 A   
ATOM     27  O3  UNL     1       3.922  -3.785   2.856  1.00  0.00    -0.316 OA  
ATOM     28  O4  UNL     1       4.467  -2.980   5.062  1.00  0.00    -0.316 OA  
ATOM     29  C18 UNL     1       4.772  -3.928   4.016  1.00  0.00     0.337 C   
ENDBRANCH  20  21
ENDBRANCH  17  20
ENDBRANCH  16  17
BRANCH  16  30
ATOM     30  C19 UNL     1       0.334   2.522  -0.020  1.00  0.00     0.037 C   
ATOM     31  C20 UNL     1       0.472   3.576   1.086  1.00  0.00     0.014 C   
ATOM     32  C21 UNL     1       1.670   2.371  -0.756  1.00  0.00     0.014 C   
ENDBRANCH  16  30
ENDBRANCH   3  16
TORSDOF 7
