REMARK SMILES CCn1cnc(Cl)c1CCn1cc([C@@H]([NH2+]Cc2ccc3c(c2)OCO3)C(C)(C)C)nn1
REMARK SMILES IDX 11 1 12 2 13 3 30 4 31 5 10 7 9 8 8 9 3 10 4 11 5 12 6 13
REMARK SMILES IDX 7 14 2 15 1 16 14 17 15 18 16 21 17 22 18 23 22 24 19 25
REMARK SMILES IDX 21 26 20 27 23 28 25 29 24 30 26 31 27 32 28 33 29 34
REMARK H PARENT 12 6 15 19 15 20
ROOT
ATOM     1   N3  UNL     1       1.430  -1.893  -1.801  1.00  0.00    -0.212 N   
ATOM     2   C8  UNL     1       0.171  -2.061  -1.301  1.00  0.00     0.045 A   
ATOM     3   C9  UNL     1      -0.337  -0.782  -1.239  1.00  0.00     0.127 A   
ATOM     4   N5  UNL     1       0.604   0.096  -1.717  1.00  0.00    -0.132 NA  
ATOM     5   N6  UNL     1       1.680  -0.596  -2.053  1.00  0.00    -0.076 NA  
ATOM     6   H11 UNL     1      -0.217  -3.029  -1.015  1.00  0.00     0.083 HD  
ENDROOT
BRANCH   1   7
ATOM     7   C7  UNL     1       2.440  -2.901  -2.050  1.00  0.00     0.140 C   
BRANCH   7   8
ATOM     8   C6  UNL     1       3.396  -3.107  -0.871  1.00  0.00     0.076 C   
BRANCH   8   9
ATOM     9   C5  UNL     1       2.737  -3.775   0.296  1.00  0.00     0.050 A   
ATOM     10  N1  UNL     1       2.629  -5.138   0.473  1.00  0.00    -0.293 N   
ATOM     11  C3  UNL     1       1.906  -5.351   1.614  1.00  0.00     0.190 A   
ATOM     12  N2  UNL     1       1.571  -4.221   2.190  1.00  0.00    -0.227 NA  
ATOM     13  C4  UNL     1       2.128  -3.239   1.418  1.00  0.00     0.147 A   
ATOM     14  CL1 UNL     1       1.987  -1.593   1.828  1.00  0.00    -0.061 Cl  
BRANCH  10  15
ATOM     15  C2  UNL     1       3.161  -6.197  -0.365  1.00  0.00     0.108 C   
ATOM     16  C1  UNL     1       4.569  -6.598   0.040  1.00  0.00     0.025 C   
ENDBRANCH  10  15
ENDBRANCH   8   9
ENDBRANCH   7   8
ENDBRANCH   1   7
BRANCH   3  17
ATOM     17  C10 UNL     1      -1.630  -0.258  -0.689  1.00  0.00     0.120 C   
BRANCH  17  18
ATOM     18  N4  UNL     1      -1.397   1.109  -0.087  1.00  0.00     0.250 N   
ATOM     19  H13 UNL     1      -2.269   1.617   0.075  1.00  0.00     0.199 HD  
ATOM     20  H14 UNL     1      -0.863   1.654  -0.780  1.00  0.00     0.199 HD  
BRANCH  18  21
ATOM     21  C11 UNL     1      -0.602   1.127   1.175  1.00  0.00     0.164 C   
BRANCH  21  22
ATOM     22  C12 UNL     1      -0.516   2.528   1.714  1.00  0.00    -0.002 A   
ATOM     23  C13 UNL     1      -1.452   2.987   2.672  1.00  0.00     0.012 A   
ATOM     24  C17 UNL     1       0.466   3.408   1.226  1.00  0.00     0.045 A   
ATOM     25  C14 UNL     1      -1.406   4.302   3.146  1.00  0.00     0.037 A   
ATOM     26  C16 UNL     1       0.482   4.698   1.715  1.00  0.00     0.109 A   
ATOM     27  C15 UNL     1      -0.427   5.133   2.647  1.00  0.00     0.108 A   
ATOM     28  O1  UNL     1       1.358   5.670   1.351  1.00  0.00    -0.316 OA  
ATOM     29  O2  UNL     1      -0.236   6.433   2.990  1.00  0.00    -0.316 OA  
ATOM     30  C18 UNL     1       0.915   6.765   2.183  1.00  0.00     0.337 C   
ENDBRANCH  21  22
ENDBRANCH  18  21
ENDBRANCH  17  18
BRANCH  17  31
ATOM     31  C19 UNL     1      -2.795  -0.194  -1.740  1.00  0.00     0.010 C   
ATOM     32  C20 UNL     1      -3.030  -1.589  -2.366  1.00  0.00     0.017 C   
ATOM     33  C21 UNL     1      -4.119   0.216  -1.054  1.00  0.00     0.017 C   
ATOM     34  C22 UNL     1      -2.511   0.805  -2.880  1.00  0.00     0.017 C   
ENDBRANCH  17  31
ENDBRANCH   3  17
TORSDOF 9
