REMARK SMILES CN(C)c1cccc(Cn2cc([C@@H]([NH2+]Cc3ccc4c(c3)OCO4)C3CCCC3)nn2)c1
REMARK SMILES IDX 10 1 11 2 12 3 30 4 31 5 9 7 8 8 4 9 5 10 32 11 6 12 7 13
REMARK SMILES IDX 2 14 1 15 3 16 13 17 14 18 15 21 16 22 17 23 21 24 18 25
REMARK SMILES IDX 20 26 19 27 22 28 24 29 23 30 25 31 26 32 29 33 27 34 28 35
REMARK H PARENT 11 6 14 19 14 20
ROOT
ATOM     1   N2  UNL     1       0.051  -0.922  -2.551  1.00  0.00    -0.208 N   
ATOM     2   C9  UNL     1       0.503   0.320  -2.190  1.00  0.00     0.046 A   
ATOM     3   C10 UNL     1       1.692   0.065  -1.546  1.00  0.00     0.127 A   
ATOM     4   N4  UNL     1       1.955  -1.279  -1.600  1.00  0.00    -0.132 NA  
ATOM     5   N5  UNL     1       0.940  -1.873  -2.207  1.00  0.00    -0.076 NA  
ATOM     6   H12 UNL     1      -0.082   1.215  -2.342  1.00  0.00     0.083 HD  
ENDROOT
BRANCH   1   7
ATOM     7   C8  UNL     1      -1.258  -1.279  -3.075  1.00  0.00     0.169 C   
BRANCH   7   8
ATOM     8   C7  UNL     1      -2.333  -0.893  -2.087  1.00  0.00    -0.027 A   
ATOM     9   C3  UNL     1      -3.418  -1.264   0.105  1.00  0.00     0.028 A   
ATOM     10  C4  UNL     1      -4.186  -0.115  -0.161  1.00  0.00     0.023 A   
ATOM     11  C25 UNL     1      -2.485  -1.619  -0.885  1.00  0.00     0.029 A   
ATOM     12  C5  UNL     1      -4.062   0.610  -1.352  1.00  0.00     0.002 A   
ATOM     13  C6  UNL     1      -3.141   0.221  -2.316  1.00  0.00     0.005 A   
BRANCH   9  14
ATOM     14  N1  UNL     1      -3.541  -1.966   1.317  1.00  0.00    -0.337 N   
ATOM     15  C1  UNL     1      -2.792  -3.213   1.487  1.00  0.00     0.129 C   
ATOM     16  C2  UNL     1      -4.880  -1.994   1.924  1.00  0.00     0.129 C   
ENDBRANCH   9  14
ENDBRANCH   7   8
ENDBRANCH   1   7
BRANCH   3  17
ATOM     17  C11 UNL     1       2.581   0.963  -0.753  1.00  0.00     0.117 C   
BRANCH  17  18
ATOM     18  N3  UNL     1       2.916   0.316   0.575  1.00  0.00     0.249 N   
ATOM     19  H14 UNL     1       3.382  -0.577   0.357  1.00  0.00     0.199 HD  
ATOM     20  H15 UNL     1       3.583   0.893   1.093  1.00  0.00     0.199 HD  
BRANCH  18  21
ATOM     21  C12 UNL     1       1.758  -0.005   1.472  1.00  0.00     0.164 C   
BRANCH  21  22
ATOM     22  C13 UNL     1       0.928   1.193   1.837  1.00  0.00    -0.002 A   
ATOM     23  C14 UNL     1      -0.423   1.275   1.421  1.00  0.00     0.012 A   
ATOM     24  C18 UNL     1       1.483   2.243   2.590  1.00  0.00     0.045 A   
ATOM     25  C15 UNL     1      -1.208   2.391   1.732  1.00  0.00     0.037 A   
ATOM     26  C17 UNL     1       0.683   3.331   2.877  1.00  0.00     0.109 A   
ATOM     27  C16 UNL     1      -0.622   3.406   2.457  1.00  0.00     0.108 A   
ATOM     28  O1  UNL     1       1.063   4.425   3.589  1.00  0.00    -0.316 OA  
ATOM     29  O2  UNL     1      -1.227   4.559   2.850  1.00  0.00    -0.316 OA  
ATOM     30  C19 UNL     1      -0.167   5.188   3.601  1.00  0.00     0.337 C   
ENDBRANCH  21  22
ENDBRANCH  18  21
ENDBRANCH  17  18
BRANCH  17  31
ATOM     31  C20 UNL     1       3.896   1.276  -1.493  1.00  0.00     0.043 C   
ATOM     32  C21 UNL     1       4.859   2.183  -0.718  1.00  0.00     0.010 C   
ATOM     33  C24 UNL     1       3.684   2.074  -2.783  1.00  0.00     0.010 C   
ATOM     34  C22 UNL     1       5.760   2.819  -1.774  1.00  0.00     0.001 C   
ATOM     35  C23 UNL     1       5.077   2.586  -3.119  1.00  0.00     0.001 C   
ENDBRANCH  17  31
ENDBRANCH   3  17
TORSDOF 8
