REMARK SMILES CC(C)C[C@H]([NH2+]Cc1ccc2c(c1)OCO2)c1cn([C@H](CO)c2ccc(Cl)o2)nn1
REMARK SMILES IDX 17 1 18 2 19 3 29 4 30 5 5 7 4 8 2 9 1 10 3 11 6 12 7 15
REMARK SMILES IDX 8 16 9 17 13 18 10 19 12 20 11 21 14 22 16 23 15 24 20 25
REMARK SMILES IDX 21 26 22 27 23 29 24 30 28 31 25 32 26 33 27 34
REMARK H PARENT 18 6 6 13 6 14 22 28
ROOT
ATOM     1   C14 UNL     1       0.679  -1.488   1.532  1.00  0.00     0.127 A   
ATOM     2   C15 UNL     1       1.651  -0.784   0.861  1.00  0.00     0.046 A   
ATOM     3   N2  UNL     1       2.797  -1.499   1.087  1.00  0.00    -0.200 N   
ATOM     4   N3  UNL     1       2.542  -2.561   1.880  1.00  0.00    -0.075 NA  
ATOM     5   N4  UNL     1       1.248  -2.564   2.157  1.00  0.00    -0.132 NA  
ATOM     6   H20 UNL     1       1.638   0.106   0.246  1.00  0.00     0.083 HD  
ENDROOT
BRANCH   1   7
ATOM     7   C5  UNL     1      -0.796  -1.282   1.594  1.00  0.00     0.114 C   
BRANCH   7   8
ATOM     8   C4  UNL     1      -1.214  -0.646   2.940  1.00  0.00     0.064 C   
BRANCH   8   9
ATOM     9   C2  UNL     1      -2.390   0.354   2.886  1.00  0.00    -0.012 C   
ATOM     10  C1  UNL     1      -2.010   1.633   2.136  1.00  0.00     0.007 C   
ATOM     11  C3  UNL     1      -3.676  -0.239   2.313  1.00  0.00     0.007 C   
ENDBRANCH   8   9
ENDBRANCH   7   8
BRANCH   7  12
ATOM     12  N1  UNL     1      -1.515  -2.607   1.446  1.00  0.00     0.249 N   
ATOM     13  H11 UNL     1      -1.156  -3.218   2.193  1.00  0.00     0.199 HD  
ATOM     14  H12 UNL     1      -2.517  -2.485   1.607  1.00  0.00     0.199 HD  
BRANCH  12  15
ATOM     15  C6  UNL     1      -1.309  -3.337   0.155  1.00  0.00     0.164 C   
BRANCH  15  16
ATOM     16  C7  UNL     1      -1.737  -2.555  -1.056  1.00  0.00    -0.002 A   
ATOM     17  C8  UNL     1      -0.770  -2.107  -1.991  1.00  0.00     0.012 A   
ATOM     18  C12 UNL     1      -3.092  -2.250  -1.265  1.00  0.00     0.045 A   
ATOM     19  C9  UNL     1      -1.142  -1.361  -3.115  1.00  0.00     0.037 A   
ATOM     20  C11 UNL     1      -3.425  -1.500  -2.376  1.00  0.00     0.109 A   
ATOM     21  C10 UNL     1      -2.479  -1.071  -3.277  1.00  0.00     0.108 A   
ATOM     22  O1  UNL     1      -4.682  -1.118  -2.723  1.00  0.00    -0.316 OA  
ATOM     23  O2  UNL     1      -3.022  -0.363  -4.302  1.00  0.00    -0.316 OA  
ATOM     24  C13 UNL     1      -4.425  -0.415  -3.962  1.00  0.00     0.337 C   
ENDBRANCH  15  16
ENDBRANCH  12  15
ENDBRANCH   7  12
ENDBRANCH   1   7
BRANCH   3  25
ATOM     25  C16 UNL     1       4.146  -1.267   0.574  1.00  0.00     0.179 C   
BRANCH  25  26
ATOM     26  C17 UNL     1       4.872  -0.195   1.404  1.00  0.00     0.188 C   
BRANCH  26  27
ATOM     27  O3  UNL     1       4.235   1.082   1.319  1.00  0.00    -0.394 OA  
ATOM     28  H24 UNL     1       4.771   1.708   1.844  1.00  0.00     0.210 HD  
ENDBRANCH  26  27
ENDBRANCH  25  26
BRANCH  25  29
ATOM     29  C18 UNL     1       4.109  -0.986  -0.901  1.00  0.00     0.086 A   
ATOM     30  C19 UNL     1       4.539   0.058  -1.701  1.00  0.00     0.035 A   
ATOM     31  O4  UNL     1       3.533  -1.955  -1.681  1.00  0.00    -0.301 OA  
ATOM     32  C20 UNL     1       4.207  -0.295  -3.034  1.00  0.00     0.049 A   
ATOM     33  C21 UNL     1       3.588  -1.527  -2.974  1.00  0.00     0.147 A   
ATOM     34  CL1 UNL     1       2.948  -2.431  -4.288  1.00  0.00    -0.056 Cl  
ENDBRANCH  25  29
ENDBRANCH   3  25
TORSDOF 10
