REMARK SMILES CC(C)C[C@H]([NH2+]Cc1ccc2c(c1)OCO2)c1cn([C@@H](CO)c2ccc(Cl)o2)nn1
REMARK SMILES IDX 17 1 18 2 19 3 29 4 30 5 5 7 4 8 2 9 1 10 3 11 6 12 7 15
REMARK SMILES IDX 8 16 9 17 13 18 10 19 12 20 11 21 14 22 16 23 15 24 20 25
REMARK SMILES IDX 21 26 22 27 23 29 24 30 28 31 25 32 26 33 27 34
REMARK H PARENT 18 6 6 13 6 14 22 28
ROOT
ATOM     1   C14 UNL     1      -0.114  -0.490  -0.206  1.00  0.00     0.127 A   
ATOM     2   C15 UNL     1      -0.778  -1.661  -0.495  1.00  0.00     0.046 A   
ATOM     3   N2  UNL     1      -1.036  -2.214   0.732  1.00  0.00    -0.200 N   
ATOM     4   N3  UNL     1      -0.596  -1.402   1.719  1.00  0.00    -0.075 NA  
ATOM     5   N4  UNL     1      -0.023  -0.352   1.156  1.00  0.00    -0.132 NA  
ATOM     6   H20 UNL     1      -1.075  -2.143  -1.416  1.00  0.00     0.083 HD  
ENDROOT
BRANCH   1   7
ATOM     7   C5  UNL     1       0.410   0.594  -1.095  1.00  0.00     0.114 C   
BRANCH   7   8
ATOM     8   C4  UNL     1       1.810   0.288  -1.661  1.00  0.00     0.064 C   
BRANCH   8   9
ATOM     9   C2  UNL     1       1.884  -0.896  -2.650  1.00  0.00    -0.012 C   
ATOM     10  C1  UNL     1       3.335  -1.103  -3.096  1.00  0.00     0.007 C   
ATOM     11  C3  UNL     1       0.995  -0.688  -3.877  1.00  0.00     0.007 C   
ENDBRANCH   8   9
ENDBRANCH   7   8
BRANCH   7  12
ATOM     12  N1  UNL     1       0.504   1.869  -0.288  1.00  0.00     0.249 N   
ATOM     13  H11 UNL     1      -0.241   1.835   0.424  1.00  0.00     0.199 HD  
ATOM     14  H12 UNL     1       1.362   1.844   0.279  1.00  0.00     0.199 HD  
BRANCH  12  15
ATOM     15  C6  UNL     1       0.398   3.144  -1.033  1.00  0.00     0.164 C   
BRANCH  15  16
ATOM     16  C7  UNL     1       0.602   4.314  -0.113  1.00  0.00    -0.002 A   
ATOM     17  C8  UNL     1      -0.501   4.923   0.532  1.00  0.00     0.012 A   
ATOM     18  C12 UNL     1       1.902   4.779   0.152  1.00  0.00     0.045 A   
ATOM     19  C9  UNL     1      -0.315   5.988   1.421  1.00  0.00     0.037 A   
ATOM     20  C11 UNL     1       2.050   5.829   1.034  1.00  0.00     0.109 A   
ATOM     21  C10 UNL     1       0.974   6.418   1.650  1.00  0.00     0.108 A   
ATOM     22  O1  UNL     1       3.231   6.393   1.399  1.00  0.00    -0.316 OA  
ATOM     23  O2  UNL     1       1.340   7.431   2.478  1.00  0.00    -0.316 OA  
ATOM     24  C13 UNL     1       2.773   7.426   2.302  1.00  0.00     0.337 C   
ENDBRANCH  15  16
ENDBRANCH  12  15
ENDBRANCH   7  12
ENDBRANCH   1   7
BRANCH   3  25
ATOM     25  C16 UNL     1      -1.722  -3.472   1.019  1.00  0.00     0.179 C   
BRANCH  25  26
ATOM     26  C17 UNL     1      -0.884  -4.396   1.913  1.00  0.00     0.188 C   
BRANCH  26  27
ATOM     27  O3  UNL     1       0.237  -4.903   1.184  1.00  0.00    -0.394 OA  
ATOM     28  H24 UNL     1       0.725  -5.496   1.786  1.00  0.00     0.210 HD  
ENDBRANCH  26  27
ENDBRANCH  25  26
BRANCH  25  29
ATOM     29  C18 UNL     1      -3.073  -3.181   1.590  1.00  0.00     0.086 A   
ATOM     30  C19 UNL     1      -3.544  -2.861   2.848  1.00  0.00     0.035 A   
ATOM     31  O4  UNL     1      -4.112  -3.216   0.705  1.00  0.00    -0.301 OA  
ATOM     32  C20 UNL     1      -4.947  -2.703   2.720  1.00  0.00     0.049 A   
ATOM     33  C21 UNL     1      -5.250  -2.927   1.395  1.00  0.00     0.147 A   
ATOM     34  CL1 UNL     1      -6.803  -2.860   0.666  1.00  0.00    -0.056 Cl  
ENDBRANCH  25  29
ENDBRANCH   3  25
TORSDOF 10
