REMARK SMILES CC(C)c1[nH]ncc1Cn1cc([C@@H]([NH2+]Cc2ccc3c(c2)OCO3)C(C)(C)C)nn1
REMARK SMILES IDX 10 1 11 2 12 3 29 4 30 5 9 7 8 8 4 9 5 10 6 11 7 12 2 14
REMARK SMILES IDX 1 15 3 16 13 17 14 18 15 21 16 22 17 23 21 24 18 25 20 26
REMARK SMILES IDX 19 27 22 28 24 29 23 30 25 31 26 32 27 33 28 34
REMARK H PARENT 11 6 5 13 14 19 14 20
ROOT
ATOM     1   N3  UNL     1       1.676   2.113   0.186  1.00  0.00    -0.208 N   
ATOM     2   C8  UNL     1       0.598   1.510  -0.406  1.00  0.00     0.046 A   
ATOM     3   C9  UNL     1      -0.453   1.817   0.428  1.00  0.00     0.127 A   
ATOM     4   N5  UNL     1      -0.005   2.631   1.437  1.00  0.00    -0.132 NA  
ATOM     5   N6  UNL     1       1.298   2.802   1.280  1.00  0.00    -0.076 NA  
ATOM     6   H12 UNL     1       0.696   0.875  -1.276  1.00  0.00     0.083 HD  
ENDROOT
BRANCH   1   7
ATOM     7   C7  UNL     1       3.084   1.914  -0.120  1.00  0.00     0.172 C   
BRANCH   7   8
ATOM     8   C6  UNL     1       3.469   0.526   0.265  1.00  0.00     0.010 A   
ATOM     9   C4  UNL     1       3.687  -0.587  -0.534  1.00  0.00     0.034 A   
ATOM     10  N1  UNL     1       3.963  -1.615   0.334  1.00  0.00    -0.242 N   
ATOM     11  N2  UNL     1       3.894  -1.258   1.625  1.00  0.00    -0.192 NA  
ATOM     12  C5  UNL     1       3.648   0.049   1.585  1.00  0.00     0.138 A   
ATOM     13  H8  UNL     1       4.185  -2.583   0.114  1.00  0.00     0.175 HD  
BRANCH   9  14
ATOM     14  C2  UNL     1       3.669  -0.776  -2.024  1.00  0.00     0.029 C   
ATOM     15  C1  UNL     1       5.058  -1.130  -2.553  1.00  0.00     0.014 C   
ATOM     16  C3  UNL     1       2.640  -1.825  -2.444  1.00  0.00     0.014 C   
ENDBRANCH   9  14
ENDBRANCH   7   8
ENDBRANCH   1   7
BRANCH   3  17
ATOM     17  C10 UNL     1      -1.856   1.298   0.457  1.00  0.00     0.120 C   
BRANCH  17  18
ATOM     18  N4  UNL     1      -2.225   0.922   1.881  1.00  0.00     0.250 N   
ATOM     19  H14 UNL     1      -3.207   0.653   1.942  1.00  0.00     0.199 HD  
ATOM     20  H15 UNL     1      -2.098   1.770   2.449  1.00  0.00     0.199 HD  
BRANCH  18  21
ATOM     21  C11 UNL     1      -1.398  -0.147   2.529  1.00  0.00     0.164 C   
BRANCH  21  22
ATOM     22  C12 UNL     1      -1.429  -1.460   1.798  1.00  0.00    -0.002 A   
ATOM     23  C13 UNL     1      -2.611  -2.236   1.765  1.00  0.00     0.012 A   
ATOM     24  C17 UNL     1      -0.282  -1.915   1.122  1.00  0.00     0.045 A   
ATOM     25  C14 UNL     1      -2.656  -3.444   1.061  1.00  0.00     0.037 A   
ATOM     26  C16 UNL     1      -0.361  -3.106   0.433  1.00  0.00     0.109 A   
ATOM     27  C15 UNL     1      -1.516  -3.849   0.404  1.00  0.00     0.108 A   
ATOM     28  O1  UNL     1       0.643  -3.678  -0.284  1.00  0.00    -0.316 OA  
ATOM     29  O2  UNL     1      -1.382  -4.985  -0.328  1.00  0.00    -0.316 OA  
ATOM     30  C18 UNL     1      -0.002  -4.890  -0.736  1.00  0.00     0.337 C   
ENDBRANCH  21  22
ENDBRANCH  18  21
ENDBRANCH  17  18
BRANCH  17  31
ATOM     31  C19 UNL     1      -2.918   2.284  -0.148  1.00  0.00     0.010 C   
ATOM     32  C20 UNL     1      -4.314   1.618  -0.182  1.00  0.00     0.017 C   
ATOM     33  C21 UNL     1      -2.545   2.623  -1.610  1.00  0.00     0.017 C   
ATOM     34  C22 UNL     1      -3.036   3.603   0.640  1.00  0.00     0.017 C   
ENDBRANCH  17  31
ENDBRANCH   3  17
TORSDOF 8
