REMARK SMILES CN(C)c1ccc(-n2cc([C@@H]([NH2+]Cc3ccc4c(c3)OCO4)C3CCCC3)nn2)cc1
REMARK SMILES IDX 8 1 9 2 10 3 28 4 29 5 7 6 4 7 5 8 31 9 6 10 30 11 2 12 1 13
REMARK SMILES IDX 3 14 11 15 12 16 13 19 14 20 15 21 19 22 16 23 18 24 17 25
REMARK SMILES IDX 20 26 22 27 21 28 23 29 24 30 27 31 25 32 26 33
REMARK H PARENT 12 17 12 18
ROOT
ATOM     1   N2  UNL     1       0.525   1.356  -0.733  1.00  0.00    -0.181 N   
ATOM     2   C7  UNL     1       0.868   0.052  -0.426  1.00  0.00     0.135 A   
ATOM     3   C8  UNL     1      -0.303  -0.663  -0.540  1.00  0.00     0.127 A   
ATOM     4   N4  UNL     1      -1.315   0.188  -0.882  1.00  0.00    -0.131 NA  
ATOM     5   N5  UNL     1      -0.810   1.406  -0.982  1.00  0.00    -0.071 NA  
ENDROOT
BRANCH   1   6
ATOM     6   C6  UNL     1       1.346   2.507  -0.783  1.00  0.00     0.058 A   
ATOM     7   C3  UNL     1       2.969   4.863  -0.888  1.00  0.00     0.028 A   
ATOM     8   C4  UNL     1       3.499   3.601  -0.564  1.00  0.00     0.025 A   
ATOM     9   C24 UNL     1       1.588   4.896  -1.143  1.00  0.00     0.025 A   
ATOM     10  C5  UNL     1       2.712   2.438  -0.514  1.00  0.00     0.028 A   
ATOM     11  C23 UNL     1       0.784   3.746  -1.100  1.00  0.00     0.028 A   
BRANCH   7  12
ATOM     12  N1  UNL     1       3.758   6.016  -0.909  1.00  0.00    -0.337 N   
ATOM     13  C1  UNL     1       3.221   7.242  -1.500  1.00  0.00     0.129 C   
ATOM     14  C2  UNL     1       5.215   5.892  -0.936  1.00  0.00     0.129 C   
ENDBRANCH   7  12
ENDBRANCH   1   6
BRANCH   3  15
ATOM     15  C9  UNL     1      -0.605  -2.111  -0.318  1.00  0.00     0.117 C   
BRANCH  15  16
ATOM     16  N3  UNL     1      -2.000  -2.261   0.239  1.00  0.00     0.249 N   
ATOM     17  H11 UNL     1      -2.335  -3.226   0.175  1.00  0.00     0.199 HD  
ATOM     18  H12 UNL     1      -2.625  -1.699  -0.358  1.00  0.00     0.199 HD  
BRANCH  16  19
ATOM     19  C10 UNL     1      -2.186  -1.791   1.642  1.00  0.00     0.164 C   
BRANCH  19  20
ATOM     20  C11 UNL     1      -3.612  -1.984   2.071  1.00  0.00    -0.002 A   
ATOM     21  C12 UNL     1      -4.580  -0.990   1.788  1.00  0.00     0.012 A   
ATOM     22  C16 UNL     1      -4.007  -3.176   2.701  1.00  0.00     0.045 A   
ATOM     23  C13 UNL     1      -5.922  -1.174   2.138  1.00  0.00     0.037 A   
ATOM     24  C15 UNL     1      -5.338  -3.325   3.033  1.00  0.00     0.109 A   
ATOM     25  C14 UNL     1      -6.269  -2.353   2.759  1.00  0.00     0.108 A   
ATOM     26  O1  UNL     1      -5.883  -4.410   3.643  1.00  0.00    -0.316 OA  
ATOM     27  O2  UNL     1      -7.517  -2.704   3.163  1.00  0.00    -0.316 OA  
ATOM     28  C17 UNL     1      -7.266  -4.000   3.747  1.00  0.00     0.337 C   
ENDBRANCH  19  20
ENDBRANCH  16  19
ENDBRANCH  15  16
BRANCH  15  29
ATOM     29  C18 UNL     1      -0.513  -2.925  -1.625  1.00  0.00     0.043 C   
ATOM     30  C19 UNL     1      -0.797  -4.423  -1.459  1.00  0.00     0.010 C   
ATOM     31  C22 UNL     1       0.892  -2.939  -2.237  1.00  0.00     0.010 C   
ATOM     32  C20 UNL     1      -0.123  -5.101  -2.651  1.00  0.00     0.001 C   
ATOM     33  C21 UNL     1       0.830  -4.072  -3.250  1.00  0.00     0.001 C   
ENDBRANCH  15  29
ENDBRANCH   3  15
TORSDOF 7
