REMARK SMILES COc1ccc(CCn2cc([C@@H]([NH2+]Cc3ccc4c(c3)OCO4)C3CCCC3)nn2)cc1F
REMARK SMILES IDX 9 1 10 2 11 3 29 4 30 5 8 7 7 8 6 9 3 10 4 11 32 12 5 13
REMARK SMILES IDX 31 14 33 15 2 16 1 17 12 18 13 19 14 22 15 23 16 24 20 25
REMARK SMILES IDX 17 26 19 27 18 28 21 29 23 30 22 31 24 32 25 33 28 34 26 35
REMARK SMILES IDX 27 36
REMARK H PARENT 10 6 13 20 13 21
ROOT
ATOM     1   N1  UNL     1       1.798   2.333   1.677  1.00  0.00    -0.212 N   
ATOM     2   C8  UNL     1       2.032   1.068   2.141  1.00  0.00     0.045 A   
ATOM     3   C9  UNL     1       2.203   0.326   0.995  1.00  0.00     0.127 A   
ATOM     4   N3  UNL     1       2.122   1.154  -0.097  1.00  0.00    -0.132 NA  
ATOM     5   N4  UNL     1       1.876   2.381   0.336  1.00  0.00    -0.076 NA  
ATOM     6   H10 UNL     1       1.984   0.815   3.192  1.00  0.00     0.083 HD  
ENDROOT
BRANCH   1   7
ATOM     7   C7  UNL     1       1.339   3.477   2.438  1.00  0.00     0.139 C   
BRANCH   7   8
ATOM     8   C6  UNL     1      -0.123   3.856   2.154  1.00  0.00     0.057 C   
BRANCH   8   9
ATOM     9   C5  UNL     1      -1.096   2.695   2.161  1.00  0.00    -0.043 A   
ATOM     10  C2  UNL     1      -2.850   0.479   2.083  1.00  0.00     0.110 A   
ATOM     11  C3  UNL     1      -2.771   1.348   0.995  1.00  0.00     0.037 A   
ATOM     12  C25 UNL     1      -2.047   0.725   3.202  1.00  0.00     0.153 A   
ATOM     13  C4  UNL     1      -1.900   2.445   1.034  1.00  0.00     0.006 A   
ATOM     14  C24 UNL     1      -1.198   1.831   3.257  1.00  0.00     0.045 A   
ATOM     15  F1  UNL     1      -2.063  -0.126   4.239  1.00  0.00    -0.204 F   
BRANCH  10  16
ATOM     16  O1  UNL     1      -3.637  -0.645   2.104  1.00  0.00    -0.346 OA  
ATOM     17  C1  UNL     1      -4.924  -0.446   1.524  1.00  0.00     0.203 C   
ENDBRANCH  10  16
ENDBRANCH   8   9
ENDBRANCH   7   8
ENDBRANCH   1   7
BRANCH   3  18
ATOM     18  C10 UNL     1       2.322  -1.149   0.794  1.00  0.00     0.117 C   
BRANCH  18  19
ATOM     19  N2  UNL     1       1.341  -1.581  -0.268  1.00  0.00     0.249 N   
ATOM     20  H12 UNL     1       1.515  -2.540  -0.584  1.00  0.00     0.199 HD  
ATOM     21  H13 UNL     1       1.500  -0.969  -1.084  1.00  0.00     0.199 HD  
BRANCH  19  22
ATOM     22  C11 UNL     1      -0.098  -1.464   0.119  1.00  0.00     0.164 C   
BRANCH  22  23
ATOM     23  C12 UNL     1      -0.988  -1.802  -1.044  1.00  0.00    -0.002 A   
ATOM     24  C13 UNL     1      -1.522  -3.104  -1.190  1.00  0.00     0.012 A   
ATOM     25  C17 UNL     1      -1.257  -0.825  -2.022  1.00  0.00     0.045 A   
ATOM     26  C14 UNL     1      -2.328  -3.430  -2.287  1.00  0.00     0.037 A   
ATOM     27  C16 UNL     1      -2.055  -1.179  -3.090  1.00  0.00     0.109 A   
ATOM     28  C15 UNL     1      -2.577  -2.445  -3.218  1.00  0.00     0.108 A   
ATOM     29  O2  UNL     1      -2.429  -0.359  -4.104  1.00  0.00    -0.316 OA  
ATOM     30  O3  UNL     1      -3.344  -2.581  -4.329  1.00  0.00    -0.316 OA  
ATOM     31  C18 UNL     1      -3.228  -1.260  -4.905  1.00  0.00     0.337 C   
ENDBRANCH  22  23
ENDBRANCH  19  22
ENDBRANCH  18  19
BRANCH  18  32
ATOM     32  C19 UNL     1       3.743  -1.555   0.361  1.00  0.00     0.043 C   
ATOM     33  C20 UNL     1       3.930  -3.060   0.136  1.00  0.00     0.010 C   
ATOM     34  C23 UNL     1       4.800  -1.268   1.433  1.00  0.00     0.010 C   
ATOM     35  C21 UNL     1       5.438  -3.288   0.237  1.00  0.00     0.001 C   
ATOM     36  C22 UNL     1       6.004  -2.089   0.991  1.00  0.00     0.001 C   
ENDBRANCH  18  32
ENDBRANCH   3  18
TORSDOF 9
