REMARK SMILES COc1cc(F)ccc1Cn1cc([C@@H]([NH2+]Cc2ccc3c(c2)OCO3)C2CCCC2)nn1
REMARK SMILES IDX 11 1 12 2 13 3 31 4 32 5 10 7 9 8 3 9 4 10 5 11 8 12 7 13
REMARK SMILES IDX 6 14 2 15 1 16 14 17 15 18 16 21 17 22 18 23 22 24 19 25
REMARK SMILES IDX 21 26 20 27 23 28 25 29 24 30 26 31 27 32 30 33 28 34 29 35
REMARK H PARENT 12 6 15 19 15 20
ROOT
ATOM     1   N1  UNL     1      -0.572  -1.845   1.664  1.00  0.00    -0.208 N   
ATOM     2   C9  UNL     1      -0.246  -2.120   0.364  1.00  0.00     0.046 A   
ATOM     3   C10 UNL     1       0.632  -1.117   0.021  1.00  0.00     0.127 A   
ATOM     4   N3  UNL     1       0.815  -0.290   1.100  1.00  0.00    -0.132 NA  
ATOM     5   N4  UNL     1       0.075  -0.744   2.097  1.00  0.00    -0.076 NA  
ATOM     6   H9  UNL     1      -0.663  -2.963  -0.167  1.00  0.00     0.083 HD  
ENDROOT
BRANCH   1   7
ATOM     7   C8  UNL     1      -1.450  -2.586   2.551  1.00  0.00     0.172 C   
BRANCH   7   8
ATOM     8   C7  UNL     1      -2.873  -2.092   2.443  1.00  0.00     0.002 A   
ATOM     9   C2  UNL     1      -3.770  -2.642   1.506  1.00  0.00     0.082 A   
ATOM     10  C3  UNL     1      -5.075  -2.150   1.429  1.00  0.00     0.073 A   
ATOM     11  C4  UNL     1      -5.478  -1.123   2.277  1.00  0.00     0.125 A   
ATOM     12  C6  UNL     1      -3.303  -1.049   3.285  1.00  0.00     0.011 A   
ATOM     13  C5  UNL     1      -4.606  -0.568   3.202  1.00  0.00     0.040 A   
ATOM     14  F1  UNL     1      -6.730  -0.657   2.190  1.00  0.00    -0.207 F   
BRANCH   9  15
ATOM     15  O1  UNL     1      -3.265  -3.631   0.703  1.00  0.00    -0.349 OA  
ATOM     16  C1  UNL     1      -4.211  -4.407  -0.030  1.00  0.00     0.203 C   
ENDBRANCH   9  15
ENDBRANCH   7   8
ENDBRANCH   1   7
BRANCH   3  17
ATOM     17  C11 UNL     1       1.334  -0.812  -1.264  1.00  0.00     0.117 C   
BRANCH  17  18
ATOM     18  N2  UNL     1       1.697   0.648  -1.313  1.00  0.00     0.249 N   
ATOM     19  H11 UNL     1       2.002   0.906  -0.361  1.00  0.00     0.199 HD  
ATOM     20  H12 UNL     1       2.496   0.838  -1.925  1.00  0.00     0.199 HD  
BRANCH  18  21
ATOM     21  C12 UNL     1       0.578   1.566  -1.664  1.00  0.00     0.164 C   
BRANCH  21  22
ATOM     22  C13 UNL     1       1.023   2.996  -1.551  1.00  0.00    -0.002 A   
ATOM     23  C14 UNL     1       0.951   3.663  -0.305  1.00  0.00     0.012 A   
ATOM     24  C18 UNL     1       1.570   3.659  -2.663  1.00  0.00     0.045 A   
ATOM     25  C15 UNL     1       1.406   4.979  -0.168  1.00  0.00     0.037 A   
ATOM     26  C17 UNL     1       2.009   4.956  -2.493  1.00  0.00     0.109 A   
ATOM     27  C16 UNL     1       1.930   5.597  -1.281  1.00  0.00     0.108 A   
ATOM     28  O2  UNL     1       2.558   5.737  -3.460  1.00  0.00    -0.316 OA  
ATOM     29  O3  UNL     1       2.418   6.864  -1.333  1.00  0.00    -0.316 OA  
ATOM     30  C19 UNL     1       2.789   6.961  -2.725  1.00  0.00     0.337 C   
ENDBRANCH  21  22
ENDBRANCH  18  21
ENDBRANCH  17  18
BRANCH  17  31
ATOM     31  C20 UNL     1       2.591  -1.687  -1.451  1.00  0.00     0.043 C   
ATOM     32  C21 UNL     1       3.203  -1.609  -2.857  1.00  0.00     0.010 C   
ATOM     33  C24 UNL     1       3.759  -1.411  -0.482  1.00  0.00     0.010 C   
ATOM     34  C22 UNL     1       4.652  -2.011  -2.641  1.00  0.00     0.001 C   
ATOM     35  C23 UNL     1       5.011  -1.306  -1.345  1.00  0.00     0.001 C   
ENDBRANCH  17  31
ENDBRANCH   3  17
TORSDOF 8
