REMARK SMILES CCn1nccc1CCn1cc([C@@H]([NH2+]Cc2ccc3c(c2)OCO3)C(C)(C)C)nn1
REMARK SMILES IDX 10 1 11 2 12 3 29 4 30 5 9 7 8 8 7 9 3 10 4 11 5 12 6 13
REMARK SMILES IDX 2 14 1 15 13 16 14 17 15 20 16 21 17 22 21 23 18 24 20 25
REMARK SMILES IDX 19 26 22 27 24 28 23 29 25 30 26 31 27 32 28 33
REMARK H PARENT 11 6 14 18 14 19
ROOT
ATOM     1   N3  UNL     1       3.037   1.411  -1.433  1.00  0.00    -0.212 N   
ATOM     2   C8  UNL     1       2.311   0.249  -1.441  1.00  0.00     0.045 A   
ATOM     3   C9  UNL     1       2.024   0.024  -0.109  1.00  0.00     0.127 A   
ATOM     4   N5  UNL     1       2.713   0.946   0.645  1.00  0.00    -0.132 NA  
ATOM     5   N6  UNL     1       3.341   1.776  -0.176  1.00  0.00    -0.076 NA  
ATOM     6   H12 UNL     1       1.968  -0.194  -2.370  1.00  0.00     0.083 HD  
ENDROOT
BRANCH   1   7
ATOM     7   C7  UNL     1       3.190   2.337  -2.539  1.00  0.00     0.140 C   
BRANCH   7   8
ATOM     8   C6  UNL     1       2.129   3.461  -2.543  1.00  0.00     0.074 C   
BRANCH   8   9
ATOM     9   C5  UNL     1       0.758   2.954  -2.187  1.00  0.00     0.031 A   
ATOM     10  N1  UNL     1       0.207   3.045  -0.927  1.00  0.00    -0.230 N   
ATOM     11  N2  UNL     1      -0.774   2.119  -0.730  1.00  0.00    -0.190 NA  
ATOM     12  C3  UNL     1      -1.114   1.801  -1.986  1.00  0.00     0.133 A   
ATOM     13  C4  UNL     1      -0.180   2.274  -2.931  1.00  0.00     0.042 A   
BRANCH  10  14
ATOM     14  C2  UNL     1       0.624   3.916   0.167  1.00  0.00     0.129 C   
ATOM     15  C1  UNL     1       0.092   5.329  -0.009  1.00  0.00     0.027 C   
ENDBRANCH  10  14
ENDBRANCH   8   9
ENDBRANCH   7   8
ENDBRANCH   1   7
BRANCH   3  16
ATOM     16  C10 UNL     1       1.063  -0.902   0.582  1.00  0.00     0.120 C   
BRANCH  16  17
ATOM     17  N4  UNL     1      -0.161  -0.127   1.021  1.00  0.00     0.250 N   
ATOM     18  H14 UNL     1      -0.992  -0.720   1.047  1.00  0.00     0.199 HD  
ATOM     19  H15 UNL     1      -0.387   0.607   0.311  1.00  0.00     0.199 HD  
BRANCH  17  20
ATOM     20  C11 UNL     1      -0.054   0.553   2.339  1.00  0.00     0.164 C   
BRANCH  20  21
ATOM     21  C12 UNL     1      -1.417   0.746   2.947  1.00  0.00    -0.002 A   
ATOM     22  C13 UNL     1      -2.221   1.853   2.587  1.00  0.00     0.012 A   
ATOM     23  C17 UNL     1      -1.930  -0.218   3.832  1.00  0.00     0.045 A   
ATOM     24  C14 UNL     1      -3.511   2.006   3.108  1.00  0.00     0.037 A   
ATOM     25  C16 UNL     1      -3.209  -0.040   4.320  1.00  0.00     0.109 A   
ATOM     26  C15 UNL     1      -3.978   1.040   3.970  1.00  0.00     0.108 A   
ATOM     27  O1  UNL     1      -3.859  -0.886   5.158  1.00  0.00    -0.316 OA  
ATOM     28  O2  UNL     1      -5.204   1.018   4.556  1.00  0.00    -0.316 OA  
ATOM     29  C18 UNL     1      -5.131  -0.217   5.299  1.00  0.00     0.337 C   
ENDBRANCH  20  21
ENDBRANCH  17  20
ENDBRANCH  16  17
BRANCH  16  30
ATOM     30  C19 UNL     1       0.630  -2.212  -0.166  1.00  0.00     0.010 C   
ATOM     31  C20 UNL     1      -0.336  -1.967  -1.341  1.00  0.00     0.017 C   
ATOM     32  C21 UNL     1       1.866  -2.983  -0.683  1.00  0.00     0.017 C   
ATOM     33  C22 UNL     1      -0.084  -3.160   0.834  1.00  0.00     0.017 C   
ENDBRANCH  16  30
ENDBRANCH   3  16
TORSDOF 9
