REMARK SMILES c1ccc(COCn2cc([C@@H]([NH2+]Cc3ccc4c(c3)OCO4)C3CCCC3)nn2)cc1
REMARK SMILES IDX 8 1 9 2 10 3 28 4 29 5 7 7 6 8 5 9 4 10 1 11 2 12 31 13 3 14
REMARK SMILES IDX 30 15 11 16 12 17 13 20 14 21 15 22 19 23 16 24 18 25 17 26
REMARK SMILES IDX 20 27 22 28 21 29 23 30 24 31 27 32 25 33 26 34
REMARK H PARENT 9 6 12 18 12 19
ROOT
ATOM     1   N1  UNL     1      -1.894   2.529  -1.327  1.00  0.00    -0.186 N   
ATOM     2   C7  UNL     1      -0.591   2.567  -0.917  1.00  0.00     0.048 A   
ATOM     3   C8  UNL     1       0.025   1.598  -1.678  1.00  0.00     0.127 A   
ATOM     4   N3  UNL     1      -0.904   1.022  -2.507  1.00  0.00    -0.132 NA  
ATOM     5   N4  UNL     1      -2.069   1.610  -2.295  1.00  0.00    -0.074 NA  
ATOM     6   H8  UNL     1      -0.256   3.224  -0.126  1.00  0.00     0.083 HD  
ENDROOT
BRANCH   1   7
ATOM     7   C6  UNL     1      -3.011   3.299  -0.813  1.00  0.00     0.294 C   
BRANCH   7   8
ATOM     8   O1  UNL     1      -3.357   2.834   0.492  1.00  0.00    -0.356 OA  
BRANCH   8   9
ATOM     9   C5  UNL     1      -4.224   1.698   0.475  1.00  0.00     0.198 C   
BRANCH   9  10
ATOM     10  C4  UNL     1      -3.471   0.436   0.820  1.00  0.00    -0.022 A   
ATOM     11  C1  UNL     1      -2.224  -1.975   1.546  1.00  0.00     0.000 A   
ATOM     12  C2  UNL     1      -2.883  -1.871   0.323  1.00  0.00     0.000 A   
ATOM     13  C24 UNL     1      -2.172  -0.876   2.401  1.00  0.00     0.000 A   
ATOM     14  C3  UNL     1      -3.500  -0.670  -0.040  1.00  0.00     0.006 A   
ATOM     15  C23 UNL     1      -2.790   0.325   2.041  1.00  0.00     0.006 A   
ENDBRANCH   9  10
ENDBRANCH   8   9
ENDBRANCH   7   8
ENDBRANCH   1   7
BRANCH   3  16
ATOM     16  C9  UNL     1       1.414   1.050  -1.622  1.00  0.00     0.117 C   
BRANCH  16  17
ATOM     17  N2  UNL     1       1.366  -0.462  -1.635  1.00  0.00     0.249 N   
ATOM     18  H10 UNL     1       2.295  -0.851  -1.824  1.00  0.00     0.199 HD  
ATOM     19  H11 UNL     1       0.757  -0.722  -2.424  1.00  0.00     0.199 HD  
BRANCH  17  20
ATOM     20  C10 UNL     1       0.794  -1.099  -0.411  1.00  0.00     0.164 C   
BRANCH  20  21
ATOM     21  C11 UNL     1       1.712  -1.004   0.775  1.00  0.00    -0.002 A   
ATOM     22  C12 UNL     1       1.442  -0.082   1.815  1.00  0.00     0.012 A   
ATOM     23  C16 UNL     1       2.861  -1.810   0.850  1.00  0.00     0.045 A   
ATOM     24  C13 UNL     1       2.301   0.041   2.911  1.00  0.00     0.037 A   
ATOM     25  C15 UNL     1       3.687  -1.666   1.946  1.00  0.00     0.109 A   
ATOM     26  C14 UNL     1       3.418  -0.765   2.945  1.00  0.00     0.108 A   
ATOM     27  O2  UNL     1       4.828  -2.367   2.171  1.00  0.00    -0.316 OA  
ATOM     28  O3  UNL     1       4.358  -0.783   3.926  1.00  0.00    -0.316 OA  
ATOM     29  C17 UNL     1       5.231  -1.829   3.452  1.00  0.00     0.337 C   
ENDBRANCH  20  21
ENDBRANCH  17  20
ENDBRANCH  16  17
BRANCH  16  30
ATOM     30  C18 UNL     1       2.342   1.514  -2.763  1.00  0.00     0.043 C   
ATOM     31  C19 UNL     1       2.505   3.045  -2.865  1.00  0.00     0.010 C   
ATOM     32  C22 UNL     1       1.964   1.044  -4.180  1.00  0.00     0.010 C   
ATOM     33  C20 UNL     1       2.080   3.412  -4.281  1.00  0.00     0.001 C   
ATOM     34  C21 UNL     1       2.418   2.173  -5.090  1.00  0.00     0.001 C   
ENDBRANCH  16  30
ENDBRANCH   3  16
TORSDOF 9
