REMARK SMILES CC(C)[C@H]([NH2+]Cc1ccc2c(c1)OCO2)c1cn(C[C@H]2NCCc3occc32)nn1
REMARK SMILES IDX 16 1 17 2 18 3 29 4 30 5 4 7 2 8 1 9 3 10 5 11 6 14 7 15
REMARK SMILES IDX 8 16 12 17 9 18 11 19 10 20 13 21 15 22 14 23 19 24 20 25
REMARK SMILES IDX 21 26 28 27 22 28 24 29 27 30 23 31 25 32 26 33
REMARK H PARENT 17 6 5 12 5 13 21 34
ROOT
ATOM     1   C13 UNL     1       0.636   1.264   0.562  1.00  0.00     0.127 A   
ATOM     2   C14 UNL     1       0.551   0.526   1.720  1.00  0.00     0.045 A   
ATOM     3   N2  UNL     1       1.615   0.953   2.463  1.00  0.00    -0.210 N   
ATOM     4   N4  UNL     1       2.227   1.995   1.863  1.00  0.00    -0.076 NA  
ATOM     5   N5  UNL     1       1.649   2.181   0.689  1.00  0.00    -0.132 NA  
ATOM     6   H18 UNL     1      -0.092  -0.282   2.040  1.00  0.00     0.083 HD  
ENDROOT
BRANCH   1   7
ATOM     7   C4  UNL     1      -0.174   1.226  -0.697  1.00  0.00     0.117 C   
BRANCH   7   8
ATOM     8   C2  UNL     1       0.288   0.139  -1.703  1.00  0.00     0.037 C   
ATOM     9   C1  UNL     1       1.738   0.292  -2.177  1.00  0.00     0.014 C   
ATOM     10  C3  UNL     1       0.078  -1.276  -1.147  1.00  0.00     0.014 C   
ENDBRANCH   7   8
BRANCH   7  11
ATOM     11  N1  UNL     1      -0.109   2.603  -1.322  1.00  0.00     0.249 N   
ATOM     12  H9  UNL     1      -0.325   3.267  -0.567  1.00  0.00     0.199 HD  
ATOM     13  H10 UNL     1       0.878   2.801  -1.532  1.00  0.00     0.199 HD  
BRANCH  11  14
ATOM     14  C5  UNL     1      -0.973   2.914  -2.487  1.00  0.00     0.164 C   
BRANCH  14  15
ATOM     15  C6  UNL     1      -2.440   2.796  -2.185  1.00  0.00    -0.002 A   
ATOM     16  C7  UNL     1      -3.195   1.720  -2.711  1.00  0.00     0.012 A   
ATOM     17  C11 UNL     1      -3.069   3.739  -1.354  1.00  0.00     0.045 A   
ATOM     18  C8  UNL     1      -4.555   1.581  -2.411  1.00  0.00     0.037 A   
ATOM     19  C10 UNL     1      -4.410   3.572  -1.078  1.00  0.00     0.109 A   
ATOM     20  C9  UNL     1      -5.133   2.524  -1.591  1.00  0.00     0.108 A   
ATOM     21  O1  UNL     1      -5.162   4.387  -0.292  1.00  0.00    -0.316 OA  
ATOM     22  O2  UNL     1      -6.432   2.547  -1.195  1.00  0.00    -0.316 OA  
ATOM     23  C12 UNL     1      -6.455   3.749  -0.394  1.00  0.00     0.337 C   
ENDBRANCH  14  15
ENDBRANCH  11  14
ENDBRANCH   7  11
ENDBRANCH   1   7
BRANCH   3  24
ATOM     24  C15 UNL     1       2.127   0.428   3.712  1.00  0.00     0.157 C   
BRANCH  24  25
ATOM     25  C16 UNL     1       2.498  -1.070   3.687  1.00  0.00     0.106 C   
ATOM     26  N3  UNL     1       1.267  -1.921   3.760  1.00  0.00    -0.308 NA  
ATOM     27  C22 UNL     1       3.315  -1.466   2.492  1.00  0.00    -0.001 A   
ATOM     28  C17 UNL     1       1.545  -3.361   3.529  1.00  0.00     0.088 C   
ATOM     29  C19 UNL     1       3.099  -2.639   1.806  1.00  0.00     0.065 A   
ATOM     30  C21 UNL     1       4.414  -0.855   1.836  1.00  0.00     0.033 A   
ATOM     31  C18 UNL     1       2.077  -3.658   2.108  1.00  0.00     0.077 C   
ATOM     32  O3  UNL     1       3.945  -2.785   0.765  1.00  0.00    -0.322 OA  
ATOM     33  C20 UNL     1       4.756  -1.691   0.793  1.00  0.00     0.136 A   
ATOM     34  H22 UNL     1       0.869  -1.829   4.697  1.00  0.00     0.123 HD  
ENDBRANCH  24  25
ENDBRANCH   3  24
TORSDOF 7
