REMARK SMILES CC(C)[C@H]([NH2+]Cc1ccc2c(c1)OCO2)c1cn(C[C@@H]2NCCc3occc32)nn1
REMARK SMILES IDX 16 1 17 2 18 3 29 4 30 5 4 7 2 8 1 9 3 10 5 11 6 14 7 15
REMARK SMILES IDX 8 16 12 17 9 18 11 19 10 20 13 21 15 22 14 23 19 24 20 25
REMARK SMILES IDX 21 26 28 27 22 28 24 29 27 30 23 31 25 32 26 33
REMARK H PARENT 17 6 5 12 5 13 21 34
ROOT
ATOM     1   C13 UNL     1      -2.728   0.598  -1.387  1.00  0.00     0.127 A   
ATOM     2   C14 UNL     1      -3.830   0.009  -0.813  1.00  0.00     0.045 A   
ATOM     3   N2  UNL     1      -3.915  -1.203  -1.441  1.00  0.00    -0.210 N   
ATOM     4   N4  UNL     1      -3.006  -1.294  -2.432  1.00  0.00    -0.076 NA  
ATOM     5   N5  UNL     1      -2.257  -0.205  -2.393  1.00  0.00    -0.132 NA  
ATOM     6   H18 UNL     1      -4.464   0.273   0.022  1.00  0.00     0.083 HD  
ENDROOT
BRANCH   1   7
ATOM     7   C4  UNL     1      -1.949   1.806  -0.984  1.00  0.00     0.117 C   
BRANCH   7   8
ATOM     8   C2  UNL     1      -2.260   3.044  -1.860  1.00  0.00     0.037 C   
ATOM     9   C1  UNL     1      -1.756   2.942  -3.304  1.00  0.00     0.014 C   
ATOM     10  C3  UNL     1      -1.721   4.330  -1.222  1.00  0.00     0.014 C   
ENDBRANCH   7   8
BRANCH   7  11
ATOM     11  N1  UNL     1      -0.478   1.487  -1.010  1.00  0.00     0.249 N   
ATOM     12  H9  UNL     1      -0.291   1.031  -1.915  1.00  0.00     0.199 HD  
ATOM     13  H10 UNL     1       0.102   2.329  -0.982  1.00  0.00     0.199 HD  
BRANCH  11  14
ATOM     14  C5  UNL     1      -0.022   0.540   0.051  1.00  0.00     0.164 C   
BRANCH  14  15
ATOM     15  C6  UNL     1       1.437   0.225  -0.120  1.00  0.00    -0.002 A   
ATOM     16  C7  UNL     1       2.419   0.966   0.576  1.00  0.00     0.012 A   
ATOM     17  C11 UNL     1       1.834  -0.784  -1.014  1.00  0.00     0.045 A   
ATOM     18  C8  UNL     1       3.780   0.704   0.392  1.00  0.00     0.037 A   
ATOM     19  C10 UNL     1       3.184  -1.020  -1.169  1.00  0.00     0.109 A   
ATOM     20  C9  UNL     1       4.129  -0.294  -0.488  1.00  0.00     0.108 A   
ATOM     21  O1  UNL     1       3.735  -1.955  -1.985  1.00  0.00    -0.316 OA  
ATOM     22  O2  UNL     1       5.395  -0.682  -0.789  1.00  0.00    -0.316 OA  
ATOM     23  C12 UNL     1       5.142  -1.751  -1.723  1.00  0.00     0.337 C   
ENDBRANCH  14  15
ENDBRANCH  11  14
ENDBRANCH   7  11
ENDBRANCH   1   7
BRANCH   3  24
ATOM     24  C15 UNL     1      -4.705  -2.360  -1.071  1.00  0.00     0.157 C   
BRANCH  24  25
ATOM     25  C16 UNL     1      -4.375  -2.928   0.329  1.00  0.00     0.106 C   
ATOM     26  N3  UNL     1      -4.989  -2.070   1.394  1.00  0.00    -0.308 NA  
ATOM     27  C22 UNL     1      -2.900  -3.068   0.588  1.00  0.00    -0.001 A   
ATOM     28  C17 UNL     1      -4.520  -2.412   2.760  1.00  0.00     0.088 C   
ATOM     29  C19 UNL     1      -2.317  -2.693   1.776  1.00  0.00     0.065 A   
ATOM     30  C21 UNL     1      -1.835  -3.593  -0.190  1.00  0.00     0.033 A   
ATOM     31  C18 UNL     1      -3.010  -2.144   2.957  1.00  0.00     0.077 C   
ATOM     32  O3  UNL     1      -0.981  -2.884   1.774  1.00  0.00    -0.322 OA  
ATOM     33  C20 UNL     1      -0.694  -3.461   0.574  1.00  0.00     0.136 A   
ATOM     34  H22 UNL     1      -6.002  -2.208   1.369  1.00  0.00     0.123 HD  
ENDBRANCH  24  25
ENDBRANCH   3  24
TORSDOF 7
