REMARK SMILES CC(C)[C@H]([NH2+]Cc1ccc2c(c1)OCO2)c1cn(-c2cccc(N)c2)nn1
REMARK SMILES IDX 16 1 17 2 18 3 26 4 27 5 4 6 2 7 1 8 3 9 5 10 6 13 7 14 8 15
REMARK SMILES IDX 12 16 9 17 11 18 10 19 13 20 15 21 14 22 19 23 20 24 25 25
REMARK SMILES IDX 21 26 23 27 22 28 24 29
REMARK H PARENT 5 11 5 12 24 30 24 31
ROOT
ATOM     1   C13 UNL     1       1.238  -0.621  -1.287  1.00  0.00     0.127 A   
ATOM     2   C14 UNL     1       1.695  -1.102  -2.494  1.00  0.00     0.135 A   
ATOM     3   N2  UNL     1       0.639  -1.825  -3.018  1.00  0.00    -0.181 N   
ATOM     4   N4  UNL     1      -0.406  -1.753  -2.152  1.00  0.00    -0.071 NA  
ATOM     5   N5  UNL     1      -0.049  -1.038  -1.099  1.00  0.00    -0.131 NA  
ENDROOT
BRANCH   1   6
ATOM     6   C4  UNL     1       1.893   0.242  -0.253  1.00  0.00     0.117 C   
BRANCH   6   7
ATOM     7   C2  UNL     1       2.878  -0.560   0.638  1.00  0.00     0.037 C   
ATOM     8   C1  UNL     1       2.196  -1.578   1.559  1.00  0.00     0.014 C   
ATOM     9   C3  UNL     1       3.776   0.367   1.466  1.00  0.00     0.014 C   
ENDBRANCH   6   7
BRANCH   6  10
ATOM     10  N1  UNL     1       0.854   0.920   0.600  1.00  0.00     0.249 N   
ATOM     11  H9  UNL     1       1.232   1.231   1.500  1.00  0.00     0.199 HD  
ATOM     12  H10 UNL     1       0.138   0.212   0.819  1.00  0.00     0.199 HD  
BRANCH  10  13
ATOM     13  C5  UNL     1       0.149   2.065  -0.044  1.00  0.00     0.164 C   
BRANCH  13  14
ATOM     14  C6  UNL     1      -0.933   2.585   0.859  1.00  0.00    -0.002 A   
ATOM     15  C7  UNL     1      -2.225   2.007   0.823  1.00  0.00     0.012 A   
ATOM     16  C11 UNL     1      -0.655   3.605   1.785  1.00  0.00     0.045 A   
ATOM     17  C8  UNL     1      -3.232   2.447   1.688  1.00  0.00     0.037 A   
ATOM     18  C10 UNL     1      -1.671   4.014   2.623  1.00  0.00     0.109 A   
ATOM     19  C9  UNL     1      -2.923   3.452   2.577  1.00  0.00     0.108 A   
ATOM     20  O1  UNL     1      -1.571   4.982   3.571  1.00  0.00    -0.316 OA  
ATOM     21  O2  UNL     1      -3.770   3.998   3.488  1.00  0.00    -0.316 OA  
ATOM     22  C12 UNL     1      -2.916   4.987   4.102  1.00  0.00     0.337 C   
ENDBRANCH  13  14
ENDBRANCH  10  13
ENDBRANCH   6  10
ENDBRANCH   1   6
BRANCH   3  23
ATOM     23  C15 UNL     1       0.560  -2.536  -4.240  1.00  0.00     0.059 A   
ATOM     24  C16 UNL     1       1.654  -2.597  -5.112  1.00  0.00     0.026 A   
ATOM     25  C20 UNL     1      -0.642  -3.177  -4.588  1.00  0.00     0.049 A   
ATOM     26  C17 UNL     1       1.531  -3.274  -6.326  1.00  0.00     0.004 A   
ATOM     27  C19 UNL     1      -0.749  -3.902  -5.779  1.00  0.00     0.025 A   
ATOM     28  C18 UNL     1       0.331  -3.901  -6.664  1.00  0.00     0.023 A   
BRANCH  27  29
ATOM     29  N3  UNL     1      -1.983  -4.423  -6.177  1.00  0.00    -0.358 N   
ATOM     30  H22 UNL     1      -1.922  -5.158  -6.876  1.00  0.00     0.143 HD  
ATOM     31  H23 UNL     1      -2.604  -4.674  -5.413  1.00  0.00     0.143 HD  
ENDBRANCH  27  29
ENDBRANCH   3  23
TORSDOF 7
