REMARK SMILES COc1ccc(C)cc1-n1cc([C@H](CC(C)C)[NH2+]Cc2ccc3c(c2)OCO3)nn1
REMARK SMILES IDX 10 1 11 2 12 3 29 4 30 5 9 6 3 7 4 8 5 9 8 10 6 11 7 12 2 13
REMARK SMILES IDX 1 14 13 15 14 16 15 17 16 18 17 19 18 20 19 23 20 24 21 25
REMARK SMILES IDX 25 26 22 27 24 28 23 29 26 30 28 31 27 32
REMARK H PARENT 18 21 18 22
ROOT
ATOM     1   N1  UNL     1      -1.245   2.468  -1.647  1.00  0.00    -0.178 N   
ATOM     2   C9  UNL     1      -0.367   1.581  -1.051  1.00  0.00     0.135 A   
ATOM     3   C10 UNL     1      -1.089   0.429  -0.838  1.00  0.00     0.127 A   
ATOM     4   N3  UNL     1      -2.365   0.614  -1.279  1.00  0.00    -0.131 NA  
ATOM     5   N4  UNL     1      -2.456   1.844  -1.753  1.00  0.00    -0.071 NA  
ENDROOT
BRANCH   1   6
ATOM     6   C8  UNL     1      -1.069   3.808  -2.101  1.00  0.00     0.088 A   
ATOM     7   C2  UNL     1       0.144   4.517  -1.980  1.00  0.00     0.098 A   
ATOM     8   C3  UNL     1       0.203   5.837  -2.454  1.00  0.00     0.036 A   
ATOM     9   C4  UNL     1      -0.906   6.448  -3.046  1.00  0.00     0.006 A   
ATOM     10  C7  UNL     1      -2.182   4.441  -2.700  1.00  0.00     0.032 A   
ATOM     11  C5  UNL     1      -2.103   5.752  -3.186  1.00  0.00    -0.049 A   
ATOM     12  C6  UNL     1      -3.306   6.414  -3.792  1.00  0.00     0.044 C   
BRANCH   7  13
ATOM     13  O1  UNL     1       1.212   3.899  -1.390  1.00  0.00    -0.347 OA  
ATOM     14  C1  UNL     1       2.458   4.591  -1.355  1.00  0.00     0.203 C   
ENDBRANCH   7  13
ENDBRANCH   1   6
BRANCH   3  15
ATOM     15  C11 UNL     1      -0.700  -0.871  -0.213  1.00  0.00     0.114 C   
BRANCH  15  16
ATOM     16  C12 UNL     1      -0.195  -1.858  -1.286  1.00  0.00     0.064 C   
BRANCH  16  17
ATOM     17  C13 UNL     1       0.325  -3.220  -0.778  1.00  0.00    -0.012 C   
ATOM     18  C14 UNL     1       1.461  -3.074   0.236  1.00  0.00     0.007 C   
ATOM     19  C15 UNL     1       0.800  -4.063  -1.966  1.00  0.00     0.007 C   
ENDBRANCH  16  17
ENDBRANCH  15  16
BRANCH  15  20
ATOM     20  N2  UNL     1      -1.877  -1.486   0.506  1.00  0.00     0.249 N   
ATOM     21  H21 UNL     1      -1.680  -2.455   0.762  1.00  0.00     0.199 HD  
ATOM     22  H22 UNL     1      -2.655  -1.500  -0.170  1.00  0.00     0.199 HD  
BRANCH  20  23
ATOM     23  C16 UNL     1      -2.358  -0.764   1.724  1.00  0.00     0.164 C   
BRANCH  23  24
ATOM     24  C17 UNL     1      -1.357  -0.787   2.845  1.00  0.00    -0.002 A   
ATOM     25  C18 UNL     1      -0.647   0.388   3.190  1.00  0.00     0.012 A   
ATOM     26  C22 UNL     1      -1.094  -1.982   3.536  1.00  0.00     0.045 A   
ATOM     27  C19 UNL     1       0.319   0.373   4.203  1.00  0.00     0.037 A   
ATOM     28  C21 UNL     1      -0.135  -1.962   4.527  1.00  0.00     0.109 A   
ATOM     29  C20 UNL     1       0.553  -0.819   4.851  1.00  0.00     0.108 A   
ATOM     30  O2  UNL     1       0.245  -3.028   5.280  1.00  0.00    -0.316 OA  
ATOM     31  O3  UNL     1       1.451  -1.020   5.849  1.00  0.00    -0.316 OA  
ATOM     32  C23 UNL     1       1.232  -2.416   6.142  1.00  0.00     0.337 C   
ENDBRANCH  23  24
ENDBRANCH  20  23
ENDBRANCH  15  20
ENDBRANCH   3  15
TORSDOF 8
