REMARK SMILES CC(C)[C@H]([NH2+]Cc1ccc2c(c1)OCO2)c1cn(Cc2cc(-c3ccccc3)n[nH]2)nn1
REMARK SMILES IDX 16 1 17 2 18 3 31 4 32 5 4 7 2 8 1 9 3 10 5 11 6 14 7 15
REMARK SMILES IDX 8 16 12 17 9 18 11 19 10 20 13 21 15 22 14 23 19 24 20 25
REMARK SMILES IDX 21 26 30 27 22 28 29 29 23 31 24 32 28 33 25 34 27 35 26 36
REMARK H PARENT 17 6 5 12 5 13 30 30
ROOT
ATOM     1   C13 UNL     1      -2.030  -1.714   1.577  1.00  0.00     0.127 A   
ATOM     2   C14 UNL     1      -1.117  -2.420   2.330  1.00  0.00     0.046 A   
ATOM     3   N2  UNL     1      -0.747  -3.455   1.515  1.00  0.00    -0.206 N   
ATOM     4   N5  UNL     1      -1.401  -3.399   0.338  1.00  0.00    -0.076 NA  
ATOM     5   N6  UNL     1      -2.195  -2.341   0.368  1.00  0.00    -0.132 NA  
ATOM     6   H18 UNL     1      -0.681  -2.269   3.308  1.00  0.00     0.083 HD  
ENDROOT
BRANCH   1   7
ATOM     7   C4  UNL     1      -2.741  -0.425   1.847  1.00  0.00     0.117 C   
BRANCH   7   8
ATOM     8   C2  UNL     1      -4.090  -0.641   2.581  1.00  0.00     0.037 C   
ATOM     9   C1  UNL     1      -5.175  -1.295   1.714  1.00  0.00     0.014 C   
ATOM     10  C3  UNL     1      -4.626   0.668   3.175  1.00  0.00     0.014 C   
ENDBRANCH   7   8
BRANCH   7  11
ATOM     11  N1  UNL     1      -2.955   0.332   0.565  1.00  0.00     0.249 N   
ATOM     12  H9  UNL     1      -3.671   1.058   0.658  1.00  0.00     0.199 HD  
ATOM     13  H10 UNL     1      -3.317  -0.345  -0.124  1.00  0.00     0.199 HD  
BRANCH  11  14
ATOM     14  C5  UNL     1      -1.728   0.942  -0.026  1.00  0.00     0.164 C   
BRANCH  14  15
ATOM     15  C6  UNL     1      -2.042   1.562  -1.359  1.00  0.00    -0.002 A   
ATOM     16  C7  UNL     1      -2.130   0.746  -2.517  1.00  0.00     0.012 A   
ATOM     17  C11 UNL     1      -2.293   2.942  -1.462  1.00  0.00     0.045 A   
ATOM     18  C8  UNL     1      -2.461   1.297  -3.760  1.00  0.00     0.037 A   
ATOM     19  C10 UNL     1      -2.610   3.454  -2.704  1.00  0.00     0.109 A   
ATOM     20  C9  UNL     1      -2.693   2.656  -3.820  1.00  0.00     0.108 A   
ATOM     21  O1  UNL     1      -2.874   4.758  -2.978  1.00  0.00    -0.316 OA  
ATOM     22  O2  UNL     1      -3.023   3.358  -4.936  1.00  0.00    -0.316 OA  
ATOM     23  C12 UNL     1      -3.088   4.702  -4.406  1.00  0.00     0.337 C   
ENDBRANCH  14  15
ENDBRANCH  11  14
ENDBRANCH   7  11
ENDBRANCH   1   7
BRANCH   3  24
ATOM     24  C15 UNL     1       0.304  -4.438   1.731  1.00  0.00     0.186 C   
BRANCH  24  25
ATOM     25  C16 UNL     1       1.596  -3.899   1.239  1.00  0.00     0.047 A   
ATOM     26  C17 UNL     1       2.736  -3.471   1.886  1.00  0.00     0.053 A   
ATOM     27  N4  UNL     1       1.847  -3.720  -0.092  1.00  0.00    -0.240 N   
ATOM     28  C18 UNL     1       3.614  -3.004   0.866  1.00  0.00     0.090 A   
ATOM     29  N3  UNL     1       3.024  -3.132  -0.335  1.00  0.00    -0.184 NA  
ATOM     30  H27 UNL     1       1.250  -3.950  -0.886  1.00  0.00     0.175 HD  
BRANCH  28  31
ATOM     31  C19 UNL     1       4.961  -2.434   1.011  1.00  0.00     0.002 A   
ATOM     32  C20 UNL     1       5.635  -2.455   2.244  1.00  0.00     0.010 A   
ATOM     33  C24 UNL     1       5.609  -1.855  -0.092  1.00  0.00     0.010 A   
ATOM     34  C21 UNL     1       6.917  -1.909   2.367  1.00  0.00     0.001 A   
ATOM     35  C23 UNL     1       6.890  -1.307   0.033  1.00  0.00     0.001 A   
ATOM     36  C22 UNL     1       7.544  -1.336   1.263  1.00  0.00     0.000 A   
ENDBRANCH  28  31
ENDBRANCH  24  25
ENDBRANCH   3  24
TORSDOF 8
