REMARK SMILES COc1ccc(CCn2cc([C@H](CC(C)C)[NH2+]Cc3ccc4c(c3)OCO4)nn2)nc1
REMARK SMILES IDX 9 1 10 2 11 3 28 4 29 5 8 7 7 8 6 9 3 10 4 11 31 12 5 13
REMARK SMILES IDX 30 14 2 15 1 16 12 17 13 18 14 19 15 20 16 21 17 22 18 25
REMARK SMILES IDX 19 26 20 27 24 28 21 29 23 30 22 31 25 32 27 33 26 34
REMARK H PARENT 10 6 17 23 17 24
ROOT
ATOM     1   N1  UNL     1       3.784  -0.494   0.844  1.00  0.00    -0.212 N   
ATOM     2   C8  UNL     1       2.621  -0.698   1.531  1.00  0.00     0.045 A   
ATOM     3   C9  UNL     1       2.096   0.567   1.679  1.00  0.00     0.127 A   
ATOM     4   N3  UNL     1       2.967   1.478   1.136  1.00  0.00    -0.132 NA  
ATOM     5   N4  UNL     1       4.000   0.817   0.640  1.00  0.00    -0.076 NA  
ATOM     6   H10 UNL     1       2.255  -1.691   1.754  1.00  0.00     0.083 HD  
ENDROOT
BRANCH   1   7
ATOM     7   C7  UNL     1       4.642  -1.491   0.237  1.00  0.00     0.140 C   
BRANCH   7   8
ATOM     8   C6  UNL     1       4.657  -1.412  -1.292  1.00  0.00     0.077 C   
BRANCH   8   9
ATOM     9   C5  UNL     1       3.292  -1.533  -1.931  1.00  0.00     0.042 A   
ATOM     10  C2  UNL     1       0.807  -1.816  -3.115  1.00  0.00     0.093 A   
ATOM     11  C3  UNL     1       1.775  -1.035  -3.735  1.00  0.00     0.037 A   
ATOM     12  C23 UNL     1       1.161  -2.436  -1.924  1.00  0.00     0.144 A   
ATOM     13  C4  UNL     1       3.035  -0.903  -3.147  1.00  0.00     0.026 A   
ATOM     14  N5  UNL     1       2.362  -2.297  -1.308  1.00  0.00    -0.259 NA  
BRANCH  10  15
ATOM     15  O1  UNL     1      -0.470  -2.022  -3.542  1.00  0.00    -0.348 OA  
ATOM     16  C1  UNL     1      -0.810  -1.498  -4.822  1.00  0.00     0.203 C   
ENDBRANCH  10  15
ENDBRANCH   8   9
ENDBRANCH   7   8
ENDBRANCH   1   7
BRANCH   3  17
ATOM     17  C10 UNL     1       0.759   1.046   2.131  1.00  0.00     0.114 C   
BRANCH  17  18
ATOM     18  C11 UNL     1      -0.108   0.030   2.891  1.00  0.00     0.064 C   
BRANCH  18  19
ATOM     19  C12 UNL     1       0.434  -0.378   4.280  1.00  0.00    -0.012 C   
ATOM     20  C13 UNL     1       0.553   0.809   5.236  1.00  0.00     0.007 C   
ATOM     21  C14 UNL     1      -0.479  -1.443   4.895  1.00  0.00     0.007 C   
ENDBRANCH  18  19
ENDBRANCH  17  18
BRANCH  17  22
ATOM     22  N2  UNL     1      -0.015   1.575   0.942  1.00  0.00     0.249 N   
ATOM     23  H21 UNL     1      -0.894   2.005   1.246  1.00  0.00     0.199 HD  
ATOM     24  H22 UNL     1       0.556   2.341   0.557  1.00  0.00     0.199 HD  
BRANCH  22  25
ATOM     25  C15 UNL     1      -0.273   0.632  -0.186  1.00  0.00     0.164 C   
BRANCH  25  26
ATOM     26  C16 UNL     1      -0.974   1.337  -1.314  1.00  0.00    -0.002 A   
ATOM     27  C17 UNL     1      -0.221   1.975  -2.329  1.00  0.00     0.012 A   
ATOM     28  C21 UNL     1      -2.377   1.405  -1.345  1.00  0.00     0.045 A   
ATOM     29  C18 UNL     1      -0.854   2.660  -3.370  1.00  0.00     0.037 A   
ATOM     30  C20 UNL     1      -2.969   2.089  -2.385  1.00  0.00     0.109 A   
ATOM     31  C19 UNL     1      -2.231   2.697  -3.370  1.00  0.00     0.108 A   
ATOM     32  O2  UNL     1      -4.306   2.250  -2.562  1.00  0.00    -0.316 OA  
ATOM     33  O3  UNL     1      -3.010   3.312  -4.297  1.00  0.00    -0.316 OA  
ATOM     34  C22 UNL     1      -4.329   3.016  -3.789  1.00  0.00     0.337 C   
ENDBRANCH  25  26
ENDBRANCH  22  25
ENDBRANCH  17  22
ENDBRANCH   3  17
TORSDOF 10
