REMARK SMILES Cc1cc(Cl)cnc1Cn1cc([C@@H]([NH2+]Cc2ccc3c(c2)OCO3)C2CCCC2)nn1
REMARK SMILES IDX 10 1 11 2 12 3 30 4 31 5 9 7 8 8 2 9 3 10 4 11 7 12 6 13
REMARK SMILES IDX 1 14 5 15 13 16 14 17 15 20 16 21 17 22 21 23 18 24 20 25
REMARK SMILES IDX 19 26 22 27 24 28 23 29 25 30 26 31 29 32 27 33 28 34
REMARK H PARENT 11 6 14 18 14 19
ROOT
ATOM     1   N2  UNL     1      -0.443  -1.588   2.081  1.00  0.00    -0.206 N   
ATOM     2   C8  UNL     1      -0.669  -1.380   0.748  1.00  0.00     0.046 A   
ATOM     3   C9  UNL     1       0.586  -1.434   0.185  1.00  0.00     0.127 A   
ATOM     4   N4  UNL     1       1.508  -1.703   1.164  1.00  0.00    -0.132 NA  
ATOM     5   N5  UNL     1       0.868  -1.794   2.319  1.00  0.00    -0.076 NA  
ATOM     6   H8  UNL     1      -1.655  -1.170   0.357  1.00  0.00     0.083 HD  
ENDROOT
BRANCH   1   7
ATOM     7   C7  UNL     1      -1.405  -1.554   3.166  1.00  0.00     0.190 C   
BRANCH   7   8
ATOM     8   C6  UNL     1      -1.613  -0.130   3.621  1.00  0.00     0.063 A   
ATOM     9   C2  UNL     1      -1.024   0.385   4.787  1.00  0.00    -0.026 A   
ATOM     10  C3  UNL     1      -1.283   1.724   5.120  1.00  0.00     0.027 A   
ATOM     11  C4  UNL     1      -2.098   2.499   4.305  1.00  0.00     0.059 A   
ATOM     12  N1  UNL     1      -2.398   0.631   2.805  1.00  0.00    -0.258 NA  
ATOM     13  C5  UNL     1      -2.632   1.916   3.172  1.00  0.00     0.131 A   
ATOM     14  C1  UNL     1      -0.150  -0.441   5.688  1.00  0.00     0.046 C   
ATOM     15  CL1 UNL     1      -2.423   4.137   4.690  1.00  0.00    -0.083 Cl  
ENDBRANCH   7   8
ENDBRANCH   1   7
BRANCH   3  16
ATOM     16  C10 UNL     1       1.039  -1.161  -1.210  1.00  0.00     0.117 C   
BRANCH  16  17
ATOM     17  N3  UNL     1       2.261  -0.264  -1.196  1.00  0.00     0.249 N   
ATOM     18  H10 UNL     1       2.984  -0.764  -0.663  1.00  0.00     0.199 HD  
ATOM     19  H11 UNL     1       2.613  -0.134  -2.148  1.00  0.00     0.199 HD  
BRANCH  17  20
ATOM     20  C11 UNL     1       2.095   1.081  -0.560  1.00  0.00     0.164 C   
BRANCH  20  21
ATOM     21  C12 UNL     1       1.038   1.925  -1.214  1.00  0.00    -0.002 A   
ATOM     22  C13 UNL     1      -0.182   2.184  -0.541  1.00  0.00     0.012 A   
ATOM     23  C17 UNL     1       1.236   2.439  -2.507  1.00  0.00     0.045 A   
ATOM     24  C14 UNL     1      -1.193   2.935  -1.148  1.00  0.00     0.037 A   
ATOM     25  C16 UNL     1       0.218   3.176  -3.076  1.00  0.00     0.109 A   
ATOM     26  C15 UNL     1      -0.962   3.416  -2.418  1.00  0.00     0.108 A   
ATOM     27  O1  UNL     1       0.246   3.734  -4.314  1.00  0.00    -0.316 OA  
ATOM     28  O2  UNL     1      -1.827   4.157  -3.158  1.00  0.00    -0.316 OA  
ATOM     29  C18 UNL     1      -1.045   4.385  -4.351  1.00  0.00     0.337 C   
ENDBRANCH  20  21
ENDBRANCH  17  20
ENDBRANCH  16  17
BRANCH  16  30
ATOM     30  C19 UNL     1       1.399  -2.456  -1.964  1.00  0.00     0.043 C   
ATOM     31  C20 UNL     1       0.210  -3.406  -2.142  1.00  0.00     0.010 C   
ATOM     32  C23 UNL     1       1.848  -2.238  -3.413  1.00  0.00     0.010 C   
ATOM     33  C21 UNL     1       0.691  -4.381  -3.206  1.00  0.00     0.001 C   
ATOM     34  C22 UNL     1       1.599  -3.568  -4.123  1.00  0.00     0.001 C   
ENDBRANCH  16  30
ENDBRANCH   3  16
TORSDOF 7
