REMARK SMILES COc1ccc(CCn2cc([C@H](CC(C)C)[NH2+]Cc3ccc4c(c3)OCO4)nn2)c(O)c1
REMARK SMILES IDX 9 1 10 2 11 3 28 4 29 5 8 7 7 8 6 9 3 10 4 11 32 12 5 13
REMARK SMILES IDX 30 14 2 15 1 16 31 17 12 19 13 20 14 21 15 22 16 23 17 24
REMARK SMILES IDX 18 27 19 28 20 29 24 30 21 31 23 32 22 33 25 34 27 35 26 36
REMARK H PARENT 10 6 31 18 17 25 17 26
ROOT
ATOM     1   N1  UNL     1      -2.226   2.350   2.086  1.00  0.00    -0.212 N   
ATOM     2   C8  UNL     1      -1.092   2.547   1.347  1.00  0.00     0.045 A   
ATOM     3   C9  UNL     1      -1.336   1.853   0.184  1.00  0.00     0.127 A   
ATOM     4   N3  UNL     1      -2.602   1.330   0.225  1.00  0.00    -0.132 NA  
ATOM     5   N4  UNL     1      -3.144   1.656   1.387  1.00  0.00    -0.076 NA  
ATOM     6   H10 UNL     1      -0.226   3.057   1.745  1.00  0.00     0.083 HD  
ENDROOT
BRANCH   1   7
ATOM     7   C7  UNL     1      -2.404   2.604   3.500  1.00  0.00     0.139 C   
BRANCH   7   8
ATOM     8   C6  UNL     1      -2.328   1.325   4.342  1.00  0.00     0.059 C   
BRANCH   8   9
ATOM     9   C5  UNL     1      -1.137   0.441   4.024  1.00  0.00    -0.016 A   
ATOM     10  C2  UNL     1       1.034  -1.203   3.352  1.00  0.00     0.077 A   
ATOM     11  C3  UNL     1      -0.266  -1.631   3.088  1.00  0.00     0.034 A   
ATOM     12  C24 UNL     1       1.260   0.046   3.929  1.00  0.00     0.066 A   
ATOM     13  C4  UNL     1      -1.346  -0.814   3.429  1.00  0.00     0.009 A   
ATOM     14  C23 UNL     1       0.176   0.851   4.273  1.00  0.00     0.077 A   
BRANCH  10  15
ATOM     15  O1  UNL     1       2.139  -1.932   3.004  1.00  0.00    -0.349 OA  
ATOM     16  C1  UNL     1       2.097  -3.265   3.521  1.00  0.00     0.203 C   
ENDBRANCH  10  15
BRANCH  14  17
ATOM     17  O4  UNL     1       0.386   2.076   4.837  1.00  0.00    -0.361 OA  
ATOM     18  H30 UNL     1       1.283   2.094   5.216  1.00  0.00     0.218 HD  
ENDBRANCH  14  17
ENDBRANCH   8   9
ENDBRANCH   7   8
ENDBRANCH   1   7
BRANCH   3  19
ATOM     19  C10 UNL     1      -0.420   1.500  -0.937  1.00  0.00     0.114 C   
BRANCH  19  20
ATOM     20  C11 UNL     1      -0.943   1.960  -2.308  1.00  0.00     0.064 C   
BRANCH  20  21
ATOM     21  C12 UNL     1      -1.135   3.486  -2.447  1.00  0.00    -0.012 C   
ATOM     22  C13 UNL     1       0.174   4.256  -2.264  1.00  0.00     0.007 C   
ATOM     23  C14 UNL     1      -1.737   3.809  -3.818  1.00  0.00     0.007 C   
ENDBRANCH  20  21
ENDBRANCH  19  20
BRANCH  19  24
ATOM     24  N2  UNL     1      -0.280  -0.002  -0.929  1.00  0.00     0.249 N   
ATOM     25  H21 UNL     1      -0.150  -0.293   0.051  1.00  0.00     0.199 HD  
ATOM     26  H22 UNL     1      -1.188  -0.413  -1.185  1.00  0.00     0.199 HD  
BRANCH  24  27
ATOM     27  C15 UNL     1       0.816  -0.590  -1.732  1.00  0.00     0.164 C   
BRANCH  27  28
ATOM     28  C16 UNL     1       0.929  -2.067  -1.478  1.00  0.00    -0.002 A   
ATOM     29  C17 UNL     1       1.828  -2.557  -0.502  1.00  0.00     0.012 A   
ATOM     30  C21 UNL     1       0.108  -2.968  -2.180  1.00  0.00     0.045 A   
ATOM     31  C18 UNL     1       1.927  -3.928  -0.241  1.00  0.00     0.037 A   
ATOM     32  C20 UNL     1       0.228  -4.312  -1.894  1.00  0.00     0.109 A   
ATOM     33  C19 UNL     1       1.112  -4.779  -0.952  1.00  0.00     0.108 A   
ATOM     34  O2  UNL     1      -0.484  -5.310  -2.479  1.00  0.00    -0.316 OA  
ATOM     35  O3  UNL     1       1.069  -6.131  -0.826  1.00  0.00    -0.316 OA  
ATOM     36  C22 UNL     1       0.073  -6.469  -1.817  1.00  0.00     0.337 C   
ENDBRANCH  27  28
ENDBRANCH  24  27
ENDBRANCH  19  24
ENDBRANCH   3  19
TORSDOF 11
