REMARK SMILES COc1cccc([C@H](CO)n2cc([C@H](CC(C)C)[NH2+]Cc3ccc4c(c3)OCO4)nn2)c1
REMARK SMILES IDX 11 1 12 2 13 3 30 4 31 5 8 7 7 8 3 9 4 10 32 11 5 12 6 13
REMARK SMILES IDX 2 14 1 15 9 16 10 17 14 19 15 20 16 21 17 22 18 23 19 24
REMARK SMILES IDX 20 27 21 28 22 29 26 30 23 31 25 32 24 33 27 34 29 35 28 36
REMARK H PARENT 12 6 10 18 19 25 19 26
ROOT
ATOM     1   N1  UNL     1      -0.479  -1.990  -2.269  1.00  0.00    -0.202 N   
ATOM     2   C9  UNL     1      -0.752  -1.820  -0.938  1.00  0.00     0.046 A   
ATOM     3   C10 UNL     1      -1.730  -0.852  -0.919  1.00  0.00     0.127 A   
ATOM     4   N3  UNL     1      -2.014  -0.470  -2.205  1.00  0.00    -0.132 NA  
ATOM     5   N4  UNL     1      -1.244  -1.170  -3.021  1.00  0.00    -0.075 NA  
ATOM     6   H11 UNL     1      -0.231  -2.368  -0.166  1.00  0.00     0.083 HD  
ENDROOT
BRANCH   1   7
ATOM     7   C7  UNL     1       0.526  -2.869  -2.865  1.00  0.00     0.155 C   
BRANCH   7   8
ATOM     8   C6  UNL     1       1.808  -2.082  -3.103  1.00  0.00    -0.021 A   
ATOM     9   C2  UNL     1       4.096  -1.551  -2.423  1.00  0.00     0.075 A   
ATOM     10  C3  UNL     1       4.189  -0.627  -3.459  1.00  0.00     0.033 A   
ATOM     11  C24 UNL     1       2.908  -2.268  -2.247  1.00  0.00     0.039 A   
ATOM     12  C4  UNL     1       3.104  -0.421  -4.313  1.00  0.00     0.003 A   
ATOM     13  C5  UNL     1       1.922  -1.141  -4.135  1.00  0.00     0.006 A   
BRANCH   9  14
ATOM     14  O1  UNL     1       5.074  -1.832  -1.508  1.00  0.00    -0.349 OA  
ATOM     15  C1  UNL     1       6.369  -1.305  -1.773  1.00  0.00     0.203 C   
ENDBRANCH   9  14
ENDBRANCH   7   8
BRANCH   7  16
ATOM     16  C8  UNL     1      -0.013  -3.624  -4.093  1.00  0.00     0.185 C   
BRANCH  16  17
ATOM     17  O2  UNL     1       0.757  -4.809  -4.311  1.00  0.00    -0.394 OA  
ATOM     18  H10 UNL     1       0.459  -5.199  -5.149  1.00  0.00     0.210 HD  
ENDBRANCH  16  17
ENDBRANCH   7  16
ENDBRANCH   1   7
BRANCH   3  19
ATOM     19  C11 UNL     1      -2.395  -0.155   0.220  1.00  0.00     0.114 C   
BRANCH  19  20
ATOM     20  C12 UNL     1      -3.864  -0.581   0.403  1.00  0.00     0.064 C   
BRANCH  20  21
ATOM     21  C13 UNL     1      -4.070  -2.064   0.771  1.00  0.00    -0.012 C   
ATOM     22  C14 UNL     1      -5.566  -2.380   0.834  1.00  0.00     0.007 C   
ATOM     23  C15 UNL     1      -3.409  -2.431   2.099  1.00  0.00     0.007 C   
ENDBRANCH  20  21
ENDBRANCH  19  20
BRANCH  19  24
ATOM     24  N2  UNL     1      -2.400   1.341  -0.029  1.00  0.00     0.249 N   
ATOM     25  H22 UNL     1      -3.012   1.808   0.646  1.00  0.00     0.199 HD  
ATOM     26  H23 UNL     1      -2.814   1.476  -0.964  1.00  0.00     0.199 HD  
BRANCH  24  27
ATOM     27  C16 UNL     1      -1.064   2.011  -0.033  1.00  0.00     0.164 C   
BRANCH  27  28
ATOM     28  C17 UNL     1      -0.372   1.949   1.300  1.00  0.00    -0.002 A   
ATOM     29  C18 UNL     1       0.816   1.194   1.450  1.00  0.00     0.012 A   
ATOM     30  C22 UNL     1      -0.907   2.623   2.412  1.00  0.00     0.045 A   
ATOM     31  C19 UNL     1       1.459   1.101   2.690  1.00  0.00     0.037 A   
ATOM     32  C21 UNL     1      -0.250   2.508   3.620  1.00  0.00     0.109 A   
ATOM     33  C20 UNL     1       0.898   1.768   3.757  1.00  0.00     0.108 A   
ATOM     34  O3  UNL     1      -0.640   3.082   4.788  1.00  0.00    -0.316 OA  
ATOM     35  O4  UNL     1       1.378   1.786   5.028  1.00  0.00    -0.316 OA  
ATOM     36  C23 UNL     1       0.432   2.667   5.669  1.00  0.00     0.337 C   
ENDBRANCH  27  28
ENDBRANCH  24  27
ENDBRANCH  19  24
ENDBRANCH   3  19
TORSDOF 11
