REMARK SMILES COc1cccc([C@@H](CO)n2cc([C@H](CC(C)C)[NH2+]Cc3ccc4c(c3)OCO4)nn2)c1
REMARK SMILES IDX 11 1 12 2 13 3 30 4 31 5 8 7 7 8 3 9 4 10 32 11 5 12 6 13
REMARK SMILES IDX 2 14 1 15 9 16 10 17 14 19 15 20 16 21 17 22 18 23 19 24
REMARK SMILES IDX 20 27 21 28 22 29 26 30 23 31 25 32 24 33 27 34 29 35 28 36
REMARK H PARENT 12 6 10 18 19 25 19 26
ROOT
ATOM     1   N1  UNL     1      -0.302   2.877   1.379  1.00  0.00    -0.202 N   
ATOM     2   C9  UNL     1       0.049   1.576   1.129  1.00  0.00     0.046 A   
ATOM     3   C10 UNL     1       1.108   1.675   0.258  1.00  0.00     0.127 A   
ATOM     4   N3  UNL     1       1.362   2.997   0.004  1.00  0.00    -0.132 NA  
ATOM     5   N4  UNL     1       0.493   3.723   0.688  1.00  0.00    -0.075 NA  
ATOM     6   H11 UNL     1      -0.489   0.744   1.559  1.00  0.00     0.083 HD  
ENDROOT
BRANCH   1   7
ATOM     7   C7  UNL     1      -1.411   3.395   2.181  1.00  0.00     0.155 C   
BRANCH   7   8
ATOM     8   C6  UNL     1      -2.742   2.933   1.593  1.00  0.00    -0.021 A   
ATOM     9   C2  UNL     1      -4.637   1.400   1.479  1.00  0.00     0.075 A   
ATOM     10  C3  UNL     1      -5.142   2.111   0.392  1.00  0.00     0.033 A   
ATOM     11  C24 UNL     1      -3.439   1.809   2.072  1.00  0.00     0.039 A   
ATOM     12  C4  UNL     1      -4.467   3.225  -0.101  1.00  0.00     0.003 A   
ATOM     13  C5  UNL     1      -3.275   3.632   0.494  1.00  0.00     0.006 A   
BRANCH   9  14
ATOM     14  O1  UNL     1      -5.394   0.326   1.855  1.00  0.00    -0.349 OA  
ATOM     15  C1  UNL     1      -5.014  -0.353   3.046  1.00  0.00     0.203 C   
ENDBRANCH   9  14
ENDBRANCH   7   8
BRANCH   7  16
ATOM     16  C8  UNL     1      -1.183   3.177   3.691  1.00  0.00     0.185 C   
BRANCH  16  17
ATOM     17  O2  UNL     1      -1.007   1.806   4.050  1.00  0.00    -0.394 OA  
ATOM     18  H10 UNL     1      -0.897   1.779   5.020  1.00  0.00     0.210 HD  
ENDBRANCH  16  17
ENDBRANCH   7  16
ENDBRANCH   1   7
BRANCH   3  19
ATOM     19  C11 UNL     1       1.893   0.623  -0.454  1.00  0.00     0.114 C   
BRANCH  19  20
ATOM     20  C12 UNL     1       3.281   0.443   0.196  1.00  0.00     0.064 C   
BRANCH  20  21
ATOM     21  C13 UNL     1       4.191  -0.645  -0.412  1.00  0.00    -0.012 C   
ATOM     22  C14 UNL     1       3.528  -2.022  -0.436  1.00  0.00     0.007 C   
ATOM     23  C15 UNL     1       5.502  -0.718   0.377  1.00  0.00     0.007 C   
ENDBRANCH  20  21
ENDBRANCH  19  20
BRANCH  19  24
ATOM     24  N2  UNL     1       2.069   1.010  -1.903  1.00  0.00     0.249 N   
ATOM     25  H22 UNL     1       2.756   0.407  -2.359  1.00  0.00     0.199 HD  
ATOM     26  H23 UNL     1       2.451   1.966  -1.898  1.00  0.00     0.199 HD  
BRANCH  24  27
ATOM     27  C16 UNL     1       0.826   1.029  -2.733  1.00  0.00     0.164 C   
BRANCH  27  28
ATOM     28  C17 UNL     1       0.280  -0.350  -2.984  1.00  0.00    -0.002 A   
ATOM     29  C18 UNL     1       0.894  -1.199  -3.936  1.00  0.00     0.012 A   
ATOM     30  C22 UNL     1      -0.820  -0.819  -2.246  1.00  0.00     0.045 A   
ATOM     31  C19 UNL     1       0.423  -2.499  -4.147  1.00  0.00     0.037 A   
ATOM     32  C21 UNL     1      -1.255  -2.107  -2.475  1.00  0.00     0.109 A   
ATOM     33  C20 UNL     1      -0.651  -2.924  -3.398  1.00  0.00     0.108 A   
ATOM     34  O3  UNL     1      -2.289  -2.717  -1.840  1.00  0.00    -0.316 OA  
ATOM     35  O4  UNL     1      -1.232  -4.149  -3.465  1.00  0.00    -0.316 OA  
ATOM     36  C23 UNL     1      -2.292  -4.005  -2.495  1.00  0.00     0.337 C   
ENDBRANCH  27  28
ENDBRANCH  24  27
ENDBRANCH  19  24
ENDBRANCH   3  19
TORSDOF 11
