REMARK SMILES COCc1cccc(Cn2cc([C@@H]([NH2+]Cc3ccc4c(c3)OCO4)C(C)C)nn2)c1
REMARK SMILES IDX 10 1 11 2 12 3 28 4 29 5 9 7 8 8 4 9 5 10 30 11 6 12 7 13
REMARK SMILES IDX 3 14 2 15 1 16 13 17 14 18 15 21 16 22 17 23 21 24 18 25
REMARK SMILES IDX 20 26 19 27 22 28 24 29 23 30 25 31 26 32 27 33
REMARK H PARENT 11 6 14 19 14 20
ROOT
ATOM     1   N1  UNL     1       0.500  -2.993   1.085  1.00  0.00    -0.208 N   
ATOM     2   C9  UNL     1      -0.529  -2.108   1.274  1.00  0.00     0.046 A   
ATOM     3   C10 UNL     1      -1.230  -2.167   0.090  1.00  0.00     0.127 A   
ATOM     4   N3  UNL     1      -0.695  -3.146  -0.705  1.00  0.00    -0.132 NA  
ATOM     5   N4  UNL     1       0.346  -3.661  -0.075  1.00  0.00    -0.076 NA  
ATOM     6   H11 UNL     1      -0.579  -1.458   2.136  1.00  0.00     0.083 HD  
ENDROOT
BRANCH   1   7
ATOM     7   C8  UNL     1       1.777  -3.020   1.786  1.00  0.00     0.169 C   
BRANCH   7   8
ATOM     8   C7  UNL     1       2.554  -1.761   1.465  1.00  0.00    -0.028 A   
ATOM     9   C3  UNL     1       3.499  -0.242  -0.206  1.00  0.00    -0.022 A   
ATOM     10  C4  UNL     1       3.797   0.668   0.816  1.00  0.00     0.006 A   
ATOM     11  C23 UNL     1       2.893  -1.460   0.132  1.00  0.00     0.011 A   
ATOM     12  C5  UNL     1       3.507   0.362   2.147  1.00  0.00     0.001 A   
ATOM     13  C6  UNL     1       2.887  -0.845   2.472  1.00  0.00     0.005 A   
BRANCH   9  14
ATOM     14  C2  UNL     1       3.765   0.104  -1.648  1.00  0.00     0.195 C   
BRANCH  14  15
ATOM     15  O1  UNL     1       2.605   0.765  -2.163  1.00  0.00    -0.380 OA  
ATOM     16  C1  UNL     1       2.849   1.275  -3.466  1.00  0.00     0.195 C   
ENDBRANCH  14  15
ENDBRANCH   9  14
ENDBRANCH   7   8
ENDBRANCH   1   7
BRANCH   3  17
ATOM     17  C11 UNL     1      -2.290  -1.269  -0.460  1.00  0.00     0.117 C   
BRANCH  17  18
ATOM     18  N2  UNL     1      -1.772  -0.624  -1.734  1.00  0.00     0.249 N   
ATOM     19  H13 UNL     1      -1.544  -1.394  -2.376  1.00  0.00     0.199 HD  
ATOM     20  H14 UNL     1      -2.503  -0.058  -2.172  1.00  0.00     0.199 HD  
BRANCH  18  21
ATOM     21  C12 UNL     1      -0.539   0.227  -1.610  1.00  0.00     0.164 C   
BRANCH  21  22
ATOM     22  C13 UNL     1      -0.742   1.436  -0.738  1.00  0.00    -0.002 A   
ATOM     23  C14 UNL     1      -1.568   2.506  -1.160  1.00  0.00     0.012 A   
ATOM     24  C18 UNL     1      -0.112   1.504   0.518  1.00  0.00     0.045 A   
ATOM     25  C15 UNL     1      -1.774   3.621  -0.339  1.00  0.00     0.037 A   
ATOM     26  C17 UNL     1      -0.338   2.613   1.304  1.00  0.00     0.109 A   
ATOM     27  C16 UNL     1      -1.147   3.642   0.888  1.00  0.00     0.108 A   
ATOM     28  O2  UNL     1       0.188   2.831   2.537  1.00  0.00    -0.316 OA  
ATOM     29  O3  UNL     1      -1.232   4.637   1.809  1.00  0.00    -0.316 OA  
ATOM     30  C19 UNL     1      -0.348   4.139   2.836  1.00  0.00     0.337 C   
ENDBRANCH  21  22
ENDBRANCH  18  21
ENDBRANCH  17  18
BRANCH  17  31
ATOM     31  C20 UNL     1      -3.603  -2.040  -0.771  1.00  0.00     0.037 C   
ATOM     32  C21 UNL     1      -4.207  -2.629   0.511  1.00  0.00     0.014 C   
ATOM     33  C22 UNL     1      -4.668  -1.169  -1.452  1.00  0.00     0.014 C   
ENDBRANCH  17  31
ENDBRANCH   3  17
TORSDOF 9
