REMARK SMILES CC(C)C[C@H]([NH2+]Cc1ccc2c(c1)OCO2)c1cn(Cc2c(Cl)ncn2C)nn1
REMARK SMILES IDX 17 1 18 2 19 3 28 4 29 5 5 7 4 8 2 9 1 10 3 11 6 12 7 15
REMARK SMILES IDX 8 16 9 17 13 18 10 19 12 20 11 21 14 22 16 23 15 24 20 25
REMARK SMILES IDX 21 26 22 27 26 28 24 29 25 30 23 31 27 32
REMARK H PARENT 18 6 6 13 6 14
ROOT
ATOM     1   C14 UNL     1       0.839   0.289   0.280  1.00  0.00     0.127 A   
ATOM     2   C15 UNL     1       0.196   1.474   0.004  1.00  0.00     0.046 A   
ATOM     3   N2  UNL     1       1.138   2.215  -0.656  1.00  0.00    -0.206 N   
ATOM     4   N5  UNL     1       2.297   1.534  -0.764  1.00  0.00    -0.076 NA  
ATOM     5   N6  UNL     1       2.127   0.353  -0.193  1.00  0.00    -0.132 NA  
ATOM     6   H20 UNL     1      -0.805   1.839   0.190  1.00  0.00     0.083 HD  
ENDROOT
BRANCH   1   7
ATOM     7   C5  UNL     1       0.357  -0.967   0.935  1.00  0.00     0.114 C   
BRANCH   7   8
ATOM     8   C4  UNL     1       0.645  -0.936   2.452  1.00  0.00     0.064 C   
BRANCH   8   9
ATOM     9   C2  UNL     1      -0.237  -1.827   3.356  1.00  0.00    -0.012 C   
ATOM     10  C1  UNL     1      -0.078  -3.323   3.102  1.00  0.00     0.007 C   
ATOM     11  C3  UNL     1      -1.714  -1.432   3.296  1.00  0.00     0.007 C   
ENDBRANCH   8   9
ENDBRANCH   7   8
BRANCH   7  12
ATOM     12  N1  UNL     1       1.071  -2.148   0.315  1.00  0.00     0.249 N   
ATOM     13  H11 UNL     1       1.949  -1.769  -0.077  1.00  0.00     0.199 HD  
ATOM     14  H12 UNL     1       1.363  -2.821   1.028  1.00  0.00     0.199 HD  
BRANCH  12  15
ATOM     15  C6  UNL     1       0.347  -2.860  -0.775  1.00  0.00     0.164 C   
BRANCH  15  16
ATOM     16  C7  UNL     1       0.093  -2.021  -1.994  1.00  0.00    -0.002 A   
ATOM     17  C8  UNL     1       1.158  -1.676  -2.862  1.00  0.00     0.012 A   
ATOM     18  C12 UNL     1      -1.202  -1.552  -2.273  1.00  0.00     0.045 A   
ATOM     19  C9  UNL     1       0.937  -0.879  -3.991  1.00  0.00     0.037 A   
ATOM     20  C11 UNL     1      -1.385  -0.769  -3.394  1.00  0.00     0.109 A   
ATOM     21  C10 UNL     1      -0.346  -0.443  -4.230  1.00  0.00     0.108 A   
ATOM     22  O1  UNL     1      -2.569  -0.247  -3.805  1.00  0.00    -0.316 OA  
ATOM     23  O2  UNL     1      -0.746   0.321  -5.279  1.00  0.00    -0.316 OA  
ATOM     24  C13 UNL     1      -2.164   0.429  -5.019  1.00  0.00     0.337 C   
ENDBRANCH  15  16
ENDBRANCH  12  15
ENDBRANCH   7  12
ENDBRANCH   1   7
BRANCH   3  25
ATOM     25  C16 UNL     1       1.019   3.569  -1.174  1.00  0.00     0.188 C   
BRANCH  25  26
ATOM     26  C17 UNL     1       0.388   3.568  -2.518  1.00  0.00     0.068 A   
ATOM     27  C18 UNL     1      -0.942   3.650  -2.885  1.00  0.00     0.149 A   
ATOM     28  N4  UNL     1       1.068   3.484  -3.712  1.00  0.00    -0.294 N   
ATOM     29  N3  UNL     1      -1.075   3.626  -4.247  1.00  0.00    -0.227 NA  
ATOM     30  C19 UNL     1       0.146   3.531  -4.718  1.00  0.00     0.190 A   
ATOM     31  CL1 UNL     1      -2.287   3.752  -1.849  1.00  0.00    -0.060 Cl  
ATOM     32  C20 UNL     1       2.493   3.363  -3.906  1.00  0.00     0.137 C   
ENDBRANCH  25  26
ENDBRANCH   3  25
TORSDOF 8
