REMARK SMILES COc1ccc(Cn2cc([C@H](CC(C)C)[NH2+]Cc3ccc4c(c3)OCO4)nn2)c(O)c1
REMARK SMILES IDX 8 1 9 2 10 3 27 4 28 5 7 7 6 8 3 9 4 10 31 11 5 12 29 13
REMARK SMILES IDX 2 14 1 15 30 16 11 18 12 19 13 20 14 21 15 22 16 23 17 26
REMARK SMILES IDX 18 27 19 28 23 29 20 30 22 31 21 32 24 33 26 34 25 35
REMARK H PARENT 9 6 30 17 16 24 16 25
ROOT
ATOM     1   N1  UNL     1      -0.117  -0.965  -2.514  1.00  0.00    -0.208 N   
ATOM     2   C7  UNL     1       0.449   0.272  -2.359  1.00  0.00     0.046 A   
ATOM     3   C8  UNL     1       0.877   0.282  -1.051  1.00  0.00     0.127 A   
ATOM     4   N3  UNL     1       0.580  -0.926  -0.471  1.00  0.00    -0.132 NA  
ATOM     5   N4  UNL     1      -0.034  -1.676  -1.371  1.00  0.00    -0.076 NA  
ATOM     6   H8  UNL     1       0.477   0.995  -3.163  1.00  0.00     0.083 HD  
ENDROOT
BRANCH   1   7
ATOM     7   C6  UNL     1      -0.720  -1.538  -3.705  1.00  0.00     0.172 C   
BRANCH   7   8
ATOM     8   C5  UNL     1      -2.107  -0.995  -3.924  1.00  0.00     0.002 A   
ATOM     9   C2  UNL     1      -4.713   0.010  -4.304  1.00  0.00     0.077 A   
ATOM     10  C3  UNL     1      -4.503  -1.105  -3.494  1.00  0.00     0.034 A   
ATOM     11  C23 UNL     1      -3.621   0.626  -4.918  1.00  0.00     0.067 A   
ATOM     12  C4  UNL     1      -3.209  -1.602  -3.304  1.00  0.00     0.011 A   
ATOM     13  C22 UNL     1      -2.334   0.127  -4.725  1.00  0.00     0.079 A   
BRANCH   9  14
ATOM     14  O1  UNL     1      -5.919   0.595  -4.571  1.00  0.00    -0.349 OA  
ATOM     15  C1  UNL     1      -7.075  -0.027  -4.022  1.00  0.00     0.203 C   
ENDBRANCH   9  14
BRANCH  13  16
ATOM     16  O4  UNL     1      -1.266   0.740  -5.318  1.00  0.00    -0.361 OA  
ATOM     17  H28 UNL     1      -1.607   1.370  -5.980  1.00  0.00     0.218 HD  
ENDBRANCH  13  16
ENDBRANCH   7   8
ENDBRANCH   1   7
BRANCH   3  18
ATOM     18  C9  UNL     1       1.537   1.349  -0.237  1.00  0.00     0.114 C   
BRANCH  18  19
ATOM     19  C10 UNL     1       3.061   1.353  -0.474  1.00  0.00     0.064 C   
BRANCH  19  20
ATOM     20  C11 UNL     1       3.863   2.465   0.236  1.00  0.00    -0.012 C   
ATOM     21  C12 UNL     1       5.346   2.338  -0.127  1.00  0.00     0.007 C   
ATOM     22  C13 UNL     1       3.363   3.867  -0.115  1.00  0.00     0.007 C   
ENDBRANCH  19  20
ENDBRANCH  18  19
BRANCH  18  23
ATOM     23  N2  UNL     1       1.263   1.119   1.224  1.00  0.00     0.249 N   
ATOM     24  H19 UNL     1       1.390   0.108   1.388  1.00  0.00     0.199 HD  
ATOM     25  H20 UNL     1       1.934   1.595   1.831  1.00  0.00     0.199 HD  
BRANCH  23  26
ATOM     26  C14 UNL     1      -0.115   1.465   1.671  1.00  0.00     0.164 C   
BRANCH  26  27
ATOM     27  C15 UNL     1      -0.331   1.019   3.089  1.00  0.00    -0.002 A   
ATOM     28  C16 UNL     1      -0.804  -0.289   3.353  1.00  0.00     0.012 A   
ATOM     29  C20 UNL     1      -0.008   1.868   4.160  1.00  0.00     0.045 A   
ATOM     30  C17 UNL     1      -0.968  -0.743   4.667  1.00  0.00     0.037 A   
ATOM     31  C19 UNL     1      -0.179   1.388   5.442  1.00  0.00     0.109 A   
ATOM     32  C18 UNL     1      -0.645   0.120   5.689  1.00  0.00     0.108 A   
ATOM     33  O2  UNL     1       0.087   2.074   6.584  1.00  0.00    -0.316 OA  
ATOM     34  O3  UNL     1      -0.735  -0.151   7.017  1.00  0.00    -0.316 OA  
ATOM     35  C21 UNL     1      -0.289   1.100   7.584  1.00  0.00     0.337 C   
ENDBRANCH  26  27
ENDBRANCH  23  26
ENDBRANCH  18  23
ENDBRANCH   3  18
TORSDOF 10
