REMARK SMILES CC(C)[C@H]([NH2+]Cc1ccc2c(c1)OCO2)c1cn(Cc2ccc3c(c2)CNC3)nn1
REMARK SMILES IDX 16 1 17 2 18 3 29 4 30 5 4 7 2 8 1 9 3 10 5 11 6 14 7 15
REMARK SMILES IDX 8 16 12 17 9 18 11 19 10 20 13 21 15 22 14 23 19 24 20 25
REMARK SMILES IDX 21 26 25 27 22 28 24 29 23 30 26 31 28 32 27 33
REMARK H PARENT 17 6 5 12 5 13 27 34
ROOT
ATOM     1   C13 UNL     1       0.991  -1.840   1.141  1.00  0.00     0.127 A   
ATOM     2   C14 UNL     1       0.072  -2.017   0.132  1.00  0.00     0.046 A   
ATOM     3   N2  UNL     1      -1.095  -2.293   0.792  1.00  0.00    -0.208 N   
ATOM     4   N4  UNL     1      -0.891  -2.342   2.124  1.00  0.00    -0.076 NA  
ATOM     5   N5  UNL     1       0.384  -2.073   2.349  1.00  0.00    -0.132 NA  
ATOM     6   H18 UNL     1       0.116  -1.904  -0.944  1.00  0.00     0.083 HD  
ENDROOT
BRANCH   1   7
ATOM     7   C4  UNL     1       2.395  -1.339   1.097  1.00  0.00     0.117 C   
BRANCH   7   8
ATOM     8   C2  UNL     1       3.475  -2.451   1.119  1.00  0.00     0.037 C   
ATOM     9   C1  UNL     1       3.429  -3.361   2.351  1.00  0.00     0.014 C   
ATOM     10  C3  UNL     1       3.424  -3.304  -0.156  1.00  0.00     0.014 C   
ENDBRANCH   7   8
BRANCH   7  11
ATOM     11  N1  UNL     1       2.656  -0.388   2.249  1.00  0.00     0.249 N   
ATOM     12  H9  UNL     1       3.646  -0.125   2.265  1.00  0.00     0.199 HD  
ATOM     13  H10 UNL     1       2.457  -0.910   3.113  1.00  0.00     0.199 HD  
BRANCH  11  14
ATOM     14  C5  UNL     1       1.810   0.848   2.303  1.00  0.00     0.164 C   
BRANCH  14  15
ATOM     15  C6  UNL     1       1.900   1.702   1.068  1.00  0.00    -0.002 A   
ATOM     16  C7  UNL     1       3.086   2.418   0.769  1.00  0.00     0.012 A   
ATOM     17  C11 UNL     1       0.807   1.772   0.182  1.00  0.00     0.045 A   
ATOM     18  C8  UNL     1       3.188   3.181  -0.401  1.00  0.00     0.037 A   
ATOM     19  C10 UNL     1       0.936   2.546  -0.953  1.00  0.00     0.109 A   
ATOM     20  C9  UNL     1       2.094   3.225  -1.242  1.00  0.00     0.108 A   
ATOM     21  O1  UNL     1      -0.025   2.729  -1.898  1.00  0.00    -0.316 OA  
ATOM     22  O2  UNL     1       2.013   3.905  -2.416  1.00  0.00    -0.316 OA  
ATOM     23  C12 UNL     1       0.634   3.671  -2.774  1.00  0.00     0.337 C   
ENDBRANCH  14  15
ENDBRANCH  11  14
ENDBRANCH   7  11
ENDBRANCH   1   7
BRANCH   3  24
ATOM     24  C15 UNL     1      -2.434  -2.390   0.236  1.00  0.00     0.169 C   
BRANCH  24  25
ATOM     25  C16 UNL     1      -2.871  -1.046  -0.299  1.00  0.00    -0.028 A   
ATOM     26  C17 UNL     1      -3.263  -0.021   0.592  1.00  0.00     0.006 A   
ATOM     27  C21 UNL     1      -2.833  -0.787  -1.680  1.00  0.00     0.010 A   
ATOM     28  C18 UNL     1      -3.609   1.250   0.124  1.00  0.00     0.006 A   
ATOM     29  C20 UNL     1      -3.183   0.477  -2.125  1.00  0.00    -0.029 A   
ATOM     30  C19 UNL     1      -3.562   1.479  -1.238  1.00  0.00    -0.030 A   
ATOM     31  C22 UNL     1      -3.198   1.020  -3.516  1.00  0.00     0.117 C   
ATOM     32  C23 UNL     1      -3.849   2.731  -2.001  1.00  0.00     0.117 C   
ATOM     33  N3  UNL     1      -3.902   2.323  -3.428  1.00  0.00    -0.309 NA  
ATOM     34  H26 UNL     1      -4.884   2.140  -3.640  1.00  0.00     0.123 HD  
ENDBRANCH  24  25
ENDBRANCH   3  24
TORSDOF 7
