REMARK SMILES CC(C)(C)[C@H]([NH2+]Cc1ccc2c(c1)OCO2)c1cn(CCc2ccccn2)nn1
REMARK SMILES IDX 17 1 18 2 19 3 28 4 29 5 5 7 2 8 1 9 3 10 4 11 6 12 7 15
REMARK SMILES IDX 8 16 9 17 13 18 10 19 12 20 11 21 14 22 16 23 15 24 20 25
REMARK SMILES IDX 21 26 22 27 23 28 27 29 24 30 26 31 25 32
REMARK H PARENT 18 6 6 13 6 14
ROOT
ATOM     1   C14 UNL     1       1.190   1.068   1.189  1.00  0.00     0.127 A   
ATOM     2   C15 UNL     1       1.852   0.116   0.449  1.00  0.00     0.045 A   
ATOM     3   N2  UNL     1       2.402  -0.708   1.388  1.00  0.00    -0.212 N   
ATOM     4   N4  UNL     1       2.115  -0.281   2.633  1.00  0.00    -0.076 NA  
ATOM     5   N5  UNL     1       1.370   0.807   2.524  1.00  0.00    -0.132 NA  
ATOM     6   H20 UNL     1       1.946  -0.076  -0.611  1.00  0.00     0.083 HD  
ENDROOT
BRANCH   1   7
ATOM     7   C5  UNL     1       0.286   2.181   0.764  1.00  0.00     0.120 C   
BRANCH   7   8
ATOM     8   C2  UNL     1       0.987   3.584   0.679  1.00  0.00     0.010 C   
ATOM     9   C1  UNL     1       2.196   3.512  -0.282  1.00  0.00     0.017 C   
ATOM     10  C3  UNL     1       1.484   4.092   2.046  1.00  0.00     0.017 C   
ATOM     11  C4  UNL     1       0.013   4.636   0.098  1.00  0.00     0.017 C   
ENDBRANCH   7   8
BRANCH   7  12
ATOM     12  N1  UNL     1      -0.902   2.241   1.708  1.00  0.00     0.250 N   
ATOM     13  H11 UNL     1      -1.454   3.085   1.550  1.00  0.00     0.199 HD  
ATOM     14  H12 UNL     1      -0.508   2.297   2.657  1.00  0.00     0.199 HD  
BRANCH  12  15
ATOM     15  C6  UNL     1      -1.819   1.059   1.696  1.00  0.00     0.164 C   
BRANCH  15  16
ATOM     16  C7  UNL     1      -2.521   0.867   0.381  1.00  0.00    -0.002 A   
ATOM     17  C8  UNL     1      -3.554   1.748  -0.020  1.00  0.00     0.012 A   
ATOM     18  C12 UNL     1      -2.130  -0.177  -0.476  1.00  0.00     0.045 A   
ATOM     19  C9  UNL     1      -4.186   1.595  -1.259  1.00  0.00     0.037 A   
ATOM     20  C11 UNL     1      -2.771  -0.299  -1.691  1.00  0.00     0.109 A   
ATOM     21  C10 UNL     1      -3.769   0.564  -2.071  1.00  0.00     0.108 A   
ATOM     22  O1  UNL     1      -2.511  -1.241  -2.635  1.00  0.00    -0.316 OA  
ATOM     23  O2  UNL     1      -4.266   0.272  -3.301  1.00  0.00    -0.316 OA  
ATOM     24  C13 UNL     1      -3.482  -0.889  -3.648  1.00  0.00     0.337 C   
ENDBRANCH  15  16
ENDBRANCH  12  15
ENDBRANCH   7  12
ENDBRANCH   1   7
BRANCH   3  25
ATOM     25  C16 UNL     1       3.183  -1.910   1.181  1.00  0.00     0.140 C   
BRANCH  25  26
ATOM     26  C17 UNL     1       2.427  -3.185   1.551  1.00  0.00     0.077 C   
BRANCH  26  27
ATOM     27  C18 UNL     1       1.240  -3.495   0.667  1.00  0.00     0.042 A   
ATOM     28  C19 UNL     1       0.306  -4.441   1.086  1.00  0.00     0.024 A   
ATOM     29  N3  UNL     1       1.157  -2.882  -0.539  1.00  0.00    -0.261 NA  
ATOM     30  C20 UNL     1      -0.752  -4.765   0.241  1.00  0.00     0.003 A   
ATOM     31  C22 UNL     1       0.131  -3.233  -1.348  1.00  0.00     0.111 A   
ATOM     32  C21 UNL     1      -0.843  -4.153  -1.002  1.00  0.00     0.020 A   
ENDBRANCH  26  27
ENDBRANCH  25  26
ENDBRANCH   3  25
TORSDOF 8
