REMARK SMILES COc1ccc(CCn2cc([C@@H]([NH2+]Cc3ccc4c(c3)OCO4)C3CCCCC3)nn2)nc1
REMARK SMILES IDX 9 1 10 2 11 3 30 4 31 5 8 7 7 8 6 9 3 10 4 11 33 12 5 13
REMARK SMILES IDX 32 14 2 15 1 16 12 17 13 18 14 21 15 22 16 23 20 24 17 25
REMARK SMILES IDX 19 26 18 27 21 28 23 29 22 30 24 31 25 32 29 33 26 34 28 35
REMARK SMILES IDX 27 36
REMARK H PARENT 10 6 13 19 13 20
ROOT
ATOM     1   N1  UNL     1      -0.325   3.780  -0.866  1.00  0.00    -0.212 N   
ATOM     2   C8  UNL     1      -1.279   2.883  -0.476  1.00  0.00     0.045 A   
ATOM     3   C9  UNL     1      -0.983   1.752  -1.201  1.00  0.00     0.127 A   
ATOM     4   N3  UNL     1       0.056   2.025  -2.057  1.00  0.00    -0.132 NA  
ATOM     5   N4  UNL     1       0.444   3.273  -1.848  1.00  0.00    -0.076 NA  
ATOM     6   H10 UNL     1      -1.988   3.103   0.310  1.00  0.00     0.083 HD  
ENDROOT
BRANCH   1   7
ATOM     7   C7  UNL     1      -0.034   5.077  -0.290  1.00  0.00     0.140 C   
BRANCH   7   8
ATOM     8   C6  UNL     1       1.226   5.061   0.575  1.00  0.00     0.077 C   
BRANCH   8   9
ATOM     9   C5  UNL     1       1.142   4.112   1.748  1.00  0.00     0.042 A   
ATOM     10  C2  UNL     1       0.965   2.454   3.953  1.00  0.00     0.093 A   
ATOM     11  C3  UNL     1       2.179   2.591   3.287  1.00  0.00     0.037 A   
ATOM     12  C25 UNL     1      -0.112   3.175   3.460  1.00  0.00     0.144 A   
ATOM     13  C4  UNL     1       2.279   3.438   2.184  1.00  0.00     0.026 A   
ATOM     14  N5  UNL     1      -0.055   3.990   2.373  1.00  0.00    -0.259 NA  
BRANCH  10  15
ATOM     15  O1  UNL     1       0.970   1.607   5.021  1.00  0.00    -0.348 OA  
ATOM     16  C1  UNL     1      -0.197   1.603   5.838  1.00  0.00     0.203 C   
ENDBRANCH  10  15
ENDBRANCH   8   9
ENDBRANCH   7   8
ENDBRANCH   1   7
BRANCH   3  17
ATOM     17  C10 UNL     1      -1.555   0.371  -1.158  1.00  0.00     0.117 C   
BRANCH  17  18
ATOM     18  N2  UNL     1      -0.807  -0.517  -2.120  1.00  0.00     0.249 N   
ATOM     19  H12 UNL     1       0.009   0.029  -2.444  1.00  0.00     0.199 HD  
ATOM     20  H13 UNL     1      -0.401  -1.337  -1.662  1.00  0.00     0.199 HD  
BRANCH  18  21
ATOM     21  C11 UNL     1      -1.566  -0.933  -3.324  1.00  0.00     0.164 C   
BRANCH  21  22
ATOM     22  C12 UNL     1      -0.725  -1.822  -4.194  1.00  0.00    -0.002 A   
ATOM     23  C13 UNL     1       0.073  -1.267  -5.223  1.00  0.00     0.012 A   
ATOM     24  C17 UNL     1      -0.681  -3.207  -3.953  1.00  0.00     0.045 A   
ATOM     25  C14 UNL     1       0.891  -2.081  -6.015  1.00  0.00     0.037 A   
ATOM     26  C16 UNL     1       0.139  -3.979  -4.750  1.00  0.00     0.109 A   
ATOM     27  C15 UNL     1       0.902  -3.433  -5.752  1.00  0.00     0.108 A   
ATOM     28  O2  UNL     1       0.299  -5.324  -4.647  1.00  0.00    -0.316 OA  
ATOM     29  O3  UNL     1       1.631  -4.367  -6.414  1.00  0.00    -0.316 OA  
ATOM     30  C18 UNL     1       1.230  -5.572  -5.726  1.00  0.00     0.337 C   
ENDBRANCH  21  22
ENDBRANCH  18  21
ENDBRANCH  17  18
BRANCH  17  31
ATOM     31  C19 UNL     1      -1.553  -0.243   0.268  1.00  0.00     0.043 C   
ATOM     32  C20 UNL     1      -0.148  -0.388   0.889  1.00  0.00     0.010 C   
ATOM     33  C24 UNL     1      -2.300  -1.591   0.310  1.00  0.00     0.010 C   
ATOM     34  C21 UNL     1      -0.219  -0.959   2.305  1.00  0.00     0.001 C   
ATOM     35  C23 UNL     1      -2.357  -2.161   1.726  1.00  0.00     0.001 C   
ATOM     36  C22 UNL     1      -0.966  -2.288   2.338  1.00  0.00     0.000 C   
ENDBRANCH  17  31
ENDBRANCH   3  17
TORSDOF 9
