REMARK SMILES c1ccc2oc(Cn3cc([C@@H]([NH2+]Cc4ccc5c(c4)OCO5)C4CCCC4)nn3)nc2c1
REMARK SMILES IDX 11 1 10 2 8 3 9 4 29 5 28 6 7 8 6 9 1 10 2 11 32 12 3 13
REMARK SMILES IDX 31 14 4 15 30 16 5 17 12 18 13 21 14 22 15 23 19 24 16 25
REMARK SMILES IDX 18 26 17 27 20 28 22 29 21 30 23 31 24 32 27 33 25 34 26 35
REMARK H PARENT 9 7 12 19 12 20
ROOT
ATOM     1   C9  UNL     1      -0.936  -1.210  -1.788  1.00  0.00     0.117 C   
ENDROOT
BRANCH   1   2
ATOM     2   C8  UNL     1      -1.575  -0.156  -0.946  1.00  0.00     0.127 A   
ATOM     3   N1  UNL     1      -2.128   1.568   0.239  1.00  0.00    -0.204 N   
ATOM     4   C7  UNL     1      -1.219   1.149  -0.696  1.00  0.00     0.046 A   
ATOM     5   N4  UNL     1      -3.024   0.596   0.502  1.00  0.00    -0.075 NA  
ATOM     6   N3  UNL     1      -2.689  -0.469  -0.209  1.00  0.00    -0.132 NA  
ATOM     7   H6  UNL     1      -0.414   1.784  -1.042  1.00  0.00     0.083 HD  
BRANCH   3   8
ATOM     8   C6  UNL     1      -2.243   2.872   0.865  1.00  0.00     0.217 C   
BRANCH   8   9
ATOM     9   C5  UNL     1      -1.080   3.119   1.748  1.00  0.00     0.168 A   
ATOM     10  C1  UNL     1       2.494   3.982   4.268  1.00  0.00     0.002 A   
ATOM     11  C2  UNL     1       1.510   4.028   5.264  1.00  0.00     0.003 A   
ATOM     12  C24 UNL     1       2.163   3.717   2.930  1.00  0.00     0.031 A   
ATOM     13  C3  UNL     1       0.159   3.812   4.965  1.00  0.00     0.036 A   
ATOM     14  C23 UNL     1       0.816   3.497   2.617  1.00  0.00     0.097 A   
ATOM     15  C4  UNL     1      -0.126   3.550   3.631  1.00  0.00     0.109 A   
ATOM     16  N5  UNL     1       0.197   3.224   1.420  1.00  0.00    -0.224 NA  
ATOM     17  O1  UNL     1      -1.349   3.304   3.079  1.00  0.00    -0.292 OA  
ENDBRANCH   8   9
ENDBRANCH   3   8
ENDBRANCH   1   2
BRANCH   1  18
ATOM     18  N2  UNL     1      -1.080  -2.556  -1.115  1.00  0.00     0.249 N   
ATOM     19  H8  UNL     1      -1.913  -2.476  -0.508  1.00  0.00     0.199 HD  
ATOM     20  H9  UNL     1      -1.303  -3.289  -1.793  1.00  0.00     0.199 HD  
BRANCH  18  21
ATOM     21  C10 UNL     1       0.067  -2.998  -0.272  1.00  0.00     0.164 C   
BRANCH  21  22
ATOM     22  C11 UNL     1       0.318  -2.125   0.926  1.00  0.00    -0.002 A   
ATOM     23  C12 UNL     1       1.426  -1.245   0.954  1.00  0.00     0.012 A   
ATOM     24  C16 UNL     1      -0.568  -2.154   2.018  1.00  0.00     0.045 A   
ATOM     25  C13 UNL     1       1.649  -0.403   2.049  1.00  0.00     0.037 A   
ATOM     26  C15 UNL     1      -0.319  -1.312   3.081  1.00  0.00     0.109 A   
ATOM     27  C14 UNL     1       0.759  -0.462   3.098  1.00  0.00     0.108 A   
ATOM     28  O2  UNL     1      -1.072  -1.218   4.208  1.00  0.00    -0.316 OA  
ATOM     29  O3  UNL     1       0.824   0.270   4.239  1.00  0.00    -0.316 OA  
ATOM     30  C17 UNL     1      -0.346  -0.204   4.938  1.00  0.00     0.337 C   
ENDBRANCH  21  22
ENDBRANCH  18  21
ENDBRANCH   1  18
BRANCH   1  31
ATOM     31  C18 UNL     1      -1.532  -1.243  -3.209  1.00  0.00     0.043 C   
ATOM     32  C19 UNL     1      -0.775  -2.143  -4.191  1.00  0.00     0.010 C   
ATOM     33  C22 UNL     1      -2.999  -1.698  -3.325  1.00  0.00     0.010 C   
ATOM     34  C20 UNL     1      -1.762  -2.294  -5.336  1.00  0.00     0.001 C   
ATOM     35  C21 UNL     1      -3.098  -2.486  -4.633  1.00  0.00     0.001 C   
ENDBRANCH   1  31
TORSDOF 7
