REMARK SMILES OC[C@@H](c1cccs1)n1cc([C@@H]([NH2+]Cc2ccc3c(c2)OCO3)C2CCCCC2)nn1
REMARK SMILES IDX 9 1 10 2 11 3 30 4 31 5 3 7 2 8 1 9 4 11 5 12 8 13 6 14 7 15
REMARK SMILES IDX 12 16 13 17 14 20 15 21 16 22 20 23 17 24 19 25 18 26 21 27
REMARK SMILES IDX 23 28 22 29 24 30 25 31 29 32 26 33 28 34 27 35
REMARK H PARENT 10 6 1 10 13 18 13 19
ROOT
ATOM     1   N1  UNL     1      -2.068   0.879   0.027  1.00  0.00    -0.202 N   
ATOM     2   C7  UNL     1      -0.830   0.620  -0.496  1.00  0.00     0.046 A   
ATOM     3   C8  UNL     1      -0.319  -0.372   0.309  1.00  0.00     0.127 A   
ATOM     4   N3  UNL     1      -1.221  -0.649   1.304  1.00  0.00    -0.132 NA  
ATOM     5   N4  UNL     1      -2.277   0.128   1.133  1.00  0.00    -0.075 NA  
ATOM     6   H8  UNL     1      -0.455   1.136  -1.370  1.00  0.00     0.083 HD  
ENDROOT
BRANCH   1   7
ATOM     7   C2  UNL     1      -3.114   1.774  -0.461  1.00  0.00     0.162 C   
BRANCH   7   8
ATOM     8   C1  UNL     1      -2.728   3.264  -0.383  1.00  0.00     0.186 C   
BRANCH   8   9
ATOM     9   O1  UNL     1      -1.498   3.574  -1.044  1.00  0.00    -0.394 OA  
ATOM     10  H1  UNL     1      -1.459   4.547  -1.131  1.00  0.00     0.210 HD  
ENDBRANCH   8   9
ENDBRANCH   7   8
BRANCH   7  11
ATOM     11  C3  UNL     1      -3.644   1.293  -1.800  1.00  0.00     0.014 A   
ATOM     12  C4  UNL     1      -4.708   0.429  -2.007  1.00  0.00     0.013 A   
ATOM     13  S1  UNL     1      -2.947   1.765  -3.295  1.00  0.00    -0.100 S   
ATOM     14  C5  UNL     1      -4.951   0.174  -3.388  1.00  0.00     0.008 A   
ATOM     15  C6  UNL     1      -4.065   0.843  -4.198  1.00  0.00     0.046 A   
ENDBRANCH   7  11
ENDBRANCH   1   7
BRANCH   3  16
ATOM     16  C9  UNL     1       0.989  -1.091   0.275  1.00  0.00     0.117 C   
BRANCH  16  17
ATOM     17  N2  UNL     1       1.342  -1.570   1.669  1.00  0.00     0.249 N   
ATOM     18  H10 UNL     1       0.475  -1.969   2.058  1.00  0.00     0.199 HD  
ATOM     19  H11 UNL     1       2.034  -2.325   1.627  1.00  0.00     0.199 HD  
BRANCH  17  20
ATOM     20  C10 UNL     1       1.808  -0.521   2.623  1.00  0.00     0.164 C   
BRANCH  20  21
ATOM     21  C11 UNL     1       3.214  -0.067   2.341  1.00  0.00    -0.002 A   
ATOM     22  C12 UNL     1       3.457   1.213   1.787  1.00  0.00     0.012 A   
ATOM     23  C16 UNL     1       4.298  -0.923   2.608  1.00  0.00     0.045 A   
ATOM     24  C13 UNL     1       4.760   1.636   1.499  1.00  0.00     0.037 A   
ATOM     25  C15 UNL     1       5.568  -0.476   2.309  1.00  0.00     0.109 A   
ATOM     26  C14 UNL     1       5.794   0.766   1.770  1.00  0.00     0.108 A   
ATOM     27  O2  UNL     1       6.716  -1.178   2.501  1.00  0.00    -0.316 OA  
ATOM     28  O3  UNL     1       7.114   1.006   1.556  1.00  0.00    -0.316 OA  
ATOM     29  C17 UNL     1       7.700  -0.222   2.040  1.00  0.00     0.337 C   
ENDBRANCH  20  21
ENDBRANCH  17  20
ENDBRANCH  16  17
BRANCH  16  30
ATOM     30  C18 UNL     1       1.021  -2.316  -0.679  1.00  0.00     0.043 C   
ATOM     31  C19 UNL     1       0.899  -1.893  -2.156  1.00  0.00     0.010 C   
ATOM     32  C23 UNL     1      -0.023  -3.402  -0.349  1.00  0.00     0.010 C   
ATOM     33  C20 UNL     1       1.011  -3.090  -3.099  1.00  0.00     0.001 C   
ATOM     34  C22 UNL     1       0.083  -4.594  -1.300  1.00  0.00     0.001 C   
ATOM     35  C21 UNL     1      -0.017  -4.165  -2.760  1.00  0.00     0.000 C   
ENDBRANCH  16  30
ENDBRANCH   3  16
TORSDOF 9
