REMARK SMILES COc1ccc(F)cc1CCn1cc([C@@H]([NH2+]Cc2ccc3c(c2)OCO3)C(C)(C)C)nn1
REMARK SMILES IDX 12 1 13 2 14 3 31 4 32 5 11 7 10 8 9 9 3 10 4 11 5 12 8 13
REMARK SMILES IDX 6 14 7 15 2 16 1 17 15 18 16 19 17 22 18 23 19 24 23 25
REMARK SMILES IDX 20 26 22 27 21 28 24 29 26 30 25 31 27 32 28 33 29 34 30 35
REMARK H PARENT 13 6 16 20 16 21
ROOT
ATOM     1   N1  UNL     1      -2.227  -1.476   1.557  1.00  0.00    -0.212 N   
ATOM     2   C10 UNL     1      -1.449  -0.360   1.687  1.00  0.00     0.045 A   
ATOM     3   C11 UNL     1      -2.031   0.550   0.832  1.00  0.00     0.127 A   
ATOM     4   N3  UNL     1      -3.116  -0.031   0.227  1.00  0.00    -0.132 NA  
ATOM     5   N4  UNL     1      -3.231  -1.266   0.686  1.00  0.00    -0.076 NA  
ATOM     6   H11 UNL     1      -0.573  -0.335   2.320  1.00  0.00     0.083 HD  
ENDROOT
BRANCH   1   7
ATOM     7   C9  UNL     1      -2.011  -2.788   2.135  1.00  0.00     0.139 C   
BRANCH   7   8
ATOM     8   C8  UNL     1      -1.594  -3.831   1.096  1.00  0.00     0.060 C   
BRANCH   8   9
ATOM     9   C7  UNL     1      -0.319  -3.465   0.362  1.00  0.00    -0.013 A   
ATOM     10  C2  UNL     1       0.947  -3.616   0.961  1.00  0.00     0.078 A   
ATOM     11  C3  UNL     1       2.096  -3.235   0.259  1.00  0.00     0.037 A   
ATOM     12  C4  UNL     1       1.993  -2.700  -1.028  1.00  0.00     0.042 A   
ATOM     13  C6  UNL     1      -0.408  -2.929  -0.933  1.00  0.00     0.045 A   
ATOM     14  C5  UNL     1       0.742  -2.546  -1.608  1.00  0.00     0.123 A   
ATOM     15  F1  UNL     1       0.636  -1.977  -2.816  1.00  0.00    -0.207 F   
BRANCH  10  16
ATOM     16  O1  UNL     1       0.944  -4.109   2.238  1.00  0.00    -0.349 OA  
ATOM     17  C1  UNL     1       2.186  -4.588   2.747  1.00  0.00     0.203 C   
ENDBRANCH  10  16
ENDBRANCH   8   9
ENDBRANCH   7   8
ENDBRANCH   1   7
BRANCH   3  18
ATOM     18  C12 UNL     1      -1.608   1.926   0.420  1.00  0.00     0.120 C   
BRANCH  18  19
ATOM     19  N2  UNL     1      -1.773   2.045  -1.083  1.00  0.00     0.250 N   
ATOM     20  H13 UNL     1      -1.787   3.021  -1.384  1.00  0.00     0.199 HD  
ATOM     21  H14 UNL     1      -2.701   1.650  -1.297  1.00  0.00     0.199 HD  
BRANCH  19  22
ATOM     22  C13 UNL     1      -0.775   1.302  -1.913  1.00  0.00     0.164 C   
BRANCH  22  23
ATOM     23  C14 UNL     1       0.590   1.931  -1.864  1.00  0.00    -0.002 A   
ATOM     24  C15 UNL     1       1.628   1.331  -1.112  1.00  0.00     0.012 A   
ATOM     25  C19 UNL     1       0.835   3.141  -2.536  1.00  0.00     0.045 A   
ATOM     26  C16 UNL     1       2.891   1.926  -1.026  1.00  0.00     0.037 A   
ATOM     27  C18 UNL     1       2.090   3.702  -2.429  1.00  0.00     0.109 A   
ATOM     28  C17 UNL     1       3.090   3.113  -1.695  1.00  0.00     0.108 A   
ATOM     29  O2  UNL     1       2.487   4.867  -3.006  1.00  0.00    -0.316 OA  
ATOM     30  O3  UNL     1       4.242   3.830  -1.720  1.00  0.00    -0.316 OA  
ATOM     31  C20 UNL     1       3.865   4.931  -2.575  1.00  0.00     0.337 C   
ENDBRANCH  22  23
ENDBRANCH  19  22
ENDBRANCH  18  19
BRANCH  18  32
ATOM     32  C21 UNL     1      -2.372   3.086   1.149  1.00  0.00     0.010 C   
ATOM     33  C22 UNL     1      -2.240   2.925   2.681  1.00  0.00     0.017 C   
ATOM     34  C23 UNL     1      -3.871   3.135   0.794  1.00  0.00     0.017 C   
ATOM     35  C24 UNL     1      -1.742   4.450   0.784  1.00  0.00     0.017 C   
ENDBRANCH  18  32
ENDBRANCH   3  18
TORSDOF 9
