REMARK SMILES O[C@@H](Cn1cc([C@@H]([NH2+]Cc2ccc3c(c2)OCO3)C2CCCC2)nn1)c1ccc(F)cc1
REMARK SMILES IDX 4 1 5 2 6 3 24 4 25 5 3 7 2 8 1 9 26 11 27 12 32 13 28 14
REMARK SMILES IDX 31 15 29 16 30 17 7 18 8 19 9 22 10 23 11 24 15 25 12 26
REMARK SMILES IDX 14 27 13 28 16 29 18 30 17 31 19 32 20 33 23 34 21 35 22 36
REMARK H PARENT 5 6 1 10 8 20 8 21
ROOT
ATOM     1   N1  UNL     1       0.444  -2.797   1.162  1.00  0.00    -0.209 N   
ATOM     2   C3  UNL     1      -0.692  -2.047   1.044  1.00  0.00     0.045 A   
ATOM     3   C4  UNL     1      -1.023  -2.154  -0.289  1.00  0.00     0.127 A   
ATOM     4   N3  UNL     1      -0.099  -2.946  -0.920  1.00  0.00    -0.132 NA  
ATOM     5   N4  UNL     1       0.794  -3.331  -0.023  1.00  0.00    -0.076 NA  
ATOM     6   H5  UNL     1      -1.124  -1.509   1.877  1.00  0.00     0.083 HD  
ENDROOT
BRANCH   1   7
ATOM     7   C2  UNL     1       1.262  -2.994   2.336  1.00  0.00     0.170 C   
BRANCH   7   8
ATOM     8   C1  UNL     1       2.709  -2.518   2.171  1.00  0.00     0.164 C   
BRANCH   8   9
ATOM     9   O1  UNL     1       3.390  -2.696   3.416  1.00  0.00    -0.387 OA  
ATOM     10  H1  UNL     1       4.244  -2.231   3.350  1.00  0.00     0.211 HD  
ENDBRANCH   8   9
BRANCH   8  11
ATOM     11  C19 UNL     1       2.827  -1.063   1.747  1.00  0.00    -0.018 A   
ATOM     12  C20 UNL     1       2.505  -0.017   2.629  1.00  0.00     0.009 A   
ATOM     13  C24 UNL     1       3.259  -0.749   0.446  1.00  0.00     0.009 A   
ATOM     14  C21 UNL     1       2.610   1.314   2.215  1.00  0.00     0.039 A   
ATOM     15  C23 UNL     1       3.366   0.582   0.037  1.00  0.00     0.039 A   
ATOM     16  C22 UNL     1       3.039   1.600   0.925  1.00  0.00     0.123 A   
ATOM     17  F1  UNL     1       3.125   2.875   0.522  1.00  0.00    -0.207 F   
ENDBRANCH   8  11
ENDBRANCH   7   8
ENDBRANCH   1   7
BRANCH   3  18
ATOM     18  C5  UNL     1      -2.113  -1.510  -1.082  1.00  0.00     0.117 C   
BRANCH  18  19
ATOM     19  N2  UNL     1      -1.558  -0.987  -2.392  1.00  0.00     0.249 N   
ATOM     20  H7  UNL     1      -1.130  -1.790  -2.869  1.00  0.00     0.199 HD  
ATOM     21  H8  UNL     1      -2.318  -0.649  -2.990  1.00  0.00     0.199 HD  
BRANCH  19  22
ATOM     22  C6  UNL     1      -0.524   0.087  -2.293  1.00  0.00     0.164 C   
BRANCH  22  23
ATOM     23  C7  UNL     1      -1.045   1.349  -1.664  1.00  0.00    -0.002 A   
ATOM     24  C8  UNL     1      -0.657   1.700  -0.348  1.00  0.00     0.012 A   
ATOM     25  C12 UNL     1      -1.944   2.173  -2.362  1.00  0.00     0.045 A   
ATOM     26  C9  UNL     1      -1.156   2.851   0.268  1.00  0.00     0.037 A   
ATOM     27  C11 UNL     1      -2.421   3.300  -1.725  1.00  0.00     0.109 A   
ATOM     28  C10 UNL     1      -2.039   3.629  -0.447  1.00  0.00     0.108 A   
ATOM     29  O2  UNL     1      -3.291   4.197  -2.256  1.00  0.00    -0.316 OA  
ATOM     30  O3  UNL     1      -2.621   4.776  -0.012  1.00  0.00    -0.316 OA  
ATOM     31  C13 UNL     1      -3.413   5.140  -1.165  1.00  0.00     0.337 C   
ENDBRANCH  22  23
ENDBRANCH  19  22
ENDBRANCH  18  19
BRANCH  18  32
ATOM     32  C14 UNL     1      -3.254  -2.497  -1.402  1.00  0.00     0.043 C   
ATOM     33  C15 UNL     1      -4.411  -1.887  -2.201  1.00  0.00     0.010 C   
ATOM     34  C18 UNL     1      -3.980  -3.014  -0.155  1.00  0.00     0.010 C   
ATOM     35  C16 UNL     1      -5.605  -2.805  -1.950  1.00  0.00     0.001 C   
ATOM     36  C17 UNL     1      -5.260  -3.625  -0.710  1.00  0.00     0.001 C   
ENDBRANCH  18  32
ENDBRANCH   3  18
TORSDOF 9
