REMARK SMILES O[C@H](Cn1cc([C@@H]([NH2+]Cc2ccc3c(c2)OCO3)C2CCCC2)nn1)c1ccc(F)cc1
REMARK SMILES IDX 4 1 5 2 6 3 24 4 25 5 3 7 2 8 1 9 26 11 27 12 32 13 28 14
REMARK SMILES IDX 31 15 29 16 30 17 7 18 8 19 9 22 10 23 11 24 15 25 12 26
REMARK SMILES IDX 14 27 13 28 16 29 18 30 17 31 19 32 20 33 23 34 21 35 22 36
REMARK H PARENT 5 6 1 10 8 20 8 21
ROOT
ATOM     1   N1  UNL     1      -1.233   1.549   0.446  1.00  0.00    -0.209 N   
ATOM     2   C3  UNL     1      -0.618   0.969  -0.626  1.00  0.00     0.045 A   
ATOM     3   C4  UNL     1       0.187   0.003  -0.064  1.00  0.00     0.127 A   
ATOM     4   N3  UNL     1       0.087   0.078   1.302  1.00  0.00    -0.132 NA  
ATOM     5   N4  UNL     1      -0.771   1.039   1.601  1.00  0.00    -0.076 NA  
ATOM     6   H5  UNL     1      -0.839   1.250  -1.646  1.00  0.00     0.083 HD  
ENDROOT
BRANCH   1   7
ATOM     7   C2  UNL     1      -2.291   2.533   0.441  1.00  0.00     0.170 C   
BRANCH   7   8
ATOM     8   C1  UNL     1      -3.635   1.965   0.907  1.00  0.00     0.164 C   
BRANCH   8   9
ATOM     9   O1  UNL     1      -4.614   3.005   0.851  1.00  0.00    -0.387 OA  
ATOM     10  H1  UNL     1      -5.480   2.597   1.036  1.00  0.00     0.211 HD  
ENDBRANCH   8   9
BRANCH   8  11
ATOM     11  C19 UNL     1      -4.108   0.796   0.062  1.00  0.00    -0.018 A   
ATOM     12  C20 UNL     1      -4.569   0.992  -1.252  1.00  0.00     0.009 A   
ATOM     13  C24 UNL     1      -4.049  -0.511   0.576  1.00  0.00     0.009 A   
ATOM     14  C21 UNL     1      -4.958  -0.097  -2.034  1.00  0.00     0.039 A   
ATOM     15  C23 UNL     1      -4.441  -1.597  -0.208  1.00  0.00     0.039 A   
ATOM     16  C22 UNL     1      -4.888  -1.380  -1.506  1.00  0.00     0.123 A   
ATOM     17  F1  UNL     1      -5.245  -2.426  -2.261  1.00  0.00    -0.207 F   
ENDBRANCH   8  11
ENDBRANCH   7   8
ENDBRANCH   1   7
BRANCH   3  18
ATOM     18  C5  UNL     1       1.097  -1.004  -0.687  1.00  0.00     0.117 C   
BRANCH  18  19
ATOM     19  N2  UNL     1       2.261  -1.306   0.234  1.00  0.00     0.249 N   
ATOM     20  H7  UNL     1       2.763  -2.136  -0.093  1.00  0.00     0.199 HD  
ATOM     21  H8  UNL     1       1.854  -1.533   1.151  1.00  0.00     0.199 HD  
BRANCH  19  22
ATOM     22  C6  UNL     1       3.240  -0.198   0.453  1.00  0.00     0.164 C   
BRANCH  22  23
ATOM     23  C7  UNL     1       3.976   0.194  -0.797  1.00  0.00    -0.002 A   
ATOM     24  C8  UNL     1       3.695   1.430  -1.430  1.00  0.00     0.012 A   
ATOM     25  C12 UNL     1       4.925  -0.673  -1.365  1.00  0.00     0.045 A   
ATOM     26  C9  UNL     1       4.343   1.795  -2.614  1.00  0.00     0.037 A   
ATOM     27  C11 UNL     1       5.544  -0.282  -2.534  1.00  0.00     0.109 A   
ATOM     28  C10 UNL     1       5.262   0.916  -3.142  1.00  0.00     0.108 A   
ATOM     29  O2  UNL     1       6.473  -1.003  -3.215  1.00  0.00    -0.316 OA  
ATOM     30  O3  UNL     1       5.979   1.103  -4.280  1.00  0.00    -0.316 OA  
ATOM     31  C13 UNL     1       6.776  -0.102  -4.305  1.00  0.00     0.337 C   
ENDBRANCH  22  23
ENDBRANCH  19  22
ENDBRANCH  18  19
BRANCH  18  32
ATOM     32  C14 UNL     1       0.421  -2.346  -1.034  1.00  0.00     0.043 C   
ATOM     33  C15 UNL     1      -0.230  -3.106   0.125  1.00  0.00     0.010 C   
ATOM     34  C18 UNL     1      -0.727  -2.252  -2.042  1.00  0.00     0.010 C   
ATOM     35  C16 UNL     1      -1.144  -4.128  -0.549  1.00  0.00     0.001 C   
ATOM     36  C17 UNL     1      -1.365  -3.635  -1.978  1.00  0.00     0.001 C   
ENDBRANCH  18  32
ENDBRANCH   3  18
TORSDOF 9
