REMARK SMILES Cc1[nH]nc(CC(C)C)c1Cn1cc([C@@H]([NH2+]Cc2ccc3c(c2)OCO3)C2CCCC2)nn1
REMARK SMILES IDX 12 1 13 2 14 3 32 4 33 5 11 7 10 8 2 9 3 10 4 11 5 12 1 13
REMARK SMILES IDX 6 15 7 16 8 17 9 18 15 19 16 20 17 23 18 24 19 25 23 26
REMARK SMILES IDX 20 27 22 28 21 29 24 30 26 31 25 32 27 33 28 34 31 35 29 36
REMARK SMILES IDX 30 37
REMARK H PARENT 13 6 3 14 16 21 16 22
ROOT
ATOM     1   N3  UNL     1       0.845  -1.056  -2.167  1.00  0.00    -0.208 N   
ATOM     2   C10 UNL     1       1.790  -0.174  -1.712  1.00  0.00     0.046 A   
ATOM     3   C11 UNL     1       1.688  -0.251  -0.341  1.00  0.00     0.127 A   
ATOM     4   N5  UNL     1       0.718  -1.160  -0.013  1.00  0.00    -0.132 NA  
ATOM     5   N6  UNL     1       0.207  -1.642  -1.135  1.00  0.00    -0.076 NA  
ATOM     6   H16 UNL     1       2.407   0.406  -2.384  1.00  0.00     0.083 HD  
ENDROOT
BRANCH   1   7
ATOM     7   C9  UNL     1       0.518  -1.411  -3.542  1.00  0.00     0.173 C   
BRANCH   7   8
ATOM     8   C8  UNL     1       0.187  -0.199  -4.344  1.00  0.00     0.013 A   
ATOM     9   C2  UNL     1       0.958   0.414  -5.321  1.00  0.00     0.028 A   
ATOM     10  N1  UNL     1       0.236   1.493  -5.748  1.00  0.00    -0.242 N   
ATOM     11  N2  UNL     1      -0.921   1.649  -5.096  1.00  0.00    -0.189 NA  
ATOM     12  C3  UNL     1      -1.003   0.587  -4.289  1.00  0.00     0.065 A   
ATOM     13  C1  UNL     1       2.286   0.088  -5.893  1.00  0.00     0.064 C   
ATOM     14  H4  UNL     1       0.475   2.169  -6.469  1.00  0.00     0.175 HD  
BRANCH  12  15
ATOM     15  C4  UNL     1      -2.230   0.395  -3.450  1.00  0.00     0.061 C   
BRANCH  15  16
ATOM     16  C5  UNL     1      -3.411  -0.310  -4.147  1.00  0.00    -0.011 C   
ATOM     17  C6  UNL     1      -3.095  -1.756  -4.532  1.00  0.00     0.008 C   
ATOM     18  C7  UNL     1      -3.938   0.460  -5.360  1.00  0.00     0.008 C   
ENDBRANCH  15  16
ENDBRANCH  12  15
ENDBRANCH   7   8
ENDBRANCH   1   7
BRANCH   3  19
ATOM     19  C12 UNL     1       2.405   0.492   0.739  1.00  0.00     0.117 C   
BRANCH  19  20
ATOM     20  N4  UNL     1       1.485   0.733   1.909  1.00  0.00     0.249 N   
ATOM     21  H18 UNL     1       2.002   1.061   2.730  1.00  0.00     0.199 HD  
ATOM     22  H19 UNL     1       1.076  -0.177   2.165  1.00  0.00     0.199 HD  
BRANCH  20  23
ATOM     23  C13 UNL     1       0.353   1.670   1.661  1.00  0.00     0.164 C   
BRANCH  23  24
ATOM     24  C14 UNL     1      -0.360   1.972   2.950  1.00  0.00    -0.002 A   
ATOM     25  C15 UNL     1      -0.101   3.178   3.646  1.00  0.00     0.012 A   
ATOM     26  C19 UNL     1      -1.247   1.030   3.504  1.00  0.00     0.045 A   
ATOM     27  C16 UNL     1      -0.719   3.448   4.871  1.00  0.00     0.037 A   
ATOM     28  C18 UNL     1      -1.836   1.325   4.717  1.00  0.00     0.109 A   
ATOM     29  C17 UNL     1      -1.579   2.500   5.381  1.00  0.00     0.108 A   
ATOM     30  O1  UNL     1      -2.702   0.524   5.391  1.00  0.00    -0.316 OA  
ATOM     31  O2  UNL     1      -2.258   2.591   6.555  1.00  0.00    -0.316 OA  
ATOM     32  C20 UNL     1      -2.985   1.342   6.551  1.00  0.00     0.337 C   
ENDBRANCH  23  24
ENDBRANCH  20  23
ENDBRANCH  19  20
BRANCH  19  33
ATOM     33  C21 UNL     1       3.642  -0.276   1.251  1.00  0.00     0.043 C   
ATOM     34  C22 UNL     1       4.702  -0.534   0.174  1.00  0.00     0.010 C   
ATOM     35  C25 UNL     1       4.438   0.467   2.336  1.00  0.00     0.010 C   
ATOM     36  C23 UNL     1       5.929  -0.910   0.987  1.00  0.00     0.001 C   
ATOM     37  C24 UNL     1       5.895   0.030   2.182  1.00  0.00     0.001 C   
ENDBRANCH  19  33
ENDBRANCH   3  19
TORSDOF 9
