REMARK SMILES CC(C)C[C@H]([NH2+]Cc1ccc2c(c1)OCO2)c1cn(Cc2ccc(O)cc2O)nn1
REMARK SMILES IDX 17 1 18 2 19 3 29 4 30 5 5 7 4 8 2 9 1 10 3 11 6 12 7 15
REMARK SMILES IDX 8 16 9 17 13 18 10 19 12 20 11 21 14 22 16 23 15 24 20 25
REMARK SMILES IDX 21 26 22 27 27 28 23 29 26 30 24 31 28 32 25 34
REMARK H PARENT 18 6 6 13 6 14 28 33 25 35
ROOT
ATOM     1   C14 UNL     1      -0.602   1.075  -1.362  1.00  0.00     0.127 A   
ATOM     2   C15 UNL     1       0.247   2.111  -1.685  1.00  0.00     0.046 A   
ATOM     3   N2  UNL     1       1.022   1.609  -2.694  1.00  0.00    -0.208 N   
ATOM     4   N3  UNL     1       0.643   0.353  -3.006  1.00  0.00    -0.076 NA  
ATOM     5   N4  UNL     1      -0.360   0.024  -2.211  1.00  0.00    -0.132 NA  
ATOM     6   H20 UNL     1       0.387   3.111  -1.299  1.00  0.00     0.083 HD  
ENDROOT
BRANCH   1   7
ATOM     7   C5  UNL     1      -1.687   0.970  -0.334  1.00  0.00     0.114 C   
BRANCH   7   8
ATOM     8   C4  UNL     1      -1.256   1.448   1.064  1.00  0.00     0.064 C   
BRANCH   8   9
ATOM     9   C2  UNL     1      -2.348   1.423   2.154  1.00  0.00    -0.012 C   
ATOM     10  C1  UNL     1      -1.746   1.846   3.497  1.00  0.00     0.007 C   
ATOM     11  C3  UNL     1      -3.532   2.328   1.811  1.00  0.00     0.007 C   
ENDBRANCH   8   9
ENDBRANCH   7   8
BRANCH   7  12
ATOM     12  N1  UNL     1      -2.258  -0.421  -0.284  1.00  0.00     0.249 N   
ATOM     13  H11 UNL     1      -3.183  -0.428   0.157  1.00  0.00     0.199 HD  
ATOM     14  H12 UNL     1      -2.415  -0.687  -1.268  1.00  0.00     0.199 HD  
BRANCH  12  15
ATOM     15  C6  UNL     1      -1.413  -1.506   0.297  1.00  0.00     0.164 C   
BRANCH  15  16
ATOM     16  C7  UNL     1      -2.019  -2.849  -0.005  1.00  0.00    -0.002 A   
ATOM     17  C8  UNL     1      -1.718  -3.503  -1.224  1.00  0.00     0.012 A   
ATOM     18  C12 UNL     1      -2.933  -3.433   0.888  1.00  0.00     0.045 A   
ATOM     19  C9  UNL     1      -2.312  -4.727  -1.548  1.00  0.00     0.037 A   
ATOM     20  C11 UNL     1      -3.500  -4.641   0.538  1.00  0.00     0.109 A   
ATOM     21  C10 UNL     1      -3.198  -5.269  -0.645  1.00  0.00     0.108 A   
ATOM     22  O1  UNL     1      -4.400  -5.335   1.282  1.00  0.00    -0.316 OA  
ATOM     23  O2  UNL     1      -3.869  -6.440  -0.794  1.00  0.00    -0.316 OA  
ATOM     24  C13 UNL     1      -4.614  -6.492   0.442  1.00  0.00     0.337 C   
ENDBRANCH  15  16
ENDBRANCH  12  15
ENDBRANCH   7  12
ENDBRANCH   1   7
BRANCH   3  25
ATOM     25  C16 UNL     1       2.097   2.263  -3.423  1.00  0.00     0.172 C   
BRANCH  25  26
ATOM     26  C17 UNL     1       3.321   2.424  -2.560  1.00  0.00     0.002 A   
ATOM     27  C18 UNL     1       4.260   1.382  -2.468  1.00  0.00     0.011 A   
ATOM     28  C22 UNL     1       3.545   3.591  -1.821  1.00  0.00     0.079 A   
ATOM     29  C19 UNL     1       5.396   1.515  -1.665  1.00  0.00     0.034 A   
ATOM     30  C21 UNL     1       4.674   3.731  -1.017  1.00  0.00     0.066 A   
ATOM     31  C20 UNL     1       5.591   2.689  -0.948  1.00  0.00     0.074 A   
BRANCH  28  32
ATOM     32  O4  UNL     1       2.629   4.603  -1.894  1.00  0.00    -0.361 OA  
ATOM     33  H27 UNL     1       3.023   5.399  -1.490  1.00  0.00     0.218 HD  
ENDBRANCH  28  32
BRANCH  31  34
ATOM     34  O3  UNL     1       6.682   2.864  -0.149  1.00  0.00    -0.361 OA  
ATOM     35  H25 UNL     1       7.274   2.098  -0.242  1.00  0.00     0.218 HD  
ENDBRANCH  31  34
ENDBRANCH  25  26
ENDBRANCH   3  25
TORSDOF 10
