REMARK SMILES c1ccc(OCCCn2cc([C@@H]([NH2+]Cc3ccc4c(c3)OCO4)C3CCCC3)nn2)cc1
REMARK SMILES IDX 9 1 10 2 11 3 29 4 30 5 8 7 7 8 6 9 5 10 4 11 1 12 2 13
REMARK SMILES IDX 32 14 3 15 31 16 12 17 13 18 14 21 15 22 16 23 20 24 17 25
REMARK SMILES IDX 19 26 18 27 21 28 23 29 22 30 24 31 25 32 28 33 26 34 27 35
REMARK H PARENT 10 6 13 19 13 20
ROOT
ATOM     1   N1  UNL     1      -0.212   2.398   2.648  1.00  0.00    -0.212 N   
ATOM     2   C8  UNL     1      -1.182   1.785   1.910  1.00  0.00     0.045 A   
ATOM     3   C9  UNL     1      -0.706   0.504   1.743  1.00  0.00     0.127 A   
ATOM     4   N3  UNL     1       0.457   0.356   2.456  1.00  0.00    -0.132 NA  
ATOM     5   N4  UNL     1       0.751   1.523   3.002  1.00  0.00    -0.076 NA  
ATOM     6   H10 UNL     1      -2.031   2.321   1.512  1.00  0.00     0.083 HD  
ENDROOT
BRANCH   1   7
ATOM     7   C7  UNL     1      -0.082   3.803   2.974  1.00  0.00     0.136 C   
BRANCH   7   8
ATOM     8   C6  UNL     1       0.954   4.527   2.107  1.00  0.00     0.050 C   
BRANCH   8   9
ATOM     9   C5  UNL     1       0.419   4.965   0.739  1.00  0.00     0.169 C   
BRANCH   9  10
ATOM     10  O1  UNL     1      -0.212   3.901   0.029  1.00  0.00    -0.346 OA  
BRANCH  10  11
ATOM     11  C4  UNL     1       0.508   3.237  -0.922  1.00  0.00     0.075 A   
ATOM     12  C1  UNL     1       1.738   1.782  -2.977  1.00  0.00     0.000 A   
ATOM     13  C2  UNL     1       0.349   1.873  -2.925  1.00  0.00     0.003 A   
ATOM     14  C25 UNL     1       2.511   2.407  -1.996  1.00  0.00     0.003 A   
ATOM     15  C3  UNL     1      -0.263   2.587  -1.892  1.00  0.00     0.033 A   
ATOM     16  C24 UNL     1       1.897   3.131  -0.967  1.00  0.00     0.033 A   
ENDBRANCH  10  11
ENDBRANCH   9  10
ENDBRANCH   8   9
ENDBRANCH   7   8
ENDBRANCH   1   7
BRANCH   3  17
ATOM     17  C10 UNL     1      -1.203  -0.622   0.899  1.00  0.00     0.117 C   
BRANCH  17  18
ATOM     18  N2  UNL     1      -0.056  -1.502   0.486  1.00  0.00     0.249 N   
ATOM     19  H12 UNL     1       0.507  -1.668   1.331  1.00  0.00     0.199 HD  
ATOM     20  H13 UNL     1      -0.371  -2.420   0.160  1.00  0.00     0.199 HD  
BRANCH  18  21
ATOM     21  C11 UNL     1       0.860  -0.910  -0.534  1.00  0.00     0.164 C   
BRANCH  21  22
ATOM     22  C12 UNL     1       1.982  -1.861  -0.845  1.00  0.00    -0.002 A   
ATOM     23  C13 UNL     1       3.093  -1.959   0.029  1.00  0.00     0.012 A   
ATOM     24  C17 UNL     1       1.911  -2.695  -1.973  1.00  0.00     0.045 A   
ATOM     25  C14 UNL     1       4.124  -2.871  -0.220  1.00  0.00     0.037 A   
ATOM     26  C16 UNL     1       2.945  -3.581  -2.190  1.00  0.00     0.109 A   
ATOM     27  C15 UNL     1       4.018  -3.669  -1.337  1.00  0.00     0.108 A   
ATOM     28  O2  UNL     1       3.034  -4.451  -3.232  1.00  0.00    -0.316 OA  
ATOM     29  O3  UNL     1       4.918  -4.607  -1.734  1.00  0.00    -0.316 OA  
ATOM     30  C18 UNL     1       4.289  -5.106  -2.934  1.00  0.00     0.337 C   
ENDBRANCH  21  22
ENDBRANCH  18  21
ENDBRANCH  17  18
BRANCH  17  31
ATOM     31  C19 UNL     1      -2.290  -1.435   1.626  1.00  0.00     0.043 C   
ATOM     32  C20 UNL     1      -1.827  -2.320   2.787  1.00  0.00     0.010 C   
ATOM     33  C23 UNL     1      -3.039  -2.437   0.744  1.00  0.00     0.010 C   
ATOM     34  C21 UNL     1      -3.022  -3.230   3.055  1.00  0.00     0.001 C   
ATOM     35  C22 UNL     1      -3.806  -3.298   1.745  1.00  0.00     0.001 C   
ENDBRANCH  17  31
ENDBRANCH   3  17
TORSDOF 10
