REMARK SMILES N#Cc1ccc(-n2cc([C@@H]([NH2+]Cc3ccc4c(c3)OCO4)C3CCCCC3)nn2)cc1
REMARK SMILES IDX 10 1 9 2 7 3 8 4 29 5 28 6 6 7 3 8 4 9 31 10 5 11 30 12 2 13
REMARK SMILES IDX 1 14 11 15 12 18 13 19 14 20 18 21 15 22 17 23 16 24 19 25
REMARK SMILES IDX 21 26 20 27 22 28 23 29 27 30 24 31 26 32 25 33
REMARK H PARENT 11 16 11 17
ROOT
ATOM     1   C8  UNL     1       1.489  -0.094   0.792  1.00  0.00     0.117 C   
ENDROOT
BRANCH   1   2
ATOM     2   C7  UNL     1       0.622   0.308  -0.362  1.00  0.00     0.127 A   
ATOM     3   N2  UNL     1      -0.484   1.268  -1.994  1.00  0.00    -0.181 N   
ATOM     4   C6  UNL     1       0.480   1.504  -1.032  1.00  0.00     0.135 A   
ATOM     5   N5  UNL     1      -0.927  -0.007  -1.859  1.00  0.00    -0.071 NA  
ATOM     6   N4  UNL     1      -0.258  -0.597  -0.884  1.00  0.00    -0.131 NA  
BRANCH   3   7
ATOM     7   C5  UNL     1      -1.000   2.144  -2.983  1.00  0.00     0.058 A   
ATOM     8   C2  UNL     1      -2.056   3.845  -4.954  1.00  0.00     0.052 A   
ATOM     9   C3  UNL     1      -2.524   2.534  -4.835  1.00  0.00     0.021 A   
ATOM     10  C24 UNL     1      -1.058   4.303  -4.087  1.00  0.00     0.021 A   
ATOM     11  C4  UNL     1      -2.000   1.685  -3.856  1.00  0.00     0.027 A   
ATOM     12  C23 UNL     1      -0.528   3.458  -3.104  1.00  0.00     0.027 A   
BRANCH   8  13
ATOM     13  C1  UNL     1      -2.598   4.719  -5.954  1.00  0.00     0.099 C   
ATOM     14  N1  UNL     1      -3.039   5.431  -6.756  1.00  0.00    -0.192 NA  
ENDBRANCH   8  13
ENDBRANCH   3   7
ENDBRANCH   1   2
BRANCH   1  15
ATOM     15  N3  UNL     1       0.849  -1.240   1.539  1.00  0.00     0.249 N   
ATOM     16  H5  UNL     1       1.535  -1.766   2.091  1.00  0.00     0.199 HD  
ATOM     17  H6  UNL     1       0.490  -1.896   0.828  1.00  0.00     0.199 HD  
BRANCH  15  18
ATOM     18  C9  UNL     1      -0.300  -0.877   2.414  1.00  0.00     0.164 C   
BRANCH  18  19
ATOM     19  C10 UNL     1      -0.944  -2.115   2.970  1.00  0.00    -0.002 A   
ATOM     20  C11 UNL     1      -0.562  -2.620   4.235  1.00  0.00     0.012 A   
ATOM     21  C15 UNL     1      -1.892  -2.814   2.200  1.00  0.00     0.045 A   
ATOM     22  C12 UNL     1      -1.125  -3.800   4.736  1.00  0.00     0.037 A   
ATOM     23  C14 UNL     1      -2.427  -3.973   2.723  1.00  0.00     0.109 A   
ATOM     24  C13 UNL     1      -2.054  -4.453   3.955  1.00  0.00     0.108 A   
ATOM     25  O1  UNL     1      -3.347  -4.765   2.113  1.00  0.00    -0.316 OA  
ATOM     26  O2  UNL     1      -2.694  -5.607   4.276  1.00  0.00    -0.316 OA  
ATOM     27  C16 UNL     1      -3.532  -5.792   3.114  1.00  0.00     0.337 C   
ENDBRANCH  18  19
ENDBRANCH  15  18
ENDBRANCH   1  15
BRANCH   1  28
ATOM     28  C17 UNL     1       2.927  -0.522   0.395  1.00  0.00     0.043 C   
ATOM     29  C18 UNL     1       3.744   0.659  -0.166  1.00  0.00     0.010 C   
ATOM     30  C22 UNL     1       2.985  -1.716  -0.578  1.00  0.00     0.010 C   
ATOM     31  C19 UNL     1       5.184   0.253  -0.472  1.00  0.00     0.001 C   
ATOM     32  C21 UNL     1       4.427  -2.116  -0.891  1.00  0.00     0.001 C   
ATOM     33  C20 UNL     1       5.239  -0.939  -1.421  1.00  0.00     0.000 C   
ENDBRANCH   1  28
TORSDOF 7
