REMARK SMILES CC(C)[C@H]([NH2+]Cc1ccc2c(c1)OCO2)c1cn(Cc2cnoc2)nn1
REMARK SMILES IDX 4 1 2 2 1 3 3 4 5 5 6 8 7 9 8 10 12 11 9 12 11 13 10 14
REMARK SMILES IDX 13 15 15 16 14 17 16 18 17 19 26 20 18 21 25 22 19 24 20 25
REMARK SMILES IDX 21 26 24 27 22 28 23 29
REMARK H PARENT 5 6 5 7 17 23
ROOT
ATOM     1   C4  UNL     1      -0.141   1.818  -1.403  1.00  0.00     0.117 C   
ENDROOT
BRANCH   1   2
ATOM     2   C2  UNL     1      -0.786   2.636  -2.553  1.00  0.00     0.037 C   
ATOM     3   C1  UNL     1      -1.970   1.933  -3.228  1.00  0.00     0.014 C   
ATOM     4   C3  UNL     1       0.248   3.037  -3.612  1.00  0.00     0.014 C   
ENDBRANCH   1   2
BRANCH   1   5
ATOM     5   N1  UNL     1       0.268   0.456  -1.895  1.00  0.00     0.249 N   
ATOM     6   H9  UNL     1      -0.582  -0.128  -1.895  1.00  0.00     0.199 HD  
ATOM     7   H10 UNL     1       0.601   0.477  -2.864  1.00  0.00     0.199 HD  
BRANCH   5   8
ATOM     8   C5  UNL     1       1.279  -0.247  -1.056  1.00  0.00     0.164 C   
BRANCH   8   9
ATOM     9   C6  UNL     1       1.527  -1.629  -1.588  1.00  0.00    -0.002 A   
ATOM     10  C7  UNL     1       0.704  -2.706  -1.177  1.00  0.00     0.012 A   
ATOM     11  C11 UNL     1       2.536  -1.853  -2.539  1.00  0.00     0.045 A   
ATOM     12  C8  UNL     1       0.890  -3.991  -1.696  1.00  0.00     0.037 A   
ATOM     13  C10 UNL     1       2.692  -3.132  -3.031  1.00  0.00     0.109 A   
ATOM     14  C9  UNL     1       1.893  -4.171  -2.622  1.00  0.00     0.108 A   
ATOM     15  O1  UNL     1       3.614  -3.517  -3.951  1.00  0.00    -0.316 OA  
ATOM     16  O2  UNL     1       2.214  -5.342  -3.231  1.00  0.00    -0.316 OA  
ATOM     17  C12 UNL     1       3.324  -4.930  -4.056  1.00  0.00     0.337 C   
ENDBRANCH   8   9
ENDBRANCH   5   8
ENDBRANCH   1   5
BRANCH   1  18
ATOM     18  C13 UNL     1      -1.051   1.694  -0.220  1.00  0.00     0.127 A   
ATOM     19  C14 UNL     1      -1.315   2.556   0.822  1.00  0.00     0.046 A   
ATOM     20  N5  UNL     1      -1.762   0.534  -0.035  1.00  0.00    -0.132 NA  
ATOM     21  N2  UNL     1      -2.186   1.858   1.615  1.00  0.00    -0.208 N   
ATOM     22  N4  UNL     1      -2.444   0.644   1.093  1.00  0.00    -0.076 NA  
ATOM     23  H18 UNL     1      -0.968   3.548   1.074  1.00  0.00     0.083 HD  
BRANCH  21  24
ATOM     24  C15 UNL     1      -2.762   2.255   2.891  1.00  0.00     0.173 C   
BRANCH  24  25
ATOM     25  C16 UNL     1      -1.796   2.002   3.985  1.00  0.00     0.018 A   
ATOM     26  C17 UNL     1      -1.336   0.756   4.470  1.00  0.00     0.149 A   
ATOM     27  C18 UNL     1      -1.131   2.912   4.773  1.00  0.00     0.171 A   
ATOM     28  N3  UNL     1      -0.434   0.897   5.442  1.00  0.00    -0.137 NA  
ATOM     29  O3  UNL     1      -0.315   2.261   5.638  1.00  0.00    -0.222 OA  
ENDBRANCH  24  25
ENDBRANCH  21  24
ENDBRANCH   1  18
TORSDOF 7
