REMARK SMILES COc1cc(CCn2cc([C@@H]([NH2+]Cc3ccc4c(c3)OCO4)C3CCCC3)nn2)ccc1C
REMARK SMILES IDX 8 1 9 2 10 3 28 4 29 5 7 7 6 8 5 9 3 10 4 11 32 12 31 13
REMARK SMILES IDX 30 14 33 15 2 16 1 17 11 18 12 19 13 22 14 23 15 24 19 25
REMARK SMILES IDX 16 26 18 27 17 28 20 29 22 30 21 31 23 32 24 33 27 34 25 35
REMARK SMILES IDX 26 36
REMARK H PARENT 9 6 12 20 12 21
ROOT
ATOM     1   N1  UNL     1       3.434  -0.490  -1.644  1.00  0.00    -0.212 N   
ATOM     2   C7  UNL     1       2.260  -0.277  -2.312  1.00  0.00     0.045 A   
ATOM     3   C8  UNL     1       1.609   0.660  -1.543  1.00  0.00     0.127 A   
ATOM     4   N3  UNL     1       2.412   1.017  -0.489  1.00  0.00    -0.132 NA  
ATOM     5   N4  UNL     1       3.527   0.307  -0.564  1.00  0.00    -0.076 NA  
ATOM     6   H9  UNL     1       1.982  -0.843  -3.190  1.00  0.00     0.083 HD  
ENDROOT
BRANCH   1   7
ATOM     7   C6  UNL     1       4.422  -1.520  -1.893  1.00  0.00     0.139 C   
BRANCH   7   8
ATOM     8   C5  UNL     1       4.319  -2.694  -0.913  1.00  0.00     0.057 C   
BRANCH   8   9
ATOM     9   C4  UNL     1       2.955  -3.349  -0.927  1.00  0.00    -0.044 A   
ATOM     10  C2  UNL     1       0.713  -3.543  -0.015  1.00  0.00     0.078 A   
ATOM     11  C3  UNL     1       2.003  -3.010   0.044  1.00  0.00     0.037 A   
ATOM     12  C25 UNL     1       0.340  -4.408  -1.048  1.00  0.00    -0.021 A   
ATOM     13  C24 UNL     1       1.304  -4.770  -1.999  1.00  0.00     0.006 A   
ATOM     14  C23 UNL     1       2.598  -4.243  -1.942  1.00  0.00     0.004 A   
ATOM     15  C26 UNL     1      -1.047  -4.978  -1.123  1.00  0.00     0.047 C   
BRANCH  10  16
ATOM     16  O1  UNL     1      -0.227  -3.134   0.897  1.00  0.00    -0.349 OA  
ATOM     17  C1  UNL     1      -0.008  -3.779   2.156  1.00  0.00     0.203 C   
ENDBRANCH  10  16
ENDBRANCH   8   9
ENDBRANCH   7   8
ENDBRANCH   1   7
BRANCH   3  18
ATOM     18  C9  UNL     1       0.220   1.204  -1.631  1.00  0.00     0.117 C   
BRANCH  18  19
ATOM     19  N2  UNL     1      -0.377   1.312  -0.254  1.00  0.00     0.249 N   
ATOM     20  H11 UNL     1      -1.210   1.906  -0.237  1.00  0.00     0.199 HD  
ATOM     21  H12 UNL     1       0.326   1.773   0.342  1.00  0.00     0.199 HD  
BRANCH  19  22
ATOM     22  C10 UNL     1      -0.694   0.005   0.393  1.00  0.00     0.164 C   
BRANCH  22  23
ATOM     23  C11 UNL     1      -1.268   0.221   1.765  1.00  0.00    -0.002 A   
ATOM     24  C12 UNL     1      -2.669   0.289   1.954  1.00  0.00     0.012 A   
ATOM     25  C16 UNL     1      -0.410   0.398   2.864  1.00  0.00     0.045 A   
ATOM     26  C13 UNL     1      -3.210   0.520   3.223  1.00  0.00     0.037 A   
ATOM     27  C15 UNL     1      -0.977   0.623   4.101  1.00  0.00     0.109 A   
ATOM     28  C14 UNL     1      -2.337   0.683   4.276  1.00  0.00     0.108 A   
ATOM     29  O2  UNL     1      -0.295   0.811   5.261  1.00  0.00    -0.316 OA  
ATOM     30  O3  UNL     1      -2.684   0.914   5.568  1.00  0.00    -0.316 OA  
ATOM     31  C17 UNL     1      -1.385   0.977   6.196  1.00  0.00     0.337 C   
ENDBRANCH  22  23
ENDBRANCH  19  22
ENDBRANCH  18  19
BRANCH  18  32
ATOM     32  C18 UNL     1       0.177   2.564  -2.352  1.00  0.00     0.043 C   
ATOM     33  C19 UNL     1      -1.241   3.049  -2.708  1.00  0.00     0.010 C   
ATOM     34  C22 UNL     1       0.809   3.749  -1.613  1.00  0.00     0.010 C   
ATOM     35  C20 UNL     1      -1.228   4.570  -2.547  1.00  0.00     0.001 C   
ATOM     36  C21 UNL     1       0.231   4.950  -2.344  1.00  0.00     0.001 C   
ENDBRANCH  18  32
ENDBRANCH   3  18
TORSDOF 9
