REMARK SMILES CC(C)[C@H]([NH2+]Cc1ccc2c(c1)OCO2)c1cn(Cc2c[nH]nc2-c2ccco2)nn1
REMARK SMILES IDX 16 1 17 2 18 3 30 4 31 5 4 7 2 8 1 9 3 10 5 11 6 14 7 15
REMARK SMILES IDX 8 16 12 17 9 18 11 19 10 20 13 21 15 22 14 23 19 24 20 25
REMARK SMILES IDX 21 26 24 27 22 28 23 29 25 31 26 32 29 33 27 34 28 35
REMARK H PARENT 17 6 5 12 5 13 22 30
ROOT
ATOM     1   C13 UNL     1      -0.166  -1.084  -2.017  1.00  0.00     0.127 A   
ATOM     2   C14 UNL     1       0.808  -1.822  -1.383  1.00  0.00     0.046 A   
ATOM     3   N2  UNL     1       1.962  -1.473  -2.027  1.00  0.00    -0.208 N   
ATOM     4   N5  UNL     1       1.701  -0.626  -3.045  1.00  0.00    -0.076 NA  
ATOM     5   N6  UNL     1       0.403  -0.371  -3.039  1.00  0.00    -0.132 NA  
ATOM     6   H18 UNL     1       0.795  -2.496  -0.538  1.00  0.00     0.083 HD  
ENDROOT
BRANCH   1   7
ATOM     7   C4  UNL     1      -1.613  -0.905  -1.698  1.00  0.00     0.117 C   
BRANCH   7   8
ATOM     8   C2  UNL     1      -2.522  -1.874  -2.501  1.00  0.00     0.037 C   
ATOM     9   C1  UNL     1      -3.945  -1.916  -1.928  1.00  0.00     0.014 C   
ATOM     10  C3  UNL     1      -2.586  -1.583  -4.005  1.00  0.00     0.014 C   
ENDBRANCH   7   8
BRANCH   7  11
ATOM     11  N1  UNL     1      -2.038   0.528  -1.926  1.00  0.00     0.249 N   
ATOM     12  H9  UNL     1      -3.053   0.619  -1.843  1.00  0.00     0.199 HD  
ATOM     13  H10 UNL     1      -1.782   0.757  -2.896  1.00  0.00     0.199 HD  
BRANCH  11  14
ATOM     14  C5  UNL     1      -1.384   1.558  -1.058  1.00  0.00     0.164 C   
BRANCH  14  15
ATOM     15  C6  UNL     1      -1.629   1.345   0.410  1.00  0.00    -0.002 A   
ATOM     16  C7  UNL     1      -0.566   0.948   1.257  1.00  0.00     0.012 A   
ATOM     17  C11 UNL     1      -2.917   1.511   0.948  1.00  0.00     0.045 A   
ATOM     18  C8  UNL     1      -0.782   0.710   2.618  1.00  0.00     0.037 A   
ATOM     19  C10 UNL     1      -3.095   1.266   2.293  1.00  0.00     0.109 A   
ATOM     20  C9  UNL     1      -2.059   0.876   3.105  1.00  0.00     0.108 A   
ATOM     21  O1  UNL     1      -4.271   1.369   2.966  1.00  0.00    -0.316 OA  
ATOM     22  O2  UNL     1      -2.451   0.686   4.392  1.00  0.00    -0.316 OA  
ATOM     23  C12 UNL     1      -3.850   1.034   4.308  1.00  0.00     0.337 C   
ENDBRANCH  14  15
ENDBRANCH  11  14
ENDBRANCH   7  11
ENDBRANCH   1   7
BRANCH   3  24
ATOM     24  C15 UNL     1       3.327  -1.872  -1.716  1.00  0.00     0.173 C   
BRANCH  24  25
ATOM     25  C16 UNL     1       4.059  -0.756  -1.058  1.00  0.00     0.017 A   
ATOM     26  C17 UNL     1       4.909   0.155  -1.658  1.00  0.00     0.099 A   
ATOM     27  C18 UNL     1       4.057  -0.371   0.310  1.00  0.00     0.118 A   
ATOM     28  N3  UNL     1       5.338   0.994  -0.673  1.00  0.00    -0.245 N   
ATOM     29  N4  UNL     1       4.811   0.713   0.526  1.00  0.00    -0.182 NA  
ATOM     30  H22 UNL     1       5.979   1.779  -0.749  1.00  0.00     0.175 HD  
BRANCH  27  31
ATOM     31  C19 UNL     1       3.289  -1.069   1.482  1.00  0.00     0.109 A   
ATOM     32  C20 UNL     1       3.315  -0.673   2.805  1.00  0.00     0.038 A   
ATOM     33  O3  UNL     1       2.491  -2.174   1.357  1.00  0.00    -0.316 OA  
ATOM     34  C21 UNL     1       2.509  -1.587   3.524  1.00  0.00     0.028 A   
ATOM     35  C22 UNL     1       2.034  -2.484   2.597  1.00  0.00     0.136 A   
ENDBRANCH  27  31
ENDBRANCH  24  25
ENDBRANCH   3  24
TORSDOF 8
