REMARK SMILES COc1cc(F)cc(F)c1Cn1cc([C@@H]([NH2+]Cc2ccc3c(c2)OCO3)C(C)(C)C)nn1
REMARK SMILES IDX 12 1 13 2 14 3 31 4 32 5 11 7 10 8 3 9 4 10 5 11 8 12 7 13
REMARK SMILES IDX 6 14 9 15 2 16 1 17 15 18 16 19 17 22 18 23 19 24 23 25
REMARK SMILES IDX 20 26 22 27 21 28 24 29 26 30 25 31 27 32 28 33 29 34 30 35
REMARK H PARENT 13 6 16 20 16 21
ROOT
ATOM     1   N1  UNL     1      -1.587  -2.671  -0.407  1.00  0.00    -0.208 N   
ATOM     2   C9  UNL     1      -1.337  -1.425   0.101  1.00  0.00     0.046 A   
ATOM     3   C10 UNL     1      -1.954  -0.573  -0.786  1.00  0.00     0.127 A   
ATOM     4   N3  UNL     1      -2.557  -1.309  -1.773  1.00  0.00    -0.132 NA  
ATOM     5   N4  UNL     1      -2.328  -2.588  -1.529  1.00  0.00    -0.076 NA  
ATOM     6   H8  UNL     1      -0.738  -1.273   0.989  1.00  0.00     0.083 HD  
ENDROOT
BRANCH   1   7
ATOM     7   C8  UNL     1      -1.149  -3.956   0.110  1.00  0.00     0.175 C   
BRANCH   7   8
ATOM     8   C7  UNL     1       0.007  -4.501  -0.689  1.00  0.00     0.038 A   
ATOM     9   C2  UNL     1       1.318  -4.010  -0.538  1.00  0.00     0.085 A   
ATOM     10  C3  UNL     1       2.348  -4.543  -1.318  1.00  0.00     0.073 A   
ATOM     11  C4  UNL     1       2.072  -5.555  -2.235  1.00  0.00     0.128 A   
ATOM     12  C6  UNL     1      -0.230  -5.519  -1.623  1.00  0.00     0.133 A   
ATOM     13  C5  UNL     1       0.790  -6.051  -2.397  1.00  0.00     0.079 A   
ATOM     14  F1  UNL     1       3.069  -6.050  -2.979  1.00  0.00    -0.207 F   
ATOM     15  F2  UNL     1      -1.471  -5.999  -1.780  1.00  0.00    -0.206 F   
BRANCH   9  16
ATOM     16  O1  UNL     1       1.478  -3.003   0.379  1.00  0.00    -0.349 OA  
ATOM     17  C1  UNL     1       2.816  -2.644   0.717  1.00  0.00     0.203 C   
ENDBRANCH   9  16
ENDBRANCH   7   8
ENDBRANCH   1   7
BRANCH   3  18
ATOM     18  C11 UNL     1      -1.957   0.921  -0.871  1.00  0.00     0.120 C   
BRANCH  18  19
ATOM     19  N2  UNL     1      -1.778   1.339  -2.320  1.00  0.00     0.250 N   
ATOM     20  H10 UNL     1      -1.906   2.346  -2.429  1.00  0.00     0.199 HD  
ATOM     21  H11 UNL     1      -2.527   0.871  -2.849  1.00  0.00     0.199 HD  
BRANCH  19  22
ATOM     22  C12 UNL     1      -0.490   0.948  -2.974  1.00  0.00     0.164 C   
BRANCH  22  23
ATOM     23  C13 UNL     1       0.720   1.544  -2.310  1.00  0.00    -0.002 A   
ATOM     24  C14 UNL     1       1.004   2.925  -2.441  1.00  0.00     0.012 A   
ATOM     25  C18 UNL     1       1.560   0.735  -1.523  1.00  0.00     0.045 A   
ATOM     26  C15 UNL     1       2.105   3.494  -1.792  1.00  0.00     0.037 A   
ATOM     27  C17 UNL     1       2.635   1.329  -0.896  1.00  0.00     0.109 A   
ATOM     28  C16 UNL     1       2.899   2.670  -1.026  1.00  0.00     0.108 A   
ATOM     29  O2  UNL     1       3.534   0.698  -0.096  1.00  0.00    -0.316 OA  
ATOM     30  O3  UNL     1       3.999   3.052  -0.328  1.00  0.00    -0.316 OA  
ATOM     31  C19 UNL     1       4.420   1.792   0.237  1.00  0.00     0.337 C   
ENDBRANCH  22  23
ENDBRANCH  19  22
ENDBRANCH  18  19
BRANCH  18  32
ATOM     32  C20 UNL     1      -3.236   1.599  -0.261  1.00  0.00     0.010 C   
ATOM     33  C21 UNL     1      -4.529   1.238  -1.018  1.00  0.00     0.017 C   
ATOM     34  C22 UNL     1      -3.404   1.173   1.216  1.00  0.00     0.017 C   
ATOM     35  C23 UNL     1      -3.085   3.138  -0.271  1.00  0.00     0.017 C   
ENDBRANCH  18  32
ENDBRANCH   3  18
TORSDOF 8
