REMARK SMILES Cc1cccc(CCn2cc([C@H](CC(C)C)[NH2+]Cc3ccc4c(c3)OCO4)nn2)c1F
REMARK SMILES IDX 9 1 10 2 11 3 28 4 29 5 8 7 7 8 6 9 2 10 3 11 30 12 4 13
REMARK SMILES IDX 5 14 1 15 31 16 12 17 13 18 14 19 15 20 16 21 17 22 18 25
REMARK SMILES IDX 19 26 20 27 24 28 21 29 23 30 22 31 25 32 27 33 26 34
REMARK H PARENT 10 6 17 23 17 24
ROOT
ATOM     1   N1  UNL     1       2.780   1.155  -1.022  1.00  0.00    -0.212 N   
ATOM     2   C9  UNL     1       1.985   1.310   0.078  1.00  0.00     0.045 A   
ATOM     3   C10 UNL     1       1.337   0.100   0.188  1.00  0.00     0.127 A   
ATOM     4   N3  UNL     1       1.772  -0.736  -0.808  1.00  0.00    -0.132 NA  
ATOM     5   N4  UNL     1       2.650  -0.078  -1.544  1.00  0.00    -0.076 NA  
ATOM     6   H11 UNL     1       1.933   2.235   0.632  1.00  0.00     0.083 HD  
ENDROOT
BRANCH   1   7
ATOM     7   C8  UNL     1       3.678   2.119  -1.625  1.00  0.00     0.139 C   
BRANCH   7   8
ATOM     8   C7  UNL     1       3.019   2.923  -2.746  1.00  0.00     0.060 C   
BRANCH   8   9
ATOM     9   C6  UNL     1       2.046   3.957  -2.240  1.00  0.00    -0.010 A   
ATOM     10  C2  UNL     1      -0.246   4.680  -1.811  1.00  0.00    -0.015 A   
ATOM     11  C3  UNL     1       0.242   5.894  -1.320  1.00  0.00     0.006 A   
ATOM     12  C24 UNL     1       0.666   3.727  -2.268  1.00  0.00     0.129 A   
ATOM     13  C4  UNL     1       1.614   6.134  -1.269  1.00  0.00     0.001 A   
ATOM     14  C5  UNL     1       2.514   5.172  -1.725  1.00  0.00     0.007 A   
ATOM     15  C1  UNL     1      -1.720   4.437  -1.917  1.00  0.00     0.047 C   
ATOM     16  F1  UNL     1       0.203   2.556  -2.729  1.00  0.00    -0.206 F   
ENDBRANCH   8   9
ENDBRANCH   7   8
ENDBRANCH   1   7
BRANCH   3  17
ATOM     17  C11 UNL     1       0.303  -0.382   1.151  1.00  0.00     0.114 C   
BRANCH  17  18
ATOM     18  C12 UNL     1       0.967  -0.904   2.436  1.00  0.00     0.064 C   
BRANCH  18  19
ATOM     19  C13 UNL     1       0.028  -1.403   3.554  1.00  0.00    -0.012 C   
ATOM     20  C14 UNL     1      -1.006  -0.356   3.966  1.00  0.00     0.007 C   
ATOM     21  C15 UNL     1       0.863  -1.819   4.772  1.00  0.00     0.007 C   
ENDBRANCH  18  19
ENDBRANCH  17  18
BRANCH  17  22
ATOM     22  N2  UNL     1      -0.510  -1.482   0.529  1.00  0.00     0.249 N   
ATOM     23  H22 UNL     1      -1.009  -2.043   1.227  1.00  0.00     0.199 HD  
ATOM     24  H23 UNL     1       0.158  -2.120   0.062  1.00  0.00     0.199 HD  
BRANCH  22  25
ATOM     25  C16 UNL     1      -1.483  -1.036  -0.508  1.00  0.00     0.164 C   
BRANCH  25  26
ATOM     26  C17 UNL     1      -2.218  -2.220  -1.071  1.00  0.00    -0.002 A   
ATOM     27  C18 UNL     1      -3.310  -2.789  -0.367  1.00  0.00     0.012 A   
ATOM     28  C22 UNL     1      -1.782  -2.810  -2.270  1.00  0.00     0.045 A   
ATOM     29  C19 UNL     1      -3.962  -3.927  -0.852  1.00  0.00     0.037 A   
ATOM     30  C21 UNL     1      -2.447  -3.930  -2.720  1.00  0.00     0.109 A   
ATOM     31  C20 UNL     1      -3.504  -4.476  -2.030  1.00  0.00     0.108 A   
ATOM     32  O1  UNL     1      -2.158  -4.617  -3.855  1.00  0.00    -0.316 OA  
ATOM     33  O2  UNL     1      -4.011  -5.580  -2.639  1.00  0.00    -0.316 OA  
ATOM     34  C23 UNL     1      -3.144  -5.679  -3.789  1.00  0.00     0.337 C   
ENDBRANCH  25  26
ENDBRANCH  22  25
ENDBRANCH  17  22
ENDBRANCH   3  17
TORSDOF 9
