REMARK SMILES Cn1cccc1[C@H](CO)n1cc([C@@H]([NH2+]Cc2ccc3c(c2)OCO3)C(C)(C)C)nn1
REMARK SMILES IDX 10 1 11 2 12 3 29 4 30 5 7 7 6 8 2 9 3 10 4 11 5 12 1 13
REMARK SMILES IDX 8 14 9 15 13 17 14 18 15 21 16 22 17 23 21 24 18 25 20 26
REMARK SMILES IDX 19 27 22 28 24 29 23 30 25 31 26 32 27 33 28 34
REMARK H PARENT 11 6 9 16 14 19 14 20
ROOT
ATOM     1   N2  UNL     1       1.232   2.014   0.451  1.00  0.00    -0.201 N   
ATOM     2   C8  UNL     1       0.437   1.358  -0.450  1.00  0.00     0.046 A   
ATOM     3   C9  UNL     1      -0.462   0.666   0.327  1.00  0.00     0.127 A   
ATOM     4   N4  UNL     1      -0.159   0.870   1.650  1.00  0.00    -0.132 NA  
ATOM     5   N5  UNL     1       0.883   1.682   1.715  1.00  0.00    -0.075 NA  
ATOM     6   H11 UNL     1       0.563   1.477  -1.517  1.00  0.00     0.083 HD  
ENDROOT
BRANCH   1   7
ATOM     7   C6  UNL     1       2.296   2.985   0.211  1.00  0.00     0.169 C   
BRANCH   7   8
ATOM     8   C5  UNL     1       1.723   4.261  -0.370  1.00  0.00     0.034 A   
ATOM     9   N1  UNL     1       1.452   5.384   0.392  1.00  0.00    -0.312 N   
ATOM     10  C2  UNL     1       0.960   6.379  -0.417  1.00  0.00     0.074 A   
ATOM     11  C3  UNL     1       0.898   5.901  -1.706  1.00  0.00     0.017 A   
ATOM     12  C4  UNL     1       1.371   4.569  -1.677  1.00  0.00     0.023 A   
ATOM     13  C1  UNL     1       1.655   5.531   1.822  1.00  0.00     0.135 C   
ENDBRANCH   7   8
BRANCH   7  14
ATOM     14  C7  UNL     1       3.478   2.408  -0.593  1.00  0.00     0.187 C   
BRANCH  14  15
ATOM     15  O1  UNL     1       3.108   1.880  -1.867  1.00  0.00    -0.394 OA  
ATOM     16  H10 UNL     1       3.938   1.734  -2.366  1.00  0.00     0.210 HD  
ENDBRANCH  14  15
ENDBRANCH   7  14
ENDBRANCH   1   7
BRANCH   3  17
ATOM     17  C10 UNL     1      -1.594  -0.241  -0.048  1.00  0.00     0.120 C   
BRANCH  17  18
ATOM     18  N3  UNL     1      -1.791  -1.260   1.059  1.00  0.00     0.250 N   
ATOM     19  H13 UNL     1      -1.778  -0.722   1.938  1.00  0.00     0.199 HD  
ATOM     20  H14 UNL     1      -2.704  -1.713   0.993  1.00  0.00     0.199 HD  
BRANCH  18  21
ATOM     21  C11 UNL     1      -0.741  -2.315   1.183  1.00  0.00     0.164 C   
BRANCH  21  22
ATOM     22  C12 UNL     1      -0.775  -3.309   0.056  1.00  0.00    -0.002 A   
ATOM     23  C13 UNL     1      -1.812  -4.269  -0.025  1.00  0.00     0.012 A   
ATOM     24  C17 UNL     1       0.215  -3.276  -0.942  1.00  0.00     0.045 A   
ATOM     25  C14 UNL     1      -1.866  -5.182  -1.086  1.00  0.00     0.037 A   
ATOM     26  C16 UNL     1       0.132  -4.189  -1.975  1.00  0.00     0.109 A   
ATOM     27  C15 UNL     1      -0.880  -5.114  -2.046  1.00  0.00     0.108 A   
ATOM     28  O2  UNL     1       1.001  -4.290  -3.017  1.00  0.00    -0.316 OA  
ATOM     29  O3  UNL     1      -0.775  -5.916  -3.140  1.00  0.00    -0.316 OA  
ATOM     30  C18 UNL     1       0.427  -5.397  -3.749  1.00  0.00     0.337 C   
ENDBRANCH  21  22
ENDBRANCH  18  21
ENDBRANCH  17  18
BRANCH  17  31
ATOM     31  C19 UNL     1      -2.945   0.507  -0.338  1.00  0.00     0.010 C   
ATOM     32  C20 UNL     1      -4.009  -0.492  -0.849  1.00  0.00     0.017 C   
ATOM     33  C21 UNL     1      -3.508   1.220   0.907  1.00  0.00     0.017 C   
ATOM     34  C22 UNL     1      -2.751   1.559  -1.453  1.00  0.00     0.017 C   
ENDBRANCH  17  31
ENDBRANCH   3  17
TORSDOF 9
