REMARK SMILES Cn1cccc1[C@@H](CO)n1cc([C@@H]([NH2+]Cc2ccc3c(c2)OCO3)C(C)(C)C)nn1
REMARK SMILES IDX 10 1 11 2 12 3 29 4 30 5 7 7 6 8 2 9 3 10 4 11 5 12 1 13
REMARK SMILES IDX 8 14 9 15 13 17 14 18 15 21 16 22 17 23 21 24 18 25 20 26
REMARK SMILES IDX 19 27 22 28 24 29 23 30 25 31 26 32 27 33 28 34
REMARK H PARENT 11 6 9 16 14 19 14 20
ROOT
ATOM     1   N2  UNL     1      -0.238   1.417  -1.012  1.00  0.00    -0.201 N   
ATOM     2   C8  UNL     1       0.524   0.295  -0.824  1.00  0.00     0.046 A   
ATOM     3   C9  UNL     1      -0.350  -0.746  -1.027  1.00  0.00     0.127 A   
ATOM     4   N4  UNL     1      -1.601  -0.241  -1.281  1.00  0.00    -0.132 NA  
ATOM     5   N5  UNL     1      -1.523   1.080  -1.267  1.00  0.00    -0.075 NA  
ATOM     6   H11 UNL     1       1.579   0.352  -0.591  1.00  0.00     0.083 HD  
ENDROOT
BRANCH   1   7
ATOM     7   C6  UNL     1       0.163   2.822  -0.983  1.00  0.00     0.169 C   
BRANCH   7   8
ATOM     8   C5  UNL     1       0.870   3.162   0.314  1.00  0.00     0.034 A   
ATOM     9   N1  UNL     1       0.203   3.563   1.457  1.00  0.00    -0.312 N   
ATOM     10  C2  UNL     1       1.110   3.837   2.448  1.00  0.00     0.074 A   
ATOM     11  C3  UNL     1       2.370   3.586   1.962  1.00  0.00     0.017 A   
ATOM     12  C4  UNL     1       2.222   3.159   0.624  1.00  0.00     0.023 A   
ATOM     13  C1  UNL     1      -1.230   3.700   1.620  1.00  0.00     0.135 C   
ENDBRANCH   7   8
BRANCH   7  14
ATOM     14  C7  UNL     1       0.944   3.215  -2.253  1.00  0.00     0.187 C   
BRANCH  14  15
ATOM     15  O1  UNL     1       2.122   2.431  -2.461  1.00  0.00    -0.394 OA  
ATOM     16  H10 UNL     1       2.604   2.838  -3.205  1.00  0.00     0.210 HD  
ENDBRANCH  14  15
ENDBRANCH   7  14
ENDBRANCH   1   7
BRANCH   3  17
ATOM     17  C10 UNL     1      -0.158  -2.229  -0.947  1.00  0.00     0.120 C   
BRANCH  17  18
ATOM     18  N3  UNL     1      -1.430  -2.840  -0.382  1.00  0.00     0.250 N   
ATOM     19  H13 UNL     1      -2.169  -2.137  -0.546  1.00  0.00     0.199 HD  
ATOM     20  H14 UNL     1      -1.721  -3.663  -0.913  1.00  0.00     0.199 HD  
BRANCH  18  21
ATOM     21  C11 UNL     1      -1.415  -3.173   1.069  1.00  0.00     0.164 C   
BRANCH  21  22
ATOM     22  C12 UNL     1      -1.225  -1.985   1.969  1.00  0.00    -0.002 A   
ATOM     23  C13 UNL     1      -2.260  -1.030   2.126  1.00  0.00     0.012 A   
ATOM     24  C17 UNL     1      -0.006  -1.797   2.643  1.00  0.00     0.045 A   
ATOM     25  C14 UNL     1      -2.082   0.097   2.936  1.00  0.00     0.037 A   
ATOM     26  C16 UNL     1       0.137  -0.675   3.431  1.00  0.00     0.109 A   
ATOM     27  C15 UNL     1      -0.870   0.247   3.572  1.00  0.00     0.108 A   
ATOM     28  O2  UNL     1       1.245  -0.350   4.146  1.00  0.00    -0.316 OA  
ATOM     29  O3  UNL     1      -0.521   1.274   4.391  1.00  0.00    -0.316 OA  
ATOM     30  C18 UNL     1       0.816   0.879   4.771  1.00  0.00     0.337 C   
ENDBRANCH  21  22
ENDBRANCH  18  21
ENDBRANCH  17  18
BRANCH  17  31
ATOM     31  C19 UNL     1       0.217  -2.905  -2.311  1.00  0.00     0.010 C   
ATOM     32  C20 UNL     1       0.492  -4.412  -2.100  1.00  0.00     0.017 C   
ATOM     33  C21 UNL     1       1.518  -2.286  -2.871  1.00  0.00     0.017 C   
ATOM     34  C22 UNL     1      -0.886  -2.752  -3.378  1.00  0.00     0.017 C   
ENDBRANCH  17  31
ENDBRANCH   3  17
TORSDOF 9
