REMARK SMILES Cc1cnc(CCn2cc([C@H](CC(C)C)[NH2+]Cc3ccc4c(c3)OCO4)nn2)cn1
REMARK SMILES IDX 8 1 9 2 10 3 27 4 28 5 7 7 6 8 5 9 2 10 3 11 30 12 4 13
REMARK SMILES IDX 29 14 1 15 11 16 12 17 13 18 14 19 15 20 16 21 17 24 18 25
REMARK SMILES IDX 19 26 23 27 20 28 22 29 21 30 24 31 26 32 25 33
REMARK H PARENT 9 6 16 22 16 23
ROOT
ATOM     1   N2  UNL     1       2.959   1.335  -1.126  1.00  0.00    -0.212 N   
ATOM     2   C7  UNL     1       2.873   0.071  -0.618  1.00  0.00     0.045 A   
ATOM     3   C8  UNL     1       2.423   0.260   0.671  1.00  0.00     0.127 A   
ATOM     4   N4  UNL     1       2.269   1.602   0.896  1.00  0.00    -0.132 NA  
ATOM     5   N5  UNL     1       2.588   2.247  -0.213  1.00  0.00    -0.076 NA  
ATOM     6   H9  UNL     1       3.090  -0.803  -1.217  1.00  0.00     0.083 HD  
ENDROOT
BRANCH   1   7
ATOM     7   C6  UNL     1       3.230   1.729  -2.494  1.00  0.00     0.140 C   
BRANCH   7   8
ATOM     8   C5  UNL     1       1.956   2.101  -3.251  1.00  0.00     0.079 C   
BRANCH   8   9
ATOM     9   C4  UNL     1       0.950   0.982  -3.246  1.00  0.00     0.060 A   
ATOM     10  C2  UNL     1      -0.870  -1.021  -3.230  1.00  0.00     0.056 A   
ATOM     11  C3  UNL     1       0.422  -1.212  -3.703  1.00  0.00     0.134 A   
ATOM     12  N6  UNL     1      -1.258   0.175  -2.721  1.00  0.00    -0.258 NA  
ATOM     13  N1  UNL     1       1.360  -0.233  -3.691  1.00  0.00    -0.258 NA  
ATOM     14  C22 UNL     1      -0.344   1.174  -2.781  1.00  0.00     0.135 A   
ATOM     15  C1  UNL     1      -1.873  -2.132  -3.257  1.00  0.00     0.068 C   
ENDBRANCH   8   9
ENDBRANCH   7   8
ENDBRANCH   1   7
BRANCH   3  16
ATOM     16  C9  UNL     1       2.001  -0.706   1.726  1.00  0.00     0.114 C   
BRANCH  16  17
ATOM     17  C10 UNL     1       2.778  -2.036   1.716  1.00  0.00     0.064 C   
BRANCH  17  18
ATOM     18  C11 UNL     1       4.292  -1.915   1.996  1.00  0.00    -0.012 C   
ATOM     19  C12 UNL     1       4.945  -3.298   1.898  1.00  0.00     0.007 C   
ATOM     20  C13 UNL     1       4.583  -1.302   3.369  1.00  0.00     0.007 C   
ENDBRANCH  17  18
ENDBRANCH  16  17
BRANCH  16  21
ATOM     21  N3  UNL     1       0.534  -1.053   1.586  1.00  0.00     0.249 N   
ATOM     22  H20 UNL     1       0.379  -1.537   0.697  1.00  0.00     0.199 HD  
ATOM     23  H21 UNL     1       0.262  -1.704   2.334  1.00  0.00     0.199 HD  
BRANCH  21  24
ATOM     24  C14 UNL     1      -0.405   0.113   1.639  1.00  0.00     0.164 C   
BRANCH  24  25
ATOM     25  C15 UNL     1      -1.816  -0.368   1.838  1.00  0.00    -0.002 A   
ATOM     26  C16 UNL     1      -2.325  -0.563   3.142  1.00  0.00     0.012 A   
ATOM     27  C20 UNL     1      -2.623  -0.676   0.727  1.00  0.00     0.045 A   
ATOM     28  C17 UNL     1      -3.622  -1.049   3.341  1.00  0.00     0.037 A   
ATOM     29  C19 UNL     1      -3.897  -1.151   0.959  1.00  0.00     0.109 A   
ATOM     30  C18 UNL     1      -4.383  -1.333   2.229  1.00  0.00     0.108 A   
ATOM     31  O1  UNL     1      -4.800  -1.492   0.003  1.00  0.00    -0.316 OA  
ATOM     32  O2  UNL     1      -5.657  -1.802   2.236  1.00  0.00    -0.316 OA  
ATOM     33  C21 UNL     1      -5.938  -1.853   0.820  1.00  0.00     0.337 C   
ENDBRANCH  24  25
ENDBRANCH  21  24
ENDBRANCH  16  21
ENDBRANCH   3  16
TORSDOF 9
