REMARK SMILES CC(C)[C@H]([NH2+]Cc1ccc2c(c1)OCO2)c1cn(Cc2conc2C(C)(C)C)nn1
REMARK SMILES IDX 16 1 17 2 18 3 29 4 30 5 4 7 2 8 1 9 3 10 5 11 6 14 7 15
REMARK SMILES IDX 8 16 12 17 9 18 11 19 10 20 13 21 15 22 14 23 19 24 20 25
REMARK SMILES IDX 21 26 24 27 22 28 23 29 25 30 26 31 27 32 28 33
REMARK H PARENT 17 6 5 12 5 13
ROOT
ATOM     1   C13 UNL     1       0.352   0.118  -0.040  1.00  0.00     0.127 A   
ATOM     2   C14 UNL     1       0.219  -0.108   1.312  1.00  0.00     0.046 A   
ATOM     3   N2  UNL     1       0.946  -1.247   1.536  1.00  0.00    -0.208 N   
ATOM     4   N4  UNL     1       1.562  -1.642   0.402  1.00  0.00    -0.076 NA  
ATOM     5   N5  UNL     1       1.185  -0.833  -0.572  1.00  0.00    -0.132 NA  
ATOM     6   H18 UNL     1      -0.340   0.393   2.091  1.00  0.00     0.083 HD  
ENDROOT
BRANCH   1   7
ATOM     7   C4  UNL     1      -0.241   1.164  -0.933  1.00  0.00     0.117 C   
BRANCH   7   8
ATOM     8   C2  UNL     1      -1.746   0.907  -1.208  1.00  0.00     0.037 C   
ATOM     9   C1  UNL     1      -2.420   2.122  -1.859  1.00  0.00     0.014 C   
ATOM     10  C3  UNL     1      -2.017  -0.348  -2.046  1.00  0.00     0.014 C   
ENDBRANCH   7   8
BRANCH   7  11
ATOM     11  N1  UNL     1       0.520   1.235  -2.230  1.00  0.00     0.249 N   
ATOM     12  H9  UNL     1       0.742   0.261  -2.493  1.00  0.00     0.199 HD  
ATOM     13  H10 UNL     1      -0.043   1.614  -2.997  1.00  0.00     0.199 HD  
BRANCH  11  14
ATOM     14  C5  UNL     1       1.814   1.971  -2.168  1.00  0.00     0.164 C   
BRANCH  14  15
ATOM     15  C6  UNL     1       2.563   1.822  -3.462  1.00  0.00    -0.002 A   
ATOM     16  C7  UNL     1       2.393   2.762  -4.506  1.00  0.00     0.012 A   
ATOM     17  C11 UNL     1       3.396   0.706  -3.661  1.00  0.00     0.045 A   
ATOM     18  C8  UNL     1       3.053   2.602  -5.730  1.00  0.00     0.037 A   
ATOM     19  C10 UNL     1       4.032   0.580  -4.879  1.00  0.00     0.109 A   
ATOM     20  C9  UNL     1       3.866   1.500  -5.884  1.00  0.00     0.108 A   
ATOM     21  O1  UNL     1       4.868  -0.431  -5.232  1.00  0.00    -0.316 OA  
ATOM     22  O2  UNL     1       4.576   1.185  -6.998  1.00  0.00    -0.316 OA  
ATOM     23  C12 UNL     1       5.234  -0.028  -6.572  1.00  0.00     0.337 C   
ENDBRANCH  14  15
ENDBRANCH  11  14
ENDBRANCH   7  11
ENDBRANCH   1   7
BRANCH   3  24
ATOM     24  C15 UNL     1       1.129  -2.020   2.761  1.00  0.00     0.173 C   
BRANCH  24  25
ATOM     25  C16 UNL     1      -0.063  -1.970   3.646  1.00  0.00     0.021 A   
ATOM     26  C17 UNL     1      -0.231  -1.121   4.718  1.00  0.00     0.171 A   
ATOM     27  C18 UNL     1      -1.268  -2.749   3.639  1.00  0.00     0.081 A   
ATOM     28  O3  UNL     1      -1.439  -1.323   5.281  1.00  0.00    -0.221 OA  
ATOM     29  N3  UNL     1      -2.091  -2.326   4.611  1.00  0.00    -0.133 NA  
BRANCH  27  30
ATOM     30  C19 UNL     1      -1.696  -3.924   2.762  1.00  0.00     0.007 C   
ATOM     31  C20 UNL     1      -3.180  -4.305   2.994  1.00  0.00     0.017 C   
ATOM     32  C21 UNL     1      -1.551  -3.596   1.264  1.00  0.00     0.017 C   
ATOM     33  C22 UNL     1      -0.844  -5.165   3.095  1.00  0.00     0.017 C   
ENDBRANCH  27  30
ENDBRANCH  24  25
ENDBRANCH   3  24
TORSDOF 8
