REMARK SMILES c1cnc2cc(-n3cc([C@@H]([NH2+]Cc4ccc5c(c4)OCO5)C4CCCCC4)nn3)cnc2c1
REMARK SMILES IDX 10 1 9 2 7 3 8 4 29 5 28 6 6 7 1 8 2 9 33 10 3 11 32 12 4 13
REMARK SMILES IDX 31 14 5 15 30 16 11 17 12 20 13 21 14 22 18 23 15 24 17 25
REMARK SMILES IDX 16 26 19 27 21 28 20 29 22 30 23 31 27 32 24 33 26 34 25 35
REMARK H PARENT 11 18 11 19
ROOT
ATOM     1   C8  UNL     1       0.168  -1.487  -2.488  1.00  0.00     0.117 C   
ENDROOT
BRANCH   1   2
ATOM     2   C7  UNL     1      -0.126  -0.337  -1.579  1.00  0.00     0.127 A   
ATOM     3   N2  UNL     1      -0.236   1.107   0.060  1.00  0.00    -0.179 N   
ATOM     4   C6  UNL     1       0.629   0.245  -0.585  1.00  0.00     0.135 A   
ATOM     5   N5  UNL     1      -1.423   1.109  -0.598  1.00  0.00    -0.071 NA  
ATOM     6   N4  UNL     1      -1.377   0.211  -1.568  1.00  0.00    -0.131 NA  
BRANCH   3   7
ATOM     7   C5  UNL     1      -0.037   1.842   1.243  1.00  0.00     0.078 A   
ATOM     8   C1  UNL     1       1.549   3.823   5.511  1.00  0.00     0.022 A   
ATOM     9   C2  UNL     1       2.539   2.989   5.028  1.00  0.00     0.112 A   
ATOM     10  C25 UNL     1       0.378   3.946   4.767  1.00  0.00     0.032 A   
ATOM     11  N1  UNL     1       2.431   2.291   3.877  1.00  0.00    -0.255 NA  
ATOM     12  C24 UNL     1       0.215   3.254   3.578  1.00  0.00     0.089 A   
ATOM     13  C3  UNL     1       1.291   2.435   3.174  1.00  0.00     0.091 A   
ATOM     14  N6  UNL     1      -0.927   3.376   2.872  1.00  0.00    -0.253 NA  
ATOM     15  C4  UNL     1       1.143   1.739   1.985  1.00  0.00     0.058 A   
ATOM     16  C23 UNL     1      -1.039   2.669   1.726  1.00  0.00     0.137 A   
ENDBRANCH   3   7
ENDBRANCH   1   2
BRANCH   1  17
ATOM     17  N3  UNL     1      -0.984  -2.475  -2.440  1.00  0.00     0.249 N   
ATOM     18  H6  UNL     1      -1.838  -1.915  -2.290  1.00  0.00     0.199 HD  
ATOM     19  H7  UNL     1      -1.100  -2.930  -3.351  1.00  0.00     0.199 HD  
BRANCH  17  20
ATOM     20  C9  UNL     1      -0.919  -3.534  -1.386  1.00  0.00     0.164 C   
BRANCH  20  21
ATOM     21  C10 UNL     1      -0.875  -3.004   0.021  1.00  0.00    -0.002 A   
ATOM     22  C11 UNL     1      -2.026  -2.423   0.606  1.00  0.00     0.012 A   
ATOM     23  C15 UNL     1       0.330  -3.025   0.747  1.00  0.00     0.045 A   
ATOM     24  C12 UNL     1      -1.975  -1.849   1.882  1.00  0.00     0.037 A   
ATOM     25  C14 UNL     1       0.348  -2.444   1.999  1.00  0.00     0.109 A   
ATOM     26  C13 UNL     1      -0.770  -1.870   2.549  1.00  0.00     0.108 A   
ATOM     27  O1  UNL     1       1.435  -2.342   2.807  1.00  0.00    -0.316 OA  
ATOM     28  O2  UNL     1      -0.529  -1.338   3.775  1.00  0.00    -0.316 OA  
ATOM     29  C16 UNL     1       0.862  -1.679   3.958  1.00  0.00     0.337 C   
ENDBRANCH  20  21
ENDBRANCH  17  20
ENDBRANCH   1  17
BRANCH   1  30
ATOM     30  C17 UNL     1       0.426  -1.091  -3.966  1.00  0.00     0.043 C   
ATOM     31  C18 UNL     1       1.696  -0.230  -4.106  1.00  0.00     0.010 C   
ATOM     32  C22 UNL     1      -0.761  -0.398  -4.663  1.00  0.00     0.010 C   
ATOM     33  C19 UNL     1       2.006   0.085  -5.568  1.00  0.00     0.001 C   
ATOM     34  C21 UNL     1      -0.447  -0.089  -6.127  1.00  0.00     0.001 C   
ATOM     35  C20 UNL     1       0.822   0.745  -6.266  1.00  0.00     0.000 C   
ENDBRANCH   1  30
TORSDOF 6
