REMARK SMILES COCc1cccc(Cn2cc([C@@H]([NH2+]Cc3ccc4c(c3)OCO4)C3CCCCC3)nn2)c1
REMARK SMILES IDX 10 1 11 2 12 3 31 4 32 5 9 7 8 8 4 9 5 10 33 11 6 12 7 13
REMARK SMILES IDX 3 14 2 15 1 16 13 17 14 18 15 21 16 22 17 23 21 24 18 25
REMARK SMILES IDX 20 26 19 27 22 28 24 29 23 30 25 31 26 32 30 33 27 34 29 35
REMARK SMILES IDX 28 36
REMARK H PARENT 11 6 14 19 14 20
ROOT
ATOM     1   N1  UNL     1      -0.267   2.784  -1.289  1.00  0.00    -0.208 N   
ATOM     2   C9  UNL     1       0.408   1.628  -1.584  1.00  0.00     0.046 A   
ATOM     3   C10 UNL     1       1.235   1.438  -0.498  1.00  0.00     0.127 A   
ATOM     4   N3  UNL     1       1.076   2.482   0.373  1.00  0.00    -0.132 NA  
ATOM     5   N4  UNL     1       0.157   3.297  -0.120  1.00  0.00    -0.076 NA  
ATOM     6   H11 UNL     1       0.195   1.048  -2.471  1.00  0.00     0.083 HD  
ENDROOT
BRANCH   1   7
ATOM     7   C8  UNL     1      -1.374   3.389  -2.013  1.00  0.00     0.169 C   
BRANCH   7   8
ATOM     8   C7  UNL     1      -2.458   2.372  -2.284  1.00  0.00    -0.028 A   
ATOM     9   C3  UNL     1      -4.162   0.829  -1.447  1.00  0.00    -0.022 A   
ATOM     10  C4  UNL     1      -4.412   0.418  -2.763  1.00  0.00     0.006 A   
ATOM     11  C26 UNL     1      -3.191   1.818  -1.222  1.00  0.00     0.011 A   
ATOM     12  C5  UNL     1      -3.700   0.973  -3.827  1.00  0.00     0.001 A   
ATOM     13  C6  UNL     1      -2.729   1.946  -3.591  1.00  0.00     0.005 A   
BRANCH   9  14
ATOM     14  C2  UNL     1      -4.986   0.277  -0.307  1.00  0.00     0.195 C   
BRANCH  14  15
ATOM     15  O1  UNL     1      -4.146   0.076   0.836  1.00  0.00    -0.380 OA  
ATOM     16  C1  UNL     1      -4.916  -0.261   1.985  1.00  0.00     0.195 C   
ENDBRANCH  14  15
ENDBRANCH   9  14
ENDBRANCH   7   8
ENDBRANCH   1   7
BRANCH   3  17
ATOM     17  C11 UNL     1       2.092   0.273  -0.109  1.00  0.00     0.117 C   
BRANCH  17  18
ATOM     18  N2  UNL     1       1.236  -0.792   0.538  1.00  0.00     0.249 N   
ATOM     19  H13 UNL     1       0.575  -1.164  -0.155  1.00  0.00     0.199 HD  
ATOM     20  H14 UNL     1       1.818  -1.576   0.846  1.00  0.00     0.199 HD  
BRANCH  18  21
ATOM     21  C12 UNL     1       0.445  -0.354   1.733  1.00  0.00     0.164 C   
BRANCH  21  22
ATOM     22  C13 UNL     1      -0.255  -1.539   2.339  1.00  0.00    -0.002 A   
ATOM     23  C14 UNL     1      -1.490  -1.977   1.806  1.00  0.00     0.012 A   
ATOM     24  C18 UNL     1       0.334  -2.253   3.396  1.00  0.00     0.045 A   
ATOM     25  C15 UNL     1      -2.134  -3.107   2.318  1.00  0.00     0.037 A   
ATOM     26  C17 UNL     1      -0.328  -3.363   3.879  1.00  0.00     0.109 A   
ATOM     27  C16 UNL     1      -1.526  -3.779   3.354  1.00  0.00     0.108 A   
ATOM     28  O2  UNL     1       0.099  -4.160   4.893  1.00  0.00    -0.316 OA  
ATOM     29  O3  UNL     1      -2.003  -4.891   3.971  1.00  0.00    -0.316 OA  
ATOM     30  C19 UNL     1      -0.992  -5.106   4.978  1.00  0.00     0.337 C   
ENDBRANCH  21  22
ENDBRANCH  18  21
ENDBRANCH  17  18
BRANCH  17  31
ATOM     31  C20 UNL     1       2.876  -0.338  -1.310  1.00  0.00     0.043 C   
ATOM     32  C21 UNL     1       3.619  -1.644  -0.959  1.00  0.00     0.010 C   
ATOM     33  C25 UNL     1       3.885   0.690  -1.872  1.00  0.00     0.010 C   
ATOM     34  C22 UNL     1       4.426  -2.187  -2.138  1.00  0.00     0.001 C   
ATOM     35  C24 UNL     1       4.682   0.139  -3.051  1.00  0.00     0.001 C   
ATOM     36  C23 UNL     1       5.397  -1.155  -2.688  1.00  0.00     0.000 C   
ENDBRANCH  17  31
ENDBRANCH   3  17
TORSDOF 9
