REMARK SMILES c1ccc2nc(Cn3cc([C@@H]([NH2+]Cc4ccc5c(c4)OCO5)C4CCCCC4)nn3)cnc2c1
REMARK SMILES IDX 11 1 10 2 8 3 9 4 30 5 29 6 7 8 6 9 1 10 2 11 34 12 3 13
REMARK SMILES IDX 33 14 4 15 32 16 5 17 31 18 12 19 13 22 14 23 15 24 19 25
REMARK SMILES IDX 16 26 18 27 17 28 20 29 22 30 21 31 23 32 24 33 28 34 25 35
REMARK SMILES IDX 27 36 26 37
REMARK H PARENT 9 7 12 20 12 21
ROOT
ATOM     1   C9  UNL     1       1.281  -0.339  -1.154  1.00  0.00     0.117 C   
ENDROOT
BRANCH   1   2
ATOM     2   C8  UNL     1       1.299  -1.266   0.018  1.00  0.00     0.127 A   
ATOM     3   N2  UNL     1       1.691  -2.466   1.772  1.00  0.00    -0.206 N   
ATOM     4   C7  UNL     1       2.305  -1.625   0.886  1.00  0.00     0.046 A   
ATOM     5   N5  UNL     1       0.416  -2.699   1.411  1.00  0.00    -0.076 NA  
ATOM     6   N4  UNL     1       0.157  -1.951   0.351  1.00  0.00    -0.132 NA  
ATOM     7   H6  UNL     1       3.338  -1.324   0.997  1.00  0.00     0.083 HD  
BRANCH   3   8
ATOM     8   C6  UNL     1       2.222  -3.015   3.005  1.00  0.00     0.191 C   
BRANCH   8   9
ATOM     9   C5  UNL     1       1.896  -2.090   4.139  1.00  0.00     0.079 A   
ATOM     10  C1  UNL     1       1.668   1.641   7.366  1.00  0.00     0.002 A   
ATOM     11  C2  UNL     1       2.819   1.846   6.615  1.00  0.00     0.002 A   
ATOM     12  C26 UNL     1       0.866   0.530   7.106  1.00  0.00     0.030 A   
ATOM     13  C3  UNL     1       3.158   0.936   5.609  1.00  0.00     0.030 A   
ATOM     14  C25 UNL     1       1.192  -0.380   6.107  1.00  0.00     0.089 A   
ATOM     15  C4  UNL     1       2.366  -0.174   5.339  1.00  0.00     0.089 A   
ATOM     16  N6  UNL     1       0.385  -1.433   5.883  1.00  0.00    -0.253 NA  
ATOM     17  N1  UNL     1       2.716  -1.028   4.351  1.00  0.00    -0.248 NA  
ATOM     18  C24 UNL     1       0.748  -2.276   4.894  1.00  0.00     0.137 A   
ENDBRANCH   8   9
ENDBRANCH   3   8
ENDBRANCH   1   2
BRANCH   1  19
ATOM     19  N3  UNL     1       0.210  -0.770  -2.128  1.00  0.00     0.249 N   
ATOM     20  H8  UNL     1      -0.068  -0.005  -2.750  1.00  0.00     0.199 HD  
ATOM     21  H9  UNL     1      -0.622  -1.002  -1.563  1.00  0.00     0.199 HD  
BRANCH  19  22
ATOM     22  C10 UNL     1       0.534  -1.976  -2.939  1.00  0.00     0.164 C   
BRANCH  22  23
ATOM     23  C11 UNL     1      -0.651  -2.385  -3.767  1.00  0.00    -0.002 A   
ATOM     24  C12 UNL     1      -0.811  -1.902  -5.088  1.00  0.00     0.012 A   
ATOM     25  C16 UNL     1      -1.642  -3.210  -3.206  1.00  0.00     0.045 A   
ATOM     26  C13 UNL     1      -1.936  -2.246  -5.846  1.00  0.00     0.037 A   
ATOM     27  C15 UNL     1      -2.738  -3.530  -3.979  1.00  0.00     0.109 A   
ATOM     28  C14 UNL     1      -2.881  -3.062  -5.263  1.00  0.00     0.108 A   
ATOM     29  O1  UNL     1      -3.779  -4.312  -3.591  1.00  0.00    -0.316 OA  
ATOM     30  O2  UNL     1      -4.028  -3.495  -5.846  1.00  0.00    -0.316 OA  
ATOM     31  C17 UNL     1      -4.590  -4.302  -4.788  1.00  0.00     0.337 C   
ENDBRANCH  22  23
ENDBRANCH  19  22
ENDBRANCH   1  19
BRANCH   1  32
ATOM     32  C18 UNL     1       1.032   1.150  -0.787  1.00  0.00     0.043 C   
ATOM     33  C19 UNL     1      -0.299   1.406  -0.053  1.00  0.00     0.010 C   
ATOM     34  C23 UNL     1       2.203   1.746   0.019  1.00  0.00     0.010 C   
ATOM     35  C20 UNL     1      -0.503   2.894   0.236  1.00  0.00     0.001 C   
ATOM     36  C22 UNL     1       1.996   3.234   0.300  1.00  0.00     0.001 C   
ATOM     37  C21 UNL     1       0.670   3.488   1.009  1.00  0.00     0.000 C   
ENDBRANCH   1  32
TORSDOF 7
