REMARK SMILES CC(C)(C)[C@H]([NH2+]Cc1ccc2c(c1)OCO2)c1cn(Cc2csc(Cl)n2)nn1
REMARK SMILES IDX 17 1 18 2 19 3 27 4 28 5 5 7 2 8 1 9 3 10 4 11 6 12 7 15
REMARK SMILES IDX 8 16 9 17 13 18 10 19 12 20 11 21 14 22 16 23 15 24 20 25
REMARK SMILES IDX 21 26 22 27 26 28 23 29 24 30 25 31
REMARK H PARENT 18 6 6 13 6 14
ROOT
ATOM     1   C14 UNL     1      -0.487  -1.787  -0.704  1.00  0.00     0.127 A   
ATOM     2   C15 UNL     1       0.155  -2.978  -0.452  1.00  0.00     0.046 A   
ATOM     3   N2  UNL     1       1.049  -3.096  -1.482  1.00  0.00    -0.206 N   
ATOM     4   N4  UNL     1       0.944  -2.055  -2.331  1.00  0.00    -0.076 NA  
ATOM     5   N5  UNL     1       0.013  -1.242  -1.860  1.00  0.00    -0.132 NA  
ATOM     6   H20 UNL     1       0.104  -3.699   0.353  1.00  0.00     0.083 HD  
ENDROOT
BRANCH   1   7
ATOM     7   C5  UNL     1      -1.478  -1.013   0.110  1.00  0.00     0.120 C   
BRANCH   7   8
ATOM     8   C2  UNL     1      -2.966  -1.181  -0.354  1.00  0.00     0.010 C   
ATOM     9   C1  UNL     1      -3.348  -2.680  -0.388  1.00  0.00     0.017 C   
ATOM     10  C3  UNL     1      -3.919  -0.496   0.655  1.00  0.00     0.017 C   
ATOM     11  C4  UNL     1      -3.229  -0.583  -1.752  1.00  0.00     0.017 C   
ENDBRANCH   7   8
BRANCH   7  12
ATOM     12  N1  UNL     1      -1.077   0.443   0.095  1.00  0.00     0.250 N   
ATOM     13  H11 UNL     1      -1.833   1.060   0.401  1.00  0.00     0.199 HD  
ATOM     14  H12 UNL     1      -0.884   0.686  -0.888  1.00  0.00     0.199 HD  
BRANCH  12  15
ATOM     15  C6  UNL     1       0.151   0.769   0.876  1.00  0.00     0.164 C   
BRANCH  15  16
ATOM     16  C7  UNL     1       0.480   2.230   0.750  1.00  0.00    -0.002 A   
ATOM     17  C8  UNL     1       1.226   2.696  -0.358  1.00  0.00     0.012 A   
ATOM     18  C12 UNL     1       0.008   3.147   1.705  1.00  0.00     0.045 A   
ATOM     19  C9  UNL     1       1.509   4.057  -0.512  1.00  0.00     0.037 A   
ATOM     20  C11 UNL     1       0.307   4.481   1.523  1.00  0.00     0.109 A   
ATOM     21  C10 UNL     1       1.035   4.924   0.447  1.00  0.00     0.108 A   
ATOM     22  O1  UNL     1      -0.067   5.493   2.350  1.00  0.00    -0.316 OA  
ATOM     23  O2  UNL     1       1.213   6.270   0.460  1.00  0.00    -0.316 OA  
ATOM     24  C13 UNL     1       0.546   6.624   1.690  1.00  0.00     0.337 C   
ENDBRANCH  15  16
ENDBRANCH  12  15
ENDBRANCH   7  12
ENDBRANCH   1   7
BRANCH   3  25
ATOM     25  C16 UNL     1       2.047  -4.130  -1.689  1.00  0.00     0.190 C   
BRANCH  25  26
ATOM     26  C17 UNL     1       3.325  -3.755  -1.009  1.00  0.00     0.069 A   
ATOM     27  C18 UNL     1       4.577  -3.668  -1.598  1.00  0.00     0.074 A   
ATOM     28  N3  UNL     1       3.308  -3.464   0.355  1.00  0.00    -0.232 NA  
ATOM     29  S1  UNL     1       5.751  -3.207  -0.430  1.00  0.00    -0.064 S   
ATOM     30  C19 UNL     1       4.527  -3.166   0.742  1.00  0.00     0.167 A   
ATOM     31  CL1 UNL     1       4.888  -2.725   2.360  1.00  0.00    -0.054 Cl  
ENDBRANCH  25  26
ENDBRANCH   3  25
TORSDOF 7
