REMARK SMILES CC(C)(C)[C@H]([NH2+]Cc1ccc2c(c1)OCO2)c1cn(CCc2c(F)cccc2F)nn1
REMARK SMILES IDX 17 1 18 2 19 3 30 4 31 5 5 7 2 8 1 9 3 10 4 11 6 12 7 15
REMARK SMILES IDX 8 16 9 17 13 18 10 19 12 20 11 21 14 22 16 23 15 24 20 25
REMARK SMILES IDX 21 26 22 27 23 28 28 29 25 30 27 31 26 32 24 33 29 34
REMARK H PARENT 18 6 6 13 6 14
ROOT
ATOM     1   C14 UNL     1       1.689  -0.442  -0.925  1.00  0.00     0.127 A   
ATOM     2   C15 UNL     1       1.933  -0.244  -2.266  1.00  0.00     0.045 A   
ATOM     3   N2  UNL     1       0.860  -0.827  -2.881  1.00  0.00    -0.212 N   
ATOM     4   N3  UNL     1       0.022  -1.370  -1.982  1.00  0.00    -0.076 NA  
ATOM     5   N4  UNL     1       0.517  -1.140  -0.779  1.00  0.00    -0.132 NA  
ATOM     6   H20 UNL     1       2.707   0.274  -2.815  1.00  0.00     0.083 HD  
ENDROOT
BRANCH   1   7
ATOM     7   C5  UNL     1       2.384   0.068   0.301  1.00  0.00     0.120 C   
BRANCH   7   8
ATOM     8   C2  UNL     1       3.397  -0.941   0.938  1.00  0.00     0.010 C   
ATOM     9   C1  UNL     1       4.152  -0.274   2.111  1.00  0.00     0.017 C   
ATOM     10  C3  UNL     1       4.462  -1.356  -0.105  1.00  0.00     0.017 C   
ATOM     11  C4  UNL     1       2.716  -2.220   1.466  1.00  0.00     0.017 C   
ENDBRANCH   7   8
BRANCH   7  12
ATOM     12  N1  UNL     1       1.320   0.458   1.302  1.00  0.00     0.250 N   
ATOM     13  H11 UNL     1       0.625  -0.305   1.287  1.00  0.00     0.199 HD  
ATOM     14  H12 UNL     1       1.667   0.505   2.262  1.00  0.00     0.199 HD  
BRANCH  12  15
ATOM     15  C6  UNL     1       0.587   1.717   0.985  1.00  0.00     0.164 C   
BRANCH  15  16
ATOM     16  C7  UNL     1      -0.651   1.833   1.827  1.00  0.00    -0.002 A   
ATOM     17  C8  UNL     1      -0.630   2.548   3.047  1.00  0.00     0.012 A   
ATOM     18  C12 UNL     1      -1.830   1.180   1.424  1.00  0.00     0.045 A   
ATOM     19  C9  UNL     1      -1.771   2.620   3.854  1.00  0.00     0.037 A   
ATOM     20  C11 UNL     1      -2.935   1.271   2.243  1.00  0.00     0.109 A   
ATOM     21  C10 UNL     1      -2.907   1.970   3.424  1.00  0.00     0.108 A   
ATOM     22  O1  UNL     1      -4.145   0.702   2.005  1.00  0.00    -0.316 OA  
ATOM     23  O2  UNL     1      -4.095   1.929   4.080  1.00  0.00    -0.316 OA  
ATOM     24  C13 UNL     1      -4.877   1.109   3.184  1.00  0.00     0.337 C   
ENDBRANCH  15  16
ENDBRANCH  12  15
ENDBRANCH   7  12
ENDBRANCH   1   7
BRANCH   3  25
ATOM     25  C16 UNL     1       0.520  -0.814  -4.289  1.00  0.00     0.139 C   
BRANCH  25  26
ATOM     26  C17 UNL     1      -0.016   0.541  -4.756  1.00  0.00     0.063 C   
BRANCH  26  27
ATOM     27  C18 UNL     1      -1.309   0.940  -4.096  1.00  0.00     0.025 A   
ATOM     28  C19 UNL     1      -2.518   0.367  -4.492  1.00  0.00     0.129 A   
ATOM     29  C23 UNL     1      -1.341   1.871  -3.057  1.00  0.00     0.129 A   
ATOM     30  C20 UNL     1      -3.724   0.719  -3.890  1.00  0.00     0.040 A   
ATOM     31  C22 UNL     1      -2.538   2.243  -2.448  1.00  0.00     0.040 A   
ATOM     32  C21 UNL     1      -3.736   1.665  -2.867  1.00  0.00     0.006 A   
ATOM     33  F1  UNL     1      -2.525  -0.550  -5.469  1.00  0.00    -0.207 F   
ATOM     34  F2  UNL     1      -0.197   2.409  -2.605  1.00  0.00    -0.207 F   
ENDBRANCH  26  27
ENDBRANCH  25  26
ENDBRANCH   3  25
TORSDOF 8
