REMARK SMILES CC(C)C[C@H]([NH2+]Cc1ccc2c(c1)OCO2)c1cn(CCc2ccncn2)nn1
REMARK SMILES IDX 17 1 18 2 19 3 28 4 29 5 5 7 4 8 2 9 1 10 3 11 6 12 7 15
REMARK SMILES IDX 8 16 9 17 13 18 10 19 12 20 11 21 14 22 16 23 15 24 20 25
REMARK SMILES IDX 21 26 22 27 23 28 27 29 24 30 26 31 25 32
REMARK H PARENT 18 6 6 13 6 14
ROOT
ATOM     1   C14 UNL     1      -0.428  -1.268   0.200  1.00  0.00     0.127 A   
ATOM     2   C15 UNL     1      -1.110  -0.083   0.048  1.00  0.00     0.045 A   
ATOM     3   N2  UNL     1      -2.112  -0.159   0.973  1.00  0.00    -0.212 N   
ATOM     4   N5  UNL     1      -2.060  -1.324   1.645  1.00  0.00    -0.076 NA  
ATOM     5   N6  UNL     1      -1.032  -2.015   1.179  1.00  0.00    -0.132 NA  
ATOM     6   H20 UNL     1      -0.967   0.785  -0.580  1.00  0.00     0.083 HD  
ENDROOT
BRANCH   1   7
ATOM     7   C5  UNL     1       0.815  -1.770  -0.455  1.00  0.00     0.114 C   
BRANCH   7   8
ATOM     8   C4  UNL     1       0.487  -2.785  -1.571  1.00  0.00     0.064 C   
BRANCH   8   9
ATOM     9   C2  UNL     1       1.439  -2.736  -2.787  1.00  0.00    -0.012 C   
ATOM     10  C1  UNL     1       0.938  -3.697  -3.870  1.00  0.00     0.007 C   
ATOM     11  C3  UNL     1       2.890  -3.066  -2.444  1.00  0.00     0.007 C   
ENDBRANCH   8   9
ENDBRANCH   7   8
BRANCH   7  12
ATOM     12  N1  UNL     1       1.697  -2.452   0.571  1.00  0.00     0.249 N   
ATOM     13  H11 UNL     1       2.466  -2.946   0.114  1.00  0.00     0.199 HD  
ATOM     14  H12 UNL     1       1.106  -3.162   1.025  1.00  0.00     0.199 HD  
BRANCH  12  15
ATOM     15  C6  UNL     1       2.246  -1.586   1.659  1.00  0.00     0.164 C   
BRANCH  15  16
ATOM     16  C7  UNL     1       3.148  -0.496   1.151  1.00  0.00    -0.002 A   
ATOM     17  C8  UNL     1       4.462  -0.789   0.717  1.00  0.00     0.012 A   
ATOM     18  C12 UNL     1       2.669   0.824   1.068  1.00  0.00     0.045 A   
ATOM     19  C9  UNL     1       5.287   0.217   0.201  1.00  0.00     0.037 A   
ATOM     20  C11 UNL     1       3.505   1.790   0.549  1.00  0.00     0.109 A   
ATOM     21  C10 UNL     1       4.778   1.495   0.128  1.00  0.00     0.108 A   
ATOM     22  O1  UNL     1       3.191   3.102   0.381  1.00  0.00    -0.316 OA  
ATOM     23  O2  UNL     1       5.431   2.586  -0.349  1.00  0.00    -0.316 OA  
ATOM     24  C13 UNL     1       4.438   3.615  -0.143  1.00  0.00     0.337 C   
ENDBRANCH  15  16
ENDBRANCH  12  15
ENDBRANCH   7  12
ENDBRANCH   1   7
BRANCH   3  25
ATOM     25  C16 UNL     1      -3.128   0.827   1.276  1.00  0.00     0.140 C   
BRANCH  25  26
ATOM     26  C17 UNL     1      -2.997   1.416   2.680  1.00  0.00     0.077 C   
BRANCH  26  27
ATOM     27  C18 UNL     1      -1.715   2.178   2.920  1.00  0.00     0.045 A   
ATOM     28  C19 UNL     1      -1.243   2.338   4.211  1.00  0.00     0.044 A   
ATOM     29  N4  UNL     1      -1.098   2.738   1.855  1.00  0.00    -0.241 NA  
ATOM     30  C20 UNL     1      -0.093   3.079   4.355  1.00  0.00     0.115 A   
ATOM     31  C21 UNL     1       0.005   3.463   2.117  1.00  0.00     0.221 A   
ATOM     32  N3  UNL     1       0.558   3.643   3.323  1.00  0.00    -0.245 NA  
ENDBRANCH  26  27
ENDBRANCH  25  26
ENDBRANCH   3  25
TORSDOF 9
