REMARK SMILES CC(C)(C)[C@H]([NH2+]Cc1ccc2c(c1)OCO2)c1cn(CCc2ccoc2)nn1
REMARK SMILES IDX 17 1 18 2 19 3 27 4 28 5 5 7 2 8 1 9 3 10 4 11 6 12 7 15
REMARK SMILES IDX 8 16 9 17 13 18 10 19 12 20 11 21 14 22 16 23 15 24 20 25
REMARK SMILES IDX 21 26 22 27 23 28 26 29 24 30 25 31
REMARK H PARENT 18 6 6 13 6 14
ROOT
ATOM     1   C14 UNL     1      -0.206   0.169  -1.462  1.00  0.00     0.127 A   
ATOM     2   C15 UNL     1       0.916   0.828  -1.916  1.00  0.00     0.045 A   
ATOM     3   N2  UNL     1       0.690   0.978  -3.255  1.00  0.00    -0.212 N   
ATOM     4   N3  UNL     1      -0.531   0.526  -3.592  1.00  0.00    -0.076 NA  
ATOM     5   N4  UNL     1      -1.084   0.010  -2.507  1.00  0.00    -0.132 NA  
ATOM     6   H20 UNL     1       1.834   1.146  -1.442  1.00  0.00     0.083 HD  
ENDROOT
BRANCH   1   7
ATOM     7   C5  UNL     1      -0.594  -0.314  -0.096  1.00  0.00     0.120 C   
BRANCH   7   8
ATOM     8   C2  UNL     1      -0.084  -1.760   0.245  1.00  0.00     0.010 C   
ATOM     9   C1  UNL     1       1.456  -1.827   0.126  1.00  0.00     0.017 C   
ATOM     10  C3  UNL     1      -0.430  -2.122   1.709  1.00  0.00     0.017 C   
ATOM     11  C4  UNL     1      -0.688  -2.835  -0.678  1.00  0.00     0.017 C   
ENDBRANCH   7   8
BRANCH   7  12
ATOM     12  N1  UNL     1      -2.106  -0.251   0.024  1.00  0.00     0.250 N   
ATOM     13  H11 UNL     1      -2.449  -0.849   0.778  1.00  0.00     0.199 HD  
ATOM     14  H12 UNL     1      -2.474  -0.638  -0.857  1.00  0.00     0.199 HD  
BRANCH  12  15
ATOM     15  C6  UNL     1      -2.696   1.111   0.185  1.00  0.00     0.164 C   
BRANCH  15  16
ATOM     16  C7  UNL     1      -2.392   1.720   1.526  1.00  0.00    -0.002 A   
ATOM     17  C8  UNL     1      -1.516   2.827   1.626  1.00  0.00     0.012 A   
ATOM     18  C12 UNL     1      -2.956   1.178   2.695  1.00  0.00     0.045 A   
ATOM     19  C9  UNL     1      -1.197   3.383   2.869  1.00  0.00     0.037 A   
ATOM     20  C11 UNL     1      -2.619   1.749   3.905  1.00  0.00     0.109 A   
ATOM     21  C10 UNL     1      -1.764   2.819   3.990  1.00  0.00     0.108 A   
ATOM     22  O1  UNL     1      -3.067   1.342   5.121  1.00  0.00    -0.316 OA  
ATOM     23  O2  UNL     1      -1.566   3.223   5.272  1.00  0.00    -0.316 OA  
ATOM     24  C13 UNL     1      -2.417   2.301   5.987  1.00  0.00     0.337 C   
ENDBRANCH  15  16
ENDBRANCH  12  15
ENDBRANCH   7  12
ENDBRANCH   1   7
BRANCH   3  25
ATOM     25  C16 UNL     1       1.586   1.508  -4.262  1.00  0.00     0.139 C   
BRANCH  25  26
ATOM     26  C17 UNL     1       2.195   0.419  -5.146  1.00  0.00     0.059 C   
BRANCH  26  27
ATOM     27  C18 UNL     1       3.047  -0.541  -4.382  1.00  0.00    -0.021 A   
ATOM     28  C19 UNL     1       4.398  -0.371  -3.969  1.00  0.00     0.031 A   
ATOM     29  C21 UNL     1       2.679  -1.791  -3.924  1.00  0.00     0.139 A   
ATOM     30  C20 UNL     1       4.742  -1.510  -3.279  1.00  0.00     0.136 A   
ATOM     31  O3  UNL     1       3.694  -2.370  -3.236  1.00  0.00    -0.326 OA  
ENDBRANCH  26  27
ENDBRANCH  25  26
ENDBRANCH   3  25
TORSDOF 8
