REMARK SMILES COC(=O)[C@H](CCCNC(N)=[NH2+])n1cc([C@H](CC(C)C)[NH2+]Cc2ccc3c(c2)OCO3)nn1
REMARK SMILES IDX 5 1 3 2 4 3 2 4 1 5 6 6 7 7 8 8 9 9 10 10 11 11 12 15 13 18
REMARK SMILES IDX 14 19 33 20 15 21 32 22 16 24 17 25 18 26 19 27 20 28 21 29
REMARK SMILES IDX 22 32 23 33 24 34 28 35 25 36 27 37 26 38 29 39 31 40 30 41
REMARK H PARENT 9 12 11 13 11 14 12 16 12 17 14 23 21 30 21 31
ROOT
ATOM     1   C3  UNL     1       2.723  -1.159  -2.682  1.00  0.00     0.196 C   
ENDROOT
BRANCH   1   2
ATOM     2   C2  UNL     1       3.047  -2.625  -2.439  1.00  0.00     0.283 C   
ATOM     3   O2  UNL     1       4.139  -3.038  -2.058  1.00  0.00    -0.264 OA  
BRANCH   2   4
ATOM     4   O1  UNL     1       1.986  -3.416  -2.763  1.00  0.00    -0.318 OA  
ATOM     5   C1  UNL     1       2.215  -4.819  -2.599  1.00  0.00     0.206 C   
ENDBRANCH   2   4
ENDBRANCH   1   2
BRANCH   1   6
ATOM     6   C4  UNL     1       3.931  -0.243  -2.389  1.00  0.00     0.039 C   
BRANCH   6   7
ATOM     7   C5  UNL     1       4.354  -0.162  -0.911  1.00  0.00     0.037 C   
BRANCH   7   8
ATOM     8   C6  UNL     1       5.825   0.220  -0.745  1.00  0.00     0.184 C   
BRANCH   8   9
ATOM     9   N1  UNL     1       6.741  -0.810  -1.266  1.00  0.00    -0.239 N   
ATOM     10  C7  UNL     1       6.964  -2.021  -0.727  1.00  0.00     0.316 C   
ATOM     11  N3  UNL     1       6.402  -2.405   0.421  1.00  0.00    -0.252 N   
ATOM     12  H11 UNL     1       7.316  -0.562  -2.062  1.00  0.00     0.244 HD  
ATOM     13  H14 UNL     1       5.794  -1.793   0.947  1.00  0.00     0.241 HD  
ATOM     14  H15 UNL     1       6.555  -3.332   0.798  1.00  0.00     0.241 HD  
BRANCH  10  15
ATOM     15  N2  UNL     1       7.795  -2.868  -1.343  1.00  0.00    -0.252 N   
ATOM     16  H12 UNL     1       7.984  -3.786  -0.962  1.00  0.00     0.241 HD  
ATOM     17  H13 UNL     1       8.236  -2.644  -2.225  1.00  0.00     0.241 HD  
ENDBRANCH  10  15
ENDBRANCH   8   9
ENDBRANCH   7   8
ENDBRANCH   6   7
ENDBRANCH   1   6
BRANCH   1  18
ATOM     18  N4  UNL     1       1.500  -0.757  -2.008  1.00  0.00    -0.199 N   
ATOM     19  C8  UNL     1       0.377  -0.201  -2.558  1.00  0.00     0.046 A   
ATOM     20  N7  UNL     1       1.352  -0.910  -0.679  1.00  0.00    -0.075 NA  
ATOM     21  C9  UNL     1      -0.474  -0.021  -1.488  1.00  0.00     0.127 A   
ATOM     22  N6  UNL     1       0.151  -0.464  -0.349  1.00  0.00    -0.132 NA  
ATOM     23  H16 UNL     1       0.285   0.003  -3.617  1.00  0.00     0.083 HD  
BRANCH  21  24
ATOM     24  C10 UNL     1      -1.870   0.522  -1.421  1.00  0.00     0.114 C   
BRANCH  24  25
ATOM     25  C11 UNL     1      -1.980   2.011  -1.810  1.00  0.00     0.064 C   
BRANCH  25  26
ATOM     26  C12 UNL     1      -1.521   3.075  -0.786  1.00  0.00    -0.012 C   
ATOM     27  C13 UNL     1      -0.024   3.029  -0.484  1.00  0.00     0.007 C   
ATOM     28  C14 UNL     1      -1.884   4.470  -1.312  1.00  0.00     0.007 C   
ENDBRANCH  25  26
ENDBRANCH  24  25
BRANCH  24  29
ATOM     29  N5  UNL     1      -2.501   0.316  -0.074  1.00  0.00     0.249 N   
ATOM     30  H27 UNL     1      -1.794   0.548   0.638  1.00  0.00     0.199 HD  
ATOM     31  H28 UNL     1      -3.284   0.961   0.076  1.00  0.00     0.199 HD  
BRANCH  29  32
ATOM     32  C15 UNL     1      -2.978  -1.069   0.208  1.00  0.00     0.164 C   
BRANCH  32  33
ATOM     33  C16 UNL     1      -3.438  -1.180   1.633  1.00  0.00    -0.002 A   
ATOM     34  C17 UNL     1      -4.804  -1.016   1.963  1.00  0.00     0.012 A   
ATOM     35  C21 UNL     1      -2.498  -1.392   2.657  1.00  0.00     0.045 A   
ATOM     36  C18 UNL     1      -5.232  -1.070   3.294  1.00  0.00     0.037 A   
ATOM     37  C20 UNL     1      -2.953  -1.437   3.958  1.00  0.00     0.109 A   
ATOM     38  C19 UNL     1      -4.281  -1.281   4.268  1.00  0.00     0.108 A   
ATOM     39  O3  UNL     1      -2.180  -1.628   5.060  1.00  0.00    -0.316 OA  
ATOM     40  O4  UNL     1      -4.513  -1.356   5.604  1.00  0.00    -0.316 OA  
ATOM     41  C22 UNL     1      -3.181  -1.595   6.105  1.00  0.00     0.337 C   
ENDBRANCH  32  33
ENDBRANCH  29  32
ENDBRANCH  24  29
ENDBRANCH  21  24
ENDBRANCH   1  18
TORSDOF 14
