REMARK SMILES O=C(c1c[nH]c2ccccc12)n1cc([C@@H]([NH2+]Cc2ccc3c(c2)OCO3)C2CCCC2)nn1
REMARK SMILES IDX 12 1 13 2 14 3 32 4 33 5 2 6 1 7 3 8 4 9 11 10 5 11 6 12
REMARK SMILES IDX 10 13 7 14 9 15 8 16 15 18 16 19 17 22 18 23 19 24 23 25
REMARK SMILES IDX 20 26 22 27 21 28 24 29 26 30 25 31 27 32 28 33 31 34 29 35
REMARK SMILES IDX 30 36
REMARK H PARENT 5 17 16 20 16 21
ROOT
ATOM     1   N2  UNL     1       2.033  -0.653   0.696  1.00  0.00    -0.143 N   
ATOM     2   C10 UNL     1       1.728   0.632   1.131  1.00  0.00     0.139 A   
ATOM     3   C11 UNL     1       0.408   0.824   0.801  1.00  0.00     0.128 A   
ATOM     4   N4  UNL     1      -0.058  -0.299   0.172  1.00  0.00    -0.131 NA  
ATOM     5   N5  UNL     1       0.930  -1.176   0.098  1.00  0.00    -0.068 NA  
ENDROOT
BRANCH   1   6
ATOM     6   C1  UNL     1       3.270  -1.328   0.790  1.00  0.00     0.272 C   
ATOM     7   O1  UNL     1       4.165  -0.660   1.309  1.00  0.00    -0.269 OA  
BRANCH   6   8
ATOM     8   C2  UNL     1       3.526  -2.694   0.312  1.00  0.00     0.062 A   
ATOM     9   C3  UNL     1       2.606  -3.633  -0.126  1.00  0.00     0.086 A   
ATOM     10  C9  UNL     1       4.816  -3.332   0.220  1.00  0.00     0.010 A   
ATOM     11  N1  UNL     1       3.272  -4.777  -0.481  1.00  0.00    -0.320 N   
ATOM     12  C4  UNL     1       4.621  -4.620  -0.282  1.00  0.00     0.038 A   
ATOM     13  C8  UNL     1       6.137  -2.929   0.512  1.00  0.00     0.011 A   
ATOM     14  C5  UNL     1       5.671  -5.518  -0.507  1.00  0.00     0.024 A   
ATOM     15  C7  UNL     1       7.200  -3.814   0.294  1.00  0.00     0.001 A   
ATOM     16  C6  UNL     1       6.967  -5.091  -0.209  1.00  0.00     0.002 A   
ATOM     17  H2  UNL     1       2.842  -5.618  -0.844  1.00  0.00     0.152 HD  
ENDBRANCH   6   8
ENDBRANCH   1   6
BRANCH   3  18
ATOM     18  C12 UNL     1      -0.492   2.007   0.977  1.00  0.00     0.117 C   
BRANCH  18  19
ATOM     19  N3  UNL     1      -1.463   2.085  -0.176  1.00  0.00     0.249 N   
ATOM     20  H9  UNL     1      -1.880   1.149  -0.282  1.00  0.00     0.199 HD  
ATOM     21  H10 UNL     1      -2.240   2.723   0.022  1.00  0.00     0.199 HD  
BRANCH  19  22
ATOM     22  C13 UNL     1      -0.877   2.465  -1.493  1.00  0.00     0.164 C   
BRANCH  22  23
ATOM     23  C14 UNL     1      -1.940   2.435  -2.556  1.00  0.00    -0.002 A   
ATOM     24  C15 UNL     1      -2.282   1.210  -3.180  1.00  0.00     0.012 A   
ATOM     25  C19 UNL     1      -2.648   3.603  -2.885  1.00  0.00     0.045 A   
ATOM     26  C16 UNL     1      -3.312   1.149  -4.125  1.00  0.00     0.037 A   
ATOM     27  C18 UNL     1      -3.657   3.507  -3.821  1.00  0.00     0.109 A   
ATOM     28  C17 UNL     1      -3.982   2.316  -4.421  1.00  0.00     0.108 A   
ATOM     29  O2  UNL     1      -4.440   4.534  -4.244  1.00  0.00    -0.316 OA  
ATOM     30  O3  UNL     1      -5.010   2.442  -5.299  1.00  0.00    -0.316 OA  
ATOM     31  C20 UNL     1      -5.287   3.856  -5.199  1.00  0.00     0.337 C   
ENDBRANCH  22  23
ENDBRANCH  19  22
ENDBRANCH  18  19
BRANCH  18  32
ATOM     32  C21 UNL     1      -1.302   1.926   2.287  1.00  0.00     0.043 C   
ATOM     33  C22 UNL     1      -0.428   1.933   3.547  1.00  0.00     0.010 C   
ATOM     34  C25 UNL     1      -2.213   3.131   2.542  1.00  0.00     0.010 C   
ATOM     35  C23 UNL     1      -1.376   2.315   4.679  1.00  0.00     0.001 C   
ATOM     36  C24 UNL     1      -2.546   3.045   4.027  1.00  0.00     0.001 C   
ENDBRANCH  18  32
ENDBRANCH   3  18
TORSDOF 7
