REMARK SMILES Cc1ccc(C(=O)n2cc([C@@H]([NH2+]Cc3ccc4c(c3)OCO4)C3CCCCC3)nn2)o1
REMARK SMILES IDX 8 1 9 2 10 3 29 4 30 5 6 6 7 7 5 8 2 9 3 10 31 11 4 12 1 13
REMARK SMILES IDX 11 14 12 15 13 18 14 19 15 20 19 21 16 22 18 23 17 24 20 25
REMARK SMILES IDX 22 26 21 27 23 28 24 29 28 30 25 31 27 32 26 33
REMARK H PARENT 12 16 12 17
ROOT
ATOM     1   N1  UNL     1       1.167   1.075  -0.901  1.00  0.00    -0.142 N   
ATOM     2   C7  UNL     1       0.019   0.296  -0.942  1.00  0.00     0.139 A   
ATOM     3   C8  UNL     1      -0.713   0.676   0.158  1.00  0.00     0.128 A   
ATOM     4   N3  UNL     1      -0.064   1.703   0.789  1.00  0.00    -0.131 NA  
ATOM     5   N4  UNL     1       1.058   1.952   0.131  1.00  0.00    -0.068 NA  
ENDROOT
BRANCH   1   6
ATOM     6   C6  UNL     1       2.312   0.978  -1.717  1.00  0.00     0.294 C   
ATOM     7   O1  UNL     1       2.248   0.091  -2.570  1.00  0.00    -0.267 OA  
BRANCH   6   8
ATOM     8   C5  UNL     1       3.480   1.826  -1.554  1.00  0.00     0.146 A   
ATOM     9   C2  UNL     1       5.548   2.433  -2.053  1.00  0.00     0.057 A   
ATOM     10  C3  UNL     1       5.125   3.289  -1.063  1.00  0.00     0.032 A   
ATOM     11  O4  UNL     1       4.560   1.549  -2.356  1.00  0.00    -0.309 OA  
ATOM     12  C4  UNL     1       3.800   2.900  -0.741  1.00  0.00     0.042 A   
ATOM     13  C1  UNL     1       6.804   2.300  -2.817  1.00  0.00     0.073 C   
ENDBRANCH   6   8
ENDBRANCH   1   6
BRANCH   3  14
ATOM     14  C9  UNL     1      -1.940   0.079   0.773  1.00  0.00     0.117 C   
BRANCH  14  15
ATOM     15  N2  UNL     1      -1.762  -0.036   2.277  1.00  0.00     0.249 N   
ATOM     16  H8  UNL     1      -1.199   0.778   2.566  1.00  0.00     0.199 HD  
ATOM     17  H9  UNL     1      -2.667   0.057   2.749  1.00  0.00     0.199 HD  
BRANCH  15  18
ATOM     18  C10 UNL     1      -1.091  -1.277   2.783  1.00  0.00     0.164 C   
BRANCH  18  19
ATOM     19  C11 UNL     1       0.322  -1.443   2.298  1.00  0.00    -0.002 A   
ATOM     20  C12 UNL     1       1.359  -0.625   2.812  1.00  0.00     0.012 A   
ATOM     21  C16 UNL     1       0.612  -2.351   1.264  1.00  0.00     0.045 A   
ATOM     22  C13 UNL     1       2.651  -0.677   2.276  1.00  0.00     0.037 A   
ATOM     23  C15 UNL     1       1.891  -2.363   0.748  1.00  0.00     0.109 A   
ATOM     24  C14 UNL     1       2.880  -1.544   1.231  1.00  0.00     0.108 A   
ATOM     25  O2  UNL     1       2.307  -3.122  -0.299  1.00  0.00    -0.316 OA  
ATOM     26  O3  UNL     1       4.043  -1.679   0.543  1.00  0.00    -0.316 OA  
ATOM     27  C17 UNL     1       3.678  -2.682  -0.431  1.00  0.00     0.337 C   
ENDBRANCH  18  19
ENDBRANCH  15  18
ENDBRANCH  14  15
BRANCH  14  28
ATOM     28  C18 UNL     1      -3.247   0.865   0.485  1.00  0.00     0.043 C   
ATOM     29  C19 UNL     1      -3.253   2.311   1.019  1.00  0.00     0.010 C   
ATOM     30  C23 UNL     1      -3.591   0.853  -1.018  1.00  0.00     0.010 C   
ATOM     31  C20 UNL     1      -4.583   3.008   0.733  1.00  0.00     0.001 C   
ATOM     32  C22 UNL     1      -4.918   1.554  -1.300  1.00  0.00     0.001 C   
ATOM     33  C21 UNL     1      -4.926   2.977  -0.752  1.00  0.00     0.000 C   
ENDBRANCH  14  28
ENDBRANCH   3  14
TORSDOF 7
