REMARK SMILES CC(C)(C)[C@H]([NH2+]Cc1ccc2c(c1)OCO2)c1cn(Cc2cc(F)ccc2F)nn1
REMARK SMILES IDX 17 1 18 2 19 3 29 4 30 5 5 7 2 8 1 9 3 10 4 11 6 12 7 15
REMARK SMILES IDX 8 16 9 17 13 18 10 19 12 20 11 21 14 22 16 23 15 24 20 25
REMARK SMILES IDX 21 26 22 27 27 28 23 29 26 30 25 31 28 32 24 33
REMARK H PARENT 18 6 6 13 6 14
ROOT
ATOM     1   C14 UNL     1      -0.321  -1.587   0.608  1.00  0.00     0.127 A   
ATOM     2   C15 UNL     1       0.528  -2.672   0.604  1.00  0.00     0.046 A   
ATOM     3   N2  UNL     1       0.856  -2.833  -0.715  1.00  0.00    -0.208 N   
ATOM     4   N3  UNL     1       0.262  -1.891  -1.474  1.00  0.00    -0.076 NA  
ATOM     5   N4  UNL     1      -0.463  -1.125  -0.677  1.00  0.00    -0.132 NA  
ATOM     6   H20 UNL     1       0.920  -3.317   1.379  1.00  0.00     0.083 HD  
ENDROOT
BRANCH   1   7
ATOM     7   C5  UNL     1      -0.988  -0.849   1.730  1.00  0.00     0.120 C   
BRANCH   7   8
ATOM     8   C2  UNL     1      -2.421  -1.378   2.087  1.00  0.00     0.010 C   
ATOM     9   C1  UNL     1      -3.430  -1.182   0.938  1.00  0.00     0.017 C   
ATOM     10  C3  UNL     1      -2.965  -0.653   3.340  1.00  0.00     0.017 C   
ATOM     11  C4  UNL     1      -2.364  -2.884   2.432  1.00  0.00     0.017 C   
ENDBRANCH   7   8
BRANCH   7  12
ATOM     12  N1  UNL     1      -1.044   0.619   1.371  1.00  0.00     0.250 N   
ATOM     13  H11 UNL     1      -1.356   0.668   0.389  1.00  0.00     0.199 HD  
ATOM     14  H12 UNL     1      -1.740   1.133   1.917  1.00  0.00     0.199 HD  
BRANCH  12  15
ATOM     15  C6  UNL     1       0.254   1.345   1.450  1.00  0.00     0.164 C   
BRANCH  15  16
ATOM     16  C7  UNL     1       0.090   2.760   0.974  1.00  0.00    -0.002 A   
ATOM     17  C8  UNL     1       0.201   3.062  -0.405  1.00  0.00     0.012 A   
ATOM     18  C12 UNL     1      -0.231   3.782   1.884  1.00  0.00     0.045 A   
ATOM     19  C9  UNL     1       0.007   4.366  -0.872  1.00  0.00     0.037 A   
ATOM     20  C11 UNL     1      -0.416   5.056   1.389  1.00  0.00     0.109 A   
ATOM     21  C10 UNL     1      -0.300   5.341   0.050  1.00  0.00     0.108 A   
ATOM     22  O1  UNL     1      -0.729   6.153   2.127  1.00  0.00    -0.316 OA  
ATOM     23  O2  UNL     1      -0.524   6.652  -0.222  1.00  0.00    -0.316 OA  
ATOM     24  C13 UNL     1      -0.775   7.171   1.102  1.00  0.00     0.337 C   
ENDBRANCH  15  16
ENDBRANCH  12  15
ENDBRANCH   7  12
ENDBRANCH   1   7
BRANCH   3  25
ATOM     25  C16 UNL     1       1.714  -3.838  -1.315  1.00  0.00     0.172 C   
BRANCH  25  26
ATOM     26  C17 UNL     1       3.144  -3.376  -1.348  1.00  0.00     0.010 A   
ATOM     27  C18 UNL     1       3.673  -2.728  -2.473  1.00  0.00     0.047 A   
ATOM     28  C22 UNL     1       3.970  -3.558  -0.233  1.00  0.00     0.128 A   
ATOM     29  C19 UNL     1       4.998  -2.298  -2.466  1.00  0.00     0.123 A   
ATOM     30  C21 UNL     1       5.295  -3.129  -0.229  1.00  0.00     0.042 A   
ATOM     31  C20 UNL     1       5.814  -2.495  -1.356  1.00  0.00     0.042 A   
ATOM     32  F2  UNL     1       3.474  -4.145   0.866  1.00  0.00    -0.207 F   
ATOM     33  F1  UNL     1       5.491  -1.677  -3.544  1.00  0.00    -0.207 F   
ENDBRANCH  25  26
ENDBRANCH   3  25
TORSDOF 7
