REMARK SMILES C/C(=C/c1ccco1)[C@H](CO)n1cc([C@@H]([NH2+]Cc2ccc3c(c2)OCO3)C2CCCC2)nn1
REMARK SMILES IDX 12 1 13 2 14 3 32 4 33 5 9 7 2 8 1 9 3 10 4 11 5 12 8 13
REMARK SMILES IDX 6 14 7 15 10 16 11 17 15 19 16 20 17 23 18 24 19 25 23 26
REMARK SMILES IDX 20 27 22 28 21 29 24 30 26 31 25 32 27 33 28 34 31 35 29 36
REMARK SMILES IDX 30 37
REMARK H PARENT 13 6 11 18 16 21 16 22
ROOT
ATOM     1   N1  UNL     1      -1.251   0.252   1.662  1.00  0.00    -0.203 N   
ATOM     2   C10 UNL     1      -1.589   0.042   0.351  1.00  0.00     0.046 A   
ATOM     3   C11 UNL     1      -0.757  -0.973  -0.059  1.00  0.00     0.127 A   
ATOM     4   N3  UNL     1       0.066  -1.323   0.983  1.00  0.00    -0.132 NA  
ATOM     5   N4  UNL     1      -0.237  -0.565   2.022  1.00  0.00    -0.075 NA  
ATOM     6   H12 UNL     1      -2.369   0.612  -0.136  1.00  0.00     0.083 HD  
ENDROOT
BRANCH   1   7
ATOM     7   C8  UNL     1      -1.864   1.193   2.608  1.00  0.00     0.151 C   
BRANCH   7   8
ATOM     8   C2  UNL     1      -0.918   2.354   2.939  1.00  0.00    -0.046 C   
ATOM     9   C1  UNL     1       0.137   2.077   3.991  1.00  0.00     0.042 C   
BRANCH   8  10
ATOM     10  C3  UNL     1      -0.970   3.594   2.405  1.00  0.00     0.035 C   
BRANCH  10  11
ATOM     11  C4  UNL     1      -1.866   4.025   1.386  1.00  0.00     0.081 A   
ATOM     12  C5  UNL     1      -2.264   5.327   1.100  1.00  0.00     0.036 A   
ATOM     13  O1  UNL     1      -2.467   3.204   0.457  1.00  0.00    -0.318 OA  
ATOM     14  C6  UNL     1      -3.145   5.286  -0.005  1.00  0.00     0.028 A   
ATOM     15  C7  UNL     1      -3.236   3.966  -0.359  1.00  0.00     0.136 A   
ENDBRANCH  10  11
ENDBRANCH   8  10
ENDBRANCH   7   8
BRANCH   7  16
ATOM     16  C9  UNL     1      -2.406   0.446   3.846  1.00  0.00     0.185 C   
BRANCH  16  17
ATOM     17  O2  UNL     1      -3.527  -0.365   3.486  1.00  0.00    -0.394 OA  
ATOM     18  H11 UNL     1      -3.790  -0.860   4.285  1.00  0.00     0.210 HD  
ENDBRANCH  16  17
ENDBRANCH   7  16
ENDBRANCH   1   7
BRANCH   3  19
ATOM     19  C12 UNL     1      -0.594  -1.649  -1.381  1.00  0.00     0.117 C   
BRANCH  19  20
ATOM     20  N2  UNL     1       0.821  -2.160  -1.513  1.00  0.00     0.249 N   
ATOM     21  H14 UNL     1       0.894  -2.897  -2.222  1.00  0.00     0.199 HD  
ATOM     22  H15 UNL     1       1.054  -2.601  -0.610  1.00  0.00     0.199 HD  
BRANCH  20  23
ATOM     23  C13 UNL     1       1.858  -1.123  -1.772  1.00  0.00     0.164 C   
BRANCH  23  24
ATOM     24  C14 UNL     1       3.223  -1.753  -1.784  1.00  0.00    -0.002 A   
ATOM     25  C15 UNL     1       3.770  -2.261  -2.986  1.00  0.00     0.012 A   
ATOM     26  C19 UNL     1       3.934  -1.902  -0.580  1.00  0.00     0.045 A   
ATOM     27  C16 UNL     1       5.011  -2.908  -2.992  1.00  0.00     0.037 A   
ATOM     28  C18 UNL     1       5.154  -2.544  -0.621  1.00  0.00     0.109 A   
ATOM     29  C17 UNL     1       5.676  -3.036  -1.792  1.00  0.00     0.108 A   
ATOM     30  O3  UNL     1       5.963  -2.776   0.445  1.00  0.00    -0.316 OA  
ATOM     31  O4  UNL     1       6.879  -3.639  -1.612  1.00  0.00    -0.316 OA  
ATOM     32  C20 UNL     1       7.069  -3.457  -0.192  1.00  0.00     0.337 C   
ENDBRANCH  23  24
ENDBRANCH  20  23
ENDBRANCH  19  20
BRANCH  19  33
ATOM     33  C21 UNL     1      -1.540  -2.842  -1.616  1.00  0.00     0.043 C   
ATOM     34  C22 UNL     1      -3.036  -2.491  -1.685  1.00  0.00     0.010 C   
ATOM     35  C25 UNL     1      -1.461  -3.981  -0.593  1.00  0.00     0.010 C   
ATOM     36  C23 UNL     1      -3.781  -3.678  -1.072  1.00  0.00     0.001 C   
ATOM     37  C24 UNL     1      -2.735  -4.763  -0.866  1.00  0.00     0.001 C   
ENDBRANCH  19  33
ENDBRANCH   3  19
TORSDOF 11
