REMARK SMILES C/C(=C\c1ccco1)[C@@H](CO)n1cc([C@@H]([NH2+]Cc2ccc3c(c2)OCO3)C2CCCC2)nn1
REMARK SMILES IDX 12 1 13 2 14 3 32 4 33 5 9 7 2 8 1 9 3 10 4 11 5 12 8 13
REMARK SMILES IDX 6 14 7 15 10 16 11 17 15 19 16 20 17 23 18 24 19 25 23 26
REMARK SMILES IDX 20 27 22 28 21 29 24 30 26 31 25 32 27 33 28 34 31 35 29 36
REMARK SMILES IDX 30 37
REMARK H PARENT 13 6 11 18 16 21 16 22
ROOT
ATOM     1   N1  UNL     1       2.038  -0.446   1.888  1.00  0.00    -0.203 N   
ATOM     2   C10 UNL     1       1.668  -0.292   0.579  1.00  0.00     0.046 A   
ATOM     3   C11 UNL     1       1.807   1.057   0.344  1.00  0.00     0.127 A   
ATOM     4   N3  UNL     1       2.232   1.670   1.496  1.00  0.00    -0.132 NA  
ATOM     5   N4  UNL     1       2.370   0.744   2.432  1.00  0.00    -0.075 NA  
ATOM     6   H12 UNL     1       1.348  -1.128  -0.027  1.00  0.00     0.083 HD  
ENDROOT
BRANCH   1   7
ATOM     7   C8  UNL     1       2.032  -1.669   2.701  1.00  0.00     0.151 C   
BRANCH   7   8
ATOM     8   C2  UNL     1       0.677  -2.392   2.581  1.00  0.00    -0.046 C   
ATOM     9   C1  UNL     1      -0.472  -1.613   3.192  1.00  0.00     0.042 C   
BRANCH   8  10
ATOM     10  C3  UNL     1       0.539  -3.602   1.997  1.00  0.00     0.035 C   
BRANCH  10  11
ATOM     11  C4  UNL     1      -0.708  -4.244   1.746  1.00  0.00     0.081 A   
ATOM     12  C5  UNL     1      -0.946  -5.598   1.530  1.00  0.00     0.036 A   
ATOM     13  O1  UNL     1      -1.914  -3.591   1.600  1.00  0.00    -0.318 OA  
ATOM     14  C6  UNL     1      -2.326  -5.764   1.259  1.00  0.00     0.028 A   
ATOM     15  C7  UNL     1      -2.871  -4.510   1.323  1.00  0.00     0.136 A   
ENDBRANCH  10  11
ENDBRANCH   8  10
ENDBRANCH   7   8
BRANCH   7  16
ATOM     16  C9  UNL     1       3.324  -2.473   2.434  1.00  0.00     0.185 C   
BRANCH  16  17
ATOM     17  O2  UNL     1       3.454  -2.881   1.072  1.00  0.00    -0.394 OA  
ATOM     18  H11 UNL     1       4.292  -3.375   1.002  1.00  0.00     0.210 HD  
ENDBRANCH  16  17
ENDBRANCH   7  16
ENDBRANCH   1   7
BRANCH   3  19
ATOM     19  C12 UNL     1       1.481   1.874  -0.864  1.00  0.00     0.117 C   
BRANCH  19  20
ATOM     20  N2  UNL     1       1.040   3.242  -0.392  1.00  0.00     0.249 N   
ATOM     21  H14 UNL     1       0.476   3.081   0.455  1.00  0.00     0.199 HD  
ATOM     22  H15 UNL     1       1.864   3.739  -0.034  1.00  0.00     0.199 HD  
BRANCH  20  23
ATOM     23  C13 UNL     1       0.258   4.093  -1.323  1.00  0.00     0.164 C   
BRANCH  23  24
ATOM     24  C14 UNL     1      -1.115   3.546  -1.597  1.00  0.00    -0.002 A   
ATOM     25  C15 UNL     1      -1.416   2.942  -2.843  1.00  0.00     0.012 A   
ATOM     26  C19 UNL     1      -2.107   3.605  -0.599  1.00  0.00     0.045 A   
ATOM     27  C16 UNL     1      -2.682   2.399  -3.092  1.00  0.00     0.037 A   
ATOM     28  C18 UNL     1      -3.343   3.060  -0.878  1.00  0.00     0.109 A   
ATOM     29  C17 UNL     1      -3.622   2.471  -2.087  1.00  0.00     0.108 A   
ATOM     30  O3  UNL     1      -4.405   3.041  -0.032  1.00  0.00    -0.316 OA  
ATOM     31  O4  UNL     1      -4.895   2.002  -2.154  1.00  0.00    -0.316 OA  
ATOM     32  C20 UNL     1      -5.396   2.377  -0.851  1.00  0.00     0.337 C   
ENDBRANCH  23  24
ENDBRANCH  20  23
ENDBRANCH  19  20
BRANCH  19  33
ATOM     33  C21 UNL     1       2.628   2.018  -1.881  1.00  0.00     0.043 C   
ATOM     34  C22 UNL     1       3.904   2.709  -1.386  1.00  0.00     0.010 C   
ATOM     35  C25 UNL     1       3.161   0.698  -2.447  1.00  0.00     0.010 C   
ATOM     36  C23 UNL     1       5.011   2.250  -2.339  1.00  0.00     0.001 C   
ATOM     37  C24 UNL     1       4.410   1.137  -3.196  1.00  0.00     0.001 C   
ENDBRANCH  19  33
ENDBRANCH   3  19
TORSDOF 11
