REMARK SMILES C/C(=C\c1ccco1)[C@H](CO)n1cc([C@@H]([NH2+]Cc2ccc3c(c2)OCO3)C2CCCC2)nn1
REMARK SMILES IDX 12 1 13 2 14 3 32 4 33 5 9 7 2 8 1 9 3 10 4 11 5 12 8 13
REMARK SMILES IDX 6 14 7 15 10 16 11 17 15 19 16 20 17 23 18 24 19 25 23 26
REMARK SMILES IDX 20 27 22 28 21 29 24 30 26 31 25 32 27 33 28 34 31 35 29 36
REMARK SMILES IDX 30 37
REMARK H PARENT 13 6 11 18 16 21 16 22
ROOT
ATOM     1   N1  UNL     1       2.701   0.460   0.768  1.00  0.00    -0.203 N   
ATOM     2   C10 UNL     1       2.756  -0.327  -0.354  1.00  0.00     0.046 A   
ATOM     3   C11 UNL     1       1.712   0.124  -1.130  1.00  0.00     0.127 A   
ATOM     4   N3  UNL     1       1.058   1.130  -0.467  1.00  0.00    -0.132 NA  
ATOM     5   N4  UNL     1       1.661   1.317   0.695  1.00  0.00    -0.075 NA  
ATOM     6   H12 UNL     1       3.502  -1.098  -0.482  1.00  0.00     0.083 HD  
ENDROOT
BRANCH   1   7
ATOM     7   C8  UNL     1       3.561   0.382   1.955  1.00  0.00     0.151 C   
BRANCH   7   8
ATOM     8   C2  UNL     1       2.887  -0.413   3.079  1.00  0.00    -0.046 C   
ATOM     9   C1  UNL     1       1.615   0.176   3.643  1.00  0.00     0.042 C   
BRANCH   8  10
ATOM     10  C3  UNL     1       3.456  -1.559   3.512  1.00  0.00     0.035 C   
BRANCH  10  11
ATOM     11  C4  UNL     1       2.884  -2.429   4.483  1.00  0.00     0.081 A   
ATOM     12  C5  UNL     1       3.534  -3.342   5.307  1.00  0.00     0.036 A   
ATOM     13  O1  UNL     1       1.534  -2.544   4.733  1.00  0.00    -0.318 OA  
ATOM     14  C6  UNL     1       2.556  -4.001   6.089  1.00  0.00     0.028 A   
ATOM     15  C7  UNL     1       1.351  -3.475   5.700  1.00  0.00     0.136 A   
ENDBRANCH  10  11
ENDBRANCH   8  10
ENDBRANCH   7   8
BRANCH   7  16
ATOM     16  C9  UNL     1       4.074   1.767   2.393  1.00  0.00     0.185 C   
BRANCH  16  17
ATOM     17  O2  UNL     1       5.092   2.212   1.493  1.00  0.00    -0.394 OA  
ATOM     18  H11 UNL     1       5.394   3.082   1.815  1.00  0.00     0.210 HD  
ENDBRANCH  16  17
ENDBRANCH   7  16
ENDBRANCH   1   7
BRANCH   3  19
ATOM     19  C12 UNL     1       1.192  -0.335  -2.453  1.00  0.00     0.117 C   
BRANCH  19  20
ATOM     20  N2  UNL     1      -0.316  -0.274  -2.445  1.00  0.00     0.249 N   
ATOM     21  H14 UNL     1      -0.708  -0.331  -3.389  1.00  0.00     0.199 HD  
ATOM     22  H15 UNL     1      -0.571   0.657  -2.080  1.00  0.00     0.199 HD  
BRANCH  20  23
ATOM     23  C13 UNL     1      -0.989  -1.286  -1.583  1.00  0.00     0.164 C   
BRANCH  23  24
ATOM     24  C14 UNL     1      -2.480  -1.105  -1.630  1.00  0.00    -0.002 A   
ATOM     25  C15 UNL     1      -3.267  -1.846  -2.543  1.00  0.00     0.012 A   
ATOM     26  C19 UNL     1      -3.096  -0.154  -0.796  1.00  0.00     0.045 A   
ATOM     27  C16 UNL     1      -4.650  -1.653  -2.620  1.00  0.00     0.037 A   
ATOM     28  C18 UNL     1      -4.461   0.012  -0.898  1.00  0.00     0.109 A   
ATOM     29  C17 UNL     1      -5.217  -0.716  -1.784  1.00  0.00     0.108 A   
ATOM     30  O3  UNL     1      -5.209   0.883  -0.171  1.00  0.00    -0.316 OA  
ATOM     31  O4  UNL     1      -6.536  -0.397  -1.724  1.00  0.00    -0.316 OA  
ATOM     32  C20 UNL     1      -6.531   0.604  -0.684  1.00  0.00     0.337 C   
ENDBRANCH  23  24
ENDBRANCH  20  23
ENDBRANCH  19  20
BRANCH  19  33
ATOM     33  C21 UNL     1       1.711   0.540  -3.611  1.00  0.00     0.043 C   
ATOM     34  C22 UNL     1       1.221   0.105  -4.999  1.00  0.00     0.010 C   
ATOM     35  C25 UNL     1       3.233   0.489  -3.780  1.00  0.00     0.010 C   
ATOM     36  C23 UNL     1       2.260   0.631  -5.990  1.00  0.00     0.001 C   
ATOM     37  C24 UNL     1       3.454   1.088  -5.160  1.00  0.00     0.001 C   
ENDBRANCH  19  33
ENDBRANCH   3  19
TORSDOF 11
