REMARK SMILES Cc1ccnc(CCn2cc([C@@H]([NH2+]Cc3ccc4c(c3)OCO4)C(C)C)nn2)c1
REMARK SMILES IDX 9 1 10 2 11 3 27 4 28 5 8 7 7 8 6 9 2 10 3 11 29 12 4 13
REMARK SMILES IDX 5 14 1 15 12 16 13 17 14 20 15 21 16 22 20 23 17 24 19 25
REMARK SMILES IDX 18 26 21 27 23 28 22 29 24 30 25 31 26 32
REMARK H PARENT 10 6 13 18 13 19
ROOT
ATOM     1   N2  UNL     1       0.612   2.811  -1.104  1.00  0.00    -0.212 N   
ATOM     2   C8  UNL     1      -0.565   2.225  -0.735  1.00  0.00     0.045 A   
ATOM     3   C9  UNL     1      -0.382   1.917   0.593  1.00  0.00     0.127 A   
ATOM     4   N4  UNL     1       0.862   2.343   0.987  1.00  0.00    -0.132 NA  
ATOM     5   N5  UNL     1       1.462   2.883  -0.061  1.00  0.00    -0.076 NA  
ATOM     6   H10 UNL     1      -1.370   2.061  -1.438  1.00  0.00     0.083 HD  
ENDROOT
BRANCH   1   7
ATOM     7   C7  UNL     1       0.995   3.321  -2.404  1.00  0.00     0.140 C   
BRANCH   7   8
ATOM     8   C6  UNL     1       2.019   2.438  -3.117  1.00  0.00     0.077 C   
BRANCH   8   9
ATOM     9   C5  UNL     1       1.492   1.081  -3.526  1.00  0.00     0.042 A   
ATOM     10  C2  UNL     1       1.907  -1.188  -4.231  1.00  0.00    -0.048 A   
ATOM     11  C3  UNL     1       0.532  -1.344  -4.393  1.00  0.00     0.023 A   
ATOM     12  C22 UNL     1       2.393   0.055  -3.811  1.00  0.00     0.027 A   
ATOM     13  C4  UNL     1      -0.294  -0.269  -4.109  1.00  0.00     0.111 A   
ATOM     14  N1  UNL     1       0.153   0.928  -3.666  1.00  0.00    -0.261 NA  
ATOM     15  C1  UNL     1       2.853  -2.301  -4.577  1.00  0.00     0.044 C   
ENDBRANCH   8   9
ENDBRANCH   7   8
ENDBRANCH   1   7
BRANCH   3  16
ATOM     16  C10 UNL     1      -1.253   1.192   1.565  1.00  0.00     0.117 C   
BRANCH  16  17
ATOM     17  N3  UNL     1      -0.403   0.522   2.620  1.00  0.00     0.249 N   
ATOM     18  H12 UNL     1      -0.956   0.287   3.450  1.00  0.00     0.199 HD  
ATOM     19  H13 UNL     1       0.295   1.224   2.907  1.00  0.00     0.199 HD  
BRANCH  17  20
ATOM     20  C11 UNL     1       0.355  -0.688   2.170  1.00  0.00     0.164 C   
BRANCH  20  21
ATOM     21  C12 UNL     1      -0.534  -1.887   1.980  1.00  0.00    -0.002 A   
ATOM     22  C13 UNL     1      -1.039  -2.586   3.104  1.00  0.00     0.012 A   
ATOM     23  C17 UNL     1      -0.897  -2.302   0.681  1.00  0.00     0.045 A   
ATOM     24  C14 UNL     1      -1.898  -3.679   2.939  1.00  0.00     0.037 A   
ATOM     25  C16 UNL     1      -1.750  -3.378   0.557  1.00  0.00     0.109 A   
ATOM     26  C15 UNL     1      -2.239  -4.047   1.654  1.00  0.00     0.108 A   
ATOM     27  O1  UNL     1      -2.203  -3.898  -0.612  1.00  0.00    -0.316 OA  
ATOM     28  O2  UNL     1      -3.058  -5.074   1.313  1.00  0.00    -0.316 OA  
ATOM     29  C18 UNL     1      -3.047  -4.968  -0.127  1.00  0.00     0.337 C   
ENDBRANCH  20  21
ENDBRANCH  17  20
ENDBRANCH  16  17
BRANCH  16  30
ATOM     30  C19 UNL     1      -2.301   2.123   2.228  1.00  0.00     0.037 C   
ATOM     31  C20 UNL     1      -1.705   3.144   3.200  1.00  0.00     0.014 C   
ATOM     32  C21 UNL     1      -3.401   1.317   2.933  1.00  0.00     0.014 C   
ENDBRANCH  16  30
ENDBRANCH   3  16
TORSDOF 8
