REMARK SMILES COc1cc(Cn2cc([C@H](CC(C)C)[NH2+]Cc3ccc4c(c3)OCO4)nn2)cc(OC)c1
REMARK SMILES IDX 7 1 8 2 9 3 26 4 27 5 6 7 5 8 3 9 4 10 32 11 29 12 28 13
REMARK SMILES IDX 2 14 1 15 30 16 31 17 10 18 11 19 12 20 13 21 14 22 15 23
REMARK SMILES IDX 16 26 17 27 18 28 22 29 19 30 21 31 20 32 23 33 25 34 24 35
REMARK H PARENT 8 6 15 24 15 25
ROOT
ATOM     1   N1  UNL     1      -0.342   1.501   2.335  1.00  0.00    -0.208 N   
ATOM     2   C6  UNL     1       0.496   0.471   1.999  1.00  0.00     0.046 A   
ATOM     3   C7  UNL     1       1.506   1.082   1.292  1.00  0.00     0.127 A   
ATOM     4   N3  UNL     1       1.275   2.433   1.252  1.00  0.00    -0.132 NA  
ATOM     5   N4  UNL     1       0.145   2.677   1.894  1.00  0.00    -0.076 NA  
ATOM     6   H7  UNL     1       0.284  -0.558   2.256  1.00  0.00     0.083 HD  
ENDROOT
BRANCH   1   7
ATOM     7   C5  UNL     1      -1.591   1.461   3.082  1.00  0.00     0.169 C   
BRANCH   7   8
ATOM     8   C4  UNL     1      -2.473   0.314   2.656  1.00  0.00    -0.023 A   
ATOM     9   C2  UNL     1      -3.831  -0.802   0.968  1.00  0.00     0.077 A   
ATOM     10  C3  UNL     1      -3.031   0.273   1.370  1.00  0.00     0.039 A   
ATOM     11  C24 UNL     1      -4.088  -1.845   1.862  1.00  0.00     0.066 A   
ATOM     12  C22 UNL     1      -3.549  -1.813   3.149  1.00  0.00     0.077 A   
ATOM     13  C21 UNL     1      -2.742  -0.740   3.536  1.00  0.00     0.039 A   
BRANCH   9  14
ATOM     14  O1  UNL     1      -4.293  -0.707  -0.315  1.00  0.00    -0.349 OA  
ATOM     15  C1  UNL     1      -5.081  -1.786  -0.804  1.00  0.00     0.203 C   
ENDBRANCH   9  14
BRANCH  12  16
ATOM     16  O4  UNL     1      -3.720  -2.764   4.118  1.00  0.00    -0.349 OA  
ATOM     17  C23 UNL     1      -4.646  -3.809   3.845  1.00  0.00     0.203 C   
ENDBRANCH  12  16
ENDBRANCH   7   8
ENDBRANCH   1   7
BRANCH   3  18
ATOM     18  C8  UNL     1       2.691   0.525   0.572  1.00  0.00     0.114 C   
BRANCH  18  19
ATOM     19  C9  UNL     1       3.870   0.286   1.530  1.00  0.00     0.064 C   
BRANCH  19  20
ATOM     20  C10 UNL     1       5.109  -0.388   0.903  1.00  0.00    -0.012 C   
ATOM     21  C11 UNL     1       4.799  -1.788   0.372  1.00  0.00     0.007 C   
ATOM     22  C12 UNL     1       6.230  -0.468   1.943  1.00  0.00     0.007 C   
ENDBRANCH  19  20
ENDBRANCH  18  19
BRANCH  18  23
ATOM     23  N2  UNL     1       3.108   1.504  -0.506  1.00  0.00     0.249 N   
ATOM     24  H18 UNL     1       2.541   2.352  -0.341  1.00  0.00     0.199 HD  
ATOM     25  H19 UNL     1       4.073   1.817  -0.366  1.00  0.00     0.199 HD  
BRANCH  23  26
ATOM     26  C13 UNL     1       2.897   1.077  -1.915  1.00  0.00     0.164 C   
BRANCH  26  27
ATOM     27  C14 UNL     1       1.469   0.750  -2.255  1.00  0.00    -0.002 A   
ATOM     28  C15 UNL     1       1.126  -0.547  -2.704  1.00  0.00     0.012 A   
ATOM     29  C19 UNL     1       0.462   1.722  -2.133  1.00  0.00     0.045 A   
ATOM     30  C16 UNL     1      -0.198  -0.878  -3.013  1.00  0.00     0.037 A   
ATOM     31  C18 UNL     1      -0.832   1.362  -2.443  1.00  0.00     0.109 A   
ATOM     32  C17 UNL     1      -1.154   0.099  -2.871  1.00  0.00     0.108 A   
ATOM     33  O2  UNL     1      -1.914   2.176  -2.372  1.00  0.00    -0.316 OA  
ATOM     34  O3  UNL     1      -2.482  -0.040  -3.127  1.00  0.00    -0.316 OA  
ATOM     35  C20 UNL     1      -2.958   1.290  -2.841  1.00  0.00     0.337 C   
ENDBRANCH  26  27
ENDBRANCH  23  26
ENDBRANCH  18  23
ENDBRANCH   3  18
TORSDOF 10
