REMARK SMILES Cc1noc(C)c1CCn1cc([C@@H]([NH2+]Cc2ccc3c(c2)OCO3)C(C)C)nn1
REMARK SMILES IDX 10 1 11 2 12 3 28 4 29 5 9 7 8 8 7 9 2 10 3 11 4 12 5 13
REMARK SMILES IDX 1 14 6 15 13 16 14 17 15 20 16 21 17 22 21 23 18 24 20 25
REMARK SMILES IDX 19 26 22 27 24 28 23 29 25 30 26 31 27 32
REMARK H PARENT 11 6 14 18 14 19
ROOT
ATOM     1   N2  UNL     1       2.896  -1.824   0.429  1.00  0.00    -0.212 N   
ATOM     2   C8  UNL     1       2.221  -1.617  -0.742  1.00  0.00     0.045 A   
ATOM     3   C9  UNL     1       1.986  -0.261  -0.752  1.00  0.00     0.127 A   
ATOM     4   N4  UNL     1       2.566   0.304   0.355  1.00  0.00    -0.132 NA  
ATOM     5   N5  UNL     1       3.135  -0.660   1.060  1.00  0.00    -0.076 NA  
ATOM     6   H11 UNL     1       1.914  -2.428  -1.388  1.00  0.00     0.083 HD  
ENDROOT
BRANCH   1   7
ATOM     7   C7  UNL     1       3.157  -3.091   1.081  1.00  0.00     0.139 C   
BRANCH   7   8
ATOM     8   C6  UNL     1       2.300  -3.319   2.335  1.00  0.00     0.061 C   
BRANCH   8   9
ATOM     9   C5  UNL     1       0.856  -2.980   2.146  1.00  0.00     0.006 A   
ATOM     10  C2  UNL     1      -0.107  -3.583   1.288  1.00  0.00     0.071 A   
ATOM     11  N1  UNL     1      -1.254  -2.893   1.286  1.00  0.00    -0.134 NA  
ATOM     12  O1  UNL     1      -1.104  -1.906   2.237  1.00  0.00    -0.218 OA  
ATOM     13  C3  UNL     1       0.150  -1.962   2.755  1.00  0.00     0.087 A   
ATOM     14  C1  UNL     1       0.034  -4.777   0.420  1.00  0.00     0.070 C   
ATOM     15  C4  UNL     1       0.479  -0.955   3.784  1.00  0.00     0.076 C   
ENDBRANCH   8   9
ENDBRANCH   7   8
ENDBRANCH   1   7
BRANCH   3  16
ATOM     16  C10 UNL     1       1.135   0.571  -1.656  1.00  0.00     0.117 C   
BRANCH  16  17
ATOM     17  N3  UNL     1       0.293   1.518  -0.838  1.00  0.00     0.249 N   
ATOM     18  H13 UNL     1      -0.117   2.255  -1.420  1.00  0.00     0.199 HD  
ATOM     19  H14 UNL     1       0.926   1.984  -0.172  1.00  0.00     0.199 HD  
BRANCH  17  20
ATOM     20  C11 UNL     1      -0.788   0.872  -0.036  1.00  0.00     0.164 C   
BRANCH  20  21
ATOM     21  C12 UNL     1      -1.510   1.899   0.790  1.00  0.00    -0.002 A   
ATOM     22  C13 UNL     1      -2.747   2.432   0.356  1.00  0.00     0.012 A   
ATOM     23  C17 UNL     1      -0.933   2.369   1.983  1.00  0.00     0.045 A   
ATOM     24  C14 UNL     1      -3.406   3.414   1.103  1.00  0.00     0.037 A   
ATOM     25  C16 UNL     1      -1.610   3.337   2.695  1.00  0.00     0.109 A   
ATOM     26  C15 UNL     1      -2.811   3.845   2.268  1.00  0.00     0.108 A   
ATOM     27  O2  UNL     1      -1.194   3.896   3.861  1.00  0.00    -0.316 OA  
ATOM     28  O3  UNL     1      -3.305   4.788   3.112  1.00  0.00    -0.316 OA  
ATOM     29  C18 UNL     1      -2.286   4.803   4.135  1.00  0.00     0.337 C   
ENDBRANCH  20  21
ENDBRANCH  17  20
ENDBRANCH  16  17
BRANCH  16  30
ATOM     30  C19 UNL     1       1.923   1.386  -2.711  1.00  0.00     0.037 C   
ATOM     31  C20 UNL     1       2.651   0.466  -3.699  1.00  0.00     0.014 C   
ATOM     32  C21 UNL     1       2.913   2.399  -2.124  1.00  0.00     0.014 C   
ENDBRANCH  16  30
ENDBRANCH   3  16
TORSDOF 8
