REMARK SMILES Oc1ccc(Cl)cc1Cn1cc([C@@H]([NH2+]Cc2ccc3c(c2)OCO3)C2CCCC2)nn1
REMARK SMILES IDX 10 1 11 2 12 3 30 4 31 5 9 7 8 8 2 9 3 10 4 11 7 12 5 13
REMARK SMILES IDX 6 14 1 15 13 17 14 18 15 21 16 22 17 23 21 24 18 25 20 26
REMARK SMILES IDX 19 27 22 28 24 29 23 30 25 31 26 32 29 33 27 34 28 35
REMARK H PARENT 11 6 1 16 14 19 14 20
ROOT
ATOM     1   N1  UNL     1       0.202  -0.234  -2.709  1.00  0.00    -0.208 N   
ATOM     2   C8  UNL     1       0.390  -1.156  -1.717  1.00  0.00     0.046 A   
ATOM     3   C9  UNL     1      -0.704  -0.990  -0.898  1.00  0.00     0.127 A   
ATOM     4   N3  UNL     1      -1.535  -0.045  -1.440  1.00  0.00    -0.132 NA  
ATOM     5   N4  UNL     1      -0.971   0.411  -2.547  1.00  0.00    -0.076 NA  
ATOM     6   H7  UNL     1       1.281  -1.766  -1.658  1.00  0.00     0.083 HD  
ENDROOT
BRANCH   1   7
ATOM     7   C7  UNL     1       1.108   0.116  -3.790  1.00  0.00     0.172 C   
BRANCH   7   8
ATOM     8   C6  UNL     1       1.916   1.341  -3.442  1.00  0.00     0.003 A   
ATOM     9   C1  UNL     1       3.000   1.279  -2.557  1.00  0.00     0.076 A   
ATOM     10  C2  UNL     1       3.731   2.420  -2.223  1.00  0.00     0.035 A   
ATOM     11  C3  UNL     1       3.375   3.651  -2.774  1.00  0.00     0.023 A   
ATOM     12  C5  UNL     1       1.565   2.590  -3.982  1.00  0.00     0.028 A   
ATOM     13  C4  UNL     1       2.294   3.732  -3.648  1.00  0.00     0.041 A   
ATOM     14  CL1 UNL     1       1.847   5.253  -4.314  1.00  0.00    -0.084 Cl  
BRANCH   9  15
ATOM     15  O1  UNL     1       3.327   0.074  -2.003  1.00  0.00    -0.361 OA  
ATOM     16  H1  UNL     1       4.033   0.212  -1.342  1.00  0.00     0.218 HD  
ENDBRANCH   9  15
ENDBRANCH   7   8
ENDBRANCH   1   7
BRANCH   3  17
ATOM     17  C10 UNL     1      -1.014  -1.583   0.434  1.00  0.00     0.117 C   
BRANCH  17  18
ATOM     18  N2  UNL     1      -1.501  -0.515   1.396  1.00  0.00     0.249 N   
ATOM     19  H9  UNL     1      -2.376  -0.145   1.000  1.00  0.00     0.199 HD  
ATOM     20  H10 UNL     1      -1.728  -0.937   2.300  1.00  0.00     0.199 HD  
BRANCH  18  21
ATOM     21  C11 UNL     1      -0.601   0.659   1.623  1.00  0.00     0.164 C   
BRANCH  21  22
ATOM     22  C12 UNL     1       0.793   0.292   2.052  1.00  0.00    -0.002 A   
ATOM     23  C13 UNL     1       1.035  -0.288   3.319  1.00  0.00     0.012 A   
ATOM     24  C17 UNL     1       1.871   0.507   1.173  1.00  0.00     0.045 A   
ATOM     25  C14 UNL     1       2.329  -0.663   3.699  1.00  0.00     0.037 A   
ATOM     26  C16 UNL     1       3.133   0.121   1.574  1.00  0.00     0.109 A   
ATOM     27  C15 UNL     1       3.354  -0.449   2.804  1.00  0.00     0.108 A   
ATOM     28  O2  UNL     1       4.273   0.236   0.839  1.00  0.00    -0.316 OA  
ATOM     29  O3  UNL     1       4.661  -0.757   3.005  1.00  0.00    -0.316 OA  
ATOM     30  C18 UNL     1       5.250  -0.286   1.775  1.00  0.00     0.337 C   
ENDBRANCH  21  22
ENDBRANCH  18  21
ENDBRANCH  17  18
BRANCH  17  31
ATOM     31  C19 UNL     1      -2.095  -2.678   0.342  1.00  0.00     0.043 C   
ATOM     32  C20 UNL     1      -2.436  -3.343   1.680  1.00  0.00     0.010 C   
ATOM     33  C23 UNL     1      -1.669  -3.882  -0.505  1.00  0.00     0.010 C   
ATOM     34  C21 UNL     1      -3.064  -4.686   1.313  1.00  0.00     0.001 C   
ATOM     35  C22 UNL     1      -2.683  -4.956  -0.140  1.00  0.00     0.001 C   
ENDBRANCH  17  31
ENDBRANCH   3  17
TORSDOF 8
