REMARK SMILES Oc1cc(Cl)ccc1CCn1cc([C@@H]([NH2+]Cc2ccc3c(c2)OCO3)C2CCCC2)nn1
REMARK SMILES IDX 11 1 12 2 13 3 31 4 32 5 10 7 9 8 8 9 2 10 3 11 4 12 7 13
REMARK SMILES IDX 6 14 5 15 1 16 14 18 15 19 16 22 17 23 18 24 22 25 19 26
REMARK SMILES IDX 21 27 20 28 23 29 25 30 24 31 26 32 27 33 30 34 28 35 29 36
REMARK H PARENT 12 6 1 17 15 20 15 21
ROOT
ATOM     1   N1  UNL     1      -3.167   1.795   0.743  1.00  0.00    -0.212 N   
ATOM     2   C9  UNL     1      -2.690   0.678   1.370  1.00  0.00     0.045 A   
ATOM     3   C10 UNL     1      -1.583   0.327   0.630  1.00  0.00     0.127 A   
ATOM     4   N3  UNL     1      -1.460   1.192  -0.428  1.00  0.00    -0.132 NA  
ATOM     5   N4  UNL     1      -2.442   2.076  -0.355  1.00  0.00    -0.076 NA  
ATOM     6   H9  UNL     1      -3.150   0.279   2.265  1.00  0.00     0.083 HD  
ENDROOT
BRANCH   1   7
ATOM     7   C8  UNL     1      -4.286   2.629   1.131  1.00  0.00     0.139 C   
BRANCH   7   8
ATOM     8   C7  UNL     1      -3.847   3.925   1.816  1.00  0.00     0.059 C   
BRANCH   8   9
ATOM     9   C6  UNL     1      -3.025   3.705   3.068  1.00  0.00    -0.016 A   
ATOM     10  C1  UNL     1      -3.582   3.149   4.226  1.00  0.00     0.076 A   
ATOM     11  C2  UNL     1      -2.812   2.929   5.366  1.00  0.00     0.054 A   
ATOM     12  C3  UNL     1      -1.461   3.272   5.351  1.00  0.00     0.043 A   
ATOM     13  C5  UNL     1      -1.665   4.054   3.077  1.00  0.00     0.008 A   
ATOM     14  C4  UNL     1      -0.886   3.839   4.215  1.00  0.00     0.021 A   
ATOM     15  CL1 UNL     1      -0.491   2.980   6.740  1.00  0.00    -0.084 Cl  
BRANCH  10  16
ATOM     16  O1  UNL     1      -4.905   2.806   4.216  1.00  0.00    -0.361 OA  
ATOM     17  H1  UNL     1      -5.204   2.679   5.136  1.00  0.00     0.218 HD  
ENDBRANCH  10  16
ENDBRANCH   8   9
ENDBRANCH   7   8
ENDBRANCH   1   7
BRANCH   3  18
ATOM     18  C11 UNL     1      -0.617  -0.803   0.773  1.00  0.00     0.117 C   
BRANCH  18  19
ATOM     19  N2  UNL     1      -0.130  -1.238  -0.590  1.00  0.00     0.249 N   
ATOM     20  H11 UNL     1       0.712  -1.819  -0.519  1.00  0.00     0.199 HD  
ATOM     21  H12 UNL     1       0.144  -0.383  -1.095  1.00  0.00     0.199 HD  
BRANCH  19  22
ATOM     22  C12 UNL     1      -1.138  -1.942  -1.432  1.00  0.00     0.164 C   
BRANCH  22  23
ATOM     23  C13 UNL     1      -0.532  -2.354  -2.745  1.00  0.00    -0.002 A   
ATOM     24  C14 UNL     1      -0.044  -3.672  -2.930  1.00  0.00     0.012 A   
ATOM     25  C18 UNL     1      -0.406  -1.414  -3.785  1.00  0.00     0.045 A   
ATOM     26  C15 UNL     1       0.553  -4.053  -4.137  1.00  0.00     0.037 A   
ATOM     27  C17 UNL     1       0.186  -1.824  -4.963  1.00  0.00     0.109 A   
ATOM     28  C16 UNL     1       0.653  -3.105  -5.133  1.00  0.00     0.108 A   
ATOM     29  O2  UNL     1       0.386  -1.047  -6.060  1.00  0.00    -0.316 OA  
ATOM     30  O3  UNL     1       1.205  -3.297  -6.360  1.00  0.00    -0.316 OA  
ATOM     31  C19 UNL     1       1.005  -1.998  -6.960  1.00  0.00     0.337 C   
ENDBRANCH  22  23
ENDBRANCH  19  22
ENDBRANCH  18  19
BRANCH  18  32
ATOM     32  C20 UNL     1       0.624  -0.486   1.630  1.00  0.00     0.043 C   
ATOM     33  C21 UNL     1       0.332  -0.147   3.096  1.00  0.00     0.010 C   
ATOM     34  C24 UNL     1       1.480   0.698   1.179  1.00  0.00     0.010 C   
ATOM     35  C22 UNL     1       1.590   0.562   3.596  1.00  0.00     0.001 C   
ATOM     36  C23 UNL     1       2.419   0.901   2.358  1.00  0.00     0.001 C   
ENDBRANCH  18  32
ENDBRANCH   3  18
TORSDOF 9
