REMARK SMILES CC(C)[C@H]([NH2+]Cc1ccc2c(c1)OCO2)c1cn(Cc2ccc(F)c(F)c2F)nn1
REMARK SMILES IDX 16 1 17 2 18 3 29 4 30 5 4 7 2 8 1 9 3 10 5 11 6 14 7 15
REMARK SMILES IDX 8 16 12 17 9 18 11 19 10 20 13 21 15 22 14 23 19 24 20 25
REMARK SMILES IDX 21 26 27 27 22 28 25 29 23 30 28 31 26 32 24 33
REMARK H PARENT 17 6 5 12 5 13
ROOT
ATOM     1   C13 UNL     1       0.745  -0.055   1.581  1.00  0.00     0.127 A   
ATOM     2   C14 UNL     1       0.420   0.635   2.728  1.00  0.00     0.046 A   
ATOM     3   N2  UNL     1       1.207   1.753   2.677  1.00  0.00    -0.208 N   
ATOM     4   N3  UNL     1       1.969   1.753   1.567  1.00  0.00    -0.076 NA  
ATOM     5   N4  UNL     1       1.696   0.651   0.888  1.00  0.00    -0.132 NA  
ATOM     6   H18 UNL     1      -0.279   0.456   3.534  1.00  0.00     0.083 HD  
ENDROOT
BRANCH   1   7
ATOM     7   C4  UNL     1       0.204  -1.324   1.002  1.00  0.00     0.117 C   
BRANCH   7   8
ATOM     8   C2  UNL     1       0.947  -2.603   1.466  1.00  0.00     0.037 C   
ATOM     9   C1  UNL     1       0.762  -2.854   2.966  1.00  0.00     0.014 C   
ATOM     10  C3  UNL     1       2.441  -2.623   1.119  1.00  0.00     0.014 C   
ENDBRANCH   7   8
BRANCH   7  11
ATOM     11  N1  UNL     1       0.258  -1.262  -0.504  1.00  0.00     0.249 N   
ATOM     12  H9  UNL     1       0.201  -2.195  -0.923  1.00  0.00     0.199 HD  
ATOM     13  H10 UNL     1       1.184  -0.885  -0.755  1.00  0.00     0.199 HD  
BRANCH  11  14
ATOM     14  C5  UNL     1      -0.759  -0.379  -1.142  1.00  0.00     0.164 C   
BRANCH  14  15
ATOM     15  C6  UNL     1      -0.538  -0.316  -2.626  1.00  0.00    -0.002 A   
ATOM     16  C7  UNL     1       0.371   0.623  -3.169  1.00  0.00     0.012 A   
ATOM     17  C11 UNL     1      -1.188  -1.225  -3.479  1.00  0.00     0.045 A   
ATOM     18  C8  UNL     1       0.623   0.667  -4.545  1.00  0.00     0.037 A   
ATOM     19  C10 UNL     1      -0.916  -1.155  -4.830  1.00  0.00     0.109 A   
ATOM     20  C9  UNL     1      -0.037  -0.236  -5.348  1.00  0.00     0.108 A   
ATOM     21  O1  UNL     1      -1.455  -1.955  -5.786  1.00  0.00    -0.316 OA  
ATOM     22  O2  UNL     1       0.086  -0.340  -6.697  1.00  0.00    -0.316 OA  
ATOM     23  C12 UNL     1      -0.834  -1.417  -6.976  1.00  0.00     0.337 C   
ENDBRANCH  14  15
ENDBRANCH  11  14
ENDBRANCH   7  11
ENDBRANCH   1   7
BRANCH   3  24
ATOM     24  C15 UNL     1       1.279   2.849   3.629  1.00  0.00     0.172 C   
BRANCH  24  25
ATOM     25  C16 UNL     1       0.468   4.029   3.164  1.00  0.00     0.011 A   
ATOM     26  C17 UNL     1       1.085   5.181   2.650  1.00  0.00     0.012 A   
ATOM     27  C21 UNL     1      -0.932   3.986   3.219  1.00  0.00     0.166 A   
ATOM     28  C18 UNL     1       0.311   6.259   2.209  1.00  0.00     0.043 A   
ATOM     29  C20 UNL     1      -1.702   5.055   2.776  1.00  0.00     0.194 A   
ATOM     30  C19 UNL     1      -1.079   6.187   2.274  1.00  0.00     0.161 A   
ATOM     31  F3  UNL     1      -1.536   2.886   3.692  1.00  0.00    -0.203 F   
ATOM     32  F2  UNL     1      -3.039   4.980   2.822  1.00  0.00    -0.201 F   
ATOM     33  F1  UNL     1      -1.810   7.221   1.837  1.00  0.00    -0.204 F   
ENDBRANCH  24  25
ENDBRANCH   3  24
TORSDOF 7
