REMARK SMILES Cc1cncc(CCn2cc([C@@H]([NH2+]Cc3ccc4c(c3)OCO4)C3CCCCC3)nn2)n1
REMARK SMILES IDX 9 1 10 2 11 3 30 4 31 5 8 7 7 8 6 9 2 10 3 11 32 12 4 13
REMARK SMILES IDX 5 14 1 15 12 16 13 17 14 20 15 21 16 22 20 23 17 24 19 25
REMARK SMILES IDX 18 26 21 27 23 28 22 29 24 30 25 31 29 32 26 33 28 34 27 35
REMARK H PARENT 10 6 13 18 13 19
ROOT
ATOM     1   N2  UNL     1      -2.444   2.313   0.063  1.00  0.00    -0.212 N   
ATOM     2   C8  UNL     1      -1.608   1.239   0.152  1.00  0.00     0.045 A   
ATOM     3   C9  UNL     1      -0.378   1.741  -0.208  1.00  0.00     0.127 A   
ATOM     4   N4  UNL     1      -0.498   3.086  -0.452  1.00  0.00    -0.132 NA  
ATOM     5   N5  UNL     1      -1.767   3.421  -0.295  1.00  0.00    -0.076 NA  
ATOM     6   H10 UNL     1      -1.962   0.251   0.411  1.00  0.00     0.083 HD  
ENDROOT
BRANCH   1   7
ATOM     7   C7  UNL     1      -3.869   2.377   0.314  1.00  0.00     0.140 C   
BRANCH   7   8
ATOM     8   C6  UNL     1      -4.710   2.087  -0.927  1.00  0.00     0.079 C   
BRANCH   8   9
ATOM     9   C5  UNL     1      -4.936   0.611  -1.120  1.00  0.00     0.061 A   
ATOM     10  C2  UNL     1      -4.120  -1.475  -1.674  1.00  0.00     0.056 A   
ATOM     11  C3  UNL     1      -5.370  -2.022  -1.413  1.00  0.00     0.134 A   
ATOM     12  N6  UNL     1      -3.885  -0.143  -1.537  1.00  0.00    -0.255 NA  
ATOM     13  N1  UNL     1      -6.418  -1.280  -0.991  1.00  0.00    -0.261 NA  
ATOM     14  C4  UNL     1      -6.178   0.041  -0.855  1.00  0.00     0.134 A   
ATOM     15  C1  UNL     1      -2.994  -2.348  -2.122  1.00  0.00     0.068 C   
ENDBRANCH   8   9
ENDBRANCH   7   8
ENDBRANCH   1   7
BRANCH   3  16
ATOM     16  C10 UNL     1       0.935   1.065  -0.423  1.00  0.00     0.117 C   
BRANCH  16  17
ATOM     17  N3  UNL     1       1.759   1.832  -1.439  1.00  0.00     0.249 N   
ATOM     18  H12 UNL     1       2.733   1.522  -1.416  1.00  0.00     0.199 HD  
ATOM     19  H13 UNL     1       1.740   2.815  -1.137  1.00  0.00     0.199 HD  
BRANCH  17  20
ATOM     20  C11 UNL     1       1.265   1.813  -2.849  1.00  0.00     0.164 C   
BRANCH  20  21
ATOM     21  C12 UNL     1       1.277   0.445  -3.472  1.00  0.00    -0.002 A   
ATOM     22  C13 UNL     1       0.058  -0.177  -3.841  1.00  0.00     0.012 A   
ATOM     23  C17 UNL     1       2.490  -0.231  -3.688  1.00  0.00     0.045 A   
ATOM     24  C14 UNL     1       0.044  -1.456  -4.410  1.00  0.00     0.037 A   
ATOM     25  C16 UNL     1       2.440  -1.492  -4.245  1.00  0.00     0.109 A   
ATOM     26  C15 UNL     1       1.252  -2.090  -4.592  1.00  0.00     0.108 A   
ATOM     27  O1  UNL     1       3.516  -2.276  -4.515  1.00  0.00    -0.316 OA  
ATOM     28  O2  UNL     1       1.431  -3.326  -5.122  1.00  0.00    -0.316 OA  
ATOM     29  C18 UNL     1       2.873  -3.428  -5.106  1.00  0.00     0.337 C   
ENDBRANCH  20  21
ENDBRANCH  17  20
ENDBRANCH  16  17
BRANCH  16  30
ATOM     30  C19 UNL     1       1.793   0.902   0.862  1.00  0.00     0.043 C   
ATOM     31  C20 UNL     1       1.143  -0.076   1.863  1.00  0.00     0.010 C   
ATOM     32  C24 UNL     1       2.141   2.230   1.566  1.00  0.00     0.010 C   
ATOM     33  C21 UNL     1       2.033  -0.305   3.084  1.00  0.00     0.001 C   
ATOM     34  C23 UNL     1       3.022   1.998   2.795  1.00  0.00     0.001 C   
ATOM     35  C22 UNL     1       2.389   1.009   3.771  1.00  0.00     0.000 C   
ENDBRANCH  16  30
ENDBRANCH   3  16
TORSDOF 8
