REMARK SMILES CC(C)C[C@H]([NH2+]Cc1ccc2c(c1)OCO2)c1cn([C@@H](CO)c2ccc(F)c(F)c2)nn1
REMARK SMILES IDX 17 1 18 2 19 3 31 4 32 5 5 7 4 8 2 9 1 10 3 11 6 12 7 15
REMARK SMILES IDX 8 16 9 17 13 18 10 19 12 20 11 21 14 22 16 23 15 24 20 25
REMARK SMILES IDX 21 26 22 27 23 29 24 30 30 31 25 32 28 33 26 34 29 35 27 36
REMARK H PARENT 18 6 6 13 6 14 22 28
ROOT
ATOM     1   C14 UNL     1       0.639   0.199   1.140  1.00  0.00     0.127 A   
ATOM     2   C15 UNL     1       0.912   0.583  -0.154  1.00  0.00     0.046 A   
ATOM     3   N2  UNL     1       1.271  -0.583  -0.777  1.00  0.00    -0.202 N   
ATOM     4   N3  UNL     1       1.192  -1.624   0.080  1.00  0.00    -0.075 NA  
ATOM     5   N4  UNL     1       0.809  -1.156   1.256  1.00  0.00    -0.132 NA  
ATOM     6   H20 UNL     1       0.903   1.534  -0.667  1.00  0.00     0.083 HD  
ENDROOT
BRANCH   1   7
ATOM     7   C5  UNL     1       0.188   0.977   2.328  1.00  0.00     0.114 C   
BRANCH   7   8
ATOM     8   C4  UNL     1       1.351   1.321   3.281  1.00  0.00     0.064 C   
BRANCH   8   9
ATOM     9   C2  UNL     1       2.450   2.226   2.682  1.00  0.00    -0.012 C   
ATOM     10  C1  UNL     1       1.907   3.583   2.233  1.00  0.00     0.007 C   
ATOM     11  C3  UNL     1       3.565   2.431   3.711  1.00  0.00     0.007 C   
ENDBRANCH   8   9
ENDBRANCH   7   8
BRANCH   7  12
ATOM     12  N1  UNL     1      -0.809   0.155   3.123  1.00  0.00     0.249 N   
ATOM     13  H11 UNL     1      -0.668   0.294   4.128  1.00  0.00     0.199 HD  
ATOM     14  H12 UNL     1      -0.573  -0.834   2.939  1.00  0.00     0.199 HD  
BRANCH  12  15
ATOM     15  C6  UNL     1      -2.247   0.367   2.802  1.00  0.00     0.164 C   
BRANCH  15  16
ATOM     16  C7  UNL     1      -2.661  -0.166   1.461  1.00  0.00    -0.002 A   
ATOM     17  C8  UNL     1      -2.861   0.708   0.366  1.00  0.00     0.012 A   
ATOM     18  C12 UNL     1      -2.842  -1.549   1.281  1.00  0.00     0.045 A   
ATOM     19  C9  UNL     1      -3.240   0.214  -0.888  1.00  0.00     0.037 A   
ATOM     20  C11 UNL     1      -3.228  -2.000   0.037  1.00  0.00     0.109 A   
ATOM     21  C10 UNL     1      -3.420  -1.145  -1.018  1.00  0.00     0.108 A   
ATOM     22  O1  UNL     1      -3.473  -3.295  -0.292  1.00  0.00    -0.316 OA  
ATOM     23  O2  UNL     1      -3.807  -1.795  -2.146  1.00  0.00    -0.316 OA  
ATOM     24  C13 UNL     1      -3.901  -3.154  -1.664  1.00  0.00     0.337 C   
ENDBRANCH  15  16
ENDBRANCH  12  15
ENDBRANCH   7  12
ENDBRANCH   1   7
BRANCH   3  25
ATOM     25  C16 UNL     1       1.708  -0.759  -2.164  1.00  0.00     0.155 C   
BRANCH  25  26
ATOM     26  C17 UNL     1       3.105  -1.398  -2.244  1.00  0.00     0.185 C   
BRANCH  26  27
ATOM     27  O3  UNL     1       4.095  -0.455  -1.828  1.00  0.00    -0.394 OA  
ATOM     28  H24 UNL     1       4.961  -0.899  -1.893  1.00  0.00     0.210 HD  
ENDBRANCH  26  27
ENDBRANCH  25  26
BRANCH  25  29
ATOM     29  C18 UNL     1       0.648  -1.495  -2.972  1.00  0.00    -0.020 A   
ATOM     30  C19 UNL     1      -0.149  -0.787  -3.892  1.00  0.00     0.009 A   
ATOM     31  C23 UNL     1       0.431  -2.877  -2.821  1.00  0.00     0.048 A   
ATOM     32  C20 UNL     1      -1.128  -1.443  -4.644  1.00  0.00     0.043 A   
ATOM     33  C22 UNL     1      -0.549  -3.520  -3.572  1.00  0.00     0.159 A   
ATOM     34  C21 UNL     1      -1.321  -2.808  -4.479  1.00  0.00     0.158 A   
ATOM     35  F2  UNL     1      -0.751  -4.832  -3.398  1.00  0.00    -0.204 F   
ATOM     36  F1  UNL     1      -2.272  -3.430  -5.188  1.00  0.00    -0.204 F   
ENDBRANCH  25  29
ENDBRANCH   3  25
TORSDOF 10
