REMARK SMILES CC(C)C[C@H]([NH2+]Cc1ccc2c(c1)OCO2)c1cn([C@H](CO)c2ccc(F)c(F)c2)nn1
REMARK SMILES IDX 17 1 18 2 19 3 31 4 32 5 5 7 4 8 2 9 1 10 3 11 6 12 7 15
REMARK SMILES IDX 8 16 9 17 13 18 10 19 12 20 11 21 14 22 16 23 15 24 20 25
REMARK SMILES IDX 21 26 22 27 23 29 24 30 30 31 25 32 28 33 26 34 29 35 27 36
REMARK H PARENT 18 6 6 13 6 14 22 28
ROOT
ATOM     1   C14 UNL     1      -0.069  -0.823  -0.641  1.00  0.00     0.127 A   
ATOM     2   C15 UNL     1       0.499   0.408  -0.865  1.00  0.00     0.046 A   
ATOM     3   N2  UNL     1      -0.531   1.173  -1.344  1.00  0.00    -0.202 N   
ATOM     4   N3  UNL     1      -1.661   0.437  -1.444  1.00  0.00    -0.075 NA  
ATOM     5   N4  UNL     1      -1.389  -0.785  -1.017  1.00  0.00    -0.132 NA  
ATOM     6   H20 UNL     1       1.493   0.807  -0.714  1.00  0.00     0.083 HD  
ENDROOT
BRANCH   1   7
ATOM     7   C5  UNL     1       0.492  -2.073  -0.041  1.00  0.00     0.114 C   
BRANCH   7   8
ATOM     8   C4  UNL     1       1.299  -2.889  -1.063  1.00  0.00     0.064 C   
BRANCH   8   9
ATOM     9   C2  UNL     1       2.017  -4.137  -0.499  1.00  0.00    -0.012 C   
ATOM     10  C1  UNL     1       2.683  -4.905  -1.644  1.00  0.00     0.007 C   
ATOM     11  C3  UNL     1       3.063  -3.780   0.557  1.00  0.00     0.007 C   
ENDBRANCH   8   9
ENDBRANCH   7   8
BRANCH   7  12
ATOM     12  N1  UNL     1      -0.645  -2.917   0.496  1.00  0.00     0.249 N   
ATOM     13  H11 UNL     1      -0.594  -3.879   0.149  1.00  0.00     0.199 HD  
ATOM     14  H12 UNL     1      -1.502  -2.527   0.066  1.00  0.00     0.199 HD  
BRANCH  12  15
ATOM     15  C6  UNL     1      -0.832  -2.910   1.974  1.00  0.00     0.164 C   
BRANCH  15  16
ATOM     16  C7  UNL     1      -1.112  -1.545   2.540  1.00  0.00    -0.002 A   
ATOM     17  C8  UNL     1      -2.358  -0.913   2.308  1.00  0.00     0.012 A   
ATOM     18  C12 UNL     1      -0.120  -0.862   3.266  1.00  0.00     0.045 A   
ATOM     19  C9  UNL     1      -2.607   0.382   2.779  1.00  0.00     0.037 A   
ATOM     20  C11 UNL     1      -0.399   0.411   3.716  1.00  0.00     0.109 A   
ATOM     21  C10 UNL     1      -1.606   1.019   3.477  1.00  0.00     0.108 A   
ATOM     22  O1  UNL     1       0.450   1.203   4.421  1.00  0.00    -0.316 OA  
ATOM     23  O2  UNL     1      -1.667   2.271   3.998  1.00  0.00    -0.316 OA  
ATOM     24  C13 UNL     1      -0.386   2.358   4.657  1.00  0.00     0.337 C   
ENDBRANCH  15  16
ENDBRANCH  12  15
ENDBRANCH   7  12
ENDBRANCH   1   7
BRANCH   3  25
ATOM     25  C16 UNL     1      -0.544   2.590  -1.709  1.00  0.00     0.155 C   
BRANCH  25  26
ATOM     26  C17 UNL     1      -0.001   2.809  -3.137  1.00  0.00     0.185 C   
BRANCH  26  27
ATOM     27  O3  UNL     1       1.323   2.303  -3.320  1.00  0.00    -0.394 OA  
ATOM     28  H24 UNL     1       1.582   2.517  -4.237  1.00  0.00     0.210 HD  
ENDBRANCH  26  27
ENDBRANCH  25  26
BRANCH  25  29
ATOM     29  C18 UNL     1       0.067   3.443  -0.599  1.00  0.00    -0.020 A   
ATOM     30  C19 UNL     1      -0.738   3.818   0.497  1.00  0.00     0.009 A   
ATOM     31  C23 UNL     1       1.414   3.847  -0.601  1.00  0.00     0.048 A   
ATOM     32  C20 UNL     1      -0.216   4.582   1.546  1.00  0.00     0.043 A   
ATOM     33  C22 UNL     1       1.930   4.598   0.455  1.00  0.00     0.159 A   
ATOM     34  C21 UNL     1       1.120   4.964   1.520  1.00  0.00     0.158 A   
ATOM     35  F2  UNL     1       3.222   4.953   0.435  1.00  0.00    -0.204 F   
ATOM     36  F1  UNL     1       1.622   5.676   2.539  1.00  0.00    -0.204 F   
ENDBRANCH  25  29
ENDBRANCH   3  25
TORSDOF 10
