REMARK SMILES COc1cccc(OC)c1Cn1cc([C@@H]([NH2+]Cc2ccc3c(c2)OCO3)C(C)(C)C)nn1
REMARK SMILES IDX 12 1 13 2 14 3 31 4 32 5 11 7 10 8 3 9 4 10 5 11 7 12 6 13
REMARK SMILES IDX 2 14 1 15 8 16 9 17 15 18 16 19 17 22 18 23 19 24 23 25
REMARK SMILES IDX 20 26 22 27 21 28 24 29 26 30 25 31 27 32 28 33 29 34 30 35
REMARK H PARENT 13 6 16 20 16 21
ROOT
ATOM     1   N1  UNL     1       1.972  -0.997  -0.711  1.00  0.00    -0.208 N   
ATOM     2   C10 UNL     1       1.516   0.294  -0.780  1.00  0.00     0.046 A   
ATOM     3   C11 UNL     1       1.101   0.571   0.503  1.00  0.00     0.127 A   
ATOM     4   N3  UNL     1       1.320  -0.527   1.295  1.00  0.00    -0.132 NA  
ATOM     5   N4  UNL     1       1.860  -1.473   0.546  1.00  0.00    -0.076 NA  
ATOM     6   H12 UNL     1       1.519   0.856  -1.704  1.00  0.00     0.083 HD  
ENDROOT
BRANCH   1   7
ATOM     7   C9  UNL     1       2.557  -1.805  -1.768  1.00  0.00     0.175 C   
BRANCH   7   8
ATOM     8   C8  UNL     1       1.549  -2.117  -2.854  1.00  0.00     0.032 A   
ATOM     9   C2  UNL     1       0.650  -3.193  -2.694  1.00  0.00     0.082 A   
ATOM     10  C3  UNL     1      -0.276  -3.481  -3.699  1.00  0.00     0.034 A   
ATOM     11  C4  UNL     1      -0.318  -2.705  -4.856  1.00  0.00     0.005 A   
ATOM     12  C6  UNL     1       1.496  -1.335  -4.027  1.00  0.00     0.082 A   
ATOM     13  C5  UNL     1       0.560  -1.635  -5.020  1.00  0.00     0.034 A   
BRANCH   9  14
ATOM     14  O1  UNL     1       0.757  -3.888  -1.518  1.00  0.00    -0.349 OA  
ATOM     15  C1  UNL     1      -0.022  -5.071  -1.375  1.00  0.00     0.203 C   
ENDBRANCH   9  14
BRANCH  12  16
ATOM     16  O2  UNL     1       2.377  -0.286  -4.092  1.00  0.00    -0.349 OA  
ATOM     17  C7  UNL     1       2.565   0.322  -5.368  1.00  0.00     0.203 C   
ENDBRANCH  12  16
ENDBRANCH   7   8
ENDBRANCH   1   7
BRANCH   3  18
ATOM     18  C12 UNL     1       0.409   1.764   1.088  1.00  0.00     0.120 C   
BRANCH  18  19
ATOM     19  N2  UNL     1      -0.595   1.273   2.106  1.00  0.00     0.250 N   
ATOM     20  H14 UNL     1      -0.103   0.568   2.676  1.00  0.00     0.199 HD  
ATOM     21  H15 UNL     1      -0.899   2.004   2.752  1.00  0.00     0.199 HD  
BRANCH  19  22
ATOM     22  C13 UNL     1      -1.798   0.604   1.534  1.00  0.00     0.164 C   
BRANCH  22  23
ATOM     23  C14 UNL     1      -2.643   0.012   2.626  1.00  0.00    -0.002 A   
ATOM     24  C15 UNL     1      -2.276  -1.224   3.211  1.00  0.00     0.012 A   
ATOM     25  C19 UNL     1      -3.774   0.696   3.100  1.00  0.00     0.045 A   
ATOM     26  C16 UNL     1      -3.029  -1.776   4.253  1.00  0.00     0.037 A   
ATOM     27  C18 UNL     1      -4.498   0.119   4.123  1.00  0.00     0.109 A   
ATOM     28  C17 UNL     1      -4.136  -1.081   4.685  1.00  0.00     0.108 A   
ATOM     29  O3  UNL     1      -5.617   0.641   4.690  1.00  0.00    -0.316 OA  
ATOM     30  O4  UNL     1      -4.979  -1.462   5.680  1.00  0.00    -0.316 OA  
ATOM     31  C20 UNL     1      -5.947  -0.393   5.646  1.00  0.00     0.337 C   
ENDBRANCH  22  23
ENDBRANCH  19  22
ENDBRANCH  18  19
BRANCH  18  32
ATOM     32  C21 UNL     1       1.376   2.816   1.735  1.00  0.00     0.010 C   
ATOM     33  C22 UNL     1       0.584   4.062   2.194  1.00  0.00     0.017 C   
ATOM     34  C23 UNL     1       2.409   3.299   0.692  1.00  0.00     0.017 C   
ATOM     35  C24 UNL     1       2.141   2.256   2.950  1.00  0.00     0.017 C   
ENDBRANCH  18  32
ENDBRANCH   3  18
TORSDOF 9
