REMARK SMILES COc1cncc(Cn2cc([C@@H]([NH2+]Cc3ccc4c(c3)OCO4)C3CCCC3)nn2)c1
REMARK SMILES IDX 9 1 10 2 11 3 29 4 30 5 8 7 7 8 3 9 4 10 31 11 5 12 6 13
REMARK SMILES IDX 2 14 1 15 12 16 13 17 14 20 15 21 16 22 20 23 17 24 19 25
REMARK SMILES IDX 18 26 21 27 23 28 22 29 24 30 25 31 28 32 26 33 27 34
REMARK H PARENT 10 6 13 18 13 19
ROOT
ATOM     1   N2  UNL     1       3.083   1.034   0.773  1.00  0.00    -0.208 N   
ATOM     2   C7  UNL     1       1.767   1.140   1.132  1.00  0.00     0.046 A   
ATOM     3   C8  UNL     1       1.517  -0.023   1.827  1.00  0.00     0.127 A   
ATOM     4   N4  UNL     1       2.665  -0.771   1.879  1.00  0.00    -0.132 NA  
ATOM     5   N5  UNL     1       3.612  -0.119   1.224  1.00  0.00    -0.076 NA  
ATOM     6   H8  UNL     1       1.155   1.983   0.845  1.00  0.00     0.083 HD  
ENDROOT
BRANCH   1   7
ATOM     7   C6  UNL     1       3.875   1.947  -0.035  1.00  0.00     0.171 C   
BRANCH   7   8
ATOM     8   C5  UNL     1       3.459   1.879  -1.476  1.00  0.00    -0.008 A   
ATOM     9   C2  UNL     1       2.433   2.862  -3.441  1.00  0.00     0.093 A   
ATOM     10  C3  UNL     1       2.681   1.664  -4.097  1.00  0.00     0.144 A   
ATOM     11  C23 UNL     1       2.828   2.958  -2.106  1.00  0.00     0.042 A   
ATOM     12  N1  UNL     1       3.282   0.595  -3.519  1.00  0.00    -0.262 NA  
ATOM     13  C4  UNL     1       3.670   0.730  -2.233  1.00  0.00     0.116 A   
BRANCH   9  14
ATOM     14  O1  UNL     1       1.831   3.975  -3.950  1.00  0.00    -0.348 OA  
ATOM     15  C1  UNL     1       1.501   3.944  -5.336  1.00  0.00     0.203 C   
ENDBRANCH   9  14
ENDBRANCH   7   8
ENDBRANCH   1   7
BRANCH   3  16
ATOM     16  C9  UNL     1       0.263  -0.563   2.433  1.00  0.00     0.117 C   
BRANCH  16  17
ATOM     17  N3  UNL     1       0.278  -2.072   2.375  1.00  0.00     0.249 N   
ATOM     18  H10 UNL     1       1.224  -2.357   2.666  1.00  0.00     0.199 HD  
ATOM     19  H11 UNL     1      -0.377  -2.477   3.048  1.00  0.00     0.199 HD  
BRANCH  17  20
ATOM     20  C10 UNL     1       0.038  -2.678   1.032  1.00  0.00     0.164 C   
BRANCH  20  21
ATOM     21  C11 UNL     1      -1.387  -2.533   0.577  1.00  0.00    -0.002 A   
ATOM     22  C12 UNL     1      -2.412  -3.300   1.180  1.00  0.00     0.012 A   
ATOM     23  C16 UNL     1      -1.716  -1.613  -0.435  1.00  0.00     0.045 A   
ATOM     24  C13 UNL     1      -3.748  -3.148   0.792  1.00  0.00     0.037 A   
ATOM     25  C15 UNL     1      -3.042  -1.488  -0.795  1.00  0.00     0.109 A   
ATOM     26  C14 UNL     1      -4.029  -2.232  -0.198  1.00  0.00     0.108 A   
ATOM     27  O2  UNL     1      -3.528  -0.644  -1.743  1.00  0.00    -0.316 OA  
ATOM     28  O3  UNL     1      -5.262  -1.951  -0.693  1.00  0.00    -0.316 OA  
ATOM     29  C17 UNL     1      -4.936  -0.969  -1.702  1.00  0.00     0.337 C   
ENDBRANCH  20  21
ENDBRANCH  17  20
ENDBRANCH  16  17
BRANCH  16  30
ATOM     30  C18 UNL     1       0.080  -0.081   3.886  1.00  0.00     0.043 C   
ATOM     31  C19 UNL     1      -1.310  -0.366   4.480  1.00  0.00     0.010 C   
ATOM     32  C22 UNL     1       1.048  -0.656   4.924  1.00  0.00     0.010 C   
ATOM     33  C20 UNL     1      -1.099  -0.552   5.985  1.00  0.00     0.001 C   
ATOM     34  C21 UNL     1       0.379  -0.285   6.239  1.00  0.00     0.001 C   
ENDBRANCH  16  30
ENDBRANCH   3  16
TORSDOF 8
