REMARK SMILES CC(C)(C)[C@H]([NH2+]Cc1ccc2c(c1)OCO2)c1cn(Cc2c(F)cc(F)cc2F)nn1
REMARK SMILES IDX 17 1 18 2 19 3 30 4 31 5 5 7 2 8 1 9 3 10 4 11 6 12 7 15
REMARK SMILES IDX 8 16 9 17 13 18 10 19 12 20 11 21 14 22 16 23 15 24 20 25
REMARK SMILES IDX 21 26 22 27 28 28 24 29 27 30 25 31 23 32 29 33 26 34
REMARK H PARENT 18 6 6 13 6 14
ROOT
ATOM     1   C14 UNL     1       0.352   1.115   1.229  1.00  0.00     0.127 A   
ATOM     2   C15 UNL     1       1.525   1.705   0.816  1.00  0.00     0.046 A   
ATOM     3   N2  UNL     1       2.502   0.926   1.374  1.00  0.00    -0.208 N   
ATOM     4   N3  UNL     1       1.963  -0.079   2.091  1.00  0.00    -0.076 NA  
ATOM     5   N4  UNL     1       0.648   0.024   2.008  1.00  0.00    -0.132 NA  
ATOM     6   H20 UNL     1       1.750   2.560   0.194  1.00  0.00     0.083 HD  
ENDROOT
BRANCH   1   7
ATOM     7   C5  UNL     1      -1.083   1.408   0.908  1.00  0.00     0.120 C   
BRANCH   7   8
ATOM     8   C2  UNL     1      -1.785   2.381   1.916  1.00  0.00     0.010 C   
ATOM     9   C1  UNL     1      -1.854   1.814   3.348  1.00  0.00     0.017 C   
ATOM     10  C3  UNL     1      -3.223   2.693   1.440  1.00  0.00     0.017 C   
ATOM     11  C4  UNL     1      -1.028   3.729   1.967  1.00  0.00     0.017 C   
ENDBRANCH   7   8
BRANCH   7  12
ATOM     12  N1  UNL     1      -1.824   0.082   0.843  1.00  0.00     0.250 N   
ATOM     13  H11 UNL     1      -1.242  -0.587   1.374  1.00  0.00     0.199 HD  
ATOM     14  H12 UNL     1      -2.711   0.119   1.351  1.00  0.00     0.199 HD  
BRANCH  12  15
ATOM     15  C6  UNL     1      -2.061  -0.482  -0.514  1.00  0.00     0.164 C   
BRANCH  15  16
ATOM     16  C7  UNL     1      -0.811  -0.754  -1.305  1.00  0.00    -0.002 A   
ATOM     17  C8  UNL     1       0.106  -1.748  -0.887  1.00  0.00     0.012 A   
ATOM     18  C12 UNL     1      -0.541  -0.017  -2.471  1.00  0.00     0.045 A   
ATOM     19  C9  UNL     1       1.277  -2.001  -1.611  1.00  0.00     0.037 A   
ATOM     20  C11 UNL     1       0.617  -0.297  -3.167  1.00  0.00     0.109 A   
ATOM     21  C10 UNL     1       1.500  -1.262  -2.750  1.00  0.00     0.108 A   
ATOM     22  O1  UNL     1       1.019   0.316  -4.311  1.00  0.00    -0.316 OA  
ATOM     23  O2  UNL     1       2.566  -1.381  -3.582  1.00  0.00    -0.316 OA  
ATOM     24  C13 UNL     1       2.225  -0.424  -4.608  1.00  0.00     0.337 C   
ENDBRANCH  15  16
ENDBRANCH  12  15
ENDBRANCH   7  12
ENDBRANCH   1   7
BRANCH   3  25
ATOM     25  C16 UNL     1       3.943   1.097   1.306  1.00  0.00     0.175 C   
BRANCH  25  26
ATOM     26  C17 UNL     1       4.476   0.742  -0.050  1.00  0.00     0.043 A   
ATOM     27  C18 UNL     1       4.854  -0.567  -0.356  1.00  0.00     0.133 A   
ATOM     28  C22 UNL     1       4.592   1.708  -1.050  1.00  0.00     0.133 A   
ATOM     29  C19 UNL     1       5.350  -0.904  -1.611  1.00  0.00     0.079 A   
ATOM     30  C21 UNL     1       5.085   1.396  -2.312  1.00  0.00     0.079 A   
ATOM     31  C20 UNL     1       5.462   0.086  -2.578  1.00  0.00     0.129 A   
ATOM     32  F1  UNL     1       4.736  -1.524   0.572  1.00  0.00    -0.206 F   
ATOM     33  F3  UNL     1       4.208   2.968  -0.798  1.00  0.00    -0.206 F   
ATOM     34  F2  UNL     1       5.923  -0.228  -3.795  1.00  0.00    -0.207 F   
ENDBRANCH  25  26
ENDBRANCH   3  25
TORSDOF 7
