REMARK SMILES COc1cc(C)ccc1Cn1cc([C@@H]([NH2+]Cc2ccc3c(c2)OCO3)C2CCCCC2)nn1
REMARK SMILES IDX 11 1 12 2 13 3 32 4 33 5 10 7 9 8 3 9 4 10 5 11 8 12 7 13
REMARK SMILES IDX 6 14 2 15 1 16 14 17 15 18 16 21 17 22 18 23 22 24 19 25
REMARK SMILES IDX 21 26 20 27 23 28 25 29 24 30 26 31 27 32 31 33 28 34 30 35
REMARK SMILES IDX 29 36
REMARK H PARENT 12 6 15 19 15 20
ROOT
ATOM     1   N1  UNL     1      -0.218   1.701  -2.432  1.00  0.00    -0.208 N   
ATOM     2   C10 UNL     1       0.298   0.774  -1.566  1.00  0.00     0.046 A   
ATOM     3   C11 UNL     1       0.398   1.453  -0.373  1.00  0.00     0.127 A   
ATOM     4   N3  UNL     1       0.004   2.754  -0.559  1.00  0.00    -0.132 NA  
ATOM     5   N4  UNL     1      -0.354   2.898  -1.824  1.00  0.00    -0.076 NA  
ATOM     6   H12 UNL     1       0.500  -0.244  -1.867  1.00  0.00     0.083 HD  
ENDROOT
BRANCH   1   7
ATOM     7   C9  UNL     1      -0.564   1.535  -3.833  1.00  0.00     0.172 C   
BRANCH   7   8
ATOM     8   C8  UNL     1      -1.808   0.697  -3.991  1.00  0.00     0.002 A   
ATOM     9   C2  UNL     1      -1.736  -0.689  -4.221  1.00  0.00     0.080 A   
ATOM     10  C3  UNL     1      -2.915  -1.432  -4.348  1.00  0.00     0.037 A   
ATOM     11  C4  UNL     1      -4.170  -0.810  -4.263  1.00  0.00    -0.049 A   
ATOM     12  C7  UNL     1      -3.067   1.310  -3.883  1.00  0.00     0.008 A   
ATOM     13  C6  UNL     1      -4.237   0.562  -4.016  1.00  0.00     0.004 A   
ATOM     14  C5  UNL     1      -5.427  -1.623  -4.378  1.00  0.00     0.044 C   
BRANCH   9  15
ATOM     15  O1  UNL     1      -0.473  -1.220  -4.278  1.00  0.00    -0.349 OA  
ATOM     16  C1  UNL     1      -0.356  -2.552  -4.773  1.00  0.00     0.203 C   
ENDBRANCH   9  15
ENDBRANCH   7   8
ENDBRANCH   1   7
BRANCH   3  17
ATOM     17  C12 UNL     1       0.854   1.006   0.979  1.00  0.00     0.117 C   
BRANCH  17  18
ATOM     18  N2  UNL     1       1.345   2.188   1.780  1.00  0.00     0.249 N   
ATOM     19  H14 UNL     1       1.334   1.987   2.783  1.00  0.00     0.199 HD  
ATOM     20  H15 UNL     1       0.662   2.942   1.616  1.00  0.00     0.199 HD  
BRANCH  18  21
ATOM     21  C13 UNL     1       2.686   2.723   1.402  1.00  0.00     0.164 C   
BRANCH  21  22
ATOM     22  C14 UNL     1       3.808   1.791   1.768  1.00  0.00    -0.002 A   
ATOM     23  C15 UNL     1       4.535   1.118   0.756  1.00  0.00     0.012 A   
ATOM     24  C19 UNL     1       4.129   1.561   3.117  1.00  0.00     0.045 A   
ATOM     25  C16 UNL     1       5.561   0.223   1.080  1.00  0.00     0.037 A   
ATOM     26  C18 UNL     1       5.145   0.671   3.402  1.00  0.00     0.109 A   
ATOM     27  C17 UNL     1       5.840   0.021   2.413  1.00  0.00     0.108 A   
ATOM     28  O2  UNL     1       5.573   0.335   4.647  1.00  0.00    -0.316 OA  
ATOM     29  O3  UNL     1       6.795  -0.807   2.910  1.00  0.00    -0.316 OA  
ATOM     30  C20 UNL     1       6.642  -0.586   4.329  1.00  0.00     0.337 C   
ENDBRANCH  21  22
ENDBRANCH  18  21
ENDBRANCH  17  18
BRANCH  17  31
ATOM     31  C21 UNL     1      -0.267   0.258   1.751  1.00  0.00     0.043 C   
ATOM     32  C22 UNL     1       0.290  -0.497   2.975  1.00  0.00     0.010 C   
ATOM     33  C26 UNL     1      -1.447   1.157   2.172  1.00  0.00     0.010 C   
ATOM     34  C23 UNL     1      -0.801  -1.289   3.692  1.00  0.00     0.001 C   
ATOM     35  C25 UNL     1      -2.533   0.360   2.893  1.00  0.00     0.001 C   
ATOM     36  C24 UNL     1      -1.973  -0.399   4.091  1.00  0.00     0.000 C   
ENDBRANCH  17  31
ENDBRANCH   3  17
TORSDOF 8
