REMARK SMILES COc1cccc(C(=O)Cn2cc([C@@H]([NH2+]Cc3ccc4c(c3)OCO4)C(C)(C)C)nn2)c1
REMARK SMILES IDX 11 1 12 2 13 3 30 4 31 5 10 7 8 8 9 9 7 10 3 11 4 12 32 13
REMARK SMILES IDX 5 14 6 15 2 16 1 17 14 18 15 19 16 22 17 23 18 24 22 25
REMARK SMILES IDX 19 26 21 27 20 28 23 29 25 30 24 31 26 32 27 33 28 34 29 35
REMARK H PARENT 12 6 15 20 15 21
ROOT
ATOM     1   N1  UNL     1      -0.071   1.644  -0.024  1.00  0.00    -0.204 N   
ATOM     2   C9  UNL     1      -1.200   1.351   0.686  1.00  0.00     0.046 A   
ATOM     3   C10 UNL     1      -0.746   0.565   1.721  1.00  0.00     0.127 A   
ATOM     4   N3  UNL     1       0.616   0.429   1.618  1.00  0.00    -0.132 NA  
ATOM     5   N4  UNL     1       1.018   1.100   0.550  1.00  0.00    -0.076 NA  
ATOM     6   H9  UNL     1      -2.181   1.680   0.371  1.00  0.00     0.083 HD  
ENDROOT
BRANCH   1   7
ATOM     7   C8  UNL     1       0.041   2.396  -1.252  1.00  0.00     0.214 C   
BRANCH   7   8
ATOM     8   C7  UNL     1      -0.406   1.556  -2.420  1.00  0.00     0.182 C   
ATOM     9   O2  UNL     1      -1.596   1.282  -2.586  1.00  0.00    -0.292 OA  
BRANCH   8  10
ATOM     10  C6  UNL     1       0.606   1.053  -3.389  1.00  0.00     0.022 A   
ATOM     11  C2  UNL     1       2.846   0.323  -3.956  1.00  0.00     0.075 A   
ATOM     12  C3  UNL     1       2.427   0.107  -5.272  1.00  0.00     0.033 A   
ATOM     13  C24 UNL     1       1.932   0.795  -3.012  1.00  0.00     0.045 A   
ATOM     14  C4  UNL     1       1.106   0.345  -5.647  1.00  0.00     0.003 A   
ATOM     15  C5  UNL     1       0.193   0.813  -4.705  1.00  0.00     0.012 A   
BRANCH  11  16
ATOM     16  O1  UNL     1       4.157   0.017  -3.720  1.00  0.00    -0.349 OA  
ATOM     17  C1  UNL     1       4.650   0.216  -2.401  1.00  0.00     0.203 C   
ENDBRANCH  11  16
ENDBRANCH   8  10
ENDBRANCH   7   8
ENDBRANCH   1   7
BRANCH   3  18
ATOM     18  C11 UNL     1      -1.488  -0.172   2.792  1.00  0.00     0.120 C   
BRANCH  18  19
ATOM     19  N2  UNL     1      -0.844  -1.532   2.987  1.00  0.00     0.250 N   
ATOM     20  H11 UNL     1       0.155  -1.410   2.752  1.00  0.00     0.199 HD  
ATOM     21  H12 UNL     1      -0.863  -1.815   3.969  1.00  0.00     0.199 HD  
BRANCH  19  22
ATOM     22  C12 UNL     1      -1.385  -2.646   2.158  1.00  0.00     0.164 C   
BRANCH  22  23
ATOM     23  C13 UNL     1      -0.924  -2.618   0.728  1.00  0.00    -0.002 A   
ATOM     24  C14 UNL     1      -1.772  -2.134  -0.296  1.00  0.00     0.012 A   
ATOM     25  C18 UNL     1       0.371  -3.058   0.401  1.00  0.00     0.045 A   
ATOM     26  C15 UNL     1      -1.339  -2.089  -1.627  1.00  0.00     0.037 A   
ATOM     27  C17 UNL     1       0.761  -3.010  -0.921  1.00  0.00     0.109 A   
ATOM     28  C16 UNL     1      -0.069  -2.540  -1.907  1.00  0.00     0.108 A   
ATOM     29  O3  UNL     1       1.967  -3.412  -1.403  1.00  0.00    -0.316 OA  
ATOM     30  O4  UNL     1       0.508  -2.587  -3.135  1.00  0.00    -0.316 OA  
ATOM     31  C19 UNL     1       1.781  -3.189  -2.820  1.00  0.00     0.337 C   
ENDBRANCH  22  23
ENDBRANCH  19  22
ENDBRANCH  18  19
BRANCH  18  32
ATOM     32  C20 UNL     1      -1.573   0.597   4.158  1.00  0.00     0.010 C   
ATOM     33  C21 UNL     1      -2.493  -0.164   5.142  1.00  0.00     0.017 C   
ATOM     34  C22 UNL     1      -0.196   0.786   4.824  1.00  0.00     0.017 C   
ATOM     35  C23 UNL     1      -2.205   1.992   3.945  1.00  0.00     0.017 C   
ENDBRANCH  18  32
ENDBRANCH   3  18
TORSDOF 9
