REMARK SMILES Cc1ncccc1CCn1cc([C@@H]([NH2+]Cc2ccc3c(c2)OCO3)C2CCCC2)nn1
REMARK SMILES IDX 10 1 11 2 12 3 30 4 31 5 9 7 8 8 7 9 2 10 3 11 4 12 6 13
REMARK SMILES IDX 5 14 1 15 13 16 14 17 15 20 16 21 17 22 21 23 18 24 20 25
REMARK SMILES IDX 19 26 22 27 24 28 23 29 25 30 26 31 29 32 27 33 28 34
REMARK H PARENT 11 6 14 18 14 19
ROOT
ATOM     1   N2  UNL     1      -1.346   1.291   2.418  1.00  0.00    -0.212 N   
ATOM     2   C9  UNL     1      -1.649   1.467   1.097  1.00  0.00     0.045 A   
ATOM     3   C10 UNL     1      -1.573   0.199   0.569  1.00  0.00     0.127 A   
ATOM     4   N4  UNL     1      -1.299  -0.691   1.577  1.00  0.00    -0.132 NA  
ATOM     5   N5  UNL     1      -1.183  -0.012   2.707  1.00  0.00    -0.076 NA  
ATOM     6   H11 UNL     1      -1.801   2.444   0.662  1.00  0.00     0.083 HD  
ENDROOT
BRANCH   1   7
ATOM     7   C8  UNL     1      -1.034   2.314   3.396  1.00  0.00     0.139 C   
BRANCH   7   8
ATOM     8   C7  UNL     1       0.478   2.521   3.584  1.00  0.00     0.059 C   
BRANCH   8   9
ATOM     9   C6  UNL     1       1.206   2.768   2.279  1.00  0.00    -0.025 A   
ATOM     10  C2  UNL     1       2.022   1.803   1.669  1.00  0.00     0.040 A   
ATOM     11  N1  UNL     1       2.536   1.963   0.420  1.00  0.00    -0.261 NA  
ATOM     12  C3  UNL     1       2.348   3.154  -0.188  1.00  0.00     0.111 A   
ATOM     13  C5  UNL     1       1.017   3.980   1.601  1.00  0.00     0.007 A   
ATOM     14  C4  UNL     1       1.607   4.183   0.358  1.00  0.00     0.020 A   
ATOM     15  C1  UNL     1       2.417   0.527   2.360  1.00  0.00     0.067 C   
ENDBRANCH   8   9
ENDBRANCH   7   8
ENDBRANCH   1   7
BRANCH   3  16
ATOM     16  C11 UNL     1      -1.635  -0.265  -0.849  1.00  0.00     0.117 C   
BRANCH  16  17
ATOM     17  N3  UNL     1      -0.543  -1.266  -1.128  1.00  0.00     0.249 N   
ATOM     18  H13 UNL     1      -0.688  -1.724  -2.034  1.00  0.00     0.199 HD  
ATOM     19  H14 UNL     1      -0.607  -2.003  -0.412  1.00  0.00     0.199 HD  
BRANCH  17  20
ATOM     20  C12 UNL     1       0.849  -0.722  -1.077  1.00  0.00     0.164 C   
BRANCH  20  21
ATOM     21  C13 UNL     1       1.817  -1.723  -1.643  1.00  0.00    -0.002 A   
ATOM     22  C14 UNL     1       2.317  -2.773  -0.835  1.00  0.00     0.012 A   
ATOM     23  C18 UNL     1       2.191  -1.651  -2.997  1.00  0.00     0.045 A   
ATOM     24  C15 UNL     1       3.184  -3.735  -1.365  1.00  0.00     0.037 A   
ATOM     25  C17 UNL     1       3.050  -2.614  -3.487  1.00  0.00     0.109 A   
ATOM     26  C16 UNL     1       3.533  -3.625  -2.693  1.00  0.00     0.108 A   
ATOM     27  O1  UNL     1       3.511  -2.686  -4.764  1.00  0.00    -0.316 OA  
ATOM     28  O2  UNL     1       4.364  -4.460  -3.371  1.00  0.00    -0.316 OA  
ATOM     29  C19 UNL     1       4.359  -3.854  -4.681  1.00  0.00     0.337 C   
ENDBRANCH  20  21
ENDBRANCH  17  20
ENDBRANCH  16  17
BRANCH  16  30
ATOM     30  C20 UNL     1      -2.979  -0.892  -1.268  1.00  0.00     0.043 C   
ATOM     31  C21 UNL     1      -4.185   0.048  -1.142  1.00  0.00     0.010 C   
ATOM     32  C24 UNL     1      -3.403  -2.180  -0.535  1.00  0.00     0.010 C   
ATOM     33  C22 UNL     1      -5.368  -0.906  -1.168  1.00  0.00     0.001 C   
ATOM     34  C23 UNL     1      -4.904  -2.047  -0.277  1.00  0.00     0.001 C   
ENDBRANCH  16  30
ENDBRANCH   3  16
TORSDOF 8
