REMARK SMILES COc1cc(-n2cc([C@@H]([NH2+]Cc3ccc4c(c3)OCO4)C3CCCCC3)nn2)ccc1N
REMARK SMILES IDX 6 1 7 2 8 3 27 4 28 5 5 6 3 7 4 8 31 9 30 10 29 11 2 12 1 13
REMARK SMILES IDX 32 14 9 17 10 18 11 21 12 22 13 23 17 24 14 25 16 26 15 27
REMARK SMILES IDX 18 28 20 29 19 30 21 31 22 32 26 33 23 34 25 35 24 36
REMARK H PARENT 32 15 32 16 10 19 10 20
ROOT
ATOM     1   N1  UNL     1       2.153   0.149   1.214  1.00  0.00    -0.181 N   
ATOM     2   C5  UNL     1       1.174  -0.711   0.754  1.00  0.00     0.135 A   
ATOM     3   C6  UNL     1       0.591  -0.057  -0.310  1.00  0.00     0.127 A   
ATOM     4   N3  UNL     1       1.184   1.164  -0.461  1.00  0.00    -0.131 NA  
ATOM     5   N4  UNL     1       2.124   1.281   0.462  1.00  0.00    -0.071 NA  
ENDROOT
BRANCH   1   6
ATOM     6   C4  UNL     1       3.057  -0.019   2.292  1.00  0.00     0.060 A   
ATOM     7   C2  UNL     1       4.891   0.846   3.634  1.00  0.00     0.097 A   
ATOM     8   C3  UNL     1       3.994   0.992   2.570  1.00  0.00     0.061 A   
ATOM     9   C24 UNL     1       4.884  -0.335   4.404  1.00  0.00     0.054 A   
ATOM     10  C23 UNL     1       3.918  -1.310   4.150  1.00  0.00     0.028 A   
ATOM     11  C22 UNL     1       3.020  -1.169   3.089  1.00  0.00     0.028 A   
BRANCH   7  12
ATOM     12  O1  UNL     1       5.846   1.767   3.989  1.00  0.00    -0.347 OA  
ATOM     13  C1  UNL     1       5.744   3.064   3.416  1.00  0.00     0.203 C   
ENDBRANCH   7  12
BRANCH   9  14
ATOM     14  N5  UNL     1       5.688  -0.440   5.553  1.00  0.00    -0.356 N   
ATOM     15  H29 UNL     1       6.495   0.178   5.490  1.00  0.00     0.143 HD  
ATOM     16  H30 UNL     1       5.934  -1.388   5.816  1.00  0.00     0.143 HD  
ENDBRANCH   9  14
ENDBRANCH   1   6
BRANCH   3  17
ATOM     17  C7  UNL     1      -0.546  -0.446  -1.197  1.00  0.00     0.117 C   
BRANCH  17  18
ATOM     18  N2  UNL     1      -1.389   0.766  -1.545  1.00  0.00     0.249 N   
ATOM     19  H7  UNL     1      -2.043   0.533  -2.299  1.00  0.00     0.199 HD  
ATOM     20  H8  UNL     1      -0.744   1.479  -1.912  1.00  0.00     0.199 HD  
BRANCH  18  21
ATOM     21  C8  UNL     1      -2.142   1.405  -0.424  1.00  0.00     0.164 C   
BRANCH  21  22
ATOM     22  C9  UNL     1      -3.131   0.484   0.233  1.00  0.00    -0.002 A   
ATOM     23  C10 UNL     1      -2.916   0.044   1.562  1.00  0.00     0.012 A   
ATOM     24  C14 UNL     1      -4.262   0.033  -0.470  1.00  0.00     0.045 A   
ATOM     25  C11 UNL     1      -3.807  -0.838   2.182  1.00  0.00     0.037 A   
ATOM     26  C13 UNL     1      -5.119  -0.840   0.169  1.00  0.00     0.109 A   
ATOM     27  C12 UNL     1      -4.898  -1.263   1.457  1.00  0.00     0.108 A   
ATOM     28  O2  UNL     1      -6.247  -1.376  -0.368  1.00  0.00    -0.316 OA  
ATOM     29  O3  UNL     1      -5.861  -2.115   1.896  1.00  0.00    -0.316 OA  
ATOM     30  C15 UNL     1      -6.736  -2.158   0.748  1.00  0.00     0.337 C   
ENDBRANCH  21  22
ENDBRANCH  18  21
ENDBRANCH  17  18
BRANCH  17  31
ATOM     31  C16 UNL     1      -0.119  -1.136  -2.522  1.00  0.00     0.043 C   
ATOM     32  C17 UNL     1       0.775  -0.270  -3.433  1.00  0.00     0.010 C   
ATOM     33  C21 UNL     1       0.552  -2.500  -2.261  1.00  0.00     0.010 C   
ATOM     34  C18 UNL     1       1.123  -0.996  -4.733  1.00  0.00     0.001 C   
ATOM     35  C20 UNL     1       0.891  -3.219  -3.565  1.00  0.00     0.001 C   
ATOM     36  C19 UNL     1       1.763  -2.355  -4.469  1.00  0.00     0.000 C   
ENDBRANCH  17  31
ENDBRANCH   3  17
TORSDOF 8
