REMARK SMILES Cc1cc(Cn2cc([C@@H]([NH2+]Cc3ccc4c(c3)OCO4)C3CCCC3)nn2)c(C)nn1
REMARK SMILES IDX 6 1 7 2 8 3 26 4 27 5 5 7 4 8 2 9 3 10 31 11 30 12 28 13
REMARK SMILES IDX 1 14 29 15 9 16 10 17 11 20 12 21 13 22 17 23 14 24 16 25
REMARK SMILES IDX 15 26 18 27 20 28 19 29 21 30 22 31 25 32 23 33 24 34
REMARK H PARENT 7 6 10 18 10 19
ROOT
ATOM     1   N1  UNL     1       1.758   1.833   0.115  1.00  0.00    -0.208 N   
ATOM     2   C6  UNL     1       0.529   1.357   0.486  1.00  0.00     0.046 A   
ATOM     3   C7  UNL     1       0.794   0.091   0.958  1.00  0.00     0.127 A   
ATOM     4   N3  UNL     1       2.146  -0.132   0.918  1.00  0.00    -0.132 NA  
ATOM     5   N4  UNL     1       2.724   0.944   0.410  1.00  0.00    -0.076 NA  
ATOM     6   H7  UNL     1      -0.385   1.911   0.321  1.00  0.00     0.083 HD  
ENDROOT
BRANCH   1   7
ATOM     7   C5  UNL     1       2.062   3.038  -0.641  1.00  0.00     0.171 C   
BRANCH   7   8
ATOM     8   C4  UNL     1       1.533   2.918  -2.048  1.00  0.00    -0.004 A   
ATOM     9   C2  UNL     1      -0.216   3.347  -3.649  1.00  0.00     0.060 A   
ATOM     10  C3  UNL     1       0.319   3.534  -2.385  1.00  0.00     0.032 A   
ATOM     11  N6  UNL     1       0.398   2.558  -4.548  1.00  0.00    -0.156 NA  
ATOM     12  N5  UNL     1       1.593   1.969  -4.241  1.00  0.00    -0.155 NA  
ATOM     13  C22 UNL     1       2.166   2.159  -3.033  1.00  0.00     0.065 A   
ATOM     14  C1  UNL     1      -1.510   3.981  -4.049  1.00  0.00     0.069 C   
ATOM     15  C23 UNL     1       3.480   1.467  -2.835  1.00  0.00     0.069 C   
ENDBRANCH   7   8
ENDBRANCH   1   7
BRANCH   3  16
ATOM     16  C8  UNL     1      -0.127  -1.012   1.359  1.00  0.00     0.117 C   
BRANCH  16  17
ATOM     17  N2  UNL     1       0.245  -2.289   0.631  1.00  0.00     0.249 N   
ATOM     18  H9  UNL     1       1.219  -2.501   0.890  1.00  0.00     0.199 HD  
ATOM     19  H10 UNL     1      -0.334  -3.065   0.962  1.00  0.00     0.199 HD  
BRANCH  17  20
ATOM     20  C9  UNL     1       0.184  -2.252  -0.866  1.00  0.00     0.164 C   
BRANCH  20  21
ATOM     21  C10 UNL     1      -1.179  -1.905  -1.397  1.00  0.00    -0.002 A   
ATOM     22  C11 UNL     1      -2.262  -2.806  -1.249  1.00  0.00     0.012 A   
ATOM     23  C15 UNL     1      -1.395  -0.661  -2.018  1.00  0.00     0.045 A   
ATOM     24  C12 UNL     1      -3.543  -2.469  -1.700  1.00  0.00     0.037 A   
ATOM     25  C14 UNL     1      -2.671  -0.357  -2.441  1.00  0.00     0.109 A   
ATOM     26  C13 UNL     1      -3.714  -1.236  -2.289  1.00  0.00     0.108 A   
ATOM     27  O1  UNL     1      -3.055   0.807  -3.026  1.00  0.00    -0.316 OA  
ATOM     28  O2  UNL     1      -4.882  -0.743  -2.776  1.00  0.00    -0.316 OA  
ATOM     29  C16 UNL     1      -4.450   0.534  -3.292  1.00  0.00     0.337 C   
ENDBRANCH  20  21
ENDBRANCH  17  20
ENDBRANCH  16  17
BRANCH  16  30
ATOM     30  C17 UNL     1      -0.074  -1.284   2.876  1.00  0.00     0.043 C   
ATOM     31  C18 UNL     1      -0.547  -0.096   3.720  1.00  0.00     0.010 C   
ATOM     32  C21 UNL     1      -1.014  -2.398   3.352  1.00  0.00     0.010 C   
ATOM     33  C19 UNL     1      -0.782  -0.701   5.097  1.00  0.00     0.001 C   
ATOM     34  C20 UNL     1      -1.208  -2.145   4.846  1.00  0.00     0.001 C   
ENDBRANCH  16  30
ENDBRANCH   3  16
TORSDOF 7
