REMARK SMILES Cc1cnc(CCn2cc([C@@H]([NH2+]Cc3ccc4c(c3)OCO4)C(C)C)nn2)cn1
REMARK SMILES IDX 8 1 9 2 10 3 26 4 27 5 7 7 6 8 5 9 2 10 3 11 29 12 4 13
REMARK SMILES IDX 28 14 1 15 11 16 12 17 13 20 14 21 15 22 19 23 16 24 18 25
REMARK SMILES IDX 17 26 20 27 22 28 21 29 23 30 24 31 25 32
REMARK H PARENT 9 6 12 18 12 19
ROOT
ATOM     1   N2  UNL     1      -0.621  -2.996   1.713  1.00  0.00    -0.212 N   
ATOM     2   C7  UNL     1       0.510  -2.291   1.389  1.00  0.00     0.045 A   
ATOM     3   C8  UNL     1       0.236  -1.016   1.835  1.00  0.00     0.127 A   
ATOM     4   N4  UNL     1      -0.951  -1.026   2.523  1.00  0.00    -0.132 NA  
ATOM     5   N5  UNL     1      -1.453  -2.248   2.463  1.00  0.00    -0.076 NA  
ATOM     6   H9  UNL     1       1.283  -2.705   0.756  1.00  0.00     0.083 HD  
ENDROOT
BRANCH   1   7
ATOM     7   C6  UNL     1      -1.134  -4.166   1.018  1.00  0.00     0.140 C   
BRANCH   7   8
ATOM     8   C5  UNL     1      -2.192  -3.790  -0.033  1.00  0.00     0.079 C   
BRANCH   8   9
ATOM     9   C4  UNL     1      -1.682  -2.722  -0.969  1.00  0.00     0.060 A   
ATOM     10  C2  UNL     1      -0.518  -0.751  -2.408  1.00  0.00     0.056 A   
ATOM     11  C3  UNL     1      -0.248  -2.095  -2.648  1.00  0.00     0.134 A   
ATOM     12  N6  UNL     1      -1.336  -0.358  -1.393  1.00  0.00    -0.258 NA  
ATOM     13  N1  UNL     1      -0.785  -3.094  -1.909  1.00  0.00    -0.258 NA  
ATOM     14  C21 UNL     1      -1.972  -1.375  -0.748  1.00  0.00     0.135 A   
ATOM     15  C1  UNL     1       0.121   0.305  -3.255  1.00  0.00     0.068 C   
ENDBRANCH   8   9
ENDBRANCH   7   8
ENDBRANCH   1   7
BRANCH   3  16
ATOM     16  C9  UNL     1       0.896   0.290   1.521  1.00  0.00     0.117 C   
BRANCH  16  17
ATOM     17  N3  UNL     1      -0.171   1.207   0.978  1.00  0.00     0.249 N   
ATOM     18  H11 UNL     1      -0.585   0.746   0.142  1.00  0.00     0.199 HD  
ATOM     19  H12 UNL     1      -0.951   1.214   1.649  1.00  0.00     0.199 HD  
BRANCH  17  20
ATOM     20  C10 UNL     1       0.194   2.588   0.592  1.00  0.00     0.164 C   
BRANCH  20  21
ATOM     21  C11 UNL     1      -0.996   3.339   0.062  1.00  0.00    -0.002 A   
ATOM     22  C12 UNL     1      -2.019   3.769   0.943  1.00  0.00     0.012 A   
ATOM     23  C16 UNL     1      -1.116   3.600  -1.312  1.00  0.00     0.045 A   
ATOM     24  C13 UNL     1      -3.146   4.443   0.463  1.00  0.00     0.037 A   
ATOM     25  C15 UNL     1      -2.241   4.264  -1.754  1.00  0.00     0.109 A   
ATOM     26  C14 UNL     1      -3.228   4.673  -0.893  1.00  0.00     0.108 A   
ATOM     27  O1  UNL     1      -2.510   4.589  -3.046  1.00  0.00    -0.316 OA  
ATOM     28  O2  UNL     1      -4.245   5.308  -1.532  1.00  0.00    -0.316 OA  
ATOM     29  C17 UNL     1      -3.781   5.263  -2.899  1.00  0.00     0.337 C   
ENDBRANCH  20  21
ENDBRANCH  17  20
ENDBRANCH  16  17
BRANCH  16  30
ATOM     30  C18 UNL     1       1.653   0.913   2.721  1.00  0.00     0.037 C   
ATOM     31  C19 UNL     1       0.768   1.290   3.913  1.00  0.00     0.014 C   
ATOM     32  C20 UNL     1       2.791  -0.001   3.195  1.00  0.00     0.014 C   
ENDBRANCH  16  30
ENDBRANCH   3  16
TORSDOF 8
