REMARK SMILES c1cc(Cn2cc([C@@H]([NH2+]Cc3ccc4c(c3)OCO4)C3CCCC3)nn2)ccn1
REMARK SMILES IDX 8 1 7 2 5 3 6 4 26 5 25 6 4 8 3 9 1 10 2 11 29 12 28 13
REMARK SMILES IDX 27 14 9 15 10 18 11 19 12 20 16 21 13 22 15 23 14 24 17 25
REMARK SMILES IDX 19 26 18 27 20 28 21 29 24 30 22 31 23 32
REMARK H PARENT 6 7 9 16 9 17
ROOT
ATOM     1   C7  UNL     1       0.577  -1.248  -0.734  1.00  0.00     0.117 C   
ENDROOT
BRANCH   1   2
ATOM     2   C6  UNL     1       0.794   0.029  -1.478  1.00  0.00     0.127 A   
ATOM     3   N1  UNL     1       1.085   2.072  -2.124  1.00  0.00    -0.208 N   
ATOM     4   C5  UNL     1       1.234   1.257  -1.036  1.00  0.00     0.046 A   
ATOM     5   N4  UNL     1       0.619   1.379  -3.181  1.00  0.00    -0.076 NA  
ATOM     6   N3  UNL     1       0.450   0.122  -2.800  1.00  0.00    -0.132 NA  
ATOM     7   H5  UNL     1       1.569   1.624  -0.076  1.00  0.00     0.083 HD  
BRANCH   3   8
ATOM     8   C4  UNL     1       1.250   3.515  -2.188  1.00  0.00     0.169 C   
BRANCH   8   9
ATOM     9   C3  UNL     1       0.133   4.197  -1.439  1.00  0.00    -0.026 A   
ATOM     10  C1  UNL     1      -2.158   4.874  -1.256  1.00  0.00     0.111 A   
ATOM     11  C2  UNL     1      -1.141   4.309  -2.008  1.00  0.00     0.025 A   
ATOM     12  N5  UNL     1      -1.992   5.315   0.008  1.00  0.00    -0.265 NA  
ATOM     13  C22 UNL     1      -0.752   5.229   0.532  1.00  0.00     0.111 A   
ATOM     14  C21 UNL     1       0.328   4.682  -0.141  1.00  0.00     0.025 A   
ENDBRANCH   8   9
ENDBRANCH   3   8
ENDBRANCH   1   2
BRANCH   1  15
ATOM     15  N2  UNL     1      -0.733  -1.895  -1.135  1.00  0.00     0.249 N   
ATOM     16  H7  UNL     1      -0.863  -2.767  -0.616  1.00  0.00     0.199 HD  
ATOM     17  H8  UNL     1      -0.652  -2.138  -2.131  1.00  0.00     0.199 HD  
BRANCH  15  18
ATOM     18  C8  UNL     1      -1.974  -1.068  -0.990  1.00  0.00     0.164 C   
BRANCH  18  19
ATOM     19  C9  UNL     1      -2.164  -0.475   0.378  1.00  0.00    -0.002 A   
ATOM     20  C10 UNL     1      -2.146   0.931   0.546  1.00  0.00     0.012 A   
ATOM     21  C14 UNL     1      -2.351  -1.301   1.500  1.00  0.00     0.045 A   
ATOM     22  C11 UNL     1      -2.298   1.511   1.810  1.00  0.00     0.037 A   
ATOM     23  C13 UNL     1      -2.496  -0.697   2.732  1.00  0.00     0.109 A   
ATOM     24  C12 UNL     1      -2.469   0.668   2.884  1.00  0.00     0.108 A   
ATOM     25  O1  UNL     1      -2.675  -1.347   3.912  1.00  0.00    -0.316 OA  
ATOM     26  O2  UNL     1      -2.629   1.048   4.178  1.00  0.00    -0.316 OA  
ATOM     27  C15 UNL     1      -2.807  -0.231   4.822  1.00  0.00     0.337 C   
ENDBRANCH  18  19
ENDBRANCH  15  18
ENDBRANCH   1  15
BRANCH   1  28
ATOM     28  C16 UNL     1       1.715  -2.259  -0.985  1.00  0.00     0.043 C   
ATOM     29  C17 UNL     1       1.562  -3.585  -0.235  1.00  0.00     0.010 C   
ATOM     30  C20 UNL     1       3.084  -1.763  -0.496  1.00  0.00     0.010 C   
ATOM     31  C18 UNL     1       2.951  -4.197  -0.323  1.00  0.00     0.001 C   
ATOM     32  C19 UNL     1       3.910  -3.018  -0.210  1.00  0.00     0.001 C   
ENDBRANCH   1  28
TORSDOF 7
