REMARK SMILES CC(C)C[C@H]([NH2+]Cc1ccc2c(c1)OCO2)c1cn(C[C@H](O)c2ccccc2)nn1
REMARK SMILES IDX 17 1 18 2 19 3 29 4 30 5 5 7 4 8 2 9 1 10 3 11 6 12 7 15
REMARK SMILES IDX 8 16 9 17 13 18 10 19 12 20 11 21 14 22 16 23 15 24 20 25
REMARK SMILES IDX 21 26 22 27 23 29 24 30 28 31 25 32 27 33 26 34
REMARK H PARENT 18 6 6 13 6 14 22 28
ROOT
ATOM     1   C14 UNL     1      -0.483   1.137  -0.992  1.00  0.00     0.127 A   
ATOM     2   C15 UNL     1       0.477   0.197  -1.291  1.00  0.00     0.045 A   
ATOM     3   N2  UNL     1       1.600   0.936  -1.531  1.00  0.00    -0.209 N   
ATOM     4   N3  UNL     1       1.337   2.254  -1.430  1.00  0.00    -0.076 NA  
ATOM     5   N4  UNL     1       0.063   2.390  -1.101  1.00  0.00    -0.132 NA  
ATOM     6   H20 UNL     1       0.479  -0.885  -1.323  1.00  0.00     0.083 HD  
ENDROOT
BRANCH   1   7
ATOM     7   C5  UNL     1      -1.898   0.990  -0.544  1.00  0.00     0.114 C   
BRANCH   7   8
ATOM     8   C4  UNL     1      -2.864   1.076  -1.743  1.00  0.00     0.064 C   
BRANCH   8   9
ATOM     9   C2  UNL     1      -4.363   0.880  -1.432  1.00  0.00    -0.012 C   
ATOM     10  C1  UNL     1      -4.651  -0.445  -0.726  1.00  0.00     0.007 C   
ATOM     11  C3  UNL     1      -5.171   0.959  -2.731  1.00  0.00     0.007 C   
ENDBRANCH   8   9
ENDBRANCH   7   8
BRANCH   7  12
ATOM     12  N1  UNL     1      -2.246   2.076   0.448  1.00  0.00     0.249 N   
ATOM     13  H11 UNL     1      -2.001   2.966  -0.008  1.00  0.00     0.199 HD  
ATOM     14  H12 UNL     1      -3.251   2.090   0.636  1.00  0.00     0.199 HD  
BRANCH  12  15
ATOM     15  C6  UNL     1      -1.518   2.039   1.753  1.00  0.00     0.164 C   
BRANCH  15  16
ATOM     16  C7  UNL     1      -1.895   0.851   2.594  1.00  0.00    -0.002 A   
ATOM     17  C8  UNL     1      -3.118   0.830   3.306  1.00  0.00     0.012 A   
ATOM     18  C12 UNL     1      -1.047  -0.268   2.644  1.00  0.00     0.045 A   
ATOM     19  C9  UNL     1      -3.491  -0.290   4.057  1.00  0.00     0.037 A   
ATOM     20  C11 UNL     1      -1.444  -1.356   3.392  1.00  0.00     0.109 A   
ATOM     21  C10 UNL     1      -2.632  -1.367   4.078  1.00  0.00     0.108 A   
ATOM     22  O1  UNL     1      -0.746  -2.512   3.539  1.00  0.00    -0.316 OA  
ATOM     23  O2  UNL     1      -2.832  -2.532   4.747  1.00  0.00    -0.316 OA  
ATOM     24  C13 UNL     1      -1.622  -3.249   4.422  1.00  0.00     0.337 C   
ENDBRANCH  15  16
ENDBRANCH  12  15
ENDBRANCH   7  12
ENDBRANCH   1   7
BRANCH   3  25
ATOM     25  C16 UNL     1       2.929   0.483  -1.884  1.00  0.00     0.170 C   
BRANCH  25  26
ATOM     26  C17 UNL     1       3.591  -0.429  -0.840  1.00  0.00     0.164 C   
BRANCH  26  27
ATOM     27  O3  UNL     1       3.018  -1.739  -0.931  1.00  0.00    -0.387 OA  
ATOM     28  H24 UNL     1       3.621  -2.336  -0.449  1.00  0.00     0.211 HD  
ENDBRANCH  26  27
BRANCH  26  29
ATOM     29  C18 UNL     1       3.550   0.099   0.583  1.00  0.00    -0.018 A   
ATOM     30  C19 UNL     1       2.871  -0.575   1.611  1.00  0.00     0.006 A   
ATOM     31  C23 UNL     1       4.214   1.296   0.899  1.00  0.00     0.006 A   
ATOM     32  C20 UNL     1       2.858  -0.069   2.913  1.00  0.00     0.000 A   
ATOM     33  C22 UNL     1       4.193   1.804   2.199  1.00  0.00     0.000 A   
ATOM     34  C21 UNL     1       3.516   1.122   3.205  1.00  0.00     0.000 A   
ENDBRANCH  26  29
ENDBRANCH  25  26
ENDBRANCH   3  25
TORSDOF 10
