REMARK SMILES CC(C)C[C@H]([NH2+]Cc1ccc2c(c1)OCO2)c1cn(C[C@@H](O)c2ccccc2)nn1
REMARK SMILES IDX 17 1 18 2 19 3 29 4 30 5 5 7 4 8 2 9 1 10 3 11 6 12 7 15
REMARK SMILES IDX 8 16 9 17 13 18 10 19 12 20 11 21 14 22 16 23 15 24 20 25
REMARK SMILES IDX 21 26 22 27 23 29 24 30 28 31 25 32 27 33 26 34
REMARK H PARENT 18 6 6 13 6 14 22 28
ROOT
ATOM     1   C14 UNL     1      -1.317   0.649   0.290  1.00  0.00     0.127 A   
ATOM     2   C15 UNL     1      -0.244   1.461   0.002  1.00  0.00     0.045 A   
ATOM     3   N2  UNL     1      -0.775   2.438  -0.793  1.00  0.00    -0.209 N   
ATOM     4   N3  UNL     1      -2.104   2.283  -0.922  1.00  0.00    -0.076 NA  
ATOM     5   N4  UNL     1      -2.448   1.182  -0.274  1.00  0.00    -0.132 NA  
ATOM     6   H20 UNL     1       0.810   1.414   0.239  1.00  0.00     0.083 HD  
ENDROOT
BRANCH   1   7
ATOM     7   C5  UNL     1      -1.413  -0.607   1.089  1.00  0.00     0.114 C   
BRANCH   7   8
ATOM     8   C4  UNL     1      -1.414  -1.869   0.202  1.00  0.00     0.064 C   
BRANCH   8   9
ATOM     9   C2  UNL     1      -0.122  -2.096  -0.613  1.00  0.00    -0.012 C   
ATOM     10  C1  UNL     1       1.104  -2.289   0.280  1.00  0.00     0.007 C   
ATOM     11  C3  UNL     1      -0.292  -3.313  -1.526  1.00  0.00     0.007 C   
ENDBRANCH   8   9
ENDBRANCH   7   8
BRANCH   7  12
ATOM     12  N1  UNL     1      -2.709  -0.622   1.875  1.00  0.00     0.249 N   
ATOM     13  H11 UNL     1      -2.891  -1.563   2.240  1.00  0.00     0.199 HD  
ATOM     14  H12 UNL     1      -3.457  -0.408   1.200  1.00  0.00     0.199 HD  
BRANCH  12  15
ATOM     15  C6  UNL     1      -2.819   0.368   2.988  1.00  0.00     0.164 C   
BRANCH  15  16
ATOM     16  C7  UNL     1      -1.820   0.128   4.087  1.00  0.00    -0.002 A   
ATOM     17  C8  UNL     1      -0.728   1.012   4.262  1.00  0.00     0.012 A   
ATOM     18  C12 UNL     1      -1.941  -0.996   4.924  1.00  0.00     0.045 A   
ATOM     19  C9  UNL     1       0.237   0.778   5.248  1.00  0.00     0.037 A   
ATOM     20  C11 UNL     1      -0.970  -1.198   5.884  1.00  0.00     0.109 A   
ATOM     21  C10 UNL     1       0.089  -0.337   6.041  1.00  0.00     0.108 A   
ATOM     22  O1  UNL     1      -0.929  -2.236   6.760  1.00  0.00    -0.316 OA  
ATOM     23  O2  UNL     1       0.929  -0.724   7.036  1.00  0.00    -0.316 OA  
ATOM     24  C13 UNL     1       0.265  -1.915   7.510  1.00  0.00     0.337 C   
ENDBRANCH  15  16
ENDBRANCH  12  15
ENDBRANCH   7  12
ENDBRANCH   1   7
BRANCH   3  25
ATOM     25  C16 UNL     1      -0.086   3.522  -1.454  1.00  0.00     0.170 C   
BRANCH  25  26
ATOM     26  C17 UNL     1       0.161   3.253  -2.942  1.00  0.00     0.164 C   
BRANCH  26  27
ATOM     27  O3  UNL     1       0.809   4.394  -3.510  1.00  0.00    -0.387 OA  
ATOM     28  H24 UNL     1       1.225   4.109  -4.345  1.00  0.00     0.211 HD  
ENDBRANCH  26  27
BRANCH  26  29
ATOM     29  C18 UNL     1       1.010   2.022  -3.195  1.00  0.00    -0.018 A   
ATOM     30  C19 UNL     1       0.439   0.881  -3.776  1.00  0.00     0.006 A   
ATOM     31  C23 UNL     1       2.367   1.992  -2.839  1.00  0.00     0.006 A   
ATOM     32  C20 UNL     1       1.206  -0.265  -3.993  1.00  0.00     0.000 A   
ATOM     33  C22 UNL     1       3.131   0.844  -3.053  1.00  0.00     0.000 A   
ATOM     34  C21 UNL     1       2.550  -0.284  -3.629  1.00  0.00     0.000 A   
ENDBRANCH  26  29
ENDBRANCH  25  26
ENDBRANCH   3  25
TORSDOF 10
