REMARK SMILES Fc1ccccc1Cn1cc([C@@H]([NH2+]Cc2ccc3c(c2)OCO3)C2CCCC2)nn1
REMARK SMILES IDX 9 1 10 2 11 3 29 4 30 5 8 7 7 8 2 9 3 10 4 11 6 12 5 13 1 14
REMARK SMILES IDX 12 15 13 16 14 19 15 20 16 21 20 22 17 23 19 24 18 25 21 26
REMARK SMILES IDX 23 27 22 28 24 29 25 30 28 31 26 32 27 33
REMARK H PARENT 10 6 13 17 13 18
ROOT
ATOM     1   N1  UNL     1      -3.142   0.272   0.862  1.00  0.00    -0.208 N   
ATOM     2   C8  UNL     1      -1.965  -0.301   0.464  1.00  0.00     0.046 A   
ATOM     3   C9  UNL     1      -1.024   0.258   1.300  1.00  0.00     0.127 A   
ATOM     4   N3  UNL     1      -1.641   1.142   2.147  1.00  0.00    -0.132 NA  
ATOM     5   N4  UNL     1      -2.935   1.142   1.871  1.00  0.00    -0.076 NA  
ATOM     6   H7  UNL     1      -1.915  -1.015  -0.347  1.00  0.00     0.083 HD  
ENDROOT
BRANCH   1   7
ATOM     7   C7  UNL     1      -4.479   0.030   0.347  1.00  0.00     0.172 C   
BRANCH   7   8
ATOM     8   C6  UNL     1      -4.864   1.054  -0.683  1.00  0.00     0.007 A   
ATOM     9   C1  UNL     1      -4.340   0.984  -1.978  1.00  0.00     0.128 A   
ATOM     10  C2  UNL     1      -4.682   1.916  -2.952  1.00  0.00     0.039 A   
ATOM     11  C3  UNL     1      -5.564   2.948  -2.635  1.00  0.00     0.003 A   
ATOM     12  C5  UNL     1      -5.743   2.102  -0.371  1.00  0.00     0.008 A   
ATOM     13  C4  UNL     1      -6.092   3.042  -1.345  1.00  0.00     0.001 A   
ATOM     14  F1  UNL     1      -3.481   0.003  -2.293  1.00  0.00    -0.207 F   
ENDBRANCH   7   8
ENDBRANCH   1   7
BRANCH   3  15
ATOM     15  C10 UNL     1       0.458   0.095   1.363  1.00  0.00     0.117 C   
BRANCH  15  16
ATOM     16  N2  UNL     1       1.103   1.445   1.608  1.00  0.00     0.249 N   
ATOM     17  H9  UNL     1       2.076   1.337   1.905  1.00  0.00     0.199 HD  
ATOM     18  H10 UNL     1       0.588   1.866   2.396  1.00  0.00     0.199 HD  
BRANCH  16  19
ATOM     19  C11 UNL     1       1.045   2.415   0.473  1.00  0.00     0.164 C   
BRANCH  19  20
ATOM     20  C12 UNL     1       1.858   1.974  -0.713  1.00  0.00    -0.002 A   
ATOM     21  C13 UNL     1       3.272   1.958  -0.650  1.00  0.00     0.012 A   
ATOM     22  C17 UNL     1       1.213   1.546  -1.887  1.00  0.00     0.045 A   
ATOM     23  C14 UNL     1       4.035   1.508  -1.735  1.00  0.00     0.037 A   
ATOM     24  C16 UNL     1       1.995   1.114  -2.938  1.00  0.00     0.109 A   
ATOM     25  C15 UNL     1       3.365   1.091  -2.863  1.00  0.00     0.108 A   
ATOM     26  O1  UNL     1       1.534   0.671  -4.137  1.00  0.00    -0.316 OA  
ATOM     27  O2  UNL     1       3.940   0.626  -4.002  1.00  0.00    -0.316 OA  
ATOM     28  C18 UNL     1       2.776   0.400  -4.824  1.00  0.00     0.337 C   
ENDBRANCH  19  20
ENDBRANCH  16  19
ENDBRANCH  15  16
BRANCH  15  29
ATOM     29  C19 UNL     1       0.890  -0.856   2.498  1.00  0.00     0.043 C   
ATOM     30  C20 UNL     1       2.410  -1.083   2.584  1.00  0.00     0.010 C   
ATOM     31  C23 UNL     1       0.331  -2.277   2.360  1.00  0.00     0.010 C   
ATOM     32  C21 UNL     1       2.611  -2.535   3.024  1.00  0.00     0.001 C   
ATOM     33  C22 UNL     1       1.218  -3.080   3.297  1.00  0.00     0.001 C   
ENDBRANCH  15  29
ENDBRANCH   3  15
TORSDOF 7
