REMARK SMILES CC(C)(C)[C@H]([NH2+]Cc1ccc2c(c1)OCO2)c1cn(CCc2cccnc2Cl)nn1
REMARK SMILES IDX 17 1 18 2 19 3 29 4 30 5 5 7 2 8 1 9 3 10 4 11 6 12 7 15
REMARK SMILES IDX 8 16 9 17 13 18 10 19 12 20 11 21 14 22 16 23 15 24 20 25
REMARK SMILES IDX 21 26 22 27 23 28 27 29 24 30 26 31 25 32 28 33
REMARK H PARENT 18 6 6 13 6 14
ROOT
ATOM     1   C14 UNL     1       0.433   1.304  -1.362  1.00  0.00     0.127 A   
ATOM     2   C15 UNL     1       1.546   0.492  -1.382  1.00  0.00     0.045 A   
ATOM     3   N2  UNL     1       2.586   1.363  -1.542  1.00  0.00    -0.212 N   
ATOM     4   N4  UNL     1       2.147   2.631  -1.622  1.00  0.00    -0.076 NA  
ATOM     5   N5  UNL     1       0.829   2.610  -1.510  1.00  0.00    -0.132 NA  
ATOM     6   H20 UNL     1       1.689  -0.575  -1.279  1.00  0.00     0.083 HD  
ENDROOT
BRANCH   1   7
ATOM     7   C5  UNL     1      -1.017   0.992  -1.140  1.00  0.00     0.120 C   
BRANCH   7   8
ATOM     8   C2  UNL     1      -1.832   0.750  -2.459  1.00  0.00     0.010 C   
ATOM     9   C1  UNL     1      -3.266   0.277  -2.123  1.00  0.00     0.017 C   
ATOM     10  C3  UNL     1      -1.177  -0.374  -3.294  1.00  0.00     0.017 C   
ATOM     11  C4  UNL     1      -1.930   2.012  -3.339  1.00  0.00     0.017 C   
ENDBRANCH   7   8
BRANCH   7  12
ATOM     12  N1  UNL     1      -1.638   2.121  -0.340  1.00  0.00     0.250 N   
ATOM     13  H11 UNL     1      -1.264   2.993  -0.744  1.00  0.00     0.199 HD  
ATOM     14  H12 UNL     1      -2.652   2.154  -0.455  1.00  0.00     0.199 HD  
BRANCH  12  15
ATOM     15  C6  UNL     1      -1.319   2.145   1.119  1.00  0.00     0.164 C   
BRANCH  15  16
ATOM     16  C7  UNL     1      -1.926   0.992   1.871  1.00  0.00    -0.002 A   
ATOM     17  C8  UNL     1      -1.092   0.014   2.465  1.00  0.00     0.012 A   
ATOM     18  C12 UNL     1      -3.322   0.864   1.976  1.00  0.00     0.045 A   
ATOM     19  C9  UNL     1      -1.637  -1.083   3.141  1.00  0.00     0.037 A   
ATOM     20  C11 UNL     1      -3.826  -0.231   2.647  1.00  0.00     0.109 A   
ATOM     21  C10 UNL     1      -3.008  -1.178   3.212  1.00  0.00     0.108 A   
ATOM     22  O1  UNL     1      -5.144  -0.507   2.829  1.00  0.00    -0.316 OA  
ATOM     23  O2  UNL     1      -3.708  -2.170   3.822  1.00  0.00    -0.316 OA  
ATOM     24  C13 UNL     1      -5.064  -1.724   3.607  1.00  0.00     0.337 C   
ENDBRANCH  15  16
ENDBRANCH  12  15
ENDBRANCH   7  12
ENDBRANCH   1   7
BRANCH   3  25
ATOM     25  C16 UNL     1       4.003   1.069  -1.584  1.00  0.00     0.139 C   
BRANCH  25  26
ATOM     26  C17 UNL     1       4.702   1.244  -0.230  1.00  0.00     0.060 C   
BRANCH  26  27
ATOM     27  C18 UNL     1       4.228   0.255   0.808  1.00  0.00    -0.009 A   
ATOM     28  C19 UNL     1       4.711  -1.060   0.785  1.00  0.00     0.008 A   
ATOM     29  C22 UNL     1       3.278   0.553   1.784  1.00  0.00     0.132 A   
ATOM     30  C20 UNL     1       4.235  -1.994   1.701  1.00  0.00     0.020 A   
ATOM     31  N3  UNL     1       2.764  -0.343   2.655  1.00  0.00    -0.244 NA  
ATOM     32  C21 UNL     1       3.269  -1.593   2.607  1.00  0.00     0.113 A   
ATOM     33  CL1 UNL     1       2.584   2.115   1.978  1.00  0.00    -0.062 Cl  
ENDBRANCH  26  27
ENDBRANCH  25  26
ENDBRANCH   3  25
TORSDOF 8
