REMARK SMILES CC(C)C[C@H]([NH2+]Cc1ccc2c(c1)OCO2)c1cn(-c2cccc(N(C)C)c2)nn1
REMARK SMILES IDX 17 1 18 2 19 3 29 4 30 5 5 6 4 7 2 8 1 9 3 10 6 11 7 14 8 15
REMARK SMILES IDX 9 16 13 17 10 18 12 19 11 20 14 21 16 22 15 23 20 24 21 25
REMARK SMILES IDX 28 26 22 27 24 28 23 29 25 30 26 31 27 32
REMARK H PARENT 6 12 6 13
ROOT
ATOM     1   C14 UNL     1       0.643  -1.059  -1.579  1.00  0.00     0.127 A   
ATOM     2   C15 UNL     1      -0.520  -0.745  -0.913  1.00  0.00     0.135 A   
ATOM     3   N2  UNL     1      -1.259  -1.914  -0.907  1.00  0.00    -0.181 N   
ATOM     4   N4  UNL     1      -0.540  -2.883  -1.533  1.00  0.00    -0.071 NA  
ATOM     5   N5  UNL     1       0.608  -2.373  -1.947  1.00  0.00    -0.131 NA  
ENDROOT
BRANCH   1   6
ATOM     6   C5  UNL     1       1.858  -0.245  -1.873  1.00  0.00     0.114 C   
BRANCH   6   7
ATOM     7   C4  UNL     1       1.907   0.239  -3.336  1.00  0.00     0.064 C   
BRANCH   7   8
ATOM     8   C2  UNL     1       0.765   1.191  -3.754  1.00  0.00    -0.012 C   
ATOM     9   C1  UNL     1       0.910   1.547  -5.237  1.00  0.00     0.007 C   
ATOM     10  C3  UNL     1       0.736   2.472  -2.919  1.00  0.00     0.007 C   
ENDBRANCH   7   8
ENDBRANCH   6   7
BRANCH   6  11
ATOM     11  N1  UNL     1       3.108  -1.075  -1.649  1.00  0.00     0.249 N   
ATOM     12  H11 UNL     1       2.990  -1.934  -2.205  1.00  0.00     0.199 HD  
ATOM     13  H12 UNL     1       3.925  -0.583  -2.020  1.00  0.00     0.199 HD  
BRANCH  11  14
ATOM     14  C6  UNL     1       3.389  -1.493  -0.242  1.00  0.00     0.164 C   
BRANCH  14  15
ATOM     15  C7  UNL     1       3.679  -0.331   0.666  1.00  0.00    -0.002 A   
ATOM     16  C8  UNL     1       4.919   0.348   0.589  1.00  0.00     0.012 A   
ATOM     17  C12 UNL     1       2.705   0.111   1.578  1.00  0.00     0.045 A   
ATOM     18  C9  UNL     1       5.184   1.456   1.402  1.00  0.00     0.037 A   
ATOM     19  C11 UNL     1       2.997   1.207   2.362  1.00  0.00     0.109 A   
ATOM     20  C10 UNL     1       4.200   1.862   2.277  1.00  0.00     0.108 A   
ATOM     21  O1  UNL     1       2.165   1.765   3.280  1.00  0.00    -0.316 OA  
ATOM     22  O2  UNL     1       4.280   2.912   3.134  1.00  0.00    -0.316 OA  
ATOM     23  C13 UNL     1       2.998   2.830   3.793  1.00  0.00     0.337 C   
ENDBRANCH  14  15
ENDBRANCH  11  14
ENDBRANCH   6  11
ENDBRANCH   1   6
BRANCH   3  24
ATOM     24  C16 UNL     1      -2.534  -2.165  -0.347  1.00  0.00     0.059 A   
ATOM     25  C17 UNL     1      -3.102  -3.437  -0.466  1.00  0.00     0.026 A   
ATOM     26  C23 UNL     1      -3.230  -1.157   0.340  1.00  0.00     0.049 A   
ATOM     27  C18 UNL     1      -4.345  -3.694   0.108  1.00  0.00     0.004 A   
ATOM     28  C20 UNL     1      -4.489  -1.397   0.922  1.00  0.00     0.030 A   
ATOM     29  C19 UNL     1      -5.025  -2.686   0.798  1.00  0.00     0.023 A   
BRANCH  28  30
ATOM     30  N3  UNL     1      -5.127  -0.352   1.615  1.00  0.00    -0.337 N   
ATOM     31  C21 UNL     1      -5.521   0.759   0.740  1.00  0.00     0.129 C   
ATOM     32  C22 UNL     1      -6.154  -0.723   2.594  1.00  0.00     0.129 C   
ENDBRANCH  28  30
ENDBRANCH   3  24
TORSDOF 8
