REMARK SMILES COc1ncc(Cn2cc([C@@H]([NH2+]Cc3ccc4c(c3)OCO4)C3CCCCC3)nn2)cc1C
REMARK SMILES IDX 8 1 9 2 10 3 29 4 30 5 7 7 6 8 3 9 4 10 32 11 5 12 31 13
REMARK SMILES IDX 33 14 2 15 1 16 11 17 12 18 13 21 14 22 15 23 19 24 16 25
REMARK SMILES IDX 18 26 17 27 20 28 22 29 21 30 23 31 24 32 28 33 25 34 27 35
REMARK SMILES IDX 26 36
REMARK H PARENT 9 6 12 19 12 20
ROOT
ATOM     1   N2  UNL     1      -2.094   2.126   0.940  1.00  0.00    -0.208 N   
ATOM     2   C6  UNL     1      -1.482   1.748  -0.224  1.00  0.00     0.046 A   
ATOM     3   C7  UNL     1      -2.250   0.698  -0.678  1.00  0.00     0.127 A   
ATOM     4   N4  UNL     1      -3.278   0.480   0.203  1.00  0.00    -0.132 NA  
ATOM     5   N5  UNL     1      -3.173   1.359   1.186  1.00  0.00    -0.076 NA  
ATOM     6   H7  UNL     1      -0.584   2.226  -0.592  1.00  0.00     0.083 HD  
ENDROOT
BRANCH   1   7
ATOM     7   C5  UNL     1      -1.685   3.156   1.880  1.00  0.00     0.171 C   
BRANCH   7   8
ATOM     8   C4  UNL     1      -0.645   2.622   2.823  1.00  0.00    -0.010 A   
ATOM     9   C2  UNL     1       1.320   1.615   4.455  1.00  0.00     0.169 A   
ATOM     10  N1  UNL     1       1.692   2.330   3.369  1.00  0.00    -0.232 NA  
ATOM     11  C24 UNL     1      -0.006   1.346   4.783  1.00  0.00    -0.001 A   
ATOM     12  C3  UNL     1       0.709   2.825   2.591  1.00  0.00     0.119 A   
ATOM     13  C23 UNL     1      -0.998   1.863   3.943  1.00  0.00     0.014 A   
ATOM     14  C25 UNL     1      -0.363   0.540   5.995  1.00  0.00     0.049 C   
BRANCH   9  15
ATOM     15  O1  UNL     1       2.292   1.093   5.285  1.00  0.00    -0.332 OA  
ATOM     16  C1  UNL     1       3.606   1.542   4.970  1.00  0.00     0.205 C   
ENDBRANCH   9  15
ENDBRANCH   7   8
ENDBRANCH   1   7
BRANCH   3  17
ATOM     17  C8  UNL     1      -2.079  -0.214  -1.849  1.00  0.00     0.117 C   
BRANCH  17  18
ATOM     18  N3  UNL     1      -2.467  -1.627  -1.464  1.00  0.00     0.249 N   
ATOM     19  H9  UNL     1      -3.395  -1.562  -1.025  1.00  0.00     0.199 HD  
ATOM     20  H10 UNL     1      -2.564  -2.208  -2.301  1.00  0.00     0.199 HD  
BRANCH  18  21
ATOM     21  C9  UNL     1      -1.573  -2.316  -0.485  1.00  0.00     0.164 C   
BRANCH  21  22
ATOM     22  C10 UNL     1      -0.207  -2.608  -1.040  1.00  0.00    -0.002 A   
ATOM     23  C11 UNL     1       0.919  -1.883  -0.583  1.00  0.00     0.012 A   
ATOM     24  C15 UNL     1      -0.041  -3.591  -2.032  1.00  0.00     0.045 A   
ATOM     25  C12 UNL     1       2.193  -2.127  -1.109  1.00  0.00     0.037 A   
ATOM     26  C14 UNL     1       1.228  -3.807  -2.528  1.00  0.00     0.109 A   
ATOM     27  C13 UNL     1       2.314  -3.096  -2.080  1.00  0.00     0.108 A   
ATOM     28  O2  UNL     1       1.559  -4.715  -3.484  1.00  0.00    -0.316 OA  
ATOM     29  O3  UNL     1       3.466  -3.466  -2.698  1.00  0.00    -0.316 OA  
ATOM     30  C16 UNL     1       2.992  -4.524  -3.557  1.00  0.00     0.337 C   
ENDBRANCH  21  22
ENDBRANCH  18  21
ENDBRANCH  17  18
BRANCH  17  31
ATOM     31  C17 UNL     1      -2.897   0.195  -3.104  1.00  0.00     0.043 C   
ATOM     32  C18 UNL     1      -4.423   0.230  -2.889  1.00  0.00     0.010 C   
ATOM     33  C22 UNL     1      -2.411   1.539  -3.681  1.00  0.00     0.010 C   
ATOM     34  C19 UNL     1      -5.164   0.606  -4.172  1.00  0.00     0.001 C   
ATOM     35  C21 UNL     1      -3.155   1.907  -4.963  1.00  0.00     0.001 C   
ATOM     36  C20 UNL     1      -4.664   1.926  -4.749  1.00  0.00     0.000 C   
ENDBRANCH  17  31
ENDBRANCH   3  17
TORSDOF 8
