REMARK SMILES Cc1cccc(CCn2cc([C@@H]([NH2+]Cc3ccc4c(c3)OCO4)C(C)(C)C)nn2)c1
REMARK SMILES IDX 9 1 10 2 11 3 28 4 29 5 8 7 7 8 6 9 2 10 3 11 30 12 4 13
REMARK SMILES IDX 5 14 1 15 12 16 13 17 14 20 15 21 16 22 20 23 17 24 19 25
REMARK SMILES IDX 18 26 21 27 23 28 22 29 24 30 25 31 26 32 27 33
REMARK H PARENT 10 6 13 18 13 19
ROOT
ATOM     1   N1  UNL     1       1.874  -2.036  -1.083  1.00  0.00    -0.212 N   
ATOM     2   C9  UNL     1       1.498  -0.757  -0.784  1.00  0.00     0.045 A   
ATOM     3   C10 UNL     1       1.678  -0.671   0.579  1.00  0.00     0.127 A   
ATOM     4   N3  UNL     1       2.156  -1.869   1.047  1.00  0.00    -0.132 NA  
ATOM     5   N4  UNL     1       2.280  -2.692   0.018  1.00  0.00    -0.076 NA  
ATOM     6   H11 UNL     1       1.112  -0.075  -1.528  1.00  0.00     0.083 HD  
ENDROOT
BRANCH   1   7
ATOM     7   C8  UNL     1       1.797  -2.708  -2.363  1.00  0.00     0.139 C   
BRANCH   7   8
ATOM     8   C7  UNL     1       0.692  -3.765  -2.419  1.00  0.00     0.057 C   
BRANCH   8   9
ATOM     9   C6  UNL     1      -0.687  -3.229  -2.103  1.00  0.00    -0.046 A   
ATOM     10  C2  UNL     1      -2.573  -1.775  -2.631  1.00  0.00    -0.051 A   
ATOM     11  C3  UNL     1      -3.244  -2.249  -1.499  1.00  0.00     0.003 A   
ATOM     12  C24 UNL     1      -1.293  -2.267  -2.925  1.00  0.00     0.007 A   
ATOM     13  C4  UNL     1      -2.655  -3.212  -0.681  1.00  0.00     0.001 A   
ATOM     14  C5  UNL     1      -1.382  -3.698  -0.980  1.00  0.00     0.004 A   
ATOM     15  C1  UNL     1      -3.197  -0.725  -3.503  1.00  0.00     0.044 C   
ENDBRANCH   8   9
ENDBRANCH   7   8
ENDBRANCH   1   7
BRANCH   3  16
ATOM     16  C11 UNL     1       1.326   0.416   1.545  1.00  0.00     0.120 C   
BRANCH  16  17
ATOM     17  N2  UNL     1       0.630  -0.208   2.740  1.00  0.00     0.250 N   
ATOM     18  H13 UNL     1       0.549   0.457   3.511  1.00  0.00     0.199 HD  
ATOM     19  H14 UNL     1       1.240  -0.975   3.055  1.00  0.00     0.199 HD  
BRANCH  17  20
ATOM     20  C12 UNL     1      -0.717  -0.804   2.479  1.00  0.00     0.164 C   
BRANCH  20  21
ATOM     21  C13 UNL     1      -1.760   0.231   2.161  1.00  0.00    -0.002 A   
ATOM     22  C14 UNL     1      -2.324   1.024   3.188  1.00  0.00     0.012 A   
ATOM     23  C18 UNL     1      -2.159   0.440   0.829  1.00  0.00     0.045 A   
ATOM     24  C15 UNL     1      -3.272   2.010   2.895  1.00  0.00     0.037 A   
ATOM     25  C17 UNL     1      -3.095   1.419   0.574  1.00  0.00     0.109 A   
ATOM     26  C16 UNL     1      -3.636   2.183   1.578  1.00  0.00     0.108 A   
ATOM     27  O1  UNL     1      -3.582   1.749  -0.651  1.00  0.00    -0.316 OA  
ATOM     28  O2  UNL     1      -4.534   3.089   1.113  1.00  0.00    -0.316 OA  
ATOM     29  C19 UNL     1      -4.520   2.792  -0.300  1.00  0.00     0.337 C   
ENDBRANCH  20  21
ENDBRANCH  17  20
ENDBRANCH  16  17
BRANCH  16  30
ATOM     30  C20 UNL     1       2.543   1.289   2.011  1.00  0.00     0.010 C   
ATOM     31  C21 UNL     1       3.581   0.493   2.827  1.00  0.00     0.017 C   
ATOM     32  C22 UNL     1       3.255   1.897   0.781  1.00  0.00     0.017 C   
ATOM     33  C23 UNL     1       2.052   2.472   2.877  1.00  0.00     0.017 C   
ENDBRANCH  16  30
ENDBRANCH   3  16
TORSDOF 8
