REMARK SMILES CCOc1cccc(Cn2cc([C@@H]([NH2+]Cc3ccc4c(c3)OCO4)C(C)(C)C)nn2)c1
REMARK SMILES IDX 10 1 11 2 12 3 29 4 30 5 9 7 8 8 4 9 5 10 31 11 6 12 7 13
REMARK SMILES IDX 3 14 2 15 1 16 13 17 14 18 15 21 16 22 17 23 21 24 18 25
REMARK SMILES IDX 20 26 19 27 22 28 24 29 23 30 25 31 26 32 27 33 28 34
REMARK H PARENT 11 6 14 19 14 20
ROOT
ATOM     1   N1  UNL     1      -1.890   1.139  -2.421  1.00  0.00    -0.208 N   
ATOM     2   C9  UNL     1      -1.183   0.122  -1.839  1.00  0.00     0.046 A   
ATOM     3   C10 UNL     1      -2.150  -0.784  -1.465  1.00  0.00     0.127 A   
ATOM     4   N3  UNL     1      -3.383  -0.303  -1.827  1.00  0.00    -0.132 NA  
ATOM     5   N4  UNL     1      -3.211   0.872  -2.410  1.00  0.00    -0.076 NA  
ATOM     6   H11 UNL     1      -0.107   0.154  -1.728  1.00  0.00     0.083 HD  
ENDROOT
BRANCH   1   7
ATOM     7   C8  UNL     1      -1.384   2.386  -2.967  1.00  0.00     0.169 C   
BRANCH   7   8
ATOM     8   C7  UNL     1      -1.066   3.360  -1.862  1.00  0.00    -0.026 A   
ATOM     9   C3  UNL     1       0.540   4.336  -0.305  1.00  0.00     0.075 A   
ATOM     10  C4  UNL     1      -0.470   5.130   0.234  1.00  0.00     0.033 A   
ATOM     11  C24 UNL     1       0.237   3.456  -1.349  1.00  0.00     0.038 A   
ATOM     12  C5  UNL     1      -1.772   5.042  -0.266  1.00  0.00     0.003 A   
ATOM     13  C6  UNL     1      -2.071   4.160  -1.305  1.00  0.00     0.005 A   
BRANCH   9  14
ATOM     14  O1  UNL     1       1.847   4.313   0.092  1.00  0.00    -0.346 OA  
BRANCH  14  15
ATOM     15  C2  UNL     1       2.243   5.267   1.079  1.00  0.00     0.164 C   
ATOM     16  C1  UNL     1       3.734   5.107   1.313  1.00  0.00     0.035 C   
ENDBRANCH  14  15
ENDBRANCH   9  14
ENDBRANCH   7   8
ENDBRANCH   1   7
BRANCH   3  17
ATOM     17  C11 UNL     1      -2.056  -2.063  -0.690  1.00  0.00     0.120 C   
BRANCH  17  18
ATOM     18  N2  UNL     1      -3.230  -2.139   0.268  1.00  0.00     0.250 N   
ATOM     19  H13 UNL     1      -4.070  -1.944  -0.296  1.00  0.00     0.199 HD  
ATOM     20  H14 UNL     1      -3.334  -3.078   0.655  1.00  0.00     0.199 HD  
BRANCH  18  21
ATOM     21  C12 UNL     1      -3.231  -1.155   1.394  1.00  0.00     0.164 C   
BRANCH  21  22
ATOM     22  C13 UNL     1      -2.121  -1.394   2.380  1.00  0.00    -0.002 A   
ATOM     23  C14 UNL     1      -2.165  -2.507   3.254  1.00  0.00     0.012 A   
ATOM     24  C18 UNL     1      -1.015  -0.526   2.419  1.00  0.00     0.045 A   
ATOM     25  C15 UNL     1      -1.120  -2.758   4.149  1.00  0.00     0.037 A   
ATOM     26  C17 UNL     1      -0.002  -0.803   3.313  1.00  0.00     0.109 A   
ATOM     27  C16 UNL     1      -0.052  -1.888   4.153  1.00  0.00     0.108 A   
ATOM     28  O2  UNL     1       1.133  -0.075   3.473  1.00  0.00    -0.316 OA  
ATOM     29  O3  UNL     1       1.045  -1.978   4.949  1.00  0.00    -0.316 OA  
ATOM     30  C19 UNL     1       1.784  -0.809   4.535  1.00  0.00     0.337 C   
ENDBRANCH  21  22
ENDBRANCH  18  21
ENDBRANCH  17  18
BRANCH  17  31
ATOM     31  C20 UNL     1      -1.995  -3.353  -1.581  1.00  0.00     0.010 C   
ATOM     32  C21 UNL     1      -1.749  -4.602  -0.701  1.00  0.00     0.017 C   
ATOM     33  C22 UNL     1      -3.284  -3.583  -2.394  1.00  0.00     0.017 C   
ATOM     34  C23 UNL     1      -0.809  -3.260  -2.569  1.00  0.00     0.017 C   
ENDBRANCH  17  31
ENDBRANCH   3  17
TORSDOF 9
