REMARK SMILES CC(C)(C)[C@H]([NH2+]Cc1ccc2c(c1)OCO2)c1cn(C[C@@H](O)c2ccc(F)cn2)nn1
REMARK SMILES IDX 17 1 18 2 19 3 30 4 31 5 5 7 2 8 1 9 3 10 4 11 6 12 7 15
REMARK SMILES IDX 8 16 9 17 13 18 10 19 12 20 11 21 14 22 16 23 15 24 20 25
REMARK SMILES IDX 21 26 22 27 23 29 24 30 29 31 25 32 28 33 26 34 27 35
REMARK H PARENT 18 6 6 13 6 14 22 28
ROOT
ATOM     1   C14 UNL     1      -0.588   0.519   0.817  1.00  0.00     0.127 A   
ATOM     2   C15 UNL     1      -1.531   1.315   0.206  1.00  0.00     0.046 A   
ATOM     3   N2  UNL     1      -2.162   1.934   1.247  1.00  0.00    -0.209 N   
ATOM     4   N4  UNL     1      -1.564   1.638   2.417  1.00  0.00    -0.076 NA  
ATOM     5   N5  UNL     1      -0.610   0.756   2.169  1.00  0.00    -0.132 NA  
ATOM     6   H20 UNL     1      -1.845   1.448  -0.821  1.00  0.00     0.083 HD  
ENDROOT
BRANCH   1   7
ATOM     7   C5  UNL     1       0.407  -0.449   0.253  1.00  0.00     0.120 C   
BRANCH   7   8
ATOM     8   C2  UNL     1      -0.137  -1.916   0.114  1.00  0.00     0.010 C   
ATOM     9   C1  UNL     1      -1.408  -1.935  -0.766  1.00  0.00     0.017 C   
ATOM     10  C3  UNL     1      -0.483  -2.554   1.474  1.00  0.00     0.017 C   
ATOM     11  C4  UNL     1       0.908  -2.811  -0.593  1.00  0.00     0.017 C   
ENDBRANCH   7   8
BRANCH   7  12
ATOM     12  N1  UNL     1       1.644  -0.431   1.132  1.00  0.00     0.250 N   
ATOM     13  H11 UNL     1       2.205  -1.275   1.011  1.00  0.00     0.199 HD  
ATOM     14  H12 UNL     1       1.296  -0.438   2.103  1.00  0.00     0.199 HD  
BRANCH  12  15
ATOM     15  C6  UNL     1       2.530   0.762   0.992  1.00  0.00     0.164 C   
BRANCH  15  16
ATOM     16  C7  UNL     1       3.276   0.779  -0.314  1.00  0.00    -0.002 A   
ATOM     17  C8  UNL     1       2.958   1.737  -1.306  1.00  0.00     0.012 A   
ATOM     18  C12 UNL     1       4.280  -0.172  -0.568  1.00  0.00     0.045 A   
ATOM     19  C9  UNL     1       3.624   1.746  -2.537  1.00  0.00     0.037 A   
ATOM     20  C11 UNL     1       4.914  -0.137  -1.793  1.00  0.00     0.109 A   
ATOM     21  C10 UNL     1       4.596   0.794  -2.750  1.00  0.00     0.108 A   
ATOM     22  O1  UNL     1       5.895  -0.985  -2.199  1.00  0.00    -0.316 OA  
ATOM     23  O2  UNL     1       5.338   0.652  -3.878  1.00  0.00    -0.316 OA  
ATOM     24  C13 UNL     1       6.181  -0.463  -3.517  1.00  0.00     0.337 C   
ENDBRANCH  15  16
ENDBRANCH  12  15
ENDBRANCH   7  12
ENDBRANCH   1   7
BRANCH   3  25
ATOM     25  C16 UNL     1      -3.315   2.811   1.211  1.00  0.00     0.172 C   
BRANCH  25  26
ATOM     26  C17 UNL     1      -4.617   2.082   0.869  1.00  0.00     0.182 C   
BRANCH  26  27
ATOM     27  O3  UNL     1      -4.593   1.699  -0.518  1.00  0.00    -0.385 OA  
ATOM     28  H24 UNL     1      -4.848   0.751  -0.525  1.00  0.00     0.211 HD  
ENDBRANCH  26  27
BRANCH  26  29
ATOM     29  C18 UNL     1      -4.893   0.870   1.741  1.00  0.00     0.071 A   
ATOM     30  C19 UNL     1      -5.243   1.013   3.084  1.00  0.00     0.030 A   
ATOM     31  N3  UNL     1      -4.774  -0.347   1.135  1.00  0.00    -0.255 NA  
ATOM     32  C20 UNL     1      -5.478  -0.133   3.842  1.00  0.00     0.043 A   
ATOM     33  C22 UNL     1      -5.018  -1.439   1.901  1.00  0.00     0.150 A   
ATOM     34  C21 UNL     1      -5.362  -1.375   3.239  1.00  0.00     0.141 A   
ATOM     35  F1  UNL     1      -5.577  -2.492   3.942  1.00  0.00    -0.205 F   
ENDBRANCH  26  29
ENDBRANCH  25  26
ENDBRANCH   3  25
TORSDOF 9
