REMARK SMILES CC(C)(C)[C@H]([NH2+]Cc1ccc2c(c1)OCO2)c1cn(C[C@H](O)c2ccc(F)cn2)nn1
REMARK SMILES IDX 17 1 18 2 19 3 30 4 31 5 5 7 2 8 1 9 3 10 4 11 6 12 7 15
REMARK SMILES IDX 8 16 9 17 13 18 10 19 12 20 11 21 14 22 16 23 15 24 20 25
REMARK SMILES IDX 21 26 22 27 23 29 24 30 29 31 25 32 28 33 26 34 27 35
REMARK H PARENT 18 6 6 13 6 14 22 28
ROOT
ATOM     1   C14 UNL     1       0.785  -0.919   1.804  1.00  0.00     0.127 A   
ATOM     2   C15 UNL     1      -0.125  -1.859   2.232  1.00  0.00     0.046 A   
ATOM     3   N2  UNL     1      -0.879  -1.188   3.152  1.00  0.00    -0.209 N   
ATOM     4   N4  UNL     1      -0.427   0.068   3.326  1.00  0.00    -0.076 NA  
ATOM     5   N5  UNL     1       0.585   0.249   2.496  1.00  0.00    -0.132 NA  
ATOM     6   H20 UNL     1      -0.349  -2.874   1.932  1.00  0.00     0.083 HD  
ENDROOT
BRANCH   1   7
ATOM     7   C5  UNL     1       1.763  -0.943   0.669  1.00  0.00     0.120 C   
BRANCH   7   8
ATOM     8   C2  UNL     1       3.250  -1.183   1.098  1.00  0.00     0.010 C   
ATOM     9   C1  UNL     1       3.362  -2.506   1.888  1.00  0.00     0.017 C   
ATOM     10  C3  UNL     1       4.150  -1.324  -0.152  1.00  0.00     0.017 C   
ATOM     11  C4  UNL     1       3.815  -0.046   1.972  1.00  0.00     0.017 C   
ENDBRANCH   7   8
BRANCH   7  12
ATOM     12  N1  UNL     1       1.624   0.361  -0.082  1.00  0.00     0.250 N   
ATOM     13  H11 UNL     1       2.421   0.559  -0.692  1.00  0.00     0.199 HD  
ATOM     14  H12 UNL     1       1.615   1.105   0.633  1.00  0.00     0.199 HD  
BRANCH  12  15
ATOM     15  C6  UNL     1       0.364   0.499  -0.868  1.00  0.00     0.164 C   
BRANCH  15  16
ATOM     16  C7  UNL     1       0.186   1.914  -1.340  1.00  0.00    -0.002 A   
ATOM     17  C8  UNL     1      -0.397   2.875  -0.478  1.00  0.00     0.012 A   
ATOM     18  C12 UNL     1       0.638   2.304  -2.611  1.00  0.00     0.045 A   
ATOM     19  C9  UNL     1      -0.545   4.205  -0.883  1.00  0.00     0.037 A   
ATOM     20  C11 UNL     1       0.479   3.625  -2.977  1.00  0.00     0.109 A   
ATOM     21  C10 UNL     1      -0.097   4.548  -2.139  1.00  0.00     0.108 A   
ATOM     22  O1  UNL     1       0.859   4.166  -4.164  1.00  0.00    -0.316 OA  
ATOM     23  O2  UNL     1      -0.153   5.786  -2.694  1.00  0.00    -0.316 OA  
ATOM     24  C13 UNL     1       0.434   5.537  -3.989  1.00  0.00     0.337 C   
ENDBRANCH  15  16
ENDBRANCH  12  15
ENDBRANCH   7  12
ENDBRANCH   1   7
BRANCH   3  25
ATOM     25  C16 UNL     1      -2.076  -1.639   3.832  1.00  0.00     0.172 C   
BRANCH  25  26
ATOM     26  C17 UNL     1      -3.318  -1.583   2.939  1.00  0.00     0.182 C   
BRANCH  26  27
ATOM     27  O3  UNL     1      -3.208  -2.582   1.909  1.00  0.00    -0.385 OA  
ATOM     28  H24 UNL     1      -3.493  -2.133   1.085  1.00  0.00     0.211 HD  
ENDBRANCH  26  27
BRANCH  26  29
ATOM     29  C18 UNL     1      -3.588  -0.221   2.317  1.00  0.00     0.071 A   
ATOM     30  C19 UNL     1      -3.987   0.859   3.106  1.00  0.00     0.030 A   
ATOM     31  N3  UNL     1      -3.439  -0.130   0.961  1.00  0.00    -0.255 NA  
ATOM     32  C20 UNL     1      -4.245   2.083   2.491  1.00  0.00     0.043 A   
ATOM     33  C22 UNL     1      -3.723   1.072   0.396  1.00  0.00     0.150 A   
ATOM     34  C21 UNL     1      -4.114   2.186   1.116  1.00  0.00     0.141 A   
ATOM     35  F1  UNL     1      -4.352   3.347   0.497  1.00  0.00    -0.205 F   
ENDBRANCH  26  29
ENDBRANCH  25  26
ENDBRANCH   3  25
TORSDOF 9
