REMARK SMILES CC(=O)c1cc(-n2cc([C@@H]([NH2+]Cc3ccc4c(c3)OCO4)C(C)(C)C)nn2)ccc1O
REMARK SMILES IDX 7 1 8 2 9 3 26 4 27 5 6 6 4 7 5 8 30 9 29 10 28 11 2 12 1 13
REMARK SMILES IDX 3 14 31 15 10 17 11 18 12 21 13 22 14 23 18 24 15 25 17 26
REMARK SMILES IDX 16 27 19 28 21 29 20 30 22 31 23 32 24 33 25 34
REMARK H PARENT 31 16 11 19 11 20
ROOT
ATOM     1   N1  UNL     1      -1.327  -1.708   1.020  1.00  0.00    -0.181 N   
ATOM     2   C6  UNL     1      -1.156  -0.342   0.906  1.00  0.00     0.135 A   
ATOM     3   C7  UNL     1      -2.319   0.116   0.326  1.00  0.00     0.128 A   
ATOM     4   N3  UNL     1      -3.171  -0.935   0.143  1.00  0.00    -0.131 NA  
ATOM     5   N4  UNL     1      -2.571  -2.029   0.579  1.00  0.00    -0.071 NA  
ENDROOT
BRANCH   1   6
ATOM     6   C5  UNL     1      -0.408  -2.692   1.466  1.00  0.00     0.058 A   
ATOM     7   C3  UNL     1       1.791  -3.333   2.304  1.00  0.00     0.049 A   
ATOM     8   C4  UNL     1       0.890  -2.341   1.877  1.00  0.00     0.040 A   
ATOM     9   C23 UNL     1       1.374  -4.672   2.316  1.00  0.00     0.082 A   
ATOM     10  C22 UNL     1       0.090  -5.022   1.907  1.00  0.00     0.036 A   
ATOM     11  C21 UNL     1      -0.801  -4.038   1.482  1.00  0.00     0.029 A   
BRANCH   7  12
ATOM     12  C2  UNL     1       3.179  -2.989   2.740  1.00  0.00     0.162 C   
ATOM     13  C1  UNL     1       3.663  -1.567   2.635  1.00  0.00     0.093 C   
ATOM     14  O1  UNL     1       3.906  -3.882   3.176  1.00  0.00    -0.294 OA  
ENDBRANCH   7  12
BRANCH   9  15
ATOM     15  O4  UNL     1       2.174  -5.708   2.718  1.00  0.00    -0.360 OA  
ATOM     16  H27 UNL     1       3.030  -5.338   3.033  1.00  0.00     0.218 HD  
ENDBRANCH   9  15
ENDBRANCH   1   6
BRANCH   3  17
ATOM     17  C8  UNL     1      -2.689   1.465  -0.216  1.00  0.00     0.120 C   
BRANCH  17  18
ATOM     18  N2  UNL     1      -3.298   1.273  -1.595  1.00  0.00     0.250 N   
ATOM     19  H7  UNL     1      -3.765   0.352  -1.574  1.00  0.00     0.199 HD  
ATOM     20  H8  UNL     1      -4.044   1.951  -1.771  1.00  0.00     0.199 HD  
BRANCH  18  21
ATOM     21  C9  UNL     1      -2.354   1.294  -2.754  1.00  0.00     0.164 C   
BRANCH  21  22
ATOM     22  C10 UNL     1      -1.305   0.217  -2.711  1.00  0.00    -0.002 A   
ATOM     23  C11 UNL     1      -1.655  -1.131  -2.970  1.00  0.00     0.012 A   
ATOM     24  C15 UNL     1       0.019   0.528  -2.350  1.00  0.00     0.045 A   
ATOM     25  C12 UNL     1      -0.710  -2.156  -2.848  1.00  0.00     0.037 A   
ATOM     26  C14 UNL     1       0.923  -0.509  -2.233  1.00  0.00     0.109 A   
ATOM     27  C13 UNL     1       0.569  -1.813  -2.473  1.00  0.00     0.108 A   
ATOM     28  O2  UNL     1       2.222  -0.387  -1.850  1.00  0.00    -0.316 OA  
ATOM     29  O3  UNL     1       1.601  -2.674  -2.283  1.00  0.00    -0.316 OA  
ATOM     30  C16 UNL     1       2.669  -1.759  -1.962  1.00  0.00     0.337 C   
ENDBRANCH  21  22
ENDBRANCH  18  21
ENDBRANCH  17  18
BRANCH  17  31
ATOM     31  C17 UNL     1      -3.651   2.288   0.708  1.00  0.00     0.010 C   
ATOM     32  C18 UNL     1      -3.831   3.718   0.147  1.00  0.00     0.017 C   
ATOM     33  C19 UNL     1      -5.044   1.643   0.855  1.00  0.00     0.017 C   
ATOM     34  C20 UNL     1      -3.034   2.433   2.118  1.00  0.00     0.017 C   
ENDBRANCH  17  31
ENDBRANCH   3  17
TORSDOF 8
