REMARK SMILES Cc1cc(C)n(CCn2cc([C@@H]([NH2+]Cc3ccc4c(c3)OCO4)C(C)C)nn2)n1
REMARK SMILES IDX 9 1 10 2 11 3 27 4 28 5 8 7 7 8 6 9 2 10 3 11 29 12 4 13
REMARK SMILES IDX 1 14 5 15 12 16 13 17 14 20 15 21 16 22 20 23 17 24 19 25
REMARK SMILES IDX 18 26 21 27 23 28 22 29 24 30 25 31 26 32
REMARK H PARENT 10 6 13 18 13 19
ROOT
ATOM     1   N2  UNL     1       0.046   1.627   2.634  1.00  0.00    -0.210 N   
ATOM     2   C8  UNL     1      -0.975   1.909   1.771  1.00  0.00     0.045 A   
ATOM     3   C9  UNL     1      -1.454   0.666   1.421  1.00  0.00     0.127 A   
ATOM     4   N4  UNL     1      -0.788  -0.295   2.137  1.00  0.00    -0.132 NA  
ATOM     5   N5  UNL     1       0.118   0.309   2.887  1.00  0.00    -0.076 NA  
ATOM     6   H12 UNL     1      -1.188   2.910   1.425  1.00  0.00     0.083 HD  
ENDROOT
BRANCH   1   7
ATOM     7   C7  UNL     1       1.023   2.533   3.196  1.00  0.00     0.155 C   
BRANCH   7   8
ATOM     8   C6  UNL     1       1.827   3.284   2.145  1.00  0.00     0.153 C   
BRANCH   8   9
ATOM     9   N1  UNL     1       2.571   2.413   1.252  1.00  0.00    -0.228 N   
ATOM     10  C2  UNL     1       2.998   1.401  -0.562  1.00  0.00     0.057 A   
ATOM     11  C3  UNL     1       4.146   1.274   0.250  1.00  0.00     0.045 A   
ATOM     12  N6  UNL     1       2.013   2.051   0.072  1.00  0.00    -0.187 NA  
ATOM     13  C4  UNL     1       3.844   1.934   1.421  1.00  0.00     0.027 A   
ATOM     14  C1  UNL     1       2.831   0.914  -1.952  1.00  0.00     0.068 C   
ATOM     15  C5  UNL     1       4.671   2.159   2.632  1.00  0.00     0.063 C   
ENDBRANCH   8   9
ENDBRANCH   7   8
ENDBRANCH   1   7
BRANCH   3  16
ATOM     16  C10 UNL     1      -2.392   0.254   0.337  1.00  0.00     0.117 C   
BRANCH  16  17
ATOM     17  N3  UNL     1      -1.795  -0.910  -0.414  1.00  0.00     0.249 N   
ATOM     18  H14 UNL     1      -2.487  -1.374  -1.010  1.00  0.00     0.199 HD  
ATOM     19  H15 UNL     1      -1.496  -1.598   0.292  1.00  0.00     0.199 HD  
BRANCH  17  20
ATOM     20  C11 UNL     1      -0.585  -0.574  -1.220  1.00  0.00     0.164 C   
BRANCH  20  21
ATOM     21  C12 UNL     1      -0.021  -1.810  -1.861  1.00  0.00    -0.002 A   
ATOM     22  C13 UNL     1       0.903  -2.615  -1.152  1.00  0.00     0.012 A   
ATOM     23  C17 UNL     1      -0.444  -2.203  -3.142  1.00  0.00     0.045 A   
ATOM     24  C14 UNL     1       1.411  -3.790  -1.715  1.00  0.00     0.037 A   
ATOM     25  C16 UNL     1       0.076  -3.368  -3.666  1.00  0.00     0.109 A   
ATOM     26  C15 UNL     1       0.978  -4.139  -2.974  1.00  0.00     0.108 A   
ATOM     27  O1  UNL     1      -0.225  -3.888  -4.885  1.00  0.00    -0.316 OA  
ATOM     28  O2  UNL     1       1.359  -5.241  -3.671  1.00  0.00    -0.316 OA  
ATOM     29  C18 UNL     1       0.608  -5.070  -4.892  1.00  0.00     0.337 C   
ENDBRANCH  20  21
ENDBRANCH  17  20
ENDBRANCH  16  17
BRANCH  16  30
ATOM     30  C19 UNL     1      -3.811  -0.133   0.820  1.00  0.00     0.037 C   
ATOM     31  C20 UNL     1      -3.855  -1.317   1.791  1.00  0.00     0.014 C   
ATOM     32  C21 UNL     1      -4.536   1.069   1.438  1.00  0.00     0.014 C   
ENDBRANCH  16  30
ENDBRANCH   3  16
TORSDOF 8
