REMARK SMILES Oc1ccc(CCn2cc([C@@H]([NH2+]Cc3ccc4c(c3)OCO4)C3CCCC3)nn2)c(Cl)c1
REMARK SMILES IDX 8 1 9 2 10 3 28 4 29 5 7 7 6 8 5 9 2 10 3 11 32 12 4 13
REMARK SMILES IDX 30 14 31 15 1 16 11 18 12 19 13 22 14 23 15 24 19 25 16 26
REMARK SMILES IDX 18 27 17 28 20 29 22 30 21 31 23 32 24 33 27 34 25 35 26 36
REMARK H PARENT 9 6 1 17 12 20 12 21
ROOT
ATOM     1   N1  UNL     1      -0.294   2.605  -0.219  1.00  0.00    -0.212 N   
ATOM     2   C7  UNL     1      -1.169   1.557  -0.141  1.00  0.00     0.045 A   
ATOM     3   C8  UNL     1      -0.677   0.794   0.894  1.00  0.00     0.127 A   
ATOM     4   N3  UNL     1       0.441   1.399   1.409  1.00  0.00    -0.132 NA  
ATOM     5   N4  UNL     1       0.662   2.508   0.722  1.00  0.00    -0.076 NA  
ATOM     6   H8  UNL     1      -1.996   1.439  -0.828  1.00  0.00     0.083 HD  
ENDROOT
BRANCH   1   7
ATOM     7   C6  UNL     1      -0.246   3.647  -1.224  1.00  0.00     0.139 C   
BRANCH   7   8
ATOM     8   C5  UNL     1       0.931   3.497  -2.196  1.00  0.00     0.058 C   
BRANCH   8   9
ATOM     9   C4  UNL     1       1.053   2.120  -2.820  1.00  0.00    -0.028 A   
ATOM     10  C1  UNL     1       1.303  -0.486  -3.817  1.00  0.00     0.073 A   
ATOM     11  C2  UNL     1       2.183  -0.039  -2.842  1.00  0.00     0.033 A   
ATOM     12  C24 UNL     1       0.311   0.348  -4.321  1.00  0.00     0.054 A   
ATOM     13  C3  UNL     1       2.060   1.258  -2.346  1.00  0.00     0.008 A   
ATOM     14  C23 UNL     1       0.188   1.649  -3.823  1.00  0.00     0.046 A   
ATOM     15  CL1 UNL     1      -1.075   2.633  -4.468  1.00  0.00    -0.084 Cl  
BRANCH  10  16
ATOM     16  O1  UNL     1       1.439  -1.771  -4.250  1.00  0.00    -0.361 OA  
ATOM     17  H1  UNL     1       0.979  -1.869  -5.103  1.00  0.00     0.218 HD  
ENDBRANCH  10  16
ENDBRANCH   8   9
ENDBRANCH   7   8
ENDBRANCH   1   7
BRANCH   3  18
ATOM     18  C9  UNL     1      -1.095  -0.541   1.417  1.00  0.00     0.117 C   
BRANCH  18  19
ATOM     19  N2  UNL     1       0.132  -1.397   1.612  1.00  0.00     0.249 N   
ATOM     20  H10 UNL     1      -0.056  -2.217   2.196  1.00  0.00     0.199 HD  
ATOM     21  H11 UNL     1       0.812  -0.821   2.131  1.00  0.00     0.199 HD  
BRANCH  19  22
ATOM     22  C10 UNL     1       0.794  -1.847   0.353  1.00  0.00     0.164 C   
BRANCH  22  23
ATOM     23  C11 UNL     1       2.101  -2.521   0.658  1.00  0.00    -0.002 A   
ATOM     24  C12 UNL     1       3.264  -1.742   0.874  1.00  0.00     0.012 A   
ATOM     25  C16 UNL     1       2.171  -3.918   0.779  1.00  0.00     0.045 A   
ATOM     26  C13 UNL     1       4.484  -2.346   1.195  1.00  0.00     0.037 A   
ATOM     27  C15 UNL     1       3.389  -4.482   1.097  1.00  0.00     0.109 A   
ATOM     28  C14 UNL     1       4.513  -3.719   1.299  1.00  0.00     0.108 A   
ATOM     29  O2  UNL     1       3.628  -5.810   1.251  1.00  0.00    -0.316 OA  
ATOM     30  O3  UNL     1       5.601  -4.472   1.605  1.00  0.00    -0.316 OA  
ATOM     31  C17 UNL     1       5.043  -5.802   1.549  1.00  0.00     0.337 C   
ENDBRANCH  22  23
ENDBRANCH  19  22
ENDBRANCH  18  19
BRANCH  18  32
ATOM     32  C18 UNL     1      -1.836  -0.431   2.762  1.00  0.00     0.043 C   
ATOM     33  C19 UNL     1      -3.147   0.357   2.670  1.00  0.00     0.010 C   
ATOM     34  C22 UNL     1      -2.303  -1.776   3.337  1.00  0.00     0.010 C   
ATOM     35  C20 UNL     1      -3.854   0.004   3.969  1.00  0.00     0.001 C   
ATOM     36  C21 UNL     1      -3.516  -1.462   4.214  1.00  0.00     0.001 C   
ENDBRANCH  18  32
ENDBRANCH   3  18
TORSDOF 9
