REMARK SMILES Cc1ccnc(Cn2cc([C@@H]([NH2+]Cc3ccc4c(c3)OCO4)C(C)(C)C)nn2)c1
REMARK SMILES IDX 8 1 9 2 10 3 27 4 28 5 7 7 6 8 2 9 3 10 29 11 4 12 5 13 1 14
REMARK SMILES IDX 11 15 12 16 13 19 14 20 15 21 19 22 16 23 18 24 17 25 20 26
REMARK SMILES IDX 22 27 21 28 23 29 24 30 25 31 26 32
REMARK H PARENT 9 6 12 17 12 18
ROOT
ATOM     1   N2  UNL     1       0.212   0.711   2.819  1.00  0.00    -0.206 N   
ATOM     2   C7  UNL     1       0.411   1.040   1.505  1.00  0.00     0.046 A   
ATOM     3   C8  UNL     1      -0.850   1.003   0.955  1.00  0.00     0.127 A   
ATOM     4   N4  UNL     1      -1.754   0.662   1.930  1.00  0.00    -0.132 NA  
ATOM     5   N5  UNL     1      -1.093   0.472   3.060  1.00  0.00    -0.076 NA  
ATOM     6   H8  UNL     1       1.398   1.245   1.109  1.00  0.00     0.083 HD  
ENDROOT
BRANCH   1   7
ATOM     7   C6  UNL     1       1.198   0.600   3.876  1.00  0.00     0.190 C   
BRANCH   7   8
ATOM     8   C5  UNL     1       2.069  -0.606   3.650  1.00  0.00     0.060 A   
ATOM     9   C2  UNL     1       2.551  -2.947   3.942  1.00  0.00    -0.048 A   
ATOM     10  C3  UNL     1       3.712  -2.757   3.195  1.00  0.00     0.023 A   
ATOM     11  C22 UNL     1       1.722  -1.848   4.182  1.00  0.00     0.029 A   
ATOM     12  C4  UNL     1       3.979  -1.494   2.692  1.00  0.00     0.111 A   
ATOM     13  N1  UNL     1       3.178  -0.424   2.887  1.00  0.00    -0.260 NA  
ATOM     14  C1  UNL     1       2.229  -4.286   4.535  1.00  0.00     0.044 C   
ENDBRANCH   7   8
ENDBRANCH   1   7
BRANCH   3  15
ATOM     15  C9  UNL     1      -1.317   1.181  -0.458  1.00  0.00     0.120 C   
BRANCH  15  16
ATOM     16  N3  UNL     1      -2.505   0.266  -0.695  1.00  0.00     0.250 N   
ATOM     17  H10 UNL     1      -3.006   0.519  -1.547  1.00  0.00     0.199 HD  
ATOM     18  H11 UNL     1      -3.146   0.422   0.096  1.00  0.00     0.199 HD  
BRANCH  16  19
ATOM     19  C10 UNL     1      -2.211  -1.198  -0.728  1.00  0.00     0.164 C   
BRANCH  19  20
ATOM     20  C11 UNL     1      -1.435  -1.613  -1.947  1.00  0.00    -0.002 A   
ATOM     21  C12 UNL     1      -0.074  -1.989  -1.834  1.00  0.00     0.012 A   
ATOM     22  C16 UNL     1      -2.051  -1.614  -3.211  1.00  0.00     0.045 A   
ATOM     23  C13 UNL     1       0.667  -2.356  -2.962  1.00  0.00     0.037 A   
ATOM     24  C15 UNL     1      -1.294  -1.986  -4.302  1.00  0.00     0.109 A   
ATOM     25  C14 UNL     1       0.027  -2.345  -4.183  1.00  0.00     0.108 A   
ATOM     26  O1  UNL     1      -1.734  -2.044  -5.585  1.00  0.00    -0.316 OA  
ATOM     27  O2  UNL     1       0.584  -2.672  -5.378  1.00  0.00    -0.316 OA  
ATOM     28  C17 UNL     1      -0.551  -2.538  -6.257  1.00  0.00     0.337 C   
ENDBRANCH  19  20
ENDBRANCH  16  19
ENDBRANCH  15  16
BRANCH  15  29
ATOM     29  C18 UNL     1      -1.688   2.659  -0.834  1.00  0.00     0.010 C   
ATOM     30  C19 UNL     1      -2.043   2.756  -2.336  1.00  0.00     0.017 C   
ATOM     31  C20 UNL     1      -0.477   3.591  -0.597  1.00  0.00     0.017 C   
ATOM     32  C21 UNL     1      -2.879   3.201  -0.020  1.00  0.00     0.017 C   
ENDBRANCH  15  29
ENDBRANCH   3  15
TORSDOF 7
