REMARK SMILES Cc1ccc(F)c(CCn2cc([C@H](CC(C)C)[NH2+]Cc3ccc4c(c3)OCO4)nn2)c1
REMARK SMILES IDX 10 1 11 2 12 3 29 4 30 5 9 7 8 8 7 9 2 10 3 11 31 12 4 13
REMARK SMILES IDX 5 14 1 15 6 16 13 17 14 18 15 19 16 20 17 21 18 22 19 25
REMARK SMILES IDX 20 26 21 27 25 28 22 29 24 30 23 31 26 32 28 33 27 34
REMARK H PARENT 11 6 18 23 18 24
ROOT
ATOM     1   N1  UNL     1       3.563   1.232  -1.558  1.00  0.00    -0.212 N   
ATOM     2   C9  UNL     1       2.221   1.184  -1.808  1.00  0.00     0.045 A   
ATOM     3   C10 UNL     1       1.665   1.865  -0.751  1.00  0.00     0.127 A   
ATOM     4   N3  UNL     1       2.664   2.314   0.073  1.00  0.00    -0.132 NA  
ATOM     5   N4  UNL     1       3.820   1.922  -0.433  1.00  0.00    -0.076 NA  
ATOM     6   H10 UNL     1       1.807   0.649  -2.651  1.00  0.00     0.083 HD  
ENDROOT
BRANCH   1   7
ATOM     7   C8  UNL     1       4.625   0.537  -2.258  1.00  0.00     0.139 C   
BRANCH   7   8
ATOM     8   C7  UNL     1       5.155  -0.668  -1.472  1.00  0.00     0.060 C   
BRANCH   8   9
ATOM     9   C6  UNL     1       4.096  -1.694  -1.147  1.00  0.00    -0.010 A   
ATOM     10  C2  UNL     1       2.715  -2.879   0.480  1.00  0.00    -0.051 A   
ATOM     11  C3  UNL     1       2.125  -3.608  -0.561  1.00  0.00     0.006 A   
ATOM     12  C24 UNL     1       3.708  -1.931   0.180  1.00  0.00     0.010 A   
ATOM     13  C4  UNL     1       2.505  -3.379  -1.884  1.00  0.00     0.040 A   
ATOM     14  C5  UNL     1       3.481  -2.427  -2.165  1.00  0.00     0.126 A   
ATOM     15  C1  UNL     1       2.351  -3.166   1.909  1.00  0.00     0.044 C   
ATOM     16  F1  UNL     1       3.828  -2.206  -3.443  1.00  0.00    -0.207 F   
ENDBRANCH   8   9
ENDBRANCH   7   8
ENDBRANCH   1   7
BRANCH   3  17
ATOM     17  C11 UNL     1       0.244   2.053  -0.341  1.00  0.00     0.114 C   
BRANCH  17  18
ATOM     18  C12 UNL     1      -0.250   3.499  -0.527  1.00  0.00     0.064 C   
BRANCH  18  19
ATOM     19  C13 UNL     1      -0.210   4.007  -1.983  1.00  0.00    -0.012 C   
ATOM     20  C14 UNL     1      -1.060   3.154  -2.929  1.00  0.00     0.007 C   
ATOM     21  C15 UNL     1      -0.680   5.467  -2.038  1.00  0.00     0.007 C   
ENDBRANCH  18  19
ENDBRANCH  17  18
BRANCH  17  22
ATOM     22  N2  UNL     1       0.118   1.711   1.130  1.00  0.00     0.249 N   
ATOM     23  H21 UNL     1      -0.756   2.078   1.521  1.00  0.00     0.199 HD  
ATOM     24  H22 UNL     1       0.892   2.211   1.595  1.00  0.00     0.199 HD  
BRANCH  22  25
ATOM     25  C16 UNL     1       0.256   0.263   1.467  1.00  0.00     0.164 C   
BRANCH  25  26
ATOM     26  C17 UNL     1      -0.978  -0.524   1.130  1.00  0.00    -0.002 A   
ATOM     27  C18 UNL     1      -1.048  -1.280  -0.067  1.00  0.00     0.012 A   
ATOM     28  C22 UNL     1      -2.091  -0.485   1.990  1.00  0.00     0.045 A   
ATOM     29  C19 UNL     1      -2.218  -1.960  -0.423  1.00  0.00     0.037 A   
ATOM     30  C21 UNL     1      -3.229  -1.166   1.612  1.00  0.00     0.109 A   
ATOM     31  C20 UNL     1      -3.292  -1.879   0.438  1.00  0.00     0.108 A   
ATOM     32  O1  UNL     1      -4.386  -1.225   2.322  1.00  0.00    -0.316 OA  
ATOM     33  O2  UNL     1      -4.504  -2.469   0.259  1.00  0.00    -0.316 OA  
ATOM     34  C23 UNL     1      -5.214  -2.003   1.426  1.00  0.00     0.337 C   
ENDBRANCH  25  26
ENDBRANCH  22  25
ENDBRANCH  17  22
ENDBRANCH   3  17
TORSDOF 9
