REMARK SMILES COc1ccc(Cn2cc([C@@H]([NH2+]Cc3ccc4c(c3)OCO4)C(C)(C)C)nn2)c(F)c1
REMARK SMILES IDX 8 1 9 2 10 3 27 4 28 5 7 7 6 8 3 9 4 10 31 11 5 12 29 13
REMARK SMILES IDX 30 14 2 15 1 16 11 17 12 18 13 21 14 22 15 23 19 24 16 25
REMARK SMILES IDX 18 26 17 27 20 28 22 29 21 30 23 31 24 32 25 33 26 34
REMARK H PARENT 9 6 12 19 12 20
ROOT
ATOM     1   N1  UNL     1      -0.626  -1.077   2.492  1.00  0.00    -0.208 N   
ATOM     2   C7  UNL     1       0.701  -0.751   2.427  1.00  0.00     0.046 A   
ATOM     3   C8  UNL     1       0.702   0.603   2.184  1.00  0.00     0.127 A   
ATOM     4   N3  UNL     1      -0.596   1.049   2.123  1.00  0.00    -0.132 NA  
ATOM     5   N4  UNL     1      -1.396   0.014   2.319  1.00  0.00    -0.076 NA  
ATOM     6   H8  UNL     1       1.482  -1.492   2.524  1.00  0.00     0.083 HD  
ENDROOT
BRANCH   1   7
ATOM     7   C6  UNL     1      -1.222  -2.389   2.679  1.00  0.00     0.172 C   
BRANCH   7   8
ATOM     8   C5  UNL     1      -1.788  -2.914   1.387  1.00  0.00     0.007 A   
ATOM     9   C2  UNL     1      -2.815  -3.838  -1.074  1.00  0.00     0.077 A   
ATOM     10  C3  UNL     1      -3.680  -3.426  -0.053  1.00  0.00     0.034 A   
ATOM     11  C23 UNL     1      -1.437  -3.798  -0.859  1.00  0.00     0.073 A   
ATOM     12  C4  UNL     1      -3.171  -2.964   1.168  1.00  0.00     0.011 A   
ATOM     13  C22 UNL     1      -0.938  -3.337   0.360  1.00  0.00     0.130 A   
ATOM     14  F1  UNL     1       0.390  -3.284   0.537  1.00  0.00    -0.207 F   
BRANCH   9  15
ATOM     15  O1  UNL     1      -3.188  -4.274  -2.317  1.00  0.00    -0.349 OA  
ATOM     16  C1  UNL     1      -4.585  -4.411  -2.559  1.00  0.00     0.203 C   
ENDBRANCH   9  15
ENDBRANCH   7   8
ENDBRANCH   1   7
BRANCH   3  17
ATOM     17  C9  UNL     1       1.819   1.566   1.912  1.00  0.00     0.120 C   
BRANCH  17  18
ATOM     18  N2  UNL     1       1.345   2.555   0.872  1.00  0.00     0.250 N   
ATOM     19  H10 UNL     1       0.377   2.809   1.130  1.00  0.00     0.199 HD  
ATOM     20  H11 UNL     1       1.878   3.428   0.883  1.00  0.00     0.199 HD  
BRANCH  18  21
ATOM     21  C10 UNL     1       1.302   2.038  -0.525  1.00  0.00     0.164 C   
BRANCH  21  22
ATOM     22  C11 UNL     1       0.693   3.063  -1.441  1.00  0.00    -0.002 A   
ATOM     23  C12 UNL     1       1.495   4.074  -2.021  1.00  0.00     0.012 A   
ATOM     24  C16 UNL     1      -0.693   3.054  -1.679  1.00  0.00     0.045 A   
ATOM     25  C13 UNL     1       0.929   5.060  -2.836  1.00  0.00     0.037 A   
ATOM     26  C15 UNL     1      -1.217   4.037  -2.492  1.00  0.00     0.109 A   
ATOM     27  C14 UNL     1      -0.433   5.014  -3.051  1.00  0.00     0.108 A   
ATOM     28  O2  UNL     1      -2.527   4.166  -2.834  1.00  0.00    -0.316 OA  
ATOM     29  O3  UNL     1      -1.145   5.884  -3.812  1.00  0.00    -0.316 OA  
ATOM     30  C17 UNL     1      -2.476   5.328  -3.693  1.00  0.00     0.337 C   
ENDBRANCH  21  22
ENDBRANCH  18  21
ENDBRANCH  17  18
BRANCH  17  31
ATOM     31  C18 UNL     1       2.344   2.319   3.184  1.00  0.00     0.010 C   
ATOM     32  C19 UNL     1       1.276   3.236   3.814  1.00  0.00     0.017 C   
ATOM     33  C20 UNL     1       3.576   3.182   2.826  1.00  0.00     0.017 C   
ATOM     34  C21 UNL     1       2.803   1.302   4.254  1.00  0.00     0.017 C   
ENDBRANCH  17  31
ENDBRANCH   3  17
TORSDOF 8
