REMARK SMILES CC(C)Cn1ccc(Cn2cc([C@@H]([NH2+]Cc3ccc4c(c3)OCO4)C(C)C)nn2)n1
REMARK SMILES IDX 10 1 11 2 12 3 28 4 29 5 9 7 8 8 5 9 6 10 30 11 7 12 4 13
REMARK SMILES IDX 2 14 1 15 3 16 13 17 14 18 15 21 16 22 17 23 21 24 18 25
REMARK SMILES IDX 20 26 19 27 22 28 24 29 23 30 25 31 26 32 27 33
REMARK H PARENT 11 6 14 19 14 20
ROOT
ATOM     1   N2  UNL     1      -2.055  -1.291   1.554  1.00  0.00    -0.206 N   
ATOM     2   C9  UNL     1      -1.622   0.001   1.421  1.00  0.00     0.046 A   
ATOM     3   C10 UNL     1      -2.595   0.602   0.658  1.00  0.00     0.127 A   
ATOM     4   N4  UNL     1      -3.595  -0.302   0.408  1.00  0.00    -0.132 NA  
ATOM     5   N5  UNL     1      -3.256  -1.456   0.961  1.00  0.00    -0.076 NA  
ATOM     6   H14 UNL     1      -0.663   0.325   1.804  1.00  0.00     0.083 HD  
ENDROOT
BRANCH   1   7
ATOM     7   C8  UNL     1      -1.357  -2.408   2.166  1.00  0.00     0.191 C   
BRANCH   7   8
ATOM     8   C7  UNL     1      -0.268  -2.877   1.262  1.00  0.00     0.079 A   
ATOM     9   N1  UNL     1       1.601  -2.883   0.254  1.00  0.00    -0.232 N   
ATOM     10  C5  UNL     1       0.984  -4.028  -0.156  1.00  0.00     0.097 A   
ATOM     11  N6  UNL     1       0.847  -2.147   1.095  1.00  0.00    -0.185 NA  
ATOM     12  C6  UNL     1      -0.229  -4.062   0.489  1.00  0.00     0.044 A   
BRANCH   9  13
ATOM     13  C4  UNL     1       2.910  -2.408  -0.156  1.00  0.00     0.135 C   
BRANCH  13  14
ATOM     14  C2  UNL     1       4.072  -3.119   0.555  1.00  0.00     0.002 C   
ATOM     15  C1  UNL     1       4.113  -2.792   2.049  1.00  0.00     0.009 C   
ATOM     16  C3  UNL     1       5.398  -2.724  -0.099  1.00  0.00     0.009 C   
ENDBRANCH  13  14
ENDBRANCH   9  13
ENDBRANCH   7   8
ENDBRANCH   1   7
BRANCH   3  17
ATOM     17  C11 UNL     1      -2.629   1.950   0.022  1.00  0.00     0.117 C   
BRANCH  17  18
ATOM     18  N3  UNL     1      -3.187   1.856  -1.384  1.00  0.00     0.249 N   
ATOM     19  H16 UNL     1      -3.322   2.794  -1.770  1.00  0.00     0.199 HD  
ATOM     20  H17 UNL     1      -4.112   1.415  -1.301  1.00  0.00     0.199 HD  
BRANCH  18  21
ATOM     21  C12 UNL     1      -2.410   1.023  -2.355  1.00  0.00     0.164 C   
BRANCH  21  22
ATOM     22  C13 UNL     1      -1.007   1.510  -2.587  1.00  0.00    -0.002 A   
ATOM     23  C14 UNL     1      -0.771   2.705  -3.308  1.00  0.00     0.012 A   
ATOM     24  C18 UNL     1       0.083   0.787  -2.068  1.00  0.00     0.045 A   
ATOM     25  C15 UNL     1       0.531   3.177  -3.507  1.00  0.00     0.037 A   
ATOM     26  C17 UNL     1       1.353   1.278  -2.286  1.00  0.00     0.109 A   
ATOM     27  C16 UNL     1       1.570   2.441  -2.983  1.00  0.00     0.108 A   
ATOM     28  O1  UNL     1       2.509   0.705  -1.861  1.00  0.00    -0.316 OA  
ATOM     29  O2  UNL     1       2.889   2.749  -3.081  1.00  0.00    -0.316 OA  
ATOM     30  C19 UNL     1       3.485   1.639  -2.378  1.00  0.00     0.337 C   
ENDBRANCH  21  22
ENDBRANCH  18  21
ENDBRANCH  17  18
BRANCH  17  31
ATOM     31  C20 UNL     1      -3.445   3.009   0.808  1.00  0.00     0.037 C   
ATOM     32  C21 UNL     1      -4.923   2.656   1.011  1.00  0.00     0.014 C   
ATOM     33  C22 UNL     1      -2.798   3.316   2.165  1.00  0.00     0.014 C   
ENDBRANCH  17  31
ENDBRANCH   3  17
TORSDOF 9
