REMARK SMILES C[C@@H](Cn1cc([C@@H]([NH2+]Cc2ccc3c(c2)OCO3)C(C)(C)C)nn1)c1ccccn1
REMARK SMILES IDX 4 1 5 2 6 3 23 4 24 5 3 7 2 8 1 9 25 10 26 11 30 12 27 13
REMARK SMILES IDX 29 14 28 15 7 16 8 17 9 20 10 21 11 22 15 23 12 24 14 25
REMARK SMILES IDX 13 26 16 27 18 28 17 29 19 30 20 31 21 32 22 33
REMARK H PARENT 5 6 8 18 8 19
ROOT
ATOM     1   N1  UNL     1       0.222   1.765  -0.586  1.00  0.00    -0.211 N   
ATOM     2   C4  UNL     1      -0.958   1.622   0.089  1.00  0.00     0.045 A   
ATOM     3   C5  UNL     1      -1.073   0.264   0.276  1.00  0.00     0.127 A   
ATOM     4   N3  UNL     1      -0.026  -0.364  -0.350  1.00  0.00    -0.132 NA  
ATOM     5   N4  UNL     1       0.745   0.563  -0.893  1.00  0.00    -0.076 NA  
ATOM     6   H7  UNL     1      -1.552   2.473   0.394  1.00  0.00     0.083 HD  
ENDROOT
BRANCH   1   7
ATOM     7   C3  UNL     1       0.871   2.989  -1.008  1.00  0.00     0.143 C   
BRANCH   7   8
ATOM     8   C2  UNL     1       1.942   3.513  -0.029  1.00  0.00     0.054 C   
ATOM     9   C1  UNL     1       3.159   2.577   0.003  1.00  0.00     0.016 C   
BRANCH   8  10
ATOM     10  C19 UNL     1       1.348   3.858   1.328  1.00  0.00     0.045 A   
ATOM     11  C20 UNL     1       1.998   3.596   2.533  1.00  0.00     0.024 A   
ATOM     12  N5  UNL     1       0.151   4.502   1.298  1.00  0.00    -0.261 NA  
ATOM     13  C21 UNL     1       1.407   3.996   3.730  1.00  0.00     0.003 A   
ATOM     14  C23 UNL     1      -0.390   4.898   2.474  1.00  0.00     0.111 A   
ATOM     15  C22 UNL     1       0.191   4.664   3.704  1.00  0.00     0.020 A   
ENDBRANCH   8  10
ENDBRANCH   7   8
ENDBRANCH   1   7
BRANCH   3  16
ATOM     16  C6  UNL     1      -2.128  -0.555   0.953  1.00  0.00     0.120 C   
BRANCH  16  17
ATOM     17  N2  UNL     1      -2.271  -1.862   0.208  1.00  0.00     0.250 N   
ATOM     18  H9  UNL     1      -2.713  -2.593   0.770  1.00  0.00     0.199 HD  
ATOM     19  H10 UNL     1      -1.312  -2.190   0.014  1.00  0.00     0.199 HD  
BRANCH  17  20
ATOM     20  C7  UNL     1      -2.972  -1.773  -1.103  1.00  0.00     0.164 C   
BRANCH  20  21
ATOM     21  C8  UNL     1      -2.975  -3.110  -1.788  1.00  0.00    -0.002 A   
ATOM     22  C9  UNL     1      -4.080  -3.984  -1.655  1.00  0.00     0.012 A   
ATOM     23  C13 UNL     1      -1.851  -3.521  -2.526  1.00  0.00     0.045 A   
ATOM     24  C10 UNL     1      -4.073  -5.246  -2.258  1.00  0.00     0.037 A   
ATOM     25  C12 UNL     1      -1.876  -4.771  -3.107  1.00  0.00     0.109 A   
ATOM     26  C11 UNL     1      -2.956  -5.610  -2.978  1.00  0.00     0.108 A   
ATOM     27  O1  UNL     1      -0.879  -5.319  -3.849  1.00  0.00    -0.316 OA  
ATOM     28  O2  UNL     1      -2.775  -6.790  -3.625  1.00  0.00    -0.316 OA  
ATOM     29  C14 UNL     1      -1.463  -6.595  -4.196  1.00  0.00     0.337 C   
ENDBRANCH  20  21
ENDBRANCH  17  20
ENDBRANCH  16  17
BRANCH  16  30
ATOM     30  C15 UNL     1      -1.854  -0.820   2.475  1.00  0.00     0.010 C   
ATOM     31  C16 UNL     1      -3.064  -1.535   3.120  1.00  0.00     0.017 C   
ATOM     32  C17 UNL     1      -0.598  -1.683   2.712  1.00  0.00     0.017 C   
ATOM     33  C18 UNL     1      -1.671   0.518   3.229  1.00  0.00     0.017 C   
ENDBRANCH  16  30
ENDBRANCH   3  16
TORSDOF 8
