REMARK SMILES C[C@H](Cn1cc([C@@H]([NH2+]Cc2ccc3c(c2)OCO3)C(C)(C)C)nn1)c1ccccn1
REMARK SMILES IDX 4 1 5 2 6 3 23 4 24 5 3 7 2 8 1 9 25 10 26 11 30 12 27 13
REMARK SMILES IDX 29 14 28 15 7 16 8 17 9 20 10 21 11 22 15 23 12 24 14 25
REMARK SMILES IDX 13 26 16 27 18 28 17 29 19 30 20 31 21 32 22 33
REMARK H PARENT 5 6 8 18 8 19
ROOT
ATOM     1   N1  UNL     1       2.667   1.140  -0.553  1.00  0.00    -0.211 N   
ATOM     2   C4  UNL     1       1.399   1.370  -1.008  1.00  0.00     0.045 A   
ATOM     3   C5  UNL     1       0.642   0.404  -0.387  1.00  0.00     0.127 A   
ATOM     4   N3  UNL     1       1.470  -0.411   0.347  1.00  0.00    -0.132 NA  
ATOM     5   N4  UNL     1       2.708   0.041   0.223  1.00  0.00    -0.076 NA  
ATOM     6   H7  UNL     1       1.167   2.202  -1.660  1.00  0.00     0.083 HD  
ENDROOT
BRANCH   1   7
ATOM     7   C3  UNL     1       3.868   1.911  -0.803  1.00  0.00     0.143 C   
BRANCH   7   8
ATOM     8   C2  UNL     1       4.262   2.795   0.392  1.00  0.00     0.054 C   
ATOM     9   C1  UNL     1       5.606   3.478   0.122  1.00  0.00     0.016 C   
BRANCH   8  10
ATOM     10  C19 UNL     1       3.209   3.845   0.694  1.00  0.00     0.045 A   
ATOM     11  C20 UNL     1       2.920   4.187   2.014  1.00  0.00     0.024 A   
ATOM     12  N5  UNL     1       2.608   4.452  -0.362  1.00  0.00    -0.261 NA  
ATOM     13  C21 UNL     1       1.984   5.188   2.260  1.00  0.00     0.003 A   
ATOM     14  C23 UNL     1       1.719   5.435  -0.091  1.00  0.00     0.111 A   
ATOM     15  C22 UNL     1       1.372   5.829   1.189  1.00  0.00     0.020 A   
ENDBRANCH   8  10
ENDBRANCH   7   8
ENDBRANCH   1   7
BRANCH   3  16
ATOM     16  C6  UNL     1      -0.827   0.106  -0.425  1.00  0.00     0.120 C   
BRANCH  16  17
ATOM     17  N2  UNL     1      -1.007  -1.377  -0.189  1.00  0.00     0.250 N   
ATOM     18  H9  UNL     1      -0.287  -1.643   0.502  1.00  0.00     0.199 HD  
ATOM     19  H10 UNL     1      -1.904  -1.612   0.242  1.00  0.00     0.199 HD  
BRANCH  17  20
ATOM     20  C7  UNL     1      -0.795  -2.239  -1.385  1.00  0.00     0.164 C   
BRANCH  20  21
ATOM     21  C8  UNL     1      -0.862  -3.690  -1.002  1.00  0.00    -0.002 A   
ATOM     22  C9  UNL     1       0.325  -4.400  -0.699  1.00  0.00     0.012 A   
ATOM     23  C13 UNL     1      -2.106  -4.334  -0.879  1.00  0.00     0.045 A   
ATOM     24  C10 UNL     1       0.275  -5.743  -0.304  1.00  0.00     0.037 A   
ATOM     25  C12 UNL     1      -2.115  -5.654  -0.486  1.00  0.00     0.109 A   
ATOM     26  C11 UNL     1      -0.961  -6.342  -0.211  1.00  0.00     0.108 A   
ATOM     27  O1  UNL     1      -3.228  -6.420  -0.327  1.00  0.00    -0.316 OA  
ATOM     28  O2  UNL     1      -1.196  -7.627   0.155  1.00  0.00    -0.316 OA  
ATOM     29  C14 UNL     1      -2.636  -7.682   0.059  1.00  0.00     0.337 C   
ENDBRANCH  20  21
ENDBRANCH  17  20
ENDBRANCH  16  17
BRANCH  16  30
ATOM     30  C15 UNL     1      -1.678   0.927   0.604  1.00  0.00     0.010 C   
ATOM     31  C16 UNL     1      -3.185   0.639   0.403  1.00  0.00     0.017 C   
ATOM     32  C17 UNL     1      -1.310   0.606   2.066  1.00  0.00     0.017 C   
ATOM     33  C18 UNL     1      -1.480   2.444   0.379  1.00  0.00     0.017 C   
ENDBRANCH  16  30
ENDBRANCH   3  16
TORSDOF 8
