REMARK SMILES NCCc1cccc(-n2cc([C@@H]([NH2+]Cc3ccc4c(c3)OCO4)C3CCCC3)nn2)c1
REMARK SMILES IDX 4 1 5 2 6 3 7 4 8 5 31 6 3 7 2 8 1 9 9 12 10 13 30 14 11 15
REMARK SMILES IDX 29 16 12 17 13 18 14 21 15 22 16 23 20 24 17 25 19 26 18 27
REMARK SMILES IDX 21 28 23 29 22 30 24 31 25 32 28 33 26 34 27 35
REMARK H PARENT 1 10 1 11 13 19 13 20
ROOT
ATOM     1   C3  UNL     1      -4.358  -3.753   1.359  1.00  0.00    -0.045 A   
ATOM     2   C4  UNL     1      -4.604  -3.935   2.727  1.00  0.00     0.004 A   
ATOM     3   C5  UNL     1      -3.880  -3.216   3.676  1.00  0.00     0.002 A   
ATOM     4   C6  UNL     1      -2.904  -2.306   3.272  1.00  0.00     0.026 A   
ATOM     5   C7  UNL     1      -2.646  -2.110   1.907  1.00  0.00     0.058 A   
ATOM     6   C24 UNL     1      -3.372  -2.840   0.953  1.00  0.00     0.029 A   
ENDROOT
BRANCH   1   7
ATOM     7   C2  UNL     1      -5.142  -4.549   0.340  1.00  0.00     0.050 C   
BRANCH   7   8
ATOM     8   C1  UNL     1      -4.613  -5.981   0.199  1.00  0.00     0.082 C   
BRANCH   8   9
ATOM     9   N1  UNL     1      -5.378  -6.724  -0.799  1.00  0.00    -0.330 NA  
ATOM     10  H1  UNL     1      -5.036  -7.684  -0.845  1.00  0.00     0.118 HD  
ATOM     11  H2  UNL     1      -5.233  -6.326  -1.725  1.00  0.00     0.118 HD  
ENDBRANCH   8   9
ENDBRANCH   7   8
ENDBRANCH   1   7
BRANCH   5  12
ATOM     12  N2  UNL     1      -1.657  -1.175   1.516  1.00  0.00    -0.181 N   
ATOM     13  C8  UNL     1      -1.259  -0.801   0.244  1.00  0.00     0.135 A   
ATOM     14  N5  UNL     1      -0.938  -0.460   2.421  1.00  0.00    -0.071 NA  
ATOM     15  C9  UNL     1      -0.262   0.129   0.439  1.00  0.00     0.127 A   
ATOM     16  N4  UNL     1      -0.083   0.318   1.780  1.00  0.00    -0.131 NA  
BRANCH  15  17
ATOM     17  C10 UNL     1       0.554   0.928  -0.528  1.00  0.00     0.117 C   
BRANCH  17  18
ATOM     18  N3  UNL     1       0.855   2.284   0.062  1.00  0.00     0.249 N   
ATOM     19  H12 UNL     1       1.195   2.123   1.023  1.00  0.00     0.199 HD  
ATOM     20  H13 UNL     1       1.615   2.760  -0.433  1.00  0.00     0.199 HD  
BRANCH  18  21
ATOM     21  C11 UNL     1      -0.304   3.216   0.154  1.00  0.00     0.164 C   
BRANCH  21  22
ATOM     22  C12 UNL     1       0.118   4.513   0.784  1.00  0.00    -0.002 A   
ATOM     23  C13 UNL     1       0.517   5.607  -0.021  1.00  0.00     0.012 A   
ATOM     24  C17 UNL     1       0.171   4.627   2.184  1.00  0.00     0.045 A   
ATOM     25  C14 UNL     1       0.955   6.803   0.560  1.00  0.00     0.037 A   
ATOM     26  C16 UNL     1       0.607   5.819   2.724  1.00  0.00     0.109 A   
ATOM     27  C15 UNL     1       0.988   6.876   1.935  1.00  0.00     0.108 A   
ATOM     28  O1  UNL     1       0.719   6.093   4.050  1.00  0.00    -0.316 OA  
ATOM     29  O2  UNL     1       1.386   7.950   2.665  1.00  0.00    -0.316 OA  
ATOM     30  C18 UNL     1       1.191   7.458   4.009  1.00  0.00     0.337 C   
ENDBRANCH  21  22
ENDBRANCH  18  21
ENDBRANCH  17  18
BRANCH  17  31
ATOM     31  C19 UNL     1       1.890   0.234  -0.863  1.00  0.00     0.043 C   
ATOM     32  C20 UNL     1       1.716  -1.114  -1.572  1.00  0.00     0.010 C   
ATOM     33  C23 UNL     1       2.767   0.999  -1.863  1.00  0.00     0.010 C   
ATOM     34  C21 UNL     1       3.098  -1.407  -2.138  1.00  0.00     0.001 C   
ATOM     35  C22 UNL     1       3.710  -0.046  -2.456  1.00  0.00     0.001 C   
ENDBRANCH  17  31
ENDBRANCH  15  17
ENDBRANCH   5  12
TORSDOF 9
