REMARK SMILES COc1c(F)cccc1Cn1cc([C@@H]([NH2+]Cc2ccc3c(c2)OCO3)C(C)(C)C)nn1
REMARK SMILES IDX 11 1 12 2 13 3 30 4 31 5 10 7 9 8 3 9 4 10 6 11 8 12 7 13
REMARK SMILES IDX 5 14 2 15 1 16 14 17 15 18 16 21 17 22 18 23 22 24 19 25
REMARK SMILES IDX 21 26 20 27 23 28 25 29 24 30 26 31 27 32 28 33 29 34
REMARK H PARENT 12 6 15 19 15 20
ROOT
ATOM     1   N1  UNL     1      -0.075  -1.957   2.150  1.00  0.00    -0.208 N   
ATOM     2   C9  UNL     1       1.101  -1.633   1.532  1.00  0.00     0.046 A   
ATOM     3   C10 UNL     1       1.025  -0.270   1.356  1.00  0.00     0.127 A   
ATOM     4   N3  UNL     1      -0.173   0.181   1.850  1.00  0.00    -0.132 NA  
ATOM     5   N4  UNL     1      -0.835  -0.857   2.338  1.00  0.00    -0.076 NA  
ATOM     6   H9  UNL     1       1.845  -2.378   1.282  1.00  0.00     0.083 HD  
ENDROOT
BRANCH   1   7
ATOM     7   C8  UNL     1      -0.513  -3.257   2.625  1.00  0.00     0.172 C   
BRANCH   7   8
ATOM     8   C7  UNL     1      -1.377  -3.958   1.604  1.00  0.00     0.005 A   
ATOM     9   C2  UNL     1      -0.810  -4.674   0.529  1.00  0.00     0.115 A   
ATOM     10  C3  UNL     1      -1.663  -5.293  -0.395  1.00  0.00     0.153 A   
ATOM     11  C4  UNL     1      -3.048  -5.225  -0.259  1.00  0.00     0.042 A   
ATOM     12  C6  UNL     1      -2.778  -3.887   1.726  1.00  0.00     0.008 A   
ATOM     13  C5  UNL     1      -3.608  -4.524   0.803  1.00  0.00     0.004 A   
ATOM     14  F1  UNL     1      -1.180  -5.955  -1.458  1.00  0.00    -0.204 F   
BRANCH   9  15
ATOM     15  O1  UNL     1       0.561  -4.677   0.484  1.00  0.00    -0.346 OA  
ATOM     16  C1  UNL     1       1.180  -5.572  -0.438  1.00  0.00     0.203 C   
ENDBRANCH   9  15
ENDBRANCH   7   8
ENDBRANCH   1   7
BRANCH   3  17
ATOM     17  C11 UNL     1       1.961   0.686   0.682  1.00  0.00     0.120 C   
BRANCH  17  18
ATOM     18  N2  UNL     1       1.159   1.717  -0.076  1.00  0.00     0.250 N   
ATOM     19  H11 UNL     1       0.465   2.102   0.580  1.00  0.00     0.199 HD  
ATOM     20  H12 UNL     1       1.738   2.501  -0.384  1.00  0.00     0.199 HD  
BRANCH  18  21
ATOM     21  C12 UNL     1       0.406   1.200  -1.256  1.00  0.00     0.164 C   
BRANCH  21  22
ATOM     22  C13 UNL     1      -0.185   2.340  -2.039  1.00  0.00    -0.002 A   
ATOM     23  C14 UNL     1      -1.375   2.970  -1.604  1.00  0.00     0.012 A   
ATOM     24  C18 UNL     1       0.472   2.816  -3.188  1.00  0.00     0.045 A   
ATOM     25  C15 UNL     1      -1.907   4.059  -2.306  1.00  0.00     0.037 A   
ATOM     26  C17 UNL     1      -0.080   3.889  -3.855  1.00  0.00     0.109 A   
ATOM     27  C16 UNL     1      -1.234   4.496  -3.426  1.00  0.00     0.108 A   
ATOM     28  O2  UNL     1       0.427   4.464  -4.978  1.00  0.00    -0.316 OA  
ATOM     29  O3  UNL     1      -1.601   5.534  -4.223  1.00  0.00    -0.316 OA  
ATOM     30  C19 UNL     1      -0.557   5.497  -5.221  1.00  0.00     0.337 C   
ENDBRANCH  21  22
ENDBRANCH  18  21
ENDBRANCH  17  18
BRANCH  17  31
ATOM     31  C20 UNL     1       2.973   1.388   1.657  1.00  0.00     0.010 C   
ATOM     32  C21 UNL     1       2.283   2.326   2.664  1.00  0.00     0.017 C   
ATOM     33  C22 UNL     1       4.002   2.215   0.855  1.00  0.00     0.017 C   
ATOM     34  C23 UNL     1       3.770   0.330   2.452  1.00  0.00     0.017 C   
ENDBRANCH  17  31
ENDBRANCH   3  17
TORSDOF 8
