REMARK SMILES CC(C)C[C@H]([NH2+]Cc1ccc2c(c1)OCO2)c1cn(-c2cncc(CCl)c2)nn1
REMARK SMILES IDX 17 1 18 2 19 3 28 4 29 5 5 6 4 7 2 8 1 9 3 10 6 11 7 14 8 15
REMARK SMILES IDX 9 16 13 17 10 18 12 19 11 20 14 21 16 22 15 23 20 24 21 25
REMARK SMILES IDX 27 26 22 27 24 28 23 29 25 30 26 31
REMARK H PARENT 6 12 6 13
ROOT
ATOM     1   C14 UNL     1      -0.397   0.819  -1.059  1.00  0.00     0.127 A   
ATOM     2   C15 UNL     1      -0.160   1.046   0.280  1.00  0.00     0.135 A   
ATOM     3   N2  UNL     1      -0.735  -0.032   0.928  1.00  0.00    -0.179 N   
ATOM     4   N4  UNL     1      -1.355  -0.815   0.009  1.00  0.00    -0.071 NA  
ATOM     5   N5  UNL     1      -1.140  -0.318  -1.196  1.00  0.00    -0.131 NA  
ENDROOT
BRANCH   1   6
ATOM     6   C5  UNL     1       0.105   1.502  -2.289  1.00  0.00     0.114 C   
BRANCH   6   7
ATOM     7   C4  UNL     1      -1.016   2.220  -3.064  1.00  0.00     0.064 C   
BRANCH   7   8
ATOM     8   C2  UNL     1      -1.711   3.368  -2.303  1.00  0.00    -0.012 C   
ATOM     9   C1  UNL     1      -0.742   4.489  -1.927  1.00  0.00     0.007 C   
ATOM     10  C3  UNL     1      -2.845   3.937  -3.161  1.00  0.00     0.007 C   
ENDBRANCH   7   8
ENDBRANCH   6   7
BRANCH   6  11
ATOM     11  N1  UNL     1       0.694   0.453  -3.222  1.00  0.00     0.249 N   
ATOM     12  H11 UNL     1       0.481   0.683  -4.199  1.00  0.00     0.199 HD  
ATOM     13  H12 UNL     1       0.183  -0.423  -3.026  1.00  0.00     0.199 HD  
BRANCH  11  14
ATOM     14  C6  UNL     1       2.160   0.182  -3.100  1.00  0.00     0.164 C   
BRANCH  14  15
ATOM     15  C7  UNL     1       2.613  -0.189  -1.715  1.00  0.00    -0.002 A   
ATOM     16  C8  UNL     1       3.423   0.701  -0.967  1.00  0.00     0.012 A   
ATOM     17  C12 UNL     1       2.190  -1.396  -1.126  1.00  0.00     0.045 A   
ATOM     18  C9  UNL     1       3.784   0.412   0.353  1.00  0.00     0.037 A   
ATOM     19  C11 UNL     1       2.555  -1.645   0.181  1.00  0.00     0.109 A   
ATOM     20  C10 UNL     1       3.325  -0.765   0.901  1.00  0.00     0.108 A   
ATOM     21  O1  UNL     1       2.188  -2.729   0.911  1.00  0.00    -0.316 OA  
ATOM     22  O2  UNL     1       3.544  -1.189   2.171  1.00  0.00    -0.316 OA  
ATOM     23  C13 UNL     1       2.846  -2.452   2.170  1.00  0.00     0.337 C   
ENDBRANCH  14  15
ENDBRANCH  11  14
ENDBRANCH   6  11
ENDBRANCH   1   6
BRANCH   3  24
ATOM     24  C16 UNL     1      -0.680  -0.386   2.292  1.00  0.00     0.076 A   
ATOM     25  C17 UNL     1      -1.329  -1.534   2.731  1.00  0.00     0.136 A   
ATOM     26  C21 UNL     1       0.046   0.358   3.227  1.00  0.00     0.034 A   
ATOM     27  N3  UNL     1      -1.287  -1.971   4.010  1.00  0.00    -0.262 NA  
ATOM     28  C19 UNL     1       0.113  -0.076   4.560  1.00  0.00    -0.013 A   
ATOM     29  C18 UNL     1      -0.565  -1.244   4.892  1.00  0.00     0.116 A   
BRANCH  28  30
ATOM     30  C20 UNL     1       0.913   0.660   5.592  1.00  0.00     0.146 C   
ATOM     31  CL1 UNL     1       2.647   0.394   5.329  1.00  0.00    -0.122 Cl  
ENDBRANCH  28  30
ENDBRANCH   3  24
TORSDOF 8
