REMARK SMILES CC(C)C[C@H]([NH2+]Cc1ccc2c(c1)OCO2)c1cn(Cc2cccc(CN(C)C)c2)nn1
REMARK SMILES IDX 17 1 18 2 19 3 31 4 32 5 5 7 4 8 2 9 1 10 3 11 6 12 7 15
REMARK SMILES IDX 8 16 9 17 13 18 10 19 12 20 11 21 14 22 16 23 15 24 20 25
REMARK SMILES IDX 21 26 22 27 30 28 23 29 25 30 24 31 26 32 27 33 28 34 29 35
REMARK H PARENT 18 6 6 13 6 14
ROOT
ATOM     1   C14 UNL     1      -0.431  -3.457  -0.499  1.00  0.00     0.127 A   
ATOM     2   C15 UNL     1      -1.758  -3.616  -0.168  1.00  0.00     0.046 A   
ATOM     3   N2  UNL     1      -2.396  -3.663  -1.380  1.00  0.00    -0.208 N   
ATOM     4   N4  UNL     1      -1.506  -3.639  -2.390  1.00  0.00    -0.076 NA  
ATOM     5   N5  UNL     1      -0.300  -3.511  -1.865  1.00  0.00    -0.132 NA  
ATOM     6   H20 UNL     1      -2.305  -3.601   0.765  1.00  0.00     0.083 HD  
ENDROOT
BRANCH   1   7
ATOM     7   C5  UNL     1       0.777  -3.133   0.318  1.00  0.00     0.114 C   
BRANCH   7   8
ATOM     8   C4  UNL     1       0.492  -2.890   1.811  1.00  0.00     0.064 C   
BRANCH   8   9
ATOM     9   C2  UNL     1       1.710  -2.520   2.684  1.00  0.00    -0.012 C   
ATOM     10  C1  UNL     1       2.793  -3.598   2.662  1.00  0.00     0.007 C   
ATOM     11  C3  UNL     1       1.254  -2.276   4.126  1.00  0.00     0.007 C   
ENDBRANCH   8   9
ENDBRANCH   7   8
BRANCH   7  12
ATOM     12  N1  UNL     1       1.508  -1.970  -0.296  1.00  0.00     0.249 N   
ATOM     13  H11 UNL     1       2.426  -1.841   0.139  1.00  0.00     0.199 HD  
ATOM     14  H12 UNL     1       1.701  -2.241  -1.272  1.00  0.00     0.199 HD  
BRANCH  12  15
ATOM     15  C6  UNL     1       0.786  -0.663  -0.372  1.00  0.00     0.164 C   
BRANCH  15  16
ATOM     16  C7  UNL     1       1.698   0.394  -0.933  1.00  0.00    -0.002 A   
ATOM     17  C8  UNL     1       1.670   0.704  -2.313  1.00  0.00     0.012 A   
ATOM     18  C12 UNL     1       2.614   1.050  -0.092  1.00  0.00     0.045 A   
ATOM     19  C9  UNL     1       2.526   1.672  -2.849  1.00  0.00     0.037 A   
ATOM     20  C11 UNL     1       3.447   1.994  -0.653  1.00  0.00     0.109 A   
ATOM     21  C10 UNL     1       3.402   2.301  -1.991  1.00  0.00     0.108 A   
ATOM     22  O1  UNL     1       4.379   2.720   0.019  1.00  0.00    -0.316 OA  
ATOM     23  O2  UNL     1       4.296   3.265  -2.329  1.00  0.00    -0.316 OA  
ATOM     24  C13 UNL     1       4.931   3.514  -1.056  1.00  0.00     0.337 C   
ENDBRANCH  15  16
ENDBRANCH  12  15
ENDBRANCH   7  12
ENDBRANCH   1   7
BRANCH   3  25
ATOM     25  C16 UNL     1      -3.822  -3.515  -1.640  1.00  0.00     0.169 C   
BRANCH  25  26
ATOM     26  C17 UNL     1      -4.327  -2.191  -1.109  1.00  0.00    -0.028 A   
ATOM     27  C18 UNL     1      -5.464  -2.142  -0.293  1.00  0.00     0.005 A   
ATOM     28  C25 UNL     1      -3.664  -0.989  -1.420  1.00  0.00     0.010 A   
ATOM     29  C19 UNL     1      -5.907  -0.925   0.226  1.00  0.00     0.001 A   
ATOM     30  C21 UNL     1      -4.084   0.234  -0.880  1.00  0.00    -0.034 A   
ATOM     31  C20 UNL     1      -5.216   0.254  -0.056  1.00  0.00     0.005 A   
BRANCH  30  32
ATOM     32  C22 UNL     1      -3.319   1.504  -1.184  1.00  0.00     0.119 C   
BRANCH  32  33
ATOM     33  N3  UNL     1      -1.971   1.540  -0.560  1.00  0.00    -0.305 NA  
ATOM     34  C23 UNL     1      -1.250   2.706  -1.094  1.00  0.00     0.105 C   
ATOM     35  C24 UNL     1      -2.087   1.683   0.898  1.00  0.00     0.105 C   
ENDBRANCH  32  33
ENDBRANCH  30  32
ENDBRANCH  25  26
ENDBRANCH   3  25
TORSDOF 10
