REMARK SMILES COc1ccc(Cn2cc([C@@H]([NH2+]Cc3ccc4c(c3)OCO4)C(C)(C)C)nn2)c(C)c1
REMARK SMILES IDX 8 1 9 2 10 3 27 4 28 5 7 7 6 8 3 9 4 10 31 11 5 12 29 13
REMARK SMILES IDX 30 14 2 15 1 16 11 17 12 18 13 21 14 22 15 23 19 24 16 25
REMARK SMILES IDX 18 26 17 27 20 28 22 29 21 30 23 31 24 32 25 33 26 34
REMARK H PARENT 9 6 12 19 12 20
ROOT
ATOM     1   N1  UNL     1       0.878  -2.072  -1.490  1.00  0.00    -0.208 N   
ATOM     2   C7  UNL     1       0.031  -1.758  -0.464  1.00  0.00     0.046 A   
ATOM     3   C8  UNL     1      -1.205  -1.670  -1.066  1.00  0.00     0.127 A   
ATOM     4   N3  UNL     1      -1.076  -1.949  -2.401  1.00  0.00    -0.132 NA  
ATOM     5   N4  UNL     1       0.201  -2.194  -2.649  1.00  0.00    -0.076 NA  
ATOM     6   H8  UNL     1       0.379  -1.583   0.544  1.00  0.00     0.083 HD  
ENDROOT
BRANCH   1   7
ATOM     7   C6  UNL     1       2.330  -2.167  -1.460  1.00  0.00     0.169 C   
BRANCH   7   8
ATOM     8   C5  UNL     1       2.942  -0.786  -1.344  1.00  0.00    -0.025 A   
ATOM     9   C2  UNL     1       3.977   1.842  -1.250  1.00  0.00     0.075 A   
ATOM     10  C3  UNL     1       3.412   1.362  -2.426  1.00  0.00     0.034 A   
ATOM     11  C24 UNL     1       4.025   1.011  -0.125  1.00  0.00     0.037 A   
ATOM     12  C4  UNL     1       2.900   0.061  -2.471  1.00  0.00     0.008 A   
ATOM     13  C22 UNL     1       3.522  -0.304  -0.153  1.00  0.00    -0.044 A   
ATOM     14  C23 UNL     1       3.661  -1.153   1.082  1.00  0.00     0.045 C   
BRANCH   9  15
ATOM     15  O1  UNL     1       4.502   3.091  -1.064  1.00  0.00    -0.349 OA  
ATOM     16  C1  UNL     1       4.696   3.890  -2.228  1.00  0.00     0.203 C   
ENDBRANCH   9  15
ENDBRANCH   7   8
ENDBRANCH   1   7
BRANCH   3  17
ATOM     17  C9  UNL     1      -2.523  -1.223  -0.517  1.00  0.00     0.120 C   
BRANCH  17  18
ATOM     18  N2  UNL     1      -3.183  -0.259  -1.486  1.00  0.00     0.250 N   
ATOM     19  H10 UNL     1      -4.110   0.009  -1.148  1.00  0.00     0.199 HD  
ATOM     20  H11 UNL     1      -3.308  -0.766  -2.372  1.00  0.00     0.199 HD  
BRANCH  18  21
ATOM     21  C10 UNL     1      -2.423   0.991  -1.817  1.00  0.00     0.164 C   
BRANCH  21  22
ATOM     22  C11 UNL     1      -2.059   1.817  -0.614  1.00  0.00    -0.002 A   
ATOM     23  C12 UNL     1      -0.698   1.989  -0.259  1.00  0.00     0.012 A   
ATOM     24  C16 UNL     1      -3.060   2.407   0.179  1.00  0.00     0.045 A   
ATOM     25  C13 UNL     1      -0.336   2.727   0.874  1.00  0.00     0.037 A   
ATOM     26  C15 UNL     1      -2.668   3.124   1.294  1.00  0.00     0.109 A   
ATOM     27  C14 UNL     1      -1.346   3.279   1.633  1.00  0.00     0.108 A   
ATOM     28  O2  UNL     1      -3.506   3.739   2.173  1.00  0.00    -0.316 OA  
ATOM     29  O3  UNL     1      -1.185   4.011   2.767  1.00  0.00    -0.316 OA  
ATOM     30  C17 UNL     1      -2.558   4.305   3.106  1.00  0.00     0.337 C   
ENDBRANCH  21  22
ENDBRANCH  18  21
ENDBRANCH  17  18
BRANCH  17  31
ATOM     31  C18 UNL     1      -3.502  -2.399  -0.164  1.00  0.00     0.010 C   
ATOM     32  C19 UNL     1      -3.947  -3.209  -1.399  1.00  0.00     0.017 C   
ATOM     33  C20 UNL     1      -2.825  -3.368   0.834  1.00  0.00     0.017 C   
ATOM     34  C21 UNL     1      -4.769  -1.850   0.531  1.00  0.00     0.017 C   
ENDBRANCH  17  31
ENDBRANCH   3  17
TORSDOF 8
