REMARK SMILES CC(C)(C)[C@H]([NH2+]Cc1ccc2c(c1)OCO2)c1cn(Cc2ccc(F)c(N([O-])[O-])c2)nn1
REMARK SMILES IDX 17 1 18 2 19 3 31 4 32 5 5 7 2 8 1 9 3 10 4 11 6 12 7 15
REMARK SMILES IDX 8 16 9 17 13 18 10 19 12 20 11 21 14 22 16 23 15 24 20 25
REMARK SMILES IDX 21 26 22 27 30 28 23 29 26 30 24 31 25 32 27 33 28 34 29 35
REMARK H PARENT 18 6 6 13 6 14
ROOT
ATOM     1   C14 UNL     1      -0.390   1.815  -0.111  1.00  0.00     0.127 A   
ATOM     2   C15 UNL     1       0.783   2.504   0.114  1.00  0.00     0.046 A   
ATOM     3   N2  UNL     1       0.827   2.649   1.474  1.00  0.00    -0.208 N   
ATOM     4   N4  UNL     1      -0.239   2.065   2.053  1.00  0.00    -0.076 NA  
ATOM     5   N5  UNL     1      -0.992   1.553   1.094  1.00  0.00    -0.132 NA  
ATOM     6   H20 UNL     1       1.556   2.890  -0.537  1.00  0.00     0.083 HD  
ENDROOT
BRANCH   1   7
ATOM     7   C5  UNL     1      -1.011   1.289  -1.373  1.00  0.00     0.120 C   
BRANCH   7   8
ATOM     8   C2  UNL     1      -2.006   2.287  -2.063  1.00  0.00     0.010 C   
ATOM     9   C1  UNL     1      -1.296   3.628  -2.363  1.00  0.00     0.017 C   
ATOM     10  C3  UNL     1      -2.481   1.719  -3.421  1.00  0.00     0.017 C   
ATOM     11  C4  UNL     1      -3.249   2.580  -1.200  1.00  0.00     0.017 C   
ENDBRANCH   7   8
BRANCH   7  12
ATOM     12  N1  UNL     1      -1.708  -0.015  -1.061  1.00  0.00     0.250 N   
ATOM     13  H11 UNL     1      -2.242   0.136  -0.191  1.00  0.00     0.199 HD  
ATOM     14  H12 UNL     1      -2.396  -0.274  -1.773  1.00  0.00     0.199 HD  
BRANCH  12  15
ATOM     15  C6  UNL     1      -0.810  -1.180  -0.825  1.00  0.00     0.164 C   
BRANCH  15  16
ATOM     16  C7  UNL     1      -1.615  -2.392  -0.451  1.00  0.00    -0.002 A   
ATOM     17  C8  UNL     1      -1.988  -2.609   0.897  1.00  0.00     0.012 A   
ATOM     18  C12 UNL     1      -2.052  -3.286  -1.443  1.00  0.00     0.045 A   
ATOM     19  C9  UNL     1      -2.775  -3.708   1.257  1.00  0.00     0.037 A   
ATOM     20  C11 UNL     1      -2.828  -4.358  -1.054  1.00  0.00     0.109 A   
ATOM     21  C10 UNL     1      -3.179  -4.564   0.257  1.00  0.00     0.108 A   
ATOM     22  O1  UNL     1      -3.331  -5.311  -1.883  1.00  0.00    -0.316 OA  
ATOM     23  O2  UNL     1      -3.945  -5.674   0.420  1.00  0.00    -0.316 OA  
ATOM     24  C13 UNL     1      -4.020  -6.161  -0.937  1.00  0.00     0.337 C   
ENDBRANCH  15  16
ENDBRANCH  12  15
ENDBRANCH   7  12
ENDBRANCH   1   7
BRANCH   3  25
ATOM     25  C16 UNL     1       1.841   3.309   2.279  1.00  0.00     0.169 C   
BRANCH  25  26
ATOM     26  C17 UNL     1       2.893   2.324   2.732  1.00  0.00    -0.026 A   
ATOM     27  C18 UNL     1       2.749   1.642   3.954  1.00  0.00     0.008 A   
ATOM     28  C22 UNL     1       4.010   2.044   1.929  1.00  0.00     0.039 A   
ATOM     29  C19 UNL     1       3.705   0.709   4.371  1.00  0.00     0.042 A   
ATOM     30  C21 UNL     1       4.951   1.094   2.355  1.00  0.00     0.154 A   
ATOM     31  C20 UNL     1       4.808   0.434   3.568  1.00  0.00     0.151 A   
ATOM     32  F1  UNL     1       5.711  -0.454   4.000  1.00  0.00    -0.205 F   
BRANCH  30  33
ATOM     33  N3  UNL     1       6.075   0.781   1.495  1.00  0.00     0.095 N   
ATOM     34  O3  UNL     1       6.597   1.730   0.893  1.00  0.00    -0.138 OA  
ATOM     35  O4  UNL     1       6.386  -0.408   1.362  1.00  0.00    -0.138 OA  
ENDBRANCH  30  33
ENDBRANCH  25  26
ENDBRANCH   3  25
TORSDOF 8
