REMARK SMILES c1cc2c(cc1C[NH2+][C@H](c1cn(Cc3ccc4c(c3)OCO4)nn1)C1CCCC1)OCO2
REMARK SMILES IDX 9 1 8 2 7 5 6 6 1 7 2 8 3 9 5 10 4 11 32 12 30 13 31 14
REMARK SMILES IDX 10 15 11 16 24 17 12 18 23 19 13 21 14 22 15 23 19 24 16 25
REMARK SMILES IDX 18 26 17 27 20 28 22 29 21 30 25 31 26 32 29 33 27 34 28 35
REMARK H PARENT 8 3 8 4 11 20
ROOT
ATOM     1   C8  UNL     1      -0.250   0.551   2.381  1.00  0.00     0.117 C   
ENDROOT
BRANCH   1   2
ATOM     2   N1  UNL     1      -0.296   2.037   2.079  1.00  0.00     0.249 N   
ATOM     3   H6  UNL     1       0.510   2.504   2.502  1.00  0.00     0.199 HD  
ATOM     4   H7  UNL     1      -1.141   2.403   2.536  1.00  0.00     0.199 HD  
BRANCH   2   5
ATOM     5   C7  UNL     1      -0.376   2.432   0.636  1.00  0.00     0.164 C   
BRANCH   5   6
ATOM     6   C6  UNL     1       0.719   1.856  -0.217  1.00  0.00    -0.002 A   
ATOM     7   C1  UNL     1       0.405   0.918  -1.232  1.00  0.00     0.012 A   
ATOM     8   C2  UNL     1       1.409   0.341  -2.016  1.00  0.00     0.037 A   
ATOM     9   C3  UNL     1       2.710   0.721  -1.774  1.00  0.00     0.108 A   
ATOM     10  C5  UNL     1       2.058   2.225  -0.009  1.00  0.00     0.045 A   
ATOM     11  C4  UNL     1       3.024   1.637  -0.800  1.00  0.00     0.109 A   
ATOM     12  O4  UNL     1       3.808   0.268  -2.432  1.00  0.00    -0.316 OA  
ATOM     13  O3  UNL     1       4.359   1.875  -0.722  1.00  0.00    -0.316 OA  
ATOM     14  C24 UNL     1       4.852   1.026  -1.784  1.00  0.00     0.337 C   
ENDBRANCH   5   6
ENDBRANCH   2   5
ENDBRANCH   1   2
BRANCH   1  15
ATOM     15  C9  UNL     1      -1.436  -0.140   1.796  1.00  0.00     0.127 A   
ATOM     16  C10 UNL     1      -1.522  -1.295   1.051  1.00  0.00     0.046 A   
ATOM     17  N4  UNL     1      -2.675   0.440   1.875  1.00  0.00    -0.132 NA  
ATOM     18  N2  UNL     1      -2.830  -1.334   0.655  1.00  0.00    -0.208 N   
ATOM     19  N3  UNL     1      -3.518  -0.294   1.166  1.00  0.00    -0.076 NA  
ATOM     20  H9  UNL     1      -0.794  -2.025   0.725  1.00  0.00     0.083 HD  
BRANCH  18  21
ATOM     21  C11 UNL     1      -3.449  -2.245  -0.294  1.00  0.00     0.169 C   
BRANCH  21  22
ATOM     22  C12 UNL     1      -3.037  -1.881  -1.701  1.00  0.00    -0.026 A   
ATOM     23  C13 UNL     1      -3.699  -0.833  -2.385  1.00  0.00     0.008 A   
ATOM     24  C17 UNL     1      -1.957  -2.535  -2.318  1.00  0.00     0.041 A   
ATOM     25  C14 UNL     1      -3.295  -0.439  -3.664  1.00  0.00     0.037 A   
ATOM     26  C16 UNL     1      -1.580  -2.120  -3.579  1.00  0.00     0.109 A   
ATOM     27  C15 UNL     1      -2.229  -1.101  -4.232  1.00  0.00     0.108 A   
ATOM     28  O1  UNL     1      -0.550  -2.629  -4.304  1.00  0.00    -0.316 OA  
ATOM     29  O2  UNL     1      -1.692  -0.845  -5.454  1.00  0.00    -0.316 OA  
ATOM     30  C18 UNL     1      -0.664  -1.856  -5.520  1.00  0.00     0.337 C   
ENDBRANCH  21  22
ENDBRANCH  18  21
ENDBRANCH   1  15
BRANCH   1  31
ATOM     31  C19 UNL     1      -0.174   0.372   3.910  1.00  0.00     0.043 C   
ATOM     32  C20 UNL     1      -0.000  -1.087   4.344  1.00  0.00     0.010 C   
ATOM     33  C23 UNL     1       1.041   1.040   4.564  1.00  0.00     0.010 C   
ATOM     34  C21 UNL     1       0.431  -0.979   5.799  1.00  0.00     0.001 C   
ATOM     35  C22 UNL     1       1.238   0.313   5.892  1.00  0.00     0.001 C   
ENDBRANCH   1  31
TORSDOF 7
