REMARK SMILES Cc1nn(C)c(C)c1CCn1cc([C@@H]([NH2+]Cc2ccc3c(c2)OCO3)C(C)(C)C)nn1
REMARK SMILES IDX 11 1 12 2 13 3 30 4 31 5 10 7 9 8 8 9 2 10 3 11 4 12 6 13
REMARK SMILES IDX 1 14 5 15 7 16 14 17 15 18 16 21 17 22 18 23 22 24 19 25
REMARK SMILES IDX 21 26 20 27 23 28 25 29 24 30 26 31 27 32 28 33 29 34
REMARK H PARENT 12 6 15 19 15 20
ROOT
ATOM     1   N3  UNL     1       0.062   4.147   0.061  1.00  0.00    -0.212 N   
ATOM     2   C9  UNL     1      -0.874   3.165  -0.130  1.00  0.00     0.045 A   
ATOM     3   C10 UNL     1      -0.504   2.580  -1.322  1.00  0.00     0.127 A   
ATOM     4   N5  UNL     1       0.527   3.304  -1.865  1.00  0.00    -0.132 NA  
ATOM     5   N6  UNL     1       0.858   4.265  -1.014  1.00  0.00    -0.076 NA  
ATOM     6   H14 UNL     1      -1.587   2.904   0.639  1.00  0.00     0.083 HD  
ENDROOT
BRANCH   1   7
ATOM     7   C8  UNL     1       0.425   4.763   1.325  1.00  0.00     0.139 C   
BRANCH   7   8
ATOM     8   C7  UNL     1       1.538   3.989   2.057  1.00  0.00     0.060 C   
BRANCH   8   9
ATOM     9   C6  UNL     1       1.260   2.513   2.108  1.00  0.00    -0.005 A   
ATOM     10  C2  UNL     1       1.748   1.515   1.215  1.00  0.00     0.060 A   
ATOM     11  N1  UNL     1       1.026   0.387   1.323  1.00  0.00    -0.187 NA  
ATOM     12  N2  UNL     1       0.399   0.534   2.513  1.00  0.00    -0.233 N   
ATOM     13  C4  UNL     1       0.400   1.833   2.955  1.00  0.00     0.030 A   
ATOM     14  C1  UNL     1       2.797   1.621   0.165  1.00  0.00     0.069 C   
ATOM     15  C3  UNL     1      -0.270  -0.598   3.116  1.00  0.00     0.159 C   
ATOM     16  C5  UNL     1      -0.398   2.291   4.122  1.00  0.00     0.064 C   
ENDBRANCH   8   9
ENDBRANCH   7   8
ENDBRANCH   1   7
BRANCH   3  17
ATOM     17  C11 UNL     1      -0.939   1.302  -1.977  1.00  0.00     0.120 C   
BRANCH  17  18
ATOM     18  N4  UNL     1      -0.573   0.104  -1.123  1.00  0.00     0.250 N   
ATOM     19  H16 UNL     1      -1.394  -0.328  -0.699  1.00  0.00     0.199 HD  
ATOM     20  H17 UNL     1      -0.005   0.407  -0.301  1.00  0.00     0.199 HD  
BRANCH  18  21
ATOM     21  C12 UNL     1       0.248  -0.940  -1.798  1.00  0.00     0.164 C   
BRANCH  21  22
ATOM     22  C13 UNL     1       0.268  -2.229  -1.022  1.00  0.00    -0.002 A   
ATOM     23  C14 UNL     1      -0.797  -3.154  -1.144  1.00  0.00     0.012 A   
ATOM     24  C18 UNL     1       1.326  -2.512  -0.143  1.00  0.00     0.045 A   
ATOM     25  C15 UNL     1      -0.810  -4.341  -0.404  1.00  0.00     0.037 A   
ATOM     26  C17 UNL     1       1.285  -3.691   0.573  1.00  0.00     0.109 A   
ATOM     27  C16 UNL     1       0.246  -4.580   0.447  1.00  0.00     0.108 A   
ATOM     28  O1  UNL     1       2.220  -4.109   1.466  1.00  0.00    -0.316 OA  
ATOM     29  O2  UNL     1       0.397  -5.671   1.241  1.00  0.00    -0.316 OA  
ATOM     30  C19 UNL     1       1.668  -5.384   1.864  1.00  0.00     0.337 C   
ENDBRANCH  21  22
ENDBRANCH  18  21
ENDBRANCH  17  18
BRANCH  17  31
ATOM     31  C20 UNL     1      -2.444   1.262  -2.426  1.00  0.00     0.010 C   
ATOM     32  C21 UNL     1      -3.449   1.320  -1.258  1.00  0.00     0.017 C   
ATOM     33  C22 UNL     1      -2.732   2.454  -3.368  1.00  0.00     0.017 C   
ATOM     34  C23 UNL     1      -2.736  -0.026  -3.228  1.00  0.00     0.017 C   
ENDBRANCH  17  31
ENDBRANCH   3  17
TORSDOF 8
