REMARK SMILES CC(C)[C@H]([NH2+]Cc1ccc2c(c1)OCO2)c1cn(Cc2cnn(C(C)(C)C)c2)nn1
REMARK SMILES IDX 16 1 17 2 18 3 29 4 30 5 4 7 2 8 1 9 3 10 5 11 6 14 7 15
REMARK SMILES IDX 8 16 12 17 9 18 11 19 10 20 13 21 15 22 14 23 19 24 20 25
REMARK SMILES IDX 21 26 28 27 22 28 23 29 24 30 25 31 26 32 27 33
REMARK H PARENT 17 6 5 12 5 13
ROOT
ATOM     1   C13 UNL     1       1.779  -1.886  -1.031  1.00  0.00     0.127 A   
ATOM     2   C14 UNL     1       2.295  -0.721  -0.508  1.00  0.00     0.046 A   
ATOM     3   N2  UNL     1       2.701  -0.016  -1.610  1.00  0.00    -0.208 N   
ATOM     4   N5  UNL     1       2.494  -0.728  -2.736  1.00  0.00    -0.076 NA  
ATOM     5   N6  UNL     1       1.934  -1.876  -2.393  1.00  0.00    -0.132 NA  
ATOM     6   H18 UNL     1       2.341  -0.308   0.490  1.00  0.00     0.083 HD  
ENDROOT
BRANCH   1   7
ATOM     7   C4  UNL     1       1.022  -2.993  -0.377  1.00  0.00     0.117 C   
BRANCH   7   8
ATOM     8   C2  UNL     1       1.868  -4.258  -0.077  1.00  0.00     0.037 C   
ATOM     9   C1  UNL     1       2.482  -4.924  -1.314  1.00  0.00     0.014 C   
ATOM     10  C3  UNL     1       2.970  -3.963   0.948  1.00  0.00     0.014 C   
ENDBRANCH   7   8
BRANCH   7  11
ATOM     11  N1  UNL     1      -0.167  -3.397  -1.226  1.00  0.00     0.249 N   
ATOM     12  H9  UNL     1      -0.610  -4.231  -0.832  1.00  0.00     0.199 HD  
ATOM     13  H10 UNL     1       0.205  -3.652  -2.151  1.00  0.00     0.199 HD  
BRANCH  11  14
ATOM     14  C5  UNL     1      -1.208  -2.348  -1.469  1.00  0.00     0.164 C   
BRANCH  14  15
ATOM     15  C6  UNL     1      -1.810  -1.782  -0.214  1.00  0.00    -0.002 A   
ATOM     16  C7  UNL     1      -1.626  -0.414   0.105  1.00  0.00     0.012 A   
ATOM     17  C11 UNL     1      -2.555  -2.598   0.655  1.00  0.00     0.045 A   
ATOM     18  C8  UNL     1      -2.161   0.133   1.276  1.00  0.00     0.037 A   
ATOM     19  C10 UNL     1      -3.066  -2.027   1.803  1.00  0.00     0.109 A   
ATOM     20  C9  UNL     1      -2.875  -0.702   2.105  1.00  0.00     0.108 A   
ATOM     21  O1  UNL     1      -3.795  -2.676   2.749  1.00  0.00    -0.316 OA  
ATOM     22  O2  UNL     1      -3.461  -0.349   3.279  1.00  0.00    -0.316 OA  
ATOM     23  C12 UNL     1      -4.087  -1.592   3.661  1.00  0.00     0.337 C   
ENDBRANCH  14  15
ENDBRANCH  11  14
ENDBRANCH   7  11
ENDBRANCH   1   7
BRANCH   3  24
ATOM     24  C15 UNL     1       3.110   1.380  -1.675  1.00  0.00     0.172 C   
BRANCH  24  25
ATOM     25  C16 UNL     1       1.933   2.248  -1.397  1.00  0.00     0.007 A   
ATOM     26  C17 UNL     1       0.728   2.314  -2.131  1.00  0.00     0.138 A   
ATOM     27  C22 UNL     1       1.747   3.154  -0.372  1.00  0.00     0.103 A   
ATOM     28  N3  UNL     1      -0.168   3.123  -1.570  1.00  0.00    -0.189 NA  
ATOM     29  N4  UNL     1       0.478   3.662  -0.514  1.00  0.00    -0.227 N   
BRANCH  29  30
ATOM     30  C18 UNL     1      -0.166   4.706   0.309  1.00  0.00     0.047 C   
ATOM     31  C19 UNL     1       0.385   6.080  -0.110  1.00  0.00     0.034 C   
ATOM     32  C20 UNL     1      -1.701   4.707   0.125  1.00  0.00     0.034 C   
ATOM     33  C21 UNL     1       0.118   4.471   1.808  1.00  0.00     0.034 C   
ENDBRANCH  29  30
ENDBRANCH  24  25
ENDBRANCH   3  24
TORSDOF 8
