REMARK SMILES Cc1ccc(F)cc1Cn1cc([C@@H]([NH2+]Cc2ccc3c(c2)OCO3)C2CCCCC2)nn1
REMARK SMILES IDX 10 1 11 2 12 3 31 4 32 5 9 7 8 8 2 9 3 10 4 11 7 12 5 13
REMARK SMILES IDX 1 14 6 15 13 16 14 17 15 20 16 21 17 22 21 23 18 24 20 25
REMARK SMILES IDX 19 26 22 27 24 28 23 29 25 30 26 31 30 32 27 33 29 34 28 35
REMARK H PARENT 11 6 14 18 14 19
ROOT
ATOM     1   N1  UNL     1       3.087   0.614   0.589  1.00  0.00    -0.208 N   
ATOM     2   C9  UNL     1       2.014  -0.212   0.400  1.00  0.00     0.046 A   
ATOM     3   C10 UNL     1       1.599   0.067  -0.883  1.00  0.00     0.127 A   
ATOM     4   N3  UNL     1       2.442   0.992  -1.438  1.00  0.00    -0.132 NA  
ATOM     5   N4  UNL     1       3.346   1.321  -0.528  1.00  0.00    -0.076 NA  
ATOM     6   H9  UNL     1       1.629  -0.855   1.181  1.00  0.00     0.083 HD  
ENDROOT
BRANCH   1   7
ATOM     7   C8  UNL     1       3.857   0.822   1.803  1.00  0.00     0.169 C   
BRANCH   7   8
ATOM     8   C7  UNL     1       2.993   1.410   2.896  1.00  0.00    -0.023 A   
ATOM     9   C2  UNL     1       2.657   2.780   2.947  1.00  0.00    -0.046 A   
ATOM     10  C3  UNL     1       1.794   3.238   3.956  1.00  0.00     0.007 A   
ATOM     11  C4  UNL     1       1.277   2.364   4.911  1.00  0.00     0.039 A   
ATOM     12  C6  UNL     1       2.466   0.546   3.874  1.00  0.00     0.045 A   
ATOM     13  C5  UNL     1       1.618   1.027   4.862  1.00  0.00     0.123 A   
ATOM     14  C1  UNL     1       3.157   3.773   1.932  1.00  0.00     0.044 C   
ATOM     15  F1  UNL     1       1.117   0.179   5.769  1.00  0.00    -0.207 F   
ENDBRANCH   7   8
ENDBRANCH   1   7
BRANCH   3  16
ATOM     16  C11 UNL     1       0.392  -0.395  -1.633  1.00  0.00     0.117 C   
BRANCH  16  17
ATOM     17  N2  UNL     1      -0.290   0.796  -2.287  1.00  0.00     0.249 N   
ATOM     18  H11 UNL     1      -1.101   0.490  -2.825  1.00  0.00     0.199 HD  
ATOM     19  H12 UNL     1       0.389   1.199  -2.945  1.00  0.00     0.199 HD  
BRANCH  17  20
ATOM     20  C12 UNL     1      -0.733   1.903  -1.380  1.00  0.00     0.164 C   
BRANCH  20  21
ATOM     21  C13 UNL     1      -1.679   1.452  -0.305  1.00  0.00    -0.002 A   
ATOM     22  C14 UNL     1      -2.998   1.052  -0.627  1.00  0.00     0.012 A   
ATOM     23  C18 UNL     1      -1.241   1.385   1.030  1.00  0.00     0.045 A   
ATOM     24  C15 UNL     1      -3.862   0.572   0.363  1.00  0.00     0.037 A   
ATOM     25  C17 UNL     1      -2.116   0.902   1.979  1.00  0.00     0.109 A   
ATOM     26  C16 UNL     1      -3.390   0.504   1.654  1.00  0.00     0.108 A   
ATOM     27  O1  UNL     1      -1.843   0.749   3.300  1.00  0.00    -0.316 OA  
ATOM     28  O2  UNL     1      -4.081   0.053   2.732  1.00  0.00    -0.316 OA  
ATOM     29  C19 UNL     1      -3.106   0.237   3.782  1.00  0.00     0.337 C   
ENDBRANCH  20  21
ENDBRANCH  17  20
ENDBRANCH  16  17
BRANCH  16  30
ATOM     30  C20 UNL     1       0.738  -1.448  -2.730  1.00  0.00     0.043 C   
ATOM     31  C21 UNL     1      -0.493  -1.963  -3.510  1.00  0.00     0.010 C   
ATOM     32  C25 UNL     1       1.480  -2.681  -2.160  1.00  0.00     0.010 C   
ATOM     33  C22 UNL     1      -1.422  -2.818  -2.649  1.00  0.00     0.001 C   
ATOM     34  C24 UNL     1       0.584  -3.548  -1.275  1.00  0.00     0.001 C   
ATOM     35  C23 UNL     1      -0.676  -3.990  -2.013  1.00  0.00     0.000 C   
ENDBRANCH  16  30
ENDBRANCH   3  16
TORSDOF 7
