REMARK SMILES CC(C)C[C@H]([NH2+]Cc1ccc2c(c1)OCO2)c1cn(CCc2cccc(Cl)n2)nn1
REMARK SMILES IDX 17 1 18 2 19 3 29 4 30 5 5 7 4 8 2 9 1 10 3 11 6 12 7 15
REMARK SMILES IDX 8 16 9 17 13 18 10 19 12 20 11 21 14 22 16 23 15 24 20 25
REMARK SMILES IDX 21 26 22 27 23 28 28 29 24 30 26 31 25 32 27 33
REMARK H PARENT 18 6 6 13 6 14
ROOT
ATOM     1   C14 UNL     1       0.962   0.287  -1.824  1.00  0.00     0.127 A   
ATOM     2   C15 UNL     1       1.046  -1.062  -1.552  1.00  0.00     0.045 A   
ATOM     3   N2  UNL     1      -0.010  -1.596  -2.229  1.00  0.00    -0.212 N   
ATOM     4   N4  UNL     1      -0.616  -0.668  -2.989  1.00  0.00    -0.076 NA  
ATOM     5   N5  UNL     1      -0.033   0.495  -2.741  1.00  0.00    -0.132 NA  
ATOM     6   H20 UNL     1       1.645  -1.648  -0.870  1.00  0.00     0.083 HD  
ENDROOT
BRANCH   1   7
ATOM     7   C5  UNL     1       1.609   1.458  -1.156  1.00  0.00     0.114 C   
BRANCH   7   8
ATOM     8   C4  UNL     1       3.031   1.141  -0.652  1.00  0.00     0.064 C   
BRANCH   8   9
ATOM     9   C2  UNL     1       3.836   2.331  -0.085  1.00  0.00    -0.012 C   
ATOM     10  C1  UNL     1       5.205   1.839   0.395  1.00  0.00     0.007 C   
ATOM     11  C3  UNL     1       4.023   3.452  -1.107  1.00  0.00     0.007 C   
ENDBRANCH   8   9
ENDBRANCH   7   8
BRANCH   7  12
ATOM     12  N1  UNL     1       0.749   1.877   0.009  1.00  0.00     0.249 N   
ATOM     13  H11 UNL     1       0.409   1.014   0.465  1.00  0.00     0.199 HD  
ATOM     14  H12 UNL     1       1.277   2.375   0.730  1.00  0.00     0.199 HD  
BRANCH  12  15
ATOM     15  C6  UNL     1      -0.451   2.690  -0.350  1.00  0.00     0.164 C   
BRANCH  15  16
ATOM     16  C7  UNL     1      -1.491   2.599   0.729  1.00  0.00    -0.002 A   
ATOM     17  C8  UNL     1      -1.458   3.466   1.844  1.00  0.00     0.012 A   
ATOM     18  C12 UNL     1      -2.472   1.590   0.660  1.00  0.00     0.045 A   
ATOM     19  C9  UNL     1      -2.394   3.341   2.876  1.00  0.00     0.037 A   
ATOM     20  C11 UNL     1      -3.382   1.498   1.691  1.00  0.00     0.109 A   
ATOM     21  C10 UNL     1      -3.342   2.347   2.769  1.00  0.00     0.108 A   
ATOM     22  O1  UNL     1      -4.384   0.589   1.785  1.00  0.00    -0.316 OA  
ATOM     23  O2  UNL     1      -4.316   2.079   3.675  1.00  0.00    -0.316 OA  
ATOM     24  C13 UNL     1      -5.031   1.020   3.001  1.00  0.00     0.337 C   
ENDBRANCH  15  16
ENDBRANCH  12  15
ENDBRANCH   7  12
ENDBRANCH   1   7
BRANCH   3  25
ATOM     25  C16 UNL     1      -0.557  -2.931  -2.117  1.00  0.00     0.140 C   
BRANCH  25  26
ATOM     26  C17 UNL     1      -1.879  -2.978  -1.346  1.00  0.00     0.077 C   
BRANCH  26  27
ATOM     27  C18 UNL     1      -1.739  -2.804   0.153  1.00  0.00     0.044 A   
ATOM     28  C19 UNL     1      -2.473  -3.623   1.013  1.00  0.00     0.024 A   
ATOM     29  N3  UNL     1      -0.950  -1.803   0.616  1.00  0.00    -0.241 NA  
ATOM     30  C20 UNL     1      -2.382  -3.423   2.391  1.00  0.00     0.005 A   
ATOM     31  C22 UNL     1      -0.891  -1.639   1.959  1.00  0.00     0.129 A   
ATOM     32  C21 UNL     1      -1.573  -2.407   2.881  1.00  0.00     0.041 A   
ATOM     33  CL1 UNL     1       0.146  -0.359   2.451  1.00  0.00    -0.062 Cl  
ENDBRANCH  26  27
ENDBRANCH  25  26
ENDBRANCH   3  25
TORSDOF 9
