REMARK SMILES CC(C)[C@H]([NH2+]Cc1ccc2c(c1)OCO2)c1cn([C@@H](CCCNC(N)=[NH2+])C(=O)O)nn1
REMARK SMILES IDX 19 1 18 2 16 3 17 4 31 5 30 6 4 8 2 9 1 10 3 11 5 12 6 15
REMARK SMILES IDX 7 16 8 17 12 18 9 19 11 20 10 21 13 22 15 23 14 24 20 25
REMARK SMILES IDX 21 26 22 27 23 28 24 29 25 30 26 34 27 37 28 38 29 39
REMARK H PARENT 17 7 5 13 5 14 23 31 25 32 25 33 26 35 26 36 29 40
ROOT
ATOM     1   C15 UNL     1       0.108  -1.406  -2.466  1.00  0.00     0.196 C   
ENDROOT
BRANCH   1   2
ATOM     2   N2  UNL     1      -0.448  -0.556  -1.427  1.00  0.00    -0.199 N   
ATOM     3   C13 UNL     1      -1.427   0.250   0.334  1.00  0.00     0.127 A   
ATOM     4   C14 UNL     1      -1.125  -0.939  -0.300  1.00  0.00     0.046 A   
ATOM     5   N7  UNL     1      -0.935   1.288  -0.413  1.00  0.00    -0.132 NA  
ATOM     6   N6  UNL     1      -0.344   0.784  -1.485  1.00  0.00    -0.075 NA  
ATOM     7   H18 UNL     1      -1.315  -1.976  -0.056  1.00  0.00     0.083 HD  
BRANCH   3   8
ATOM     8   C4  UNL     1      -2.120   0.524   1.636  1.00  0.00     0.117 C   
BRANCH   8   9
ATOM     9   C2  UNL     1      -3.662   0.607   1.475  1.00  0.00     0.037 C   
ATOM     10  C1  UNL     1      -4.145   1.835   0.691  1.00  0.00     0.014 C   
ATOM     11  C3  UNL     1      -4.374   0.547   2.833  1.00  0.00     0.014 C   
ENDBRANCH   8   9
BRANCH   8  12
ATOM     12  N1  UNL     1      -1.589   1.790   2.274  1.00  0.00     0.249 N   
ATOM     13  H9  UNL     1      -1.570   2.510   1.537  1.00  0.00     0.199 HD  
ATOM     14  H10 UNL     1      -2.224   2.126   3.004  1.00  0.00     0.199 HD  
BRANCH  12  15
ATOM     15  C5  UNL     1      -0.213   1.711   2.855  1.00  0.00     0.164 C   
BRANCH  15  16
ATOM     16  C6  UNL     1      -0.110   0.736   3.996  1.00  0.00    -0.002 A   
ATOM     17  C7  UNL     1       0.641  -0.455   3.845  1.00  0.00     0.012 A   
ATOM     18  C11 UNL     1      -0.791   0.975   5.203  1.00  0.00     0.045 A   
ATOM     19  C8  UNL     1       0.704  -1.398   4.873  1.00  0.00     0.037 A   
ATOM     20  C10 UNL     1      -0.706   0.024   6.198  1.00  0.00     0.109 A   
ATOM     21  C9  UNL     1       0.012  -1.134   6.036  1.00  0.00     0.108 A   
ATOM     22  O1  UNL     1      -1.314   0.091   7.412  1.00  0.00    -0.316 OA  
ATOM     23  O2  UNL     1      -0.060  -1.947   7.122  1.00  0.00    -0.316 OA  
ATOM     24  C12 UNL     1      -0.848  -1.136   8.021  1.00  0.00     0.337 C   
ENDBRANCH  15  16
ENDBRANCH  12  15
ENDBRANCH   8  12
ENDBRANCH   3   8
ENDBRANCH   1   2
BRANCH   1  25
ATOM     25  C16 UNL     1      -0.757  -1.468  -3.743  1.00  0.00     0.039 C   
BRANCH  25  26
ATOM     26  C17 UNL     1      -0.873  -0.153  -4.542  1.00  0.00     0.037 C   
BRANCH  26  27
ATOM     27  C18 UNL     1      -0.584  -0.347  -6.035  1.00  0.00     0.184 C   
BRANCH  27  28
ATOM     28  N3  UNL     1       0.834  -0.685  -6.248  1.00  0.00    -0.239 N   
ATOM     29  C19 UNL     1       1.355  -1.170  -7.382  1.00  0.00     0.316 C   
ATOM     30  N5  UNL     1       0.612  -1.373  -8.477  1.00  0.00    -0.252 N   
ATOM     31  H26 UNL     1       1.467  -0.638  -5.445  1.00  0.00     0.244 HD  
ATOM     32  H29 UNL     1       1.007  -1.775  -9.322  1.00  0.00     0.241 HD  
ATOM     33  H30 UNL     1      -0.359  -1.102  -8.517  1.00  0.00     0.241 HD  
BRANCH  29  34
ATOM     34  N4  UNL     1       2.660  -1.469  -7.429  1.00  0.00    -0.252 N   
ATOM     35  H27 UNL     1       3.076  -1.874  -8.257  1.00  0.00     0.241 HD  
ATOM     36  H28 UNL     1       3.287  -1.237  -6.665  1.00  0.00     0.241 HD  
ENDBRANCH  29  34
ENDBRANCH  27  28
ENDBRANCH  26  27
ENDBRANCH  25  26
ENDBRANCH   1  25
BRANCH   1  37
ATOM     37  C20 UNL     1       1.559  -1.073  -2.773  1.00  0.00     0.281 C   
ATOM     38  O3  UNL     1       2.038  -0.921  -3.894  1.00  0.00    -0.265 OA  
BRANCH  37  39
ATOM     39  O4  UNL     1       2.344  -1.041  -1.681  1.00  0.00    -0.330 OA  
ATOM     40  H31 UNL     1       3.261  -0.853  -1.975  1.00  0.00     0.221 HD  
ENDBRANCH  37  39
ENDBRANCH   1  37
TORSDOF 13
