REMARK SMILES CC(C)[C@H]([NH2+]Cc1ccc2c(c1)OCO2)c1cn([C@@H](CCCNC(N)=[NH2+])C(=O)[O-])nn1
REMARK SMILES IDX 19 1 18 2 16 3 17 4 31 5 30 6 4 8 2 9 1 10 3 11 5 12 6 15
REMARK SMILES IDX 7 16 8 17 12 18 9 19 11 20 10 21 13 22 15 23 14 24 20 25
REMARK SMILES IDX 21 26 22 27 23 28 24 29 25 30 26 34 27 37 29 38 28 39
REMARK H PARENT 17 7 5 13 5 14 23 31 25 32 25 33 26 35 26 36
ROOT
ATOM     1   C15 UNL     1       1.310   0.288  -1.151  1.00  0.00     0.145 C   
ENDROOT
BRANCH   1   2
ATOM     2   N2  UNL     1       0.998  -1.023  -0.592  1.00  0.00    -0.203 N   
ATOM     3   C13 UNL     1      -0.489  -2.503  -0.390  1.00  0.00     0.127 A   
ATOM     4   C14 UNL     1       0.518  -2.118  -1.265  1.00  0.00     0.046 A   
ATOM     5   N7  UNL     1      -0.230  -2.006   0.857  1.00  0.00    -0.132 NA  
ATOM     6   N6  UNL     1       0.749  -1.126   0.727  1.00  0.00    -0.075 NA  
ATOM     7   H18 UNL     1       0.631  -2.230  -2.338  1.00  0.00     0.083 HD  
BRANCH   3   8
ATOM     8   C4  UNL     1      -1.860  -2.975  -0.730  1.00  0.00     0.117 C   
BRANCH   8   9
ATOM     9   C2  UNL     1      -1.910  -4.253  -1.599  1.00  0.00     0.037 C   
ATOM     10  C1  UNL     1      -1.099  -5.392  -0.944  1.00  0.00     0.014 C   
ATOM     11  C3  UNL     1      -3.350  -4.737  -1.829  1.00  0.00     0.014 C   
ENDBRANCH   8   9
BRANCH   8  12
ATOM     12  N1  UNL     1      -2.591  -1.827  -1.442  1.00  0.00     0.249 N   
ATOM     13  H9  UNL     1      -1.933  -1.002  -1.574  1.00  0.00     0.199 HD  
ATOM     14  H10 UNL     1      -2.799  -2.084  -2.415  1.00  0.00     0.199 HD  
BRANCH  12  15
ATOM     15  C5  UNL     1      -3.804  -1.309  -0.752  1.00  0.00     0.164 C   
BRANCH  15  16
ATOM     16  C6  UNL     1      -3.493  -0.553   0.510  1.00  0.00    -0.002 A   
ATOM     17  C7  UNL     1      -2.998   0.773   0.435  1.00  0.00     0.012 A   
ATOM     18  C11 UNL     1      -3.637  -1.163   1.767  1.00  0.00     0.045 A   
ATOM     19  C8  UNL     1      -2.654   1.482   1.591  1.00  0.00     0.037 A   
ATOM     20  C10 UNL     1      -3.263  -0.453   2.885  1.00  0.00     0.109 A   
ATOM     21  C9  UNL     1      -2.786   0.834   2.801  1.00  0.00     0.108 A   
ATOM     22  O1  UNL     1      -3.280  -0.928   4.163  1.00  0.00    -0.316 OA  
ATOM     23  O2  UNL     1      -2.462   1.340   4.013  1.00  0.00    -0.316 OA  
ATOM     24  C12 UNL     1      -2.827   0.245   4.879  1.00  0.00     0.337 C   
ENDBRANCH  15  16
ENDBRANCH  12  15
ENDBRANCH   8  12
ENDBRANCH   3   8
ENDBRANCH   1   2
BRANCH   1  25
ATOM     25  C16 UNL     1       2.826   0.428  -1.395  1.00  0.00     0.034 C   
BRANCH  25  26
ATOM     26  C17 UNL     1       3.446   1.768  -0.942  1.00  0.00     0.037 C   
BRANCH  26  27
ATOM     27  C18 UNL     1       2.703   3.063  -1.315  1.00  0.00     0.184 C   
BRANCH  27  28
ATOM     28  N3  UNL     1       2.133   2.997  -2.653  1.00  0.00    -0.239 N   
ATOM     29  C19 UNL     1       1.399   3.902  -3.293  1.00  0.00     0.316 C   
ATOM     30  N5  UNL     1       1.303   5.163  -2.883  1.00  0.00    -0.252 N   
ATOM     31  H26 UNL     1       2.070   2.084  -3.119  1.00  0.00     0.244 HD  
ATOM     32  H29 UNL     1       0.728   5.830  -3.378  1.00  0.00     0.241 HD  
ATOM     33  H30 UNL     1       1.809   5.477  -2.070  1.00  0.00     0.241 HD  
BRANCH  29  34
ATOM     34  N4  UNL     1       0.733   3.509  -4.371  1.00  0.00    -0.252 N   
ATOM     35  H27 UNL     1       0.210   4.100  -4.982  1.00  0.00     0.241 HD  
ATOM     36  H28 UNL     1       0.674   2.490  -4.492  1.00  0.00     0.241 HD  
ENDBRANCH  29  34
ENDBRANCH  27  28
ENDBRANCH  26  27
ENDBRANCH  25  26
ENDBRANCH   1  25
BRANCH   1  37
ATOM     37  C20 UNL     1       0.339   0.488  -2.361  1.00  0.00     0.064 C   
ATOM     38  O3  UNL     1       0.886   1.038  -3.368  1.00  0.00    -0.548 OA  
ATOM     39  O4  UNL     1      -0.887   0.179  -2.203  1.00  0.00    -0.548 OA  
ENDBRANCH   1  37
TORSDOF 12
