REMARK SMILES CC(C)[C@H]([NH2+]Cc1ccc2c(c1)OCO2)c1cn(C[C@@H](O)c2cc(F)ccc2F)nn1
REMARK SMILES IDX 16 1 17 2 18 3 30 4 31 5 4 7 2 8 1 9 3 10 5 11 6 14 7 15
REMARK SMILES IDX 8 16 12 17 9 18 11 19 10 20 13 21 15 22 14 23 19 24 20 25
REMARK SMILES IDX 21 26 22 28 23 29 28 30 24 31 27 32 26 33 29 34 25 35
REMARK H PARENT 17 6 5 12 5 13 21 27
ROOT
ATOM     1   C13 UNL     1      -1.282   0.741   0.390  1.00  0.00     0.127 A   
ATOM     2   C14 UNL     1      -0.199   1.026  -0.413  1.00  0.00     0.045 A   
ATOM     3   N2  UNL     1       0.588   1.824   0.371  1.00  0.00    -0.209 N   
ATOM     4   N3  UNL     1       0.017   2.033   1.571  1.00  0.00    -0.076 NA  
ATOM     5   N4  UNL     1      -1.125   1.366   1.600  1.00  0.00    -0.132 NA  
ATOM     6   H18 UNL     1       0.078   0.747  -1.420  1.00  0.00     0.083 HD  
ENDROOT
BRANCH   1   7
ATOM     7   C4  UNL     1      -2.478  -0.126   0.161  1.00  0.00     0.117 C   
BRANCH   7   8
ATOM     8   C2  UNL     1      -3.629   0.640  -0.548  1.00  0.00     0.037 C   
ATOM     9   C1  UNL     1      -4.303   1.708   0.326  1.00  0.00     0.014 C   
ATOM     10  C3  UNL     1      -4.690  -0.323  -1.093  1.00  0.00     0.014 C   
ENDBRANCH   7   8
BRANCH   7  11
ATOM     11  N1  UNL     1      -2.964  -0.702   1.470  1.00  0.00     0.249 N   
ATOM     12  H9  UNL     1      -3.921  -1.054   1.386  1.00  0.00     0.199 HD  
ATOM     13  H10 UNL     1      -2.985   0.085   2.134  1.00  0.00     0.199 HD  
BRANCH  11  14
ATOM     14  C5  UNL     1      -2.106  -1.759   2.080  1.00  0.00     0.164 C   
BRANCH  14  15
ATOM     15  C6  UNL     1      -2.212  -3.078   1.365  1.00  0.00    -0.002 A   
ATOM     16  C7  UNL     1      -3.352  -3.899   1.546  1.00  0.00     0.012 A   
ATOM     17  C11 UNL     1      -1.189  -3.494   0.494  1.00  0.00     0.045 A   
ATOM     18  C8  UNL     1      -3.471  -5.120   0.873  1.00  0.00     0.037 A   
ATOM     19  C10 UNL     1      -1.338  -4.701  -0.154  1.00  0.00     0.109 A   
ATOM     20  C9  UNL     1      -2.447  -5.491   0.028  1.00  0.00     0.108 A   
ATOM     21  O1  UNL     1      -0.447  -5.245  -1.024  1.00  0.00    -0.316 OA  
ATOM     22  O2  UNL     1      -2.393  -6.634  -0.703  1.00  0.00    -0.316 OA  
ATOM     23  C12 UNL     1      -1.118  -6.481  -1.365  1.00  0.00     0.337 C   
ENDBRANCH  14  15
ENDBRANCH  11  14
ENDBRANCH   7  11
ENDBRANCH   1   7
BRANCH   3  24
ATOM     24  C15 UNL     1       1.868   2.421   0.043  1.00  0.00     0.170 C   
BRANCH  24  25
ATOM     25  C16 UNL     1       2.999   1.863   0.914  1.00  0.00     0.167 C   
BRANCH  25  26
ATOM     26  O3  UNL     1       3.198   0.475   0.612  1.00  0.00    -0.387 OA  
ATOM     27  H22 UNL     1       3.939   0.176   1.174  1.00  0.00     0.211 HD  
ENDBRANCH  25  26
BRANCH  25  28
ATOM     28  C17 UNL     1       4.282   2.629   0.685  1.00  0.00     0.021 A   
ATOM     29  C18 UNL     1       5.233   2.237  -0.270  1.00  0.00     0.048 A   
ATOM     30  C22 UNL     1       4.526   3.796   1.423  1.00  0.00     0.129 A   
ATOM     31  C19 UNL     1       6.393   2.990  -0.448  1.00  0.00     0.123 A   
ATOM     32  C21 UNL     1       5.682   4.551   1.238  1.00  0.00     0.042 A   
ATOM     33  C20 UNL     1       6.625   4.142   0.296  1.00  0.00     0.042 A   
ATOM     34  F2  UNL     1       3.621   4.207   2.324  1.00  0.00    -0.207 F   
ATOM     35  F1  UNL     1       7.298   2.594  -1.351  1.00  0.00    -0.207 F   
ENDBRANCH  25  28
ENDBRANCH  24  25
ENDBRANCH   3  24
TORSDOF 9
