REMARK SMILES CC(C)[C@H]([NH2+]Cc1ccc2c(c1)OCO2)c1cn(C[C@H](O)c2cc(F)ccc2F)nn1
REMARK SMILES IDX 16 1 17 2 18 3 30 4 31 5 4 7 2 8 1 9 3 10 5 11 6 14 7 15
REMARK SMILES IDX 8 16 12 17 9 18 11 19 10 20 13 21 15 22 14 23 19 24 20 25
REMARK SMILES IDX 21 26 22 28 23 29 28 30 24 31 27 32 26 33 29 34 25 35
REMARK H PARENT 17 6 5 12 5 13 21 27
ROOT
ATOM     1   C13 UNL     1       1.779   0.543  -0.170  1.00  0.00     0.127 A   
ATOM     2   C14 UNL     1       1.614   1.751   0.471  1.00  0.00     0.045 A   
ATOM     3   N2  UNL     1       2.450   2.596  -0.203  1.00  0.00    -0.209 N   
ATOM     4   N3  UNL     1       3.092   1.951  -1.193  1.00  0.00    -0.076 NA  
ATOM     5   N4  UNL     1       2.698   0.690  -1.178  1.00  0.00    -0.132 NA  
ATOM     6   H18 UNL     1       1.000   2.078   1.299  1.00  0.00     0.083 HD  
ENDROOT
BRANCH   1   7
ATOM     7   C4  UNL     1       1.123  -0.784   0.041  1.00  0.00     0.117 C   
BRANCH   7   8
ATOM     8   C2  UNL     1       1.785  -1.589   1.191  1.00  0.00     0.037 C   
ATOM     9   C1  UNL     1       3.206  -2.073   0.878  1.00  0.00     0.014 C   
ATOM     10  C3  UNL     1       0.917  -2.777   1.623  1.00  0.00     0.014 C   
ENDBRANCH   7   8
BRANCH   7  11
ATOM     11  N1  UNL     1       1.135  -1.594  -1.236  1.00  0.00     0.249 N   
ATOM     12  H9  UNL     1       2.100  -1.556  -1.591  1.00  0.00     0.199 HD  
ATOM     13  H10 UNL     1       0.917  -2.575  -1.048  1.00  0.00     0.199 HD  
BRANCH  11  14
ATOM     14  C5  UNL     1       0.254  -1.103  -2.339  1.00  0.00     0.164 C   
BRANCH  14  15
ATOM     15  C6  UNL     1      -1.209  -1.163  -1.994  1.00  0.00    -0.002 A   
ATOM     16  C7  UNL     1      -1.937   0.034  -1.788  1.00  0.00     0.012 A   
ATOM     17  C11 UNL     1      -1.857  -2.401  -1.846  1.00  0.00     0.045 A   
ATOM     18  C8  UNL     1      -3.288   0.002  -1.429  1.00  0.00     0.037 A   
ATOM     19  C10 UNL     1      -3.189  -2.397  -1.490  1.00  0.00     0.109 A   
ATOM     20  C9  UNL     1      -3.885  -1.231  -1.286  1.00  0.00     0.108 A   
ATOM     21  O1  UNL     1      -3.958  -3.501  -1.298  1.00  0.00    -0.316 OA  
ATOM     22  O2  UNL     1      -5.179  -1.453  -0.942  1.00  0.00    -0.316 OA  
ATOM     23  C12 UNL     1      -5.232  -2.896  -0.980  1.00  0.00     0.337 C   
ENDBRANCH  14  15
ENDBRANCH  11  14
ENDBRANCH   7  11
ENDBRANCH   1   7
BRANCH   3  24
ATOM     24  C15 UNL     1       2.685   4.003   0.026  1.00  0.00     0.170 C   
BRANCH  24  25
ATOM     25  C16 UNL     1       1.930   4.901  -0.959  1.00  0.00     0.167 C   
BRANCH  25  26
ATOM     26  O3  UNL     1       2.489   6.217  -0.881  1.00  0.00    -0.387 OA  
ATOM     27  H22 UNL     1       2.022   6.774  -1.531  1.00  0.00     0.211 HD  
ENDBRANCH  25  26
BRANCH  25  28
ATOM     28  C17 UNL     1       0.448   4.980  -0.667  1.00  0.00     0.021 A   
ATOM     29  C18 UNL     1      -0.060   5.846   0.316  1.00  0.00     0.048 A   
ATOM     30  C22 UNL     1      -0.458   4.168  -1.361  1.00  0.00     0.129 A   
ATOM     31  C19 UNL     1      -1.429   5.896   0.565  1.00  0.00     0.123 A   
ATOM     32  C21 UNL     1      -1.829   4.224  -1.114  1.00  0.00     0.042 A   
ATOM     33  C20 UNL     1      -2.318   5.096  -0.144  1.00  0.00     0.042 A   
ATOM     34  F2  UNL     1      -0.007   3.292  -2.271  1.00  0.00    -0.207 F   
ATOM     35  F1  UNL     1      -1.896   6.726   1.505  1.00  0.00    -0.207 F   
ENDBRANCH  25  28
ENDBRANCH  24  25
ENDBRANCH   3  24
TORSDOF 9
