REMARK SMILES COc1cc(Cn2cc([C@H](CC(C)C)[NH2+]Cc3ccc4c(c3)OCO4)nn2)ccc1O
REMARK SMILES IDX 7 1 8 2 9 3 26 4 27 5 6 7 5 8 3 9 4 10 30 11 29 12 28 13
REMARK SMILES IDX 2 14 1 15 31 16 10 18 11 19 12 20 13 21 14 22 15 23 16 26
REMARK SMILES IDX 17 27 18 28 22 29 19 30 21 31 20 32 23 33 25 34 24 35
REMARK H PARENT 8 6 31 17 15 24 15 25
ROOT
ATOM     1   N1  UNL     1      -1.249  -0.287   1.984  1.00  0.00    -0.208 N   
ATOM     2   C6  UNL     1      -1.034  -0.617   0.673  1.00  0.00     0.046 A   
ATOM     3   C7  UNL     1      -0.444   0.507   0.139  1.00  0.00     0.127 A   
ATOM     4   N3  UNL     1      -0.385   1.482   1.102  1.00  0.00    -0.132 NA  
ATOM     5   N4  UNL     1      -0.902   0.993   2.217  1.00  0.00    -0.076 NA  
ATOM     6   H7  UNL     1      -1.267  -1.595   0.279  1.00  0.00     0.083 HD  
ENDROOT
BRANCH   1   7
ATOM     7   C5  UNL     1      -1.769  -1.126   3.052  1.00  0.00     0.169 C   
BRANCH   7   8
ATOM     8   C4  UNL     1      -0.783  -2.209   3.420  1.00  0.00    -0.026 A   
ATOM     9   C2  UNL     1      -0.143  -4.558   3.477  1.00  0.00     0.105 A   
ATOM     10  C3  UNL     1      -1.070  -3.564   3.153  1.00  0.00     0.041 A   
ATOM     11  C23 UNL     1       1.072  -4.184   4.064  1.00  0.00     0.101 A   
ATOM     12  C22 UNL     1       1.369  -2.857   4.344  1.00  0.00     0.036 A   
ATOM     13  C21 UNL     1       0.440  -1.869   4.026  1.00  0.00     0.008 A   
BRANCH   9  14
ATOM     14  O1  UNL     1      -0.291  -5.904   3.269  1.00  0.00    -0.347 OA  
ATOM     15  C1  UNL     1      -1.550  -6.354   2.777  1.00  0.00     0.203 C   
ENDBRANCH   9  14
BRANCH  11  16
ATOM     16  O4  UNL     1       2.006  -5.131   4.381  1.00  0.00    -0.358 OA  
ATOM     17  H29 UNL     1       1.600  -5.989   4.144  1.00  0.00     0.218 HD  
ENDBRANCH  11  16
ENDBRANCH   7   8
ENDBRANCH   1   7
BRANCH   3  18
ATOM     18  C8  UNL     1       0.073   0.799  -1.231  1.00  0.00     0.114 C   
BRANCH  18  19
ATOM     19  C9  UNL     1       1.561   0.430  -1.397  1.00  0.00     0.064 C   
BRANCH  19  20
ATOM     20  C10 UNL     1       1.896  -1.071  -1.262  1.00  0.00    -0.012 C   
ATOM     21  C11 UNL     1       1.162  -1.930  -2.292  1.00  0.00     0.007 C   
ATOM     22  C12 UNL     1       3.408  -1.276  -1.406  1.00  0.00     0.007 C   
ENDBRANCH  19  20
ENDBRANCH  18  19
BRANCH  18  23
ATOM     23  N2  UNL     1      -0.040   2.278  -1.520  1.00  0.00     0.249 N   
ATOM     24  H18 UNL     1       0.557   2.553  -2.307  1.00  0.00     0.199 HD  
ATOM     25  H19 UNL     1       0.325   2.772  -0.692  1.00  0.00     0.199 HD  
BRANCH  23  26
ATOM     26  C13 UNL     1      -1.421   2.781  -1.763  1.00  0.00     0.164 C   
BRANCH  26  27
ATOM     27  C14 UNL     1      -1.394   4.255  -2.054  1.00  0.00    -0.002 A   
ATOM     28  C15 UNL     1      -1.377   5.191  -0.992  1.00  0.00     0.012 A   
ATOM     29  C19 UNL     1      -1.322   4.712  -3.381  1.00  0.00     0.045 A   
ATOM     30  C16 UNL     1      -1.296   6.565  -1.246  1.00  0.00     0.037 A   
ATOM     31  C18 UNL     1      -1.242   6.072  -3.595  1.00  0.00     0.109 A   
ATOM     32  C17 UNL     1      -1.227   6.973  -2.559  1.00  0.00     0.108 A   
ATOM     33  O2  UNL     1      -1.158   6.676  -4.809  1.00  0.00    -0.316 OA  
ATOM     34  O3  UNL     1      -1.131   8.258  -2.991  1.00  0.00    -0.316 OA  
ATOM     35  C20 UNL     1      -1.122   8.069  -4.422  1.00  0.00     0.337 C   
ENDBRANCH  26  27
ENDBRANCH  23  26
ENDBRANCH  18  23
ENDBRANCH   3  18
TORSDOF 10
