REMARK SMILES CC(C)[C@H]([NH2+]Cc1ccc2c(c1)OCO2)c1cn(-c2ccnn2C)nn1
REMARK SMILES IDX 4 1 2 2 1 3 3 4 5 5 6 8 7 9 8 10 12 11 9 12 11 13 10 14
REMARK SMILES IDX 13 15 15 16 14 17 16 18 17 19 26 20 18 21 25 22 19 23 20 24
REMARK SMILES IDX 23 25 21 26 22 27 24 28
REMARK H PARENT 5 6 5 7
ROOT
ATOM     1   C4  UNL     1      -2.108  -0.391   1.317  1.00  0.00     0.117 C   
ENDROOT
BRANCH   1   2
ATOM     2   C2  UNL     1      -2.690  -1.784   1.675  1.00  0.00     0.037 C   
ATOM     3   C1  UNL     1      -2.291  -2.895   0.695  1.00  0.00     0.014 C   
ATOM     4   C3  UNL     1      -4.217  -1.743   1.815  1.00  0.00     0.014 C   
ENDBRANCH   1   2
BRANCH   1   5
ATOM     5   N1  UNL     1      -2.495  -0.009  -0.086  1.00  0.00     0.249 N   
ATOM     6   H9  UNL     1      -1.840  -0.490  -0.722  1.00  0.00     0.199 HD  
ATOM     7   H10 UNL     1      -3.430  -0.345  -0.336  1.00  0.00     0.199 HD  
BRANCH   5   8
ATOM     8   C5  UNL     1      -2.415   1.447  -0.396  1.00  0.00     0.164 C   
BRANCH   8   9
ATOM     9   C6  UNL     1      -2.730   1.692  -1.844  1.00  0.00    -0.002 A   
ATOM     10  C7  UNL     1      -4.045   2.025  -2.248  1.00  0.00     0.012 A   
ATOM     11  C11 UNL     1      -1.724   1.538  -2.814  1.00  0.00     0.045 A   
ATOM     12  C8  UNL     1      -4.353   2.214  -3.600  1.00  0.00     0.037 A   
ATOM     13  C10 UNL     1      -2.063   1.729  -4.137  1.00  0.00     0.109 A   
ATOM     14  C9  UNL     1      -3.340   2.058  -4.520  1.00  0.00     0.108 A   
ATOM     15  O1  UNL     1      -1.217   1.616  -5.194  1.00  0.00    -0.316 OA  
ATOM     16  O2  UNL     1      -3.459   2.195  -5.865  1.00  0.00    -0.316 OA  
ATOM     17  C12 UNL     1      -2.101   1.946  -6.290  1.00  0.00     0.337 C   
ENDBRANCH   8   9
ENDBRANCH   5   8
ENDBRANCH   1   5
BRANCH   1  18
ATOM     18  C13 UNL     1      -0.620  -0.342   1.486  1.00  0.00     0.127 A   
ATOM     19  C14 UNL     1       0.163  -0.192   2.608  1.00  0.00     0.137 A   
ATOM     20  N6  UNL     1       0.191  -0.430   0.388  1.00  0.00    -0.131 NA  
ATOM     21  N2  UNL     1       1.460  -0.208   2.141  1.00  0.00    -0.165 N   
ATOM     22  N5  UNL     1       1.446  -0.341   0.797  1.00  0.00    -0.070 NA  
BRANCH  21  23
ATOM     23  C15 UNL     1       2.649  -0.095   2.832  1.00  0.00     0.135 A   
ATOM     24  C16 UNL     1       2.811   0.068   4.194  1.00  0.00     0.065 A   
ATOM     25  N4  UNL     1       3.912  -0.121   2.296  1.00  0.00    -0.213 N   
ATOM     26  C17 UNL     1       4.202   0.138   4.381  1.00  0.00     0.134 A   
ATOM     27  N3  UNL     1       4.871   0.025   3.236  1.00  0.00    -0.189 NA  
ATOM     28  C18 UNL     1       4.332  -0.285   0.922  1.00  0.00     0.161 C   
ENDBRANCH  21  23
ENDBRANCH   1  18
TORSDOF 6
