REMARK SMILES CC(C)[C@H]([NH2+]Cc1ccc2c(c1)OCO2)c1cn(-c2cncc(CCl)c2)nn1
REMARK SMILES IDX 16 1 17 2 18 3 27 4 28 5 4 6 2 7 1 8 3 9 5 10 6 13 7 14 8 15
REMARK SMILES IDX 12 16 9 17 11 18 10 19 13 20 15 21 14 22 19 23 20 24 26 25
REMARK SMILES IDX 21 26 23 27 22 28 24 29 25 30
REMARK H PARENT 5 11 5 12
ROOT
ATOM     1   C13 UNL     1       0.435  -1.530   1.339  1.00  0.00     0.127 A   
ATOM     2   C14 UNL     1      -0.588  -1.302   0.445  1.00  0.00     0.135 A   
ATOM     3   N2  UNL     1      -1.468  -0.475   1.115  1.00  0.00    -0.179 N   
ATOM     4   N4  UNL     1      -1.013  -0.283   2.380  1.00  0.00    -0.071 NA  
ATOM     5   N5  UNL     1       0.146  -0.905   2.519  1.00  0.00    -0.131 NA  
ENDROOT
BRANCH   1   6
ATOM     6   C4  UNL     1       1.758  -2.211   1.174  1.00  0.00     0.117 C   
BRANCH   6   7
ATOM     7   C2  UNL     1       1.742  -3.670   1.701  1.00  0.00     0.037 C   
ATOM     8   C1  UNL     1       1.600  -3.793   3.223  1.00  0.00     0.014 C   
ATOM     9   C3  UNL     1       2.980  -4.447   1.234  1.00  0.00     0.014 C   
ENDBRANCH   6   7
BRANCH   6  10
ATOM     10  N1  UNL     1       2.840  -1.406   1.861  1.00  0.00     0.249 N   
ATOM     11  H9  UNL     1       2.386  -0.947   2.667  1.00  0.00     0.199 HD  
ATOM     12  H10 UNL     1       3.560  -2.018   2.256  1.00  0.00     0.199 HD  
BRANCH  10  13
ATOM     13  C5  UNL     1       3.510  -0.351   1.040  1.00  0.00     0.164 C   
BRANCH  13  14
ATOM     14  C6  UNL     1       2.583   0.734   0.570  1.00  0.00    -0.002 A   
ATOM     15  C7  UNL     1       2.114   1.717   1.475  1.00  0.00     0.012 A   
ATOM     16  C11 UNL     1       2.119   0.743  -0.758  1.00  0.00     0.045 A   
ATOM     17  C8  UNL     1       1.183   2.680   1.074  1.00  0.00     0.037 A   
ATOM     18  C10 UNL     1       1.192   1.700  -1.117  1.00  0.00     0.109 A   
ATOM     19  C9  UNL     1       0.736   2.641  -0.228  1.00  0.00     0.108 A   
ATOM     20  O1  UNL     1       0.612   1.818  -2.340  1.00  0.00    -0.316 OA  
ATOM     21  O2  UNL     1      -0.178   3.478  -0.781  1.00  0.00    -0.316 OA  
ATOM     22  C12 UNL     1      -0.230   2.976  -2.134  1.00  0.00     0.337 C   
ENDBRANCH  13  14
ENDBRANCH  10  13
ENDBRANCH   6  10
ENDBRANCH   1   6
BRANCH   3  23
ATOM     23  C15 UNL     1      -2.642   0.144   0.639  1.00  0.00     0.076 A   
ATOM     24  C16 UNL     1      -3.364   0.987   1.474  1.00  0.00     0.136 A   
ATOM     25  C20 UNL     1      -3.103  -0.043  -0.668  1.00  0.00     0.034 A   
ATOM     26  N3  UNL     1      -4.485   1.639   1.086  1.00  0.00    -0.262 NA  
ATOM     27  C18 UNL     1      -4.259   0.627  -1.100  1.00  0.00    -0.013 A   
ATOM     28  C17 UNL     1      -4.903   1.451  -0.184  1.00  0.00     0.116 A   
BRANCH  27  29
ATOM     29  C19 UNL     1      -4.794   0.465  -2.492  1.00  0.00     0.146 C   
ATOM     30  CL1 UNL     1      -3.647   1.122  -3.681  1.00  0.00    -0.122 Cl  
ENDBRANCH  27  29
ENDBRANCH   3  23
TORSDOF 7
