REMARK SMILES Cc1ccc(C(=O)Cn2cc([C@@H]([NH2+]Cc3ccc4c(c3)OCO4)C3CCCCC3)nn2)cc1
REMARK SMILES IDX 9 1 10 2 11 3 30 4 31 5 8 7 6 8 7 9 5 10 2 11 3 12 33 13
REMARK SMILES IDX 4 14 32 15 1 16 12 17 13 18 14 21 15 22 16 23 20 24 17 25
REMARK SMILES IDX 19 26 18 27 21 28 23 29 22 30 24 31 25 32 29 33 26 34 28 35
REMARK SMILES IDX 27 36
REMARK H PARENT 10 6 13 19 13 20
ROOT
ATOM     1   N1  UNL     1       1.596   1.632   0.423  1.00  0.00    -0.204 N   
ATOM     2   C8  UNL     1       1.575   0.438  -0.242  1.00  0.00     0.046 A   
ATOM     3   C9  UNL     1       0.241   0.102  -0.276  1.00  0.00     0.127 A   
ATOM     4   N3  UNL     1      -0.489   1.095   0.327  1.00  0.00    -0.132 NA  
ATOM     5   N4  UNL     1       0.351   2.027   0.747  1.00  0.00    -0.076 NA  
ATOM     6   H8  UNL     1       2.479  -0.063  -0.561  1.00  0.00     0.083 HD  
ENDROOT
BRANCH   1   7
ATOM     7   C7  UNL     1       2.744   2.395   0.856  1.00  0.00     0.214 C   
BRANCH   7   8
ATOM     8   C6  UNL     1       3.181   1.922   2.220  1.00  0.00     0.182 C   
ATOM     9   O1  UNL     1       3.535   0.756   2.404  1.00  0.00    -0.292 OA  
BRANCH   8  10
ATOM     10  C5  UNL     1       3.198   2.878   3.358  1.00  0.00     0.019 A   
ATOM     11  C2  UNL     1       3.301   4.619   5.561  1.00  0.00    -0.051 A   
ATOM     12  C3  UNL     1       2.371   4.826   4.535  1.00  0.00     0.004 A   
ATOM     13  C26 UNL     1       4.183   3.537   5.474  1.00  0.00     0.004 A   
ATOM     14  C4  UNL     1       2.310   3.956   3.442  1.00  0.00     0.012 A   
ATOM     15  C25 UNL     1       4.126   2.665   4.384  1.00  0.00     0.012 A   
ATOM     16  C1  UNL     1       3.387   5.569   6.721  1.00  0.00     0.044 C   
ENDBRANCH   8  10
ENDBRANCH   7   8
ENDBRANCH   1   7
BRANCH   3  17
ATOM     17  C10 UNL     1      -0.441  -1.140  -0.751  1.00  0.00     0.117 C   
BRANCH  17  18
ATOM     18  N2  UNL     1      -1.578  -1.499   0.176  1.00  0.00     0.249 N   
ATOM     19  H10 UNL     1      -2.135  -0.642   0.295  1.00  0.00     0.199 HD  
ATOM     20  H11 UNL     1      -2.185  -2.204  -0.247  1.00  0.00     0.199 HD  
BRANCH  18  21
ATOM     21  C11 UNL     1      -1.188  -1.954   1.547  1.00  0.00     0.164 C   
BRANCH  21  22
ATOM     22  C12 UNL     1      -0.461  -3.270   1.543  1.00  0.00    -0.002 A   
ATOM     23  C13 UNL     1      -1.156  -4.474   1.276  1.00  0.00     0.012 A   
ATOM     24  C17 UNL     1       0.926  -3.308   1.774  1.00  0.00     0.045 A   
ATOM     25  C14 UNL     1      -0.480  -5.699   1.232  1.00  0.00     0.037 A   
ATOM     26  C16 UNL     1       1.561  -4.531   1.722  1.00  0.00     0.109 A   
ATOM     27  C15 UNL     1       0.879  -5.693   1.457  1.00  0.00     0.108 A   
ATOM     28  O2  UNL     1       2.890  -4.741   1.910  1.00  0.00    -0.316 OA  
ATOM     29  O3  UNL     1       1.692  -6.781   1.450  1.00  0.00    -0.316 OA  
ATOM     30  C18 UNL     1       2.963  -6.178   1.773  1.00  0.00     0.337 C   
ENDBRANCH  21  22
ENDBRANCH  18  21
ENDBRANCH  17  18
BRANCH  17  31
ATOM     31  C19 UNL     1      -0.948  -1.012  -2.214  1.00  0.00     0.043 C   
ATOM     32  C20 UNL     1      -2.122  -0.030  -2.397  1.00  0.00     0.010 C   
ATOM     33  C24 UNL     1      -1.311  -2.388  -2.809  1.00  0.00     0.010 C   
ATOM     34  C21 UNL     1      -2.542   0.076  -3.863  1.00  0.00     0.001 C   
ATOM     35  C23 UNL     1      -1.732  -2.276  -4.273  1.00  0.00     0.001 C   
ATOM     36  C22 UNL     1      -2.880  -1.289  -4.454  1.00  0.00     0.000 C   
ENDBRANCH  17  31
ENDBRANCH   3  17
TORSDOF 8
