REMARK SMILES Cc1nn(C)c(C)c1CCn1cc([C@@H]([NH2+]Cc2ccc3c(c2)OCO3)C(C)C)nn1
REMARK SMILES IDX 11 1 12 2 13 3 29 4 30 5 10 7 9 8 8 9 2 10 3 11 4 12 6 13
REMARK SMILES IDX 1 14 5 15 7 16 14 17 15 18 16 21 17 22 18 23 22 24 19 25
REMARK SMILES IDX 21 26 20 27 23 28 25 29 24 30 26 31 27 32 28 33
REMARK H PARENT 12 6 15 19 15 20
ROOT
ATOM     1   N3  UNL     1       2.013   1.339   1.526  1.00  0.00    -0.212 N   
ATOM     2   C9  UNL     1       1.626   1.130   0.232  1.00  0.00     0.045 A   
ATOM     3   C10 UNL     1       0.368   1.685   0.170  1.00  0.00     0.127 A   
ATOM     4   N5  UNL     1       0.059   2.238   1.387  1.00  0.00    -0.132 NA  
ATOM     5   N6  UNL     1       1.080   2.032   2.204  1.00  0.00    -0.076 NA  
ATOM     6   H14 UNL     1       2.229   0.573  -0.472  1.00  0.00     0.083 HD  
ENDROOT
BRANCH   1   7
ATOM     7   C8  UNL     1       3.179   0.806   2.201  1.00  0.00     0.139 C   
BRANCH   7   8
ATOM     8   C7  UNL     1       2.851  -0.398   3.090  1.00  0.00     0.060 C   
BRANCH   8   9
ATOM     9   C6  UNL     1       2.148  -1.495   2.351  1.00  0.00    -0.005 A   
ATOM     10  C2  UNL     1       0.768  -1.834   2.429  1.00  0.00     0.060 A   
ATOM     11  N1  UNL     1       0.442  -2.779   1.542  1.00  0.00    -0.187 NA  
ATOM     12  N2  UNL     1       1.622  -3.167   1.024  1.00  0.00    -0.233 N   
ATOM     13  C4  UNL     1       2.677  -2.395   1.440  1.00  0.00     0.030 A   
ATOM     14  C1  UNL     1      -0.272  -1.263   3.322  1.00  0.00     0.069 C   
ATOM     15  C3  UNL     1       1.661  -4.304   0.131  1.00  0.00     0.159 C   
ATOM     16  C5  UNL     1       4.068  -2.605   0.960  1.00  0.00     0.064 C   
ENDBRANCH   8   9
ENDBRANCH   7   8
ENDBRANCH   1   7
BRANCH   3  17
ATOM     17  C11 UNL     1      -0.651   1.685  -0.923  1.00  0.00     0.117 C   
BRANCH  17  18
ATOM     18  N4  UNL     1      -2.033   1.551  -0.331  1.00  0.00     0.249 N   
ATOM     19  H16 UNL     1      -2.037   2.144   0.512  1.00  0.00     0.199 HD  
ATOM     20  H17 UNL     1      -2.745   1.924  -0.961  1.00  0.00     0.199 HD  
BRANCH  18  21
ATOM     21  C12 UNL     1      -2.423   0.172   0.092  1.00  0.00     0.164 C   
BRANCH  21  22
ATOM     22  C13 UNL     1      -2.691  -0.741  -1.074  1.00  0.00    -0.002 A   
ATOM     23  C14 UNL     1      -1.887  -1.888  -1.274  1.00  0.00     0.012 A   
ATOM     24  C18 UNL     1      -3.734  -0.467  -1.975  1.00  0.00     0.045 A   
ATOM     25  C15 UNL     1      -2.105  -2.743  -2.359  1.00  0.00     0.037 A   
ATOM     26  C17 UNL     1      -3.920  -1.327  -3.038  1.00  0.00     0.109 A   
ATOM     27  C16 UNL     1      -3.128  -2.432  -3.226  1.00  0.00     0.108 A   
ATOM     28  O1  UNL     1      -4.872  -1.200  -3.999  1.00  0.00    -0.316 OA  
ATOM     29  O2  UNL     1      -3.482  -3.142  -4.328  1.00  0.00    -0.316 OA  
ATOM     30  C19 UNL     1      -4.610  -2.375  -4.801  1.00  0.00     0.337 C   
ENDBRANCH  21  22
ENDBRANCH  18  21
ENDBRANCH  17  18
BRANCH  17  31
ATOM     31  C20 UNL     1      -0.564   2.951  -1.814  1.00  0.00     0.037 C   
ATOM     32  C21 UNL     1      -0.978   4.248  -1.108  1.00  0.00     0.014 C   
ATOM     33  C22 UNL     1      -1.377   2.788  -3.105  1.00  0.00     0.014 C   
ENDBRANCH  17  31
ENDBRANCH   3  17
TORSDOF 8
