REMARK SMILES COc1ccc(OC)c(-n2cc([C@@H]([NH2+]Cc3ccc4c(c3)OCO4)C3CCCCC3)nn2)c1
REMARK SMILES IDX 10 1 11 2 12 3 31 4 32 5 9 6 3 7 4 8 33 9 5 10 6 11 2 12
REMARK SMILES IDX 1 13 7 14 8 15 13 16 14 17 15 20 16 21 17 22 21 23 18 24
REMARK SMILES IDX 20 25 19 26 22 27 24 28 23 29 25 30 26 31 30 32 27 33 29 34
REMARK SMILES IDX 28 35
REMARK H PARENT 14 18 14 19
ROOT
ATOM     1   N1  UNL     1      -0.345   1.690   1.528  1.00  0.00    -0.178 N   
ATOM     2   C8  UNL     1       0.630   1.610   0.549  1.00  0.00     0.135 A   
ATOM     3   C9  UNL     1       0.551   0.330   0.049  1.00  0.00     0.127 A   
ATOM     4   N3  UNL     1      -0.429  -0.346   0.710  1.00  0.00    -0.131 NA  
ATOM     5   N4  UNL     1      -0.947   0.466   1.613  1.00  0.00    -0.071 NA  
ENDROOT
BRANCH   1   6
ATOM     6   C7  UNL     1      -0.744   2.765   2.376  1.00  0.00     0.090 A   
ATOM     7   C2  UNL     1      -2.205   3.480   4.210  1.00  0.00     0.077 A   
ATOM     8   C3  UNL     1      -1.649   4.750   4.148  1.00  0.00     0.036 A   
ATOM     9   C25 UNL     1      -1.751   2.498   3.328  1.00  0.00     0.062 A   
ATOM     10  C4  UNL     1      -0.652   5.034   3.206  1.00  0.00     0.038 A   
ATOM     11  C5  UNL     1      -0.192   4.059   2.307  1.00  0.00     0.098 A   
BRANCH   7  12
ATOM     12  O1  UNL     1      -3.178   3.066   5.073  1.00  0.00    -0.349 OA  
ATOM     13  C1  UNL     1      -3.709   4.037   5.968  1.00  0.00     0.203 C   
ENDBRANCH   7  12
BRANCH  11  14
ATOM     14  O2  UNL     1       0.777   4.314   1.376  1.00  0.00    -0.347 OA  
ATOM     15  C6  UNL     1       1.208   5.662   1.206  1.00  0.00     0.203 C   
ENDBRANCH  11  14
ENDBRANCH   1   6
BRANCH   3  16
ATOM     16  C10 UNL     1       1.341  -0.363  -1.018  1.00  0.00     0.117 C   
BRANCH  16  17
ATOM     17  N2  UNL     1       1.185  -1.855  -0.896  1.00  0.00     0.249 N   
ATOM     18  H11 UNL     1       1.374  -2.337  -1.778  1.00  0.00     0.199 HD  
ATOM     19  H12 UNL     1       0.193  -2.033  -0.679  1.00  0.00     0.199 HD  
BRANCH  17  20
ATOM     20  C11 UNL     1       1.989  -2.498   0.180  1.00  0.00     0.164 C   
BRANCH  20  21
ATOM     21  C12 UNL     1       1.592  -3.939   0.331  1.00  0.00    -0.002 A   
ATOM     22  C13 UNL     1       0.606  -4.306   1.280  1.00  0.00     0.012 A   
ATOM     23  C17 UNL     1       2.139  -4.919  -0.514  1.00  0.00     0.045 A   
ATOM     24  C14 UNL     1       0.180  -5.633   1.396  1.00  0.00     0.037 A   
ATOM     25  C16 UNL     1       1.689  -6.216  -0.379  1.00  0.00     0.109 A   
ATOM     26  C15 UNL     1       0.740  -6.565   0.550  1.00  0.00     0.108 A   
ATOM     27  O3  UNL     1       2.096  -7.273  -1.132  1.00  0.00    -0.316 OA  
ATOM     28  O4  UNL     1       0.437  -7.888   0.508  1.00  0.00    -0.316 OA  
ATOM     29  C18 UNL     1       1.306  -8.339  -0.555  1.00  0.00     0.337 C   
ENDBRANCH  20  21
ENDBRANCH  17  20
ENDBRANCH  16  17
BRANCH  16  30
ATOM     30  C19 UNL     1       0.936   0.106  -2.442  1.00  0.00     0.043 C   
ATOM     31  C20 UNL     1      -0.475  -0.345  -2.870  1.00  0.00     0.010 C   
ATOM     32  C24 UNL     1       1.977  -0.320  -3.497  1.00  0.00     0.010 C   
ATOM     33  C21 UNL     1      -0.831   0.169  -4.265  1.00  0.00     0.001 C   
ATOM     34  C23 UNL     1       1.612   0.196  -4.888  1.00  0.00     0.001 C   
ATOM     35  C22 UNL     1       0.211  -0.243  -5.300  1.00  0.00     0.000 C   
ENDBRANCH  16  30
ENDBRANCH   3  16
TORSDOF 8
