REMARK SMILES COc1cc(OC)cc(-n2cc([C@@H]([NH2+]Cc3ccc4c(c3)OCO4)C3CCCCC3)nn2)c1
REMARK SMILES IDX 10 1 11 2 12 3 31 4 32 5 9 6 3 7 4 8 33 9 5 10 8 11 2 12
REMARK SMILES IDX 1 13 6 14 7 15 13 16 14 17 15 20 16 21 17 22 21 23 18 24
REMARK SMILES IDX 20 25 19 26 22 27 24 28 23 29 25 30 26 31 30 32 27 33 29 34
REMARK SMILES IDX 28 35
REMARK H PARENT 14 18 14 19
ROOT
ATOM     1   N1  UNL     1      -2.079   0.046  -1.458  1.00  0.00    -0.180 N   
ATOM     2   C8  UNL     1      -0.981  -0.783  -1.601  1.00  0.00     0.135 A   
ATOM     3   C9  UNL     1      -0.119  -0.416  -0.591  1.00  0.00     0.127 A   
ATOM     4   N3  UNL     1      -0.675   0.614   0.115  1.00  0.00    -0.131 NA  
ATOM     5   N4  UNL     1      -1.846   0.899  -0.427  1.00  0.00    -0.071 NA  
ENDROOT
BRANCH   1   6
ATOM     6   C7  UNL     1      -3.287   0.065  -2.194  1.00  0.00     0.063 A   
ATOM     7   C2  UNL     1      -4.745  -0.849  -3.905  1.00  0.00     0.079 A   
ATOM     8   C3  UNL     1      -5.718   0.104  -3.591  1.00  0.00     0.067 A   
ATOM     9   C25 UNL     1      -3.530  -0.864  -3.210  1.00  0.00     0.059 A   
ATOM     10  C4  UNL     1      -5.480   1.041  -2.583  1.00  0.00     0.079 A   
ATOM     11  C6  UNL     1      -4.267   1.020  -1.889  1.00  0.00     0.059 A   
BRANCH   7  12
ATOM     12  O1  UNL     1      -4.852  -1.823  -4.861  1.00  0.00    -0.349 OA  
ATOM     13  C1  UNL     1      -6.084  -1.905  -5.570  1.00  0.00     0.203 C   
ENDBRANCH   7  12
BRANCH  10  14
ATOM     14  O2  UNL     1      -6.338   2.029  -2.182  1.00  0.00    -0.349 OA  
ATOM     15  C5  UNL     1      -7.643   2.026  -2.750  1.00  0.00     0.203 C   
ENDBRANCH  10  14
ENDBRANCH   1   6
BRANCH   3  16
ATOM     16  C10 UNL     1       1.226  -0.941  -0.196  1.00  0.00     0.117 C   
BRANCH  16  17
ATOM     17  N2  UNL     1       1.884  -0.012   0.790  1.00  0.00     0.249 N   
ATOM     18  H11 UNL     1       1.143   0.317   1.429  1.00  0.00     0.199 HD  
ATOM     19  H12 UNL     1       2.571  -0.488   1.380  1.00  0.00     0.199 HD  
BRANCH  17  20
ATOM     20  C11 UNL     1       2.516   1.204   0.205  1.00  0.00     0.164 C   
BRANCH  20  21
ATOM     21  C12 UNL     1       3.087   2.066   1.296  1.00  0.00    -0.002 A   
ATOM     22  C13 UNL     1       4.400   1.839   1.772  1.00  0.00     0.012 A   
ATOM     23  C17 UNL     1       2.293   3.058   1.896  1.00  0.00     0.045 A   
ATOM     24  C14 UNL     1       4.924   2.598   2.823  1.00  0.00     0.037 A   
ATOM     25  C16 UNL     1       2.842   3.788   2.930  1.00  0.00     0.109 A   
ATOM     26  C15 UNL     1       4.120   3.566   3.381  1.00  0.00     0.108 A   
ATOM     27  O3  UNL     1       2.214   4.778   3.618  1.00  0.00    -0.316 OA  
ATOM     28  O4  UNL     1       4.458   4.386   4.409  1.00  0.00    -0.316 OA  
ATOM     29  C18 UNL     1       3.257   5.178   4.537  1.00  0.00     0.337 C   
ENDBRANCH  20  21
ENDBRANCH  17  20
ENDBRANCH  16  17
BRANCH  16  30
ATOM     30  C19 UNL     1       1.144  -2.377   0.390  1.00  0.00     0.043 C   
ATOM     31  C20 UNL     1       2.535  -3.036   0.483  1.00  0.00     0.010 C   
ATOM     32  C24 UNL     1       0.422  -2.455   1.751  1.00  0.00     0.010 C   
ATOM     33  C21 UNL     1       2.446  -4.471   1.002  1.00  0.00     0.001 C   
ATOM     34  C23 UNL     1       0.341  -3.892   2.264  1.00  0.00     0.001 C   
ATOM     35  C22 UNL     1       1.718  -4.542   2.340  1.00  0.00     0.000 C   
ENDBRANCH  16  30
ENDBRANCH   3  16
TORSDOF 8
