REMARK SMILES CC(C)(C)[C@H]([NH2+]Cc1ccc2c(c1)OCO2)c1cn(-c2ccccc2N([O-])[O-])nn1
REMARK SMILES IDX 17 1 18 2 19 3 29 4 30 5 5 6 2 7 1 8 3 9 4 10 6 11 7 14 8 15
REMARK SMILES IDX 9 16 13 17 10 18 12 19 11 20 14 21 16 22 15 23 20 24 21 25
REMARK SMILES IDX 25 26 22 27 24 28 23 29 26 30 27 31 28 32
REMARK H PARENT 6 12 6 13
ROOT
ATOM     1   C14 UNL     1       0.437   1.420  -0.323  1.00  0.00     0.128 A   
ATOM     2   C15 UNL     1       0.548   0.706   0.849  1.00  0.00     0.135 A   
ATOM     3   N2  UNL     1       0.496   1.648   1.857  1.00  0.00    -0.178 N   
ATOM     4   N4  UNL     1       0.470   2.881   1.285  1.00  0.00    -0.071 NA  
ATOM     5   N5  UNL     1       0.377   2.750  -0.028  1.00  0.00    -0.131 NA  
ENDROOT
BRANCH   1   6
ATOM     6   C5  UNL     1       0.304   0.955  -1.742  1.00  0.00     0.120 C   
BRANCH   6   7
ATOM     7   C2  UNL     1       1.638   1.014  -2.567  1.00  0.00     0.010 C   
ATOM     8   C1  UNL     1       1.436   0.364  -3.957  1.00  0.00     0.017 C   
ATOM     9   C3  UNL     1       2.740   0.202  -1.849  1.00  0.00     0.017 C   
ATOM     10  C4  UNL     1       2.155   2.450  -2.779  1.00  0.00     0.017 C   
ENDBRANCH   6   7
BRANCH   6  11
ATOM     11  N1  UNL     1      -0.780   1.763  -2.428  1.00  0.00     0.250 N   
ATOM     12  H11 UNL     1      -0.773   1.601  -3.437  1.00  0.00     0.199 HD  
ATOM     13  H12 UNL     1      -0.550   2.755  -2.277  1.00  0.00     0.199 HD  
BRANCH  11  14
ATOM     14  C6  UNL     1      -2.177   1.555  -1.931  1.00  0.00     0.164 C   
BRANCH  14  15
ATOM     15  C7  UNL     1      -2.681   0.158  -2.163  1.00  0.00    -0.002 A   
ATOM     16  C8  UNL     1      -2.869  -0.721  -1.069  1.00  0.00     0.012 A   
ATOM     17  C12 UNL     1      -2.941  -0.296  -3.467  1.00  0.00     0.045 A   
ATOM     18  C9  UNL     1      -3.299  -2.037  -1.270  1.00  0.00     0.037 A   
ATOM     19  C11 UNL     1      -3.363  -1.599  -3.629  1.00  0.00     0.109 A   
ATOM     20  C10 UNL     1      -3.536  -2.446  -2.563  1.00  0.00     0.108 A   
ATOM     21  O1  UNL     1      -3.648  -2.194  -4.817  1.00  0.00    -0.316 OA  
ATOM     22  O2  UNL     1      -3.954  -3.680  -2.944  1.00  0.00    -0.316 OA  
ATOM     23  C13 UNL     1      -4.059  -3.508  -4.373  1.00  0.00     0.337 C   
ENDBRANCH  14  15
ENDBRANCH  11  14
ENDBRANCH   6  11
ENDBRANCH   1   6
BRANCH   3  24
ATOM     24  C16 UNL     1       0.489   1.494   3.268  1.00  0.00     0.086 A   
ATOM     25  C17 UNL     1       0.911   2.582   4.053  1.00  0.00     0.028 A   
ATOM     26  C21 UNL     1       0.101   0.317   3.931  1.00  0.00     0.141 A   
ATOM     27  C18 UNL     1       0.992   2.468   5.446  1.00  0.00     0.002 A   
ATOM     28  C20 UNL     1       0.186   0.198   5.327  1.00  0.00     0.033 A   
ATOM     29  C19 UNL     1       0.643   1.277   6.080  1.00  0.00     0.002 A   
BRANCH  26  30
ATOM     30  N3  UNL     1      -0.548  -0.777   3.236  1.00  0.00     0.094 N   
ATOM     31  O3  UNL     1      -0.013  -1.888   3.306  1.00  0.00    -0.138 OA  
ATOM     32  O4  UNL     1      -1.565  -0.505   2.581  1.00  0.00    -0.138 OA  
ENDBRANCH  26  30
ENDBRANCH   3  24
TORSDOF 7
