REMARK SMILES CC(C)(C)[C@H]([NH2+]Cc1ccc2c(c1)OCO2)c1cn(Cc2ncoc2C(F)F)nn1
REMARK SMILES IDX 17 1 18 2 19 3 29 4 30 5 5 7 2 8 1 9 3 10 4 11 6 12 7 15
REMARK SMILES IDX 8 16 9 17 13 18 10 19 12 20 11 21 14 22 16 23 15 24 20 25
REMARK SMILES IDX 21 26 22 27 25 28 23 29 24 30 26 31 27 32 28 33
REMARK H PARENT 18 6 6 13 6 14
ROOT
ATOM     1   C14 UNL     1      -0.549   0.459   0.227  1.00  0.00     0.127 A   
ATOM     2   C15 UNL     1       0.611   1.196   0.152  1.00  0.00     0.046 A   
ATOM     3   N2  UNL     1       1.330   0.800   1.248  1.00  0.00    -0.206 N   
ATOM     4   N4  UNL     1       0.645  -0.116   1.962  1.00  0.00    -0.076 NA  
ATOM     5   N5  UNL     1      -0.504  -0.334   1.346  1.00  0.00    -0.132 NA  
ATOM     6   H20 UNL     1       0.994   1.915  -0.558  1.00  0.00     0.083 HD  
ENDROOT
BRANCH   1   7
ATOM     7   C5  UNL     1      -1.717   0.342  -0.703  1.00  0.00     0.120 C   
BRANCH   7   8
ATOM     8   C2  UNL     1      -2.912   1.297  -0.360  1.00  0.00     0.010 C   
ATOM     9   C1  UNL     1      -3.538   1.003   1.018  1.00  0.00     0.017 C   
ATOM     10  C3  UNL     1      -2.436   2.768  -0.368  1.00  0.00     0.017 C   
ATOM     11  C4  UNL     1      -4.016   1.177  -1.437  1.00  0.00     0.017 C   
ENDBRANCH   7   8
BRANCH   7  12
ATOM     12  N1  UNL     1      -2.173  -1.109  -0.698  1.00  0.00     0.250 N   
ATOM     13  H11 UNL     1      -1.827  -1.503   0.192  1.00  0.00     0.199 HD  
ATOM     14  H12 UNL     1      -3.191  -1.186  -0.646  1.00  0.00     0.199 HD  
BRANCH  12  15
ATOM     15  C6  UNL     1      -1.672  -1.968  -1.810  1.00  0.00     0.164 C   
BRANCH  15  16
ATOM     16  C7  UNL     1      -0.174  -2.074  -1.882  1.00  0.00    -0.002 A   
ATOM     17  C8  UNL     1       0.546  -2.766  -0.879  1.00  0.00     0.012 A   
ATOM     18  C12 UNL     1       0.529  -1.458  -2.932  1.00  0.00     0.045 A   
ATOM     19  C9  UNL     1       1.944  -2.831  -0.910  1.00  0.00     0.037 A   
ATOM     20  C11 UNL     1       1.907  -1.545  -2.936  1.00  0.00     0.109 A   
ATOM     21  C10 UNL     1       2.595  -2.210  -1.952  1.00  0.00     0.108 A   
ATOM     22  O1  UNL     1       2.729  -1.003  -3.870  1.00  0.00    -0.316 OA  
ATOM     23  O2  UNL     1       3.939  -2.165  -2.140  1.00  0.00    -0.316 OA  
ATOM     24  C13 UNL     1       4.015  -1.454  -3.394  1.00  0.00     0.337 C   
ENDBRANCH  15  16
ENDBRANCH  12  15
ENDBRANCH   7  12
ENDBRANCH   1   7
BRANCH   3  25
ATOM     25  C16 UNL     1       2.613   1.293   1.719  1.00  0.00     0.192 C   
BRANCH  25  26
ATOM     26  C17 UNL     1       3.666   1.131   0.684  1.00  0.00     0.095 A   
ATOM     27  N3  UNL     1       3.800   2.033  -0.355  1.00  0.00    -0.232 NA  
ATOM     28  C19 UNL     1       4.648   0.166   0.579  1.00  0.00     0.150 A   
ATOM     29  C18 UNL     1       4.848   1.597  -1.018  1.00  0.00     0.247 A   
ATOM     30  O3  UNL     1       5.410   0.462  -0.521  1.00  0.00    -0.295 OA  
BRANCH  28  31
ATOM     31  C20 UNL     1       5.010  -1.014   1.385  1.00  0.00     0.398 C   
ATOM     32  F1  UNL     1       3.998  -1.924   1.381  1.00  0.00    -0.203 F   
ATOM     33  F2  UNL     1       5.179  -0.655   2.687  1.00  0.00    -0.203 F   
ENDBRANCH  28  31
ENDBRANCH  25  26
ENDBRANCH   3  25
TORSDOF 8
