REMARK SMILES COc1ccccc1Cn1cc([C@@H]([NH2+]Cc2ccc3c(c2)OCO3)C2CCCC2)nn1
REMARK SMILES IDX 10 1 11 2 12 3 30 4 31 5 9 7 8 8 3 9 4 10 5 11 7 12 6 13
REMARK SMILES IDX 2 14 1 15 13 16 14 17 15 20 16 21 17 22 21 23 18 24 20 25
REMARK SMILES IDX 19 26 22 27 24 28 23 29 25 30 26 31 29 32 27 33 28 34
REMARK H PARENT 11 6 14 18 14 19
ROOT
ATOM     1   N1  UNL     1      -0.753   0.356   3.174  1.00  0.00    -0.208 N   
ATOM     2   C9  UNL     1      -0.096  -0.103   2.065  1.00  0.00     0.046 A   
ATOM     3   C10 UNL     1       0.283   1.044   1.407  1.00  0.00     0.127 A   
ATOM     4   N3  UNL     1      -0.099   2.136   2.141  1.00  0.00    -0.132 NA  
ATOM     5   N4  UNL     1      -0.724   1.704   3.224  1.00  0.00    -0.076 NA  
ATOM     6   H10 UNL     1      -0.020  -1.157   1.835  1.00  0.00     0.083 HD  
ENDROOT
BRANCH   1   7
ATOM     7   C8  UNL     1      -1.452  -0.416   4.186  1.00  0.00     0.172 C   
BRANCH   7   8
ATOM     8   C7  UNL     1      -2.926  -0.507   3.869  1.00  0.00     0.002 A   
ATOM     9   C2  UNL     1      -3.425  -1.450   2.950  1.00  0.00     0.079 A   
ATOM     10  C3  UNL     1      -4.796  -1.489   2.677  1.00  0.00     0.034 A   
ATOM     11  C4  UNL     1      -5.670  -0.600   3.309  1.00  0.00     0.003 A   
ATOM     12  C6  UNL     1      -3.817   0.387   4.490  1.00  0.00     0.008 A   
ATOM     13  C5  UNL     1      -5.181   0.337   4.213  1.00  0.00     0.001 A   
BRANCH   9  14
ATOM     14  O1  UNL     1      -2.493  -2.267   2.364  1.00  0.00    -0.349 OA  
ATOM     15  C1  UNL     1      -2.986  -3.369   1.607  1.00  0.00     0.203 C   
ENDBRANCH   9  14
ENDBRANCH   7   8
ENDBRANCH   1   7
BRANCH   3  16
ATOM     16  C11 UNL     1       0.897   1.237   0.062  1.00  0.00     0.117 C   
BRANCH  16  17
ATOM     17  N2  UNL     1       0.192   2.356  -0.670  1.00  0.00     0.249 N   
ATOM     18  H12 UNL     1       0.206   3.167  -0.037  1.00  0.00     0.199 HD  
ATOM     19  H13 UNL     1       0.703   2.617  -1.516  1.00  0.00     0.199 HD  
BRANCH  17  20
ATOM     20  C12 UNL     1      -1.246   2.119  -1.013  1.00  0.00     0.164 C   
BRANCH  20  21
ATOM     21  C13 UNL     1      -1.454   0.945  -1.929  1.00  0.00    -0.002 A   
ATOM     22  C14 UNL     1      -1.073   1.020  -3.290  1.00  0.00     0.012 A   
ATOM     23  C18 UNL     1      -2.001  -0.250  -1.426  1.00  0.00     0.045 A   
ATOM     24  C15 UNL     1      -1.227  -0.082  -4.139  1.00  0.00     0.037 A   
ATOM     25  C17 UNL     1      -2.135  -1.317  -2.289  1.00  0.00     0.109 A   
ATOM     26  C16 UNL     1      -1.758  -1.236  -3.607  1.00  0.00     0.108 A   
ATOM     27  O2  UNL     1      -2.631  -2.541  -1.966  1.00  0.00    -0.316 OA  
ATOM     28  O3  UNL     1      -1.973  -2.396  -4.280  1.00  0.00    -0.316 OA  
ATOM     29  C19 UNL     1      -2.557  -3.212  -3.244  1.00  0.00     0.337 C   
ENDBRANCH  20  21
ENDBRANCH  17  20
ENDBRANCH  16  17
BRANCH  16  30
ATOM     30  C20 UNL     1       2.412   1.510   0.150  1.00  0.00     0.043 C   
ATOM     31  C21 UNL     1       2.837   2.862   0.733  1.00  0.00     0.010 C   
ATOM     32  C24 UNL     1       3.148   1.434  -1.200  1.00  0.00     0.010 C   
ATOM     33  C22 UNL     1       4.295   2.962   0.310  1.00  0.00     0.001 C   
ATOM     34  C23 UNL     1       4.287   2.453  -1.124  1.00  0.00     0.001 C   
ENDBRANCH  16  30
ENDBRANCH   3  16
TORSDOF 8
