REMARK SMILES c1cc(Cn2cc([C@@H]([NH2+]Cc3ccc4c(c3)OCO4)C3CCCCC3)nn2)ncn1
REMARK SMILES IDX 8 1 7 2 5 3 6 4 27 5 26 6 4 8 3 9 1 10 2 11 30 12 29 13
REMARK SMILES IDX 28 14 9 15 10 18 11 19 12 20 16 21 13 22 15 23 14 24 17 25
REMARK SMILES IDX 19 26 18 27 20 28 21 29 25 30 22 31 24 32 23 33
REMARK H PARENT 6 7 9 16 9 17
ROOT
ATOM     1   C7  UNL     1       1.385   0.798  -0.494  1.00  0.00     0.117 C   
ENDROOT
BRANCH   1   2
ATOM     2   C6  UNL     1       0.401   0.599   0.613  1.00  0.00     0.127 A   
ATOM     3   N1  UNL     1      -0.810  -0.028   2.290  1.00  0.00    -0.206 N   
ATOM     4   C5  UNL     1       0.377  -0.289   1.662  1.00  0.00     0.046 A   
ATOM     5   N4  UNL     1      -1.469   0.973   1.674  1.00  0.00    -0.076 NA  
ATOM     6   N3  UNL     1      -0.744   1.355   0.638  1.00  0.00    -0.132 NA  
ATOM     7   H5  UNL     1       1.046  -1.068   1.997  1.00  0.00     0.083 HD  
BRANCH   3   8
ATOM     8   C4  UNL     1      -1.342  -0.637   3.492  1.00  0.00     0.190 C   
BRANCH   8   9
ATOM     9   C3  UNL     1      -2.162  -1.849   3.151  1.00  0.00     0.063 A   
ATOM     10  C1  UNL     1      -4.212  -2.938   2.815  1.00  0.00     0.115 A   
ATOM     11  C2  UNL     1      -3.545  -1.774   3.116  1.00  0.00     0.046 A   
ATOM     12  N6  UNL     1      -3.589  -4.099   2.549  1.00  0.00    -0.245 NA  
ATOM     13  C22 UNL     1      -2.250  -4.069   2.600  1.00  0.00     0.221 A   
ATOM     14  N5  UNL     1      -1.493  -2.996   2.888  1.00  0.00    -0.240 NA  
ENDBRANCH   8   9
ENDBRANCH   3   8
ENDBRANCH   1   2
BRANCH   1  15
ATOM     15  N2  UNL     1       0.653   1.204  -1.754  1.00  0.00     0.249 N   
ATOM     16  H7  UNL     1       1.118   1.985  -2.218  1.00  0.00     0.199 HD  
ATOM     17  H8  UNL     1      -0.260   1.573  -1.443  1.00  0.00     0.199 HD  
BRANCH  15  18
ATOM     18  C8  UNL     1       0.409   0.128  -2.751  1.00  0.00     0.164 C   
BRANCH  18  19
ATOM     19  C9  UNL     1      -0.421  -1.016  -2.246  1.00  0.00    -0.002 A   
ATOM     20  C10 UNL     1       0.189  -2.251  -1.922  1.00  0.00     0.012 A   
ATOM     21  C14 UNL     1      -1.812  -0.872  -2.091  1.00  0.00     0.045 A   
ATOM     22  C11 UNL     1      -0.570  -3.330  -1.458  1.00  0.00     0.037 A   
ATOM     23  C13 UNL     1      -2.533  -1.962  -1.649  1.00  0.00     0.109 A   
ATOM     24  C12 UNL     1      -1.931  -3.156  -1.342  1.00  0.00     0.108 A   
ATOM     25  O1  UNL     1      -3.886  -2.009  -1.499  1.00  0.00    -0.316 OA  
ATOM     26  O2  UNL     1      -2.826  -4.108  -0.965  1.00  0.00    -0.316 OA  
ATOM     27  C15 UNL     1      -4.067  -3.383  -1.085  1.00  0.00     0.337 C   
ENDBRANCH  18  19
ENDBRANCH  15  18
ENDBRANCH   1  15
BRANCH   1  28
ATOM     28  C16 UNL     1       2.482   1.836  -0.131  1.00  0.00     0.043 C   
ATOM     29  C17 UNL     1       3.639   1.817  -1.151  1.00  0.00     0.010 C   
ATOM     30  C21 UNL     1       1.962   3.275   0.059  1.00  0.00     0.010 C   
ATOM     31  C18 UNL     1       4.757   2.780  -0.759  1.00  0.00     0.001 C   
ATOM     32  C20 UNL     1       3.088   4.232   0.448  1.00  0.00     0.001 C   
ATOM     33  C19 UNL     1       4.233   4.197  -0.556  1.00  0.00     0.000 C   
ENDBRANCH   1  28
TORSDOF 7
