REMARK SMILES CC(C)(C)[C@H]([NH2+]Cc1ccc2c(c1)OCO2)c1cn(Cc2cc(F)cc(F)c2)nn1
REMARK SMILES IDX 17 1 18 2 19 3 29 4 30 5 5 7 2 8 1 9 3 10 4 11 6 12 7 15
REMARK SMILES IDX 8 16 9 17 13 18 10 19 12 20 11 21 14 22 16 23 15 24 20 25
REMARK SMILES IDX 21 26 22 27 28 28 23 29 26 30 25 31 24 32 27 33
REMARK H PARENT 18 6 6 13 6 14
ROOT
ATOM     1   C14 UNL     1      -0.793   1.442  -1.103  1.00  0.00     0.127 A   
ATOM     2   C15 UNL     1       0.378   0.798  -1.432  1.00  0.00     0.046 A   
ATOM     3   N2  UNL     1       1.332   1.456  -0.707  1.00  0.00    -0.208 N   
ATOM     4   N3  UNL     1       0.784   2.454   0.014  1.00  0.00    -0.076 NA  
ATOM     5   N4  UNL     1      -0.518   2.449  -0.211  1.00  0.00    -0.132 NA  
ATOM     6   H20 UNL     1       0.610  -0.050  -2.063  1.00  0.00     0.083 HD  
ENDROOT
BRANCH   1   7
ATOM     7   C5  UNL     1      -2.221   1.175  -1.469  1.00  0.00     0.120 C   
BRANCH   7   8
ATOM     8   C2  UNL     1      -2.755   2.042  -2.661  1.00  0.00     0.010 C   
ATOM     9   C1  UNL     1      -1.885   1.807  -3.917  1.00  0.00     0.017 C   
ATOM     10  C3  UNL     1      -4.196   1.614  -3.025  1.00  0.00     0.017 C   
ATOM     11  C4  UNL     1      -2.757   3.553  -2.353  1.00  0.00     0.017 C   
ENDBRANCH   7   8
BRANCH   7  12
ATOM     12  N1  UNL     1      -3.068   1.395  -0.226  1.00  0.00     0.250 N   
ATOM     13  H11 UNL     1      -3.893   1.969  -0.424  1.00  0.00     0.199 HD  
ATOM     14  H12 UNL     1      -2.490   1.973   0.408  1.00  0.00     0.199 HD  
BRANCH  12  15
ATOM     15  C6  UNL     1      -3.486   0.175   0.515  1.00  0.00     0.164 C   
BRANCH  15  16
ATOM     16  C7  UNL     1      -2.347  -0.613   1.101  1.00  0.00    -0.002 A   
ATOM     17  C8  UNL     1      -1.633  -0.122   2.220  1.00  0.00     0.012 A   
ATOM     18  C12 UNL     1      -1.977  -1.845   0.534  1.00  0.00     0.045 A   
ATOM     19  C9  UNL     1      -0.585  -0.857   2.784  1.00  0.00     0.037 A   
ATOM     20  C11 UNL     1      -0.941  -2.544   1.114  1.00  0.00     0.109 A   
ATOM     21  C10 UNL     1      -0.269  -2.070   2.213  1.00  0.00     0.108 A   
ATOM     22  O1  UNL     1      -0.474  -3.752   0.701  1.00  0.00    -0.316 OA  
ATOM     23  O2  UNL     1       0.688  -2.929   2.646  1.00  0.00    -0.316 OA  
ATOM     24  C13 UNL     1       0.518  -4.023   1.719  1.00  0.00     0.337 C   
ENDBRANCH  15  16
ENDBRANCH  12  15
ENDBRANCH   7  12
ENDBRANCH   1   7
BRANCH   3  25
ATOM     25  C16 UNL     1       2.763   1.206  -0.659  1.00  0.00     0.169 C   
BRANCH  25  26
ATOM     26  C17 UNL     1       3.120   0.308   0.496  1.00  0.00    -0.023 A   
ATOM     27  C18 UNL     1       3.230   0.831   1.796  1.00  0.00     0.045 A   
ATOM     28  C22 UNL     1       3.336  -1.065   0.306  1.00  0.00     0.045 A   
ATOM     29  C19 UNL     1       3.551  -0.005   2.863  1.00  0.00     0.126 A   
ATOM     30  C21 UNL     1       3.661  -1.878   1.392  1.00  0.00     0.126 A   
ATOM     31  C20 UNL     1       3.770  -1.361   2.673  1.00  0.00     0.078 A   
ATOM     32  F1  UNL     1       3.638   0.514   4.095  1.00  0.00    -0.207 F   
ATOM     33  F2  UNL     1       3.855  -3.190   1.189  1.00  0.00    -0.207 F   
ENDBRANCH  25  26
ENDBRANCH   3  25
TORSDOF 7
