REMARK SMILES CC(C)(C)[C@H]([NH2+]Cc1ccc2c(c1)OCO2)c1cn(Cc2ncoc2C2CC2)nn1
REMARK SMILES IDX 17 1 18 2 19 3 29 4 30 5 5 7 2 8 1 9 3 10 4 11 6 12 7 15
REMARK SMILES IDX 8 16 9 17 13 18 10 19 12 20 11 21 14 22 16 23 15 24 20 25
REMARK SMILES IDX 21 26 22 27 25 28 23 29 24 30 26 31 27 32 28 33
REMARK H PARENT 18 6 6 13 6 14
ROOT
ATOM     1   C14 UNL     1      -0.778   2.018  -0.065  1.00  0.00     0.127 A   
ATOM     2   C15 UNL     1      -1.163   1.310   1.050  1.00  0.00     0.046 A   
ATOM     3   N2  UNL     1      -1.954   0.311   0.551  1.00  0.00    -0.206 N   
ATOM     4   N4  UNL     1      -2.054   0.401  -0.791  1.00  0.00    -0.076 NA  
ATOM     5   N5  UNL     1      -1.330   1.438  -1.180  1.00  0.00    -0.132 NA  
ATOM     6   H20 UNL     1      -0.942   1.394   2.106  1.00  0.00     0.083 HD  
ENDROOT
BRANCH   1   7
ATOM     7   C5  UNL     1       0.154   3.178  -0.232  1.00  0.00     0.120 C   
BRANCH   7   8
ATOM     8   C2  UNL     1      -0.551   4.578  -0.240  1.00  0.00     0.010 C   
ATOM     9   C1  UNL     1      -1.532   4.750  -1.418  1.00  0.00     0.017 C   
ATOM     10  C3  UNL     1       0.506   5.705  -0.313  1.00  0.00     0.017 C   
ATOM     11  C4  UNL     1      -1.336   4.784   1.075  1.00  0.00     0.017 C   
ENDBRANCH   7   8
BRANCH   7  12
ATOM     12  N1  UNL     1       0.941   2.967  -1.513  1.00  0.00     0.250 N   
ATOM     13  H11 UNL     1       0.966   3.815  -2.083  1.00  0.00     0.199 HD  
ATOM     14  H12 UNL     1       0.395   2.289  -2.069  1.00  0.00     0.199 HD  
BRANCH  12  15
ATOM     15  C6  UNL     1       2.324   2.440  -1.359  1.00  0.00     0.164 C   
BRANCH  15  16
ATOM     16  C7  UNL     1       2.394   1.050  -0.790  1.00  0.00    -0.002 A   
ATOM     17  C8  UNL     1       2.856   0.840   0.532  1.00  0.00     0.012 A   
ATOM     18  C12 UNL     1       1.999  -0.054  -1.565  1.00  0.00     0.045 A   
ATOM     19  C9  UNL     1       2.934  -0.449   1.071  1.00  0.00     0.037 A   
ATOM     20  C11 UNL     1       2.098  -1.312  -1.007  1.00  0.00     0.109 A   
ATOM     21  C10 UNL     1       2.555  -1.505   0.273  1.00  0.00     0.108 A   
ATOM     22  O1  UNL     1       1.784  -2.480  -1.627  1.00  0.00    -0.316 OA  
ATOM     23  O2  UNL     1       2.594  -2.818   0.618  1.00  0.00    -0.316 OA  
ATOM     24  C13 UNL     1       2.162  -3.438  -0.612  1.00  0.00     0.337 C   
ENDBRANCH  15  16
ENDBRANCH  12  15
ENDBRANCH   7  12
ENDBRANCH   1   7
BRANCH   3  25
ATOM     25  C16 UNL     1      -2.640  -0.738   1.281  1.00  0.00     0.192 C   
BRANCH  25  26
ATOM     26  C17 UNL     1      -1.681  -1.806   1.643  1.00  0.00     0.089 A   
ATOM     27  N3  UNL     1      -0.992  -1.772   2.841  1.00  0.00    -0.232 NA  
ATOM     28  C19 UNL     1      -1.308  -2.929   0.933  1.00  0.00     0.087 A   
ATOM     29  C18 UNL     1      -0.263  -2.865   2.808  1.00  0.00     0.247 A   
ATOM     30  O3  UNL     1      -0.399  -3.616   1.683  1.00  0.00    -0.301 OA  
BRANCH  28  31
ATOM     31  C20 UNL     1      -1.796  -3.348  -0.473  1.00  0.00     0.045 C   
ATOM     32  C21 UNL     1      -1.930  -4.814  -0.788  1.00  0.00     0.011 C   
ATOM     33  C22 UNL     1      -3.159  -3.970  -0.617  1.00  0.00     0.011 C   
ENDBRANCH  28  31
ENDBRANCH  25  26
ENDBRANCH   3  25
TORSDOF 8
