REMARK SMILES c1cc2c(cc1C[NH2+][C@H](c1cn(Cc3cn[nH]c3)nn1)C1CCCCC1)OCO2
REMARK SMILES IDX 10 1 11 2 12 3 19 4 20 5 9 7 8 8 7 11 6 12 1 13 2 14 3 15
REMARK SMILES IDX 5 16 4 17 29 18 27 19 28 20 21 21 22 22 26 23 23 24 25 25
REMARK SMILES IDX 24 26 13 27 14 28 15 29 18 30 16 31 17 32
REMARK H PARENT 11 6 8 9 8 10 17 33
ROOT
ATOM     1   C9  UNL     1       0.246   1.258  -0.729  1.00  0.00     0.127 A   
ATOM     2   C10 UNL     1       0.072   2.297  -1.616  1.00  0.00     0.046 A   
ATOM     3   N2  UNL     1      -1.288   2.428  -1.709  1.00  0.00    -0.208 N   
ATOM     4   N5  UNL     1      -1.909   1.571  -0.875  1.00  0.00    -0.076 NA  
ATOM     5   N6  UNL     1      -0.982   0.833  -0.289  1.00  0.00    -0.132 NA  
ATOM     6   H9  UNL     1       0.751   2.905  -2.197  1.00  0.00     0.083 HD  
ENDROOT
BRANCH   1   7
ATOM     7   C8  UNL     1       1.484   0.586  -0.223  1.00  0.00     0.117 C   
BRANCH   7   8
ATOM     8   N1  UNL     1       1.192  -0.172   1.045  1.00  0.00     0.249 N   
ATOM     9   H6  UNL     1       1.891  -0.895   1.237  1.00  0.00     0.199 HD  
ATOM     10  H7  UNL     1       0.300  -0.667   0.894  1.00  0.00     0.199 HD  
BRANCH   8  11
ATOM     11  C7  UNL     1       1.019   0.666   2.265  1.00  0.00     0.164 C   
BRANCH  11  12
ATOM     12  C6  UNL     1       0.684  -0.197   3.449  1.00  0.00    -0.002 A   
ATOM     13  C1  UNL     1       1.697  -0.612   4.345  1.00  0.00     0.012 A   
ATOM     14  C2  UNL     1       1.399  -1.451   5.425  1.00  0.00     0.037 A   
ATOM     15  C3  UNL     1       0.094  -1.863   5.579  1.00  0.00     0.108 A   
ATOM     16  C5  UNL     1      -0.637  -0.641   3.640  1.00  0.00     0.045 A   
ATOM     17  C4  UNL     1      -0.894  -1.470   4.712  1.00  0.00     0.109 A   
ATOM     18  O2  UNL     1      -0.372  -2.678   6.560  1.00  0.00    -0.316 OA  
ATOM     19  O1  UNL     1      -2.107  -1.991   5.035  1.00  0.00    -0.316 OA  
ATOM     20  C21 UNL     1      -1.772  -2.754   6.216  1.00  0.00     0.337 C   
ENDBRANCH  11  12
ENDBRANCH   8  11
ENDBRANCH   7   8
BRANCH   7  21
ATOM     21  C15 UNL     1       2.106  -0.360  -1.286  1.00  0.00     0.043 C   
ATOM     22  C16 UNL     1       3.541  -0.781  -0.910  1.00  0.00     0.010 C   
ATOM     23  C20 UNL     1       1.249  -1.605  -1.591  1.00  0.00     0.010 C   
ATOM     24  C17 UNL     1       4.174  -1.653  -1.993  1.00  0.00     0.001 C   
ATOM     25  C19 UNL     1       1.888  -2.475  -2.674  1.00  0.00     0.001 C   
ATOM     26  C18 UNL     1       3.314  -2.873  -2.308  1.00  0.00     0.000 C   
ENDBRANCH   7  21
ENDBRANCH   1   7
BRANCH   3  27
ATOM     27  C11 UNL     1      -2.053   3.323  -2.564  1.00  0.00     0.172 C   
BRANCH  27  28
ATOM     28  C12 UNL     1      -2.067   2.823  -3.963  1.00  0.00     0.007 A   
ATOM     29  C13 UNL     1      -2.559   1.580  -4.427  1.00  0.00     0.137 A   
ATOM     30  C14 UNL     1      -1.625   3.451  -5.110  1.00  0.00     0.099 A   
ATOM     31  N3  UNL     1      -2.408   1.429  -5.742  1.00  0.00    -0.193 NA  
ATOM     32  N4  UNL     1      -1.864   2.588  -6.142  1.00  0.00    -0.246 N   
ATOM     33  H13 UNL     1      -1.683   2.717  -7.134  1.00  0.00     0.175 HD  
ENDBRANCH  27  28
ENDBRANCH   3  27
TORSDOF 7
