REMARK SMILES OCc1ccc(Cn2cc([C@@H]([NH2+]Cc3ccc4c(c3)OCO4)C3CCCC3)nn2)cc1
REMARK SMILES IDX 8 1 9 2 10 3 28 4 29 5 7 7 6 8 3 9 4 10 31 11 5 12 30 13
REMARK SMILES IDX 2 14 1 15 11 17 12 18 13 21 14 22 15 23 19 24 16 25 18 26
REMARK SMILES IDX 17 27 20 28 22 29 21 30 23 31 24 32 27 33 25 34 26 35
REMARK H PARENT 9 6 1 16 12 19 12 20
ROOT
ATOM     1   N1  UNL     1       2.246   1.583  -1.967  1.00  0.00    -0.208 N   
ATOM     2   C7  UNL     1       1.996   1.556  -0.620  1.00  0.00     0.046 A   
ATOM     3   C8  UNL     1       0.856   2.319  -0.480  1.00  0.00     0.127 A   
ATOM     4   N3  UNL     1       0.502   2.825  -1.700  1.00  0.00    -0.132 NA  
ATOM     5   N4  UNL     1       1.360   2.372  -2.601  1.00  0.00    -0.076 NA  
ATOM     6   H8  UNL     1       2.580   0.952   0.060  1.00  0.00     0.083 HD  
ENDROOT
BRANCH   1   7
ATOM     7   C6  UNL     1       3.162   0.736  -2.717  1.00  0.00     0.169 C   
BRANCH   7   8
ATOM     8   C5  UNL     1       2.703  -0.701  -2.630  1.00  0.00    -0.029 A   
ATOM     9   C2  UNL     1       1.706  -3.319  -2.316  1.00  0.00    -0.023 A   
ATOM     10  C3  UNL     1       1.071  -2.414  -3.175  1.00  0.00     0.006 A   
ATOM     11  C24 UNL     1       2.858  -2.910  -1.633  1.00  0.00     0.006 A   
ATOM     12  C4  UNL     1       1.563  -1.119  -3.334  1.00  0.00     0.006 A   
ATOM     13  C23 UNL     1       3.353  -1.613  -1.788  1.00  0.00     0.006 A   
BRANCH   9  14
ATOM     14  C1  UNL     1       1.154  -4.707  -2.141  1.00  0.00     0.191 C   
BRANCH  14  15
ATOM     15  O1  UNL     1      -0.140  -4.608  -1.557  1.00  0.00    -0.392 OA  
ATOM     16  H1  UNL     1      -0.509  -5.508  -1.570  1.00  0.00     0.211 HD  
ENDBRANCH  14  15
ENDBRANCH   9  14
ENDBRANCH   7   8
ENDBRANCH   1   7
BRANCH   3  17
ATOM     17  C9  UNL     1      -0.052   2.509   0.690  1.00  0.00     0.117 C   
BRANCH  17  18
ATOM     18  N2  UNL     1      -0.862   1.255   0.924  1.00  0.00     0.249 N   
ATOM     19  H10 UNL     1      -1.451   1.360   1.756  1.00  0.00     0.199 HD  
ATOM     20  H11 UNL     1      -0.228   0.470   1.113  1.00  0.00     0.199 HD  
BRANCH  18  21
ATOM     21  C10 UNL     1      -1.754   0.853  -0.210  1.00  0.00     0.164 C   
BRANCH  21  22
ATOM     22  C11 UNL     1      -2.532  -0.378   0.163  1.00  0.00    -0.002 A   
ATOM     23  C12 UNL     1      -1.991  -1.663  -0.083  1.00  0.00     0.012 A   
ATOM     24  C16 UNL     1      -3.774  -0.262   0.810  1.00  0.00     0.045 A   
ATOM     25  C13 UNL     1      -2.678  -2.818   0.306  1.00  0.00     0.037 A   
ATOM     26  C15 UNL     1      -4.424  -1.421   1.180  1.00  0.00     0.109 A   
ATOM     27  C14 UNL     1      -3.891  -2.663   0.937  1.00  0.00     0.108 A   
ATOM     28  O2  UNL     1      -5.625  -1.486   1.813  1.00  0.00    -0.316 OA  
ATOM     29  O3  UNL     1      -4.691  -3.667   1.383  1.00  0.00    -0.316 OA  
ATOM     30  C17 UNL     1      -5.804  -2.917   1.915  1.00  0.00     0.337 C   
ENDBRANCH  21  22
ENDBRANCH  18  21
ENDBRANCH  17  18
BRANCH  17  31
ATOM     31  C18 UNL     1       0.699   2.861   1.988  1.00  0.00     0.043 C   
ATOM     32  C19 UNL     1       1.467   4.184   1.901  1.00  0.00     0.010 C   
ATOM     33  C22 UNL     1      -0.210   3.109   3.197  1.00  0.00     0.010 C   
ATOM     34  C20 UNL     1       1.784   4.515   3.353  1.00  0.00     0.001 C   
ATOM     35  C21 UNL     1       0.640   3.924   4.171  1.00  0.00     0.001 C   
ENDBRANCH  17  31
ENDBRANCH   3  17
TORSDOF 9
