REMARK SMILES Cc1cccc(F)c1CCn1cc([C@@H]([NH2+]Cc2ccc3c(c2)OCO3)C2CCCC2)nn1
REMARK SMILES IDX 11 1 12 2 13 3 31 4 32 5 10 7 9 8 8 9 2 10 3 11 4 12 6 13
REMARK SMILES IDX 5 14 1 15 7 16 14 17 15 18 16 21 17 22 18 23 22 24 19 25
REMARK SMILES IDX 21 26 20 27 23 28 25 29 24 30 26 31 27 32 30 33 28 34 29 35
REMARK H PARENT 12 6 15 19 15 20
ROOT
ATOM     1   N1  UNL     1      -1.708   2.525  -0.384  1.00  0.00    -0.212 N   
ATOM     2   C10 UNL     1      -0.909   1.711   0.368  1.00  0.00     0.045 A   
ATOM     3   C11 UNL     1       0.272   1.665  -0.337  1.00  0.00     0.127 A   
ATOM     4   N3  UNL     1       0.157   2.444  -1.461  1.00  0.00    -0.132 NA  
ATOM     5   N4  UNL     1      -1.060   2.963  -1.478  1.00  0.00    -0.076 NA  
ATOM     6   H11 UNL     1      -1.253   1.242   1.280  1.00  0.00     0.083 HD  
ENDROOT
BRANCH   1   7
ATOM     7   C9  UNL     1      -3.091   2.881  -0.145  1.00  0.00     0.139 C   
BRANCH   7   8
ATOM     8   C8  UNL     1      -4.067   2.157  -1.077  1.00  0.00     0.060 C   
BRANCH   8   9
ATOM     9   C7  UNL     1      -3.991   0.644  -1.017  1.00  0.00    -0.008 A   
ATOM     10  C2  UNL     1      -3.646  -0.151  -2.132  1.00  0.00    -0.045 A   
ATOM     11  C3  UNL     1      -3.614  -1.551  -1.994  1.00  0.00     0.004 A   
ATOM     12  C4  UNL     1      -3.910  -2.163  -0.775  1.00  0.00     0.003 A   
ATOM     13  C6  UNL     1      -4.295  -0.000   0.193  1.00  0.00     0.126 A   
ATOM     14  C5  UNL     1      -4.251  -1.383   0.323  1.00  0.00     0.039 A   
ATOM     15  C1  UNL     1      -3.334   0.447  -3.478  1.00  0.00     0.045 C   
ATOM     16  F1  UNL     1      -4.624   0.731   1.268  1.00  0.00    -0.207 F   
ENDBRANCH   8   9
ENDBRANCH   7   8
ENDBRANCH   1   7
BRANCH   3  17
ATOM     17  C12 UNL     1       1.524   0.889  -0.101  1.00  0.00     0.117 C   
BRANCH  17  18
ATOM     18  N2  UNL     1       2.098   0.421  -1.417  1.00  0.00     0.249 N   
ATOM     19  H13 UNL     1       3.054   0.077  -1.300  1.00  0.00     0.199 HD  
ATOM     20  H14 UNL     1       2.142   1.254  -2.021  1.00  0.00     0.199 HD  
BRANCH  18  21
ATOM     21  C13 UNL     1       1.299  -0.602  -2.157  1.00  0.00     0.164 C   
BRANCH  21  22
ATOM     22  C14 UNL     1       1.240  -1.927  -1.449  1.00  0.00    -0.002 A   
ATOM     23  C15 UNL     1       2.360  -2.792  -1.447  1.00  0.00     0.012 A   
ATOM     24  C19 UNL     1       0.075  -2.301  -0.756  1.00  0.00     0.045 A   
ATOM     25  C16 UNL     1       2.323  -4.012  -0.763  1.00  0.00     0.037 A   
ATOM     26  C18 UNL     1       0.072  -3.510  -0.092  1.00  0.00     0.109 A   
ATOM     27  C17 UNL     1       1.164  -4.341  -0.095  1.00  0.00     0.108 A   
ATOM     28  O1  UNL     1      -0.965  -4.016   0.625  1.00  0.00    -0.316 OA  
ATOM     29  O2  UNL     1       0.953  -5.476   0.619  1.00  0.00    -0.316 OA  
ATOM     30  C20 UNL     1      -0.409  -5.279   1.057  1.00  0.00     0.337 C   
ENDBRANCH  21  22
ENDBRANCH  18  21
ENDBRANCH  17  18
BRANCH  17  31
ATOM     31  C21 UNL     1       2.561   1.712   0.691  1.00  0.00     0.043 C   
ATOM     32  C22 UNL     1       3.240   2.864  -0.051  1.00  0.00     0.010 C   
ATOM     33  C25 UNL     1       3.760   0.906   1.202  1.00  0.00     0.010 C   
ATOM     34  C23 UNL     1       4.390   3.248   0.873  1.00  0.00     0.001 C   
ATOM     35  C24 UNL     1       4.795   1.961   1.591  1.00  0.00     0.001 C   
ENDBRANCH  17  31
ENDBRANCH   3  17
TORSDOF 8
