REMARK SMILES O[C@@H](Cn1cc([C@@H]([NH2+]Cc2ccc3c(c2)OCO3)C2CCCCC2)nn1)c1cccs1
REMARK SMILES IDX 4 1 5 2 6 3 25 4 26 5 3 7 2 8 1 9 27 11 28 12 31 13 29 14
REMARK SMILES IDX 30 15 7 16 8 17 9 20 10 21 11 22 15 23 12 24 14 25 13 26
REMARK SMILES IDX 16 27 18 28 17 29 19 30 20 31 24 32 21 33 23 34 22 35
REMARK H PARENT 5 6 1 10 8 18 8 19
ROOT
ATOM     1   N1  UNL     1       0.293  -3.827   0.488  1.00  0.00    -0.209 N   
ATOM     2   C3  UNL     1      -0.779  -3.016   0.240  1.00  0.00     0.045 A   
ATOM     3   C4  UNL     1      -0.221  -1.886  -0.314  1.00  0.00     0.127 A   
ATOM     4   N3  UNL     1       1.141  -2.038  -0.365  1.00  0.00    -0.132 NA  
ATOM     5   N4  UNL     1       1.441  -3.236   0.110  1.00  0.00    -0.076 NA  
ATOM     6   H5  UNL     1      -1.793  -3.304   0.486  1.00  0.00     0.083 HD  
ENDROOT
BRANCH   1   7
ATOM     7   C2  UNL     1       0.299  -5.131   1.107  1.00  0.00     0.171 C   
BRANCH   7   8
ATOM     8   C1  UNL     1       1.119  -5.189   2.396  1.00  0.00     0.170 C   
BRANCH   8   9
ATOM     9   O1  UNL     1       0.990  -6.491   2.969  1.00  0.00    -0.386 OA  
ATOM     10  H1  UNL     1       1.414  -6.469   3.845  1.00  0.00     0.211 HD  
ENDBRANCH   8   9
BRANCH   8  11
ATOM     11  C20 UNL     1       0.696  -4.188   3.443  1.00  0.00     0.019 A   
ATOM     12  C21 UNL     1       1.468  -3.183   3.998  1.00  0.00     0.014 A   
ATOM     13  S1  UNL     1      -0.887  -4.189   4.106  1.00  0.00    -0.100 S   
ATOM     14  C22 UNL     1       0.758  -2.422   4.970  1.00  0.00     0.008 A   
ATOM     15  C23 UNL     1      -0.534  -2.866   5.128  1.00  0.00     0.046 A   
ENDBRANCH   8  11
ENDBRANCH   7   8
ENDBRANCH   1   7
BRANCH   3  16
ATOM     16  C5  UNL     1      -0.836  -0.593  -0.746  1.00  0.00     0.117 C   
BRANCH  16  17
ATOM     17  N2  UNL     1       0.088   0.517  -0.319  1.00  0.00     0.249 N   
ATOM     18  H7  UNL     1       1.004   0.370  -0.769  1.00  0.00     0.199 HD  
ATOM     19  H8  UNL     1       0.299   0.365   0.677  1.00  0.00     0.199 HD  
BRANCH  17  20
ATOM     20  C6  UNL     1      -0.367   1.915  -0.490  1.00  0.00     0.164 C   
BRANCH  20  21
ATOM     21  C7  UNL     1       0.540   2.859   0.248  1.00  0.00    -0.002 A   
ATOM     22  C8  UNL     1       0.205   3.300   1.551  1.00  0.00     0.012 A   
ATOM     23  C12 UNL     1       1.755   3.264  -0.329  1.00  0.00     0.045 A   
ATOM     24  C9  UNL     1       1.062   4.142   2.267  1.00  0.00     0.037 A   
ATOM     25  C11 UNL     1       2.578   4.093   0.406  1.00  0.00     0.109 A   
ATOM     26  C10 UNL     1       2.242   4.521   1.666  1.00  0.00     0.108 A   
ATOM     27  O2  UNL     1       3.783   4.570  -0.000  1.00  0.00    -0.316 OA  
ATOM     28  O3  UNL     1       3.191   5.325   2.211  1.00  0.00    -0.316 OA  
ATOM     29  C13 UNL     1       4.168   5.359   1.148  1.00  0.00     0.337 C   
ENDBRANCH  20  21
ENDBRANCH  17  20
ENDBRANCH  16  17
BRANCH  16  30
ATOM     30  C14 UNL     1      -1.151  -0.511  -2.263  1.00  0.00     0.043 C   
ATOM     31  C15 UNL     1       0.086  -0.607  -3.178  1.00  0.00     0.010 C   
ATOM     32  C19 UNL     1      -2.200  -1.563  -2.679  1.00  0.00     0.010 C   
ATOM     33  C16 UNL     1      -0.293  -0.486  -4.654  1.00  0.00     0.001 C   
ATOM     34  C18 UNL     1      -2.577  -1.431  -4.154  1.00  0.00     0.001 C   
ATOM     35  C17 UNL     1      -1.349  -1.512  -5.054  1.00  0.00     0.000 C   
ENDBRANCH  16  30
ENDBRANCH   3  16
TORSDOF 9
