REMARK SMILES O[C@H](Cn1cc([C@@H]([NH2+]Cc2ccc3c(c2)OCO3)C2CCCCC2)nn1)c1cccs1
REMARK SMILES IDX 4 1 5 2 6 3 25 4 26 5 3 7 2 8 1 9 27 11 28 12 31 13 29 14
REMARK SMILES IDX 30 15 7 16 8 17 9 20 10 21 11 22 15 23 12 24 14 25 13 26
REMARK SMILES IDX 16 27 18 28 17 29 19 30 20 31 24 32 21 33 23 34 22 35
REMARK H PARENT 5 6 1 10 8 18 8 19
ROOT
ATOM     1   N1  UNL     1      -2.831   0.507   2.253  1.00  0.00    -0.209 N   
ATOM     2   C3  UNL     1      -2.708   0.151   0.940  1.00  0.00     0.045 A   
ATOM     3   C4  UNL     1      -1.540   0.760   0.540  1.00  0.00     0.127 A   
ATOM     4   N3  UNL     1      -1.019   1.468   1.594  1.00  0.00    -0.132 NA  
ATOM     5   N4  UNL     1      -1.827   1.319   2.629  1.00  0.00    -0.076 NA  
ATOM     6   H5  UNL     1      -3.422  -0.491   0.443  1.00  0.00     0.083 HD  
ENDROOT
BRANCH   1   7
ATOM     7   C2  UNL     1      -3.859   0.122   3.192  1.00  0.00     0.171 C   
BRANCH   7   8
ATOM     8   C1  UNL     1      -3.345  -0.803   4.294  1.00  0.00     0.170 C   
BRANCH   8   9
ATOM     9   O1  UNL     1      -4.424  -1.124   5.173  1.00  0.00    -0.386 OA  
ATOM     10  H1  UNL     1      -4.089  -1.769   5.821  1.00  0.00     0.211 HD  
ENDBRANCH   8   9
BRANCH   8  11
ATOM     11  C20 UNL     1      -2.770  -2.100   3.784  1.00  0.00     0.019 A   
ATOM     12  C21 UNL     1      -1.470  -2.553   3.921  1.00  0.00     0.014 A   
ATOM     13  S1  UNL     1      -3.732  -3.230   2.920  1.00  0.00    -0.100 S   
ATOM     14  C22 UNL     1      -1.270  -3.828   3.321  1.00  0.00     0.008 A   
ATOM     15  C23 UNL     1      -2.422  -4.312   2.742  1.00  0.00     0.046 A   
ENDBRANCH   8  11
ENDBRANCH   7   8
ENDBRANCH   1   7
BRANCH   3  16
ATOM     16  C5  UNL     1      -0.830   0.769  -0.778  1.00  0.00     0.117 C   
BRANCH  16  17
ATOM     17  N2  UNL     1       0.060   1.978  -0.881  1.00  0.00     0.249 N   
ATOM     18  H7  UNL     1       0.794   1.866  -1.585  1.00  0.00     0.199 HD  
ATOM     19  H8  UNL     1       0.542   2.065   0.027  1.00  0.00     0.199 HD  
BRANCH  17  20
ATOM     20  C6  UNL     1      -0.645   3.269  -1.121  1.00  0.00     0.164 C   
BRANCH  20  21
ATOM     21  C7  UNL     1       0.334   4.409  -1.099  1.00  0.00    -0.002 A   
ATOM     22  C8  UNL     1       0.856   4.934  -2.306  1.00  0.00     0.012 A   
ATOM     23  C12 UNL     1       0.778   4.926   0.131  1.00  0.00     0.045 A   
ATOM     24  C9  UNL     1       1.801   5.965  -2.289  1.00  0.00     0.037 A   
ATOM     25  C11 UNL     1       1.713   5.940   0.111  1.00  0.00     0.109 A   
ATOM     26  C10 UNL     1       2.210   6.446  -1.065  1.00  0.00     0.108 A   
ATOM     27  O2  UNL     1       2.251   6.542   1.204  1.00  0.00    -0.316 OA  
ATOM     28  O3  UNL     1       3.119   7.433  -0.860  1.00  0.00    -0.316 OA  
ATOM     29  C13 UNL     1       3.125   7.511   0.581  1.00  0.00     0.337 C   
ENDBRANCH  20  21
ENDBRANCH  17  20
ENDBRANCH  16  17
BRANCH  16  30
ATOM     30  C14 UNL     1      -0.010  -0.530  -1.006  1.00  0.00     0.043 C   
ATOM     31  C15 UNL     1       1.199  -0.680  -0.060  1.00  0.00     0.010 C   
ATOM     32  C19 UNL     1       0.440  -0.670  -2.473  1.00  0.00     0.010 C   
ATOM     33  C16 UNL     1       1.944  -1.992  -0.305  1.00  0.00     0.001 C   
ATOM     34  C18 UNL     1       1.188  -1.981  -2.711  1.00  0.00     0.001 C   
ATOM     35  C17 UNL     1       2.372  -2.133  -1.762  1.00  0.00     0.000 C   
ENDBRANCH  16  30
ENDBRANCH   3  16
TORSDOF 9
