REMARK SMILES Cc1ccc([C@@H](O)Cn2cc([C@@H]([NH2+]Cc3ccc4c(c3)OCO4)C(C)(C)C)nn2)s1
REMARK SMILES IDX 9 1 10 2 11 3 28 4 29 5 8 7 6 8 5 9 2 10 3 11 30 12 4 13
REMARK SMILES IDX 1 14 7 15 12 17 13 18 14 21 15 22 16 23 20 24 17 25 19 26
REMARK SMILES IDX 18 27 21 28 23 29 22 30 24 31 25 32 26 33 27 34
REMARK H PARENT 10 6 7 16 13 19 13 20
ROOT
ATOM     1   N1  UNL     1      -1.653   1.586  -2.572  1.00  0.00    -0.209 N   
ATOM     2   C8  UNL     1      -2.387   1.523  -1.420  1.00  0.00     0.046 A   
ATOM     3   C9  UNL     1      -1.449   1.668  -0.423  1.00  0.00     0.127 A   
ATOM     4   N3  UNL     1      -0.212   1.845  -0.990  1.00  0.00    -0.132 NA  
ATOM     5   N4  UNL     1      -0.353   1.808  -2.304  1.00  0.00    -0.076 NA  
ATOM     6   H10 UNL     1      -3.451   1.330  -1.426  1.00  0.00     0.083 HD  
ENDROOT
BRANCH   1   7
ATOM     7   C7  UNL     1      -2.102   1.418  -3.938  1.00  0.00     0.171 C   
BRANCH   7   8
ATOM     8   C6  UNL     1      -2.442  -0.031  -4.302  1.00  0.00     0.170 C   
BRANCH   8   9
ATOM     9   C5  UNL     1      -1.336  -1.017  -4.009  1.00  0.00     0.020 A   
ATOM     10  C2  UNL     1       0.112  -2.795  -3.064  1.00  0.00    -0.014 A   
ATOM     11  C3  UNL     1       0.676  -2.195  -4.169  1.00  0.00     0.011 A   
ATOM     12  S1  UNL     1      -1.409  -2.115  -2.690  1.00  0.00    -0.097 S   
ATOM     13  C4  UNL     1      -0.158  -1.177  -4.715  1.00  0.00     0.014 A   
ATOM     14  C1  UNL     1       0.663  -3.913  -2.246  1.00  0.00     0.052 C   
ENDBRANCH   8   9
BRANCH   8  15
ATOM     15  O1  UNL     1      -3.641  -0.436  -3.635  1.00  0.00    -0.386 OA  
ATOM     16  H7  UNL     1      -3.796  -1.365  -3.889  1.00  0.00     0.211 HD  
ENDBRANCH   8  15
ENDBRANCH   7   8
ENDBRANCH   1   7
BRANCH   3  17
ATOM     17  C10 UNL     1      -1.552   1.525   1.064  1.00  0.00     0.120 C   
BRANCH  17  18
ATOM     18  N2  UNL     1      -0.360   0.716   1.526  1.00  0.00     0.250 N   
ATOM     19  H12 UNL     1       0.449   1.085   1.002  1.00  0.00     0.199 HD  
ATOM     20  H13 UNL     1      -0.140   0.847   2.516  1.00  0.00     0.199 HD  
BRANCH  18  21
ATOM     21  C11 UNL     1      -0.444  -0.741   1.228  1.00  0.00     0.164 C   
BRANCH  21  22
ATOM     22  C12 UNL     1       0.900  -1.396   1.375  1.00  0.00    -0.002 A   
ATOM     23  C13 UNL     1       1.267  -2.028   2.585  1.00  0.00     0.012 A   
ATOM     24  C17 UNL     1       1.817  -1.346   0.310  1.00  0.00     0.045 A   
ATOM     25  C14 UNL     1       2.528  -2.617   2.731  1.00  0.00     0.037 A   
ATOM     26  C16 UNL     1       3.049  -1.939   0.486  1.00  0.00     0.109 A   
ATOM     27  C15 UNL     1       3.395  -2.557   1.662  1.00  0.00     0.108 A   
ATOM     28  O2  UNL     1       4.042  -1.992  -0.440  1.00  0.00    -0.316 OA  
ATOM     29  O3  UNL     1       4.651  -3.074   1.626  1.00  0.00    -0.316 OA  
ATOM     30  C18 UNL     1       5.058  -2.718   0.287  1.00  0.00     0.337 C   
ENDBRANCH  21  22
ENDBRANCH  18  21
ENDBRANCH  17  18
BRANCH  17  31
ATOM     31  C19 UNL     1      -1.636   2.881   1.843  1.00  0.00     0.010 C   
ATOM     32  C20 UNL     1      -1.887   2.618   3.346  1.00  0.00     0.017 C   
ATOM     33  C21 UNL     1      -0.357   3.732   1.708  1.00  0.00     0.017 C   
ATOM     34  C22 UNL     1      -2.831   3.715   1.325  1.00  0.00     0.017 C   
ENDBRANCH  17  31
ENDBRANCH   3  17
TORSDOF 9
