REMARK SMILES Cc1ccc([C@H](O)Cn2cc([C@@H]([NH2+]Cc3ccc4c(c3)OCO4)C(C)(C)C)nn2)s1
REMARK SMILES IDX 9 1 10 2 11 3 28 4 29 5 8 7 6 8 5 9 2 10 3 11 30 12 4 13
REMARK SMILES IDX 1 14 7 15 12 17 13 18 14 21 15 22 16 23 20 24 17 25 19 26
REMARK SMILES IDX 18 27 21 28 23 29 22 30 24 31 25 32 26 33 27 34
REMARK H PARENT 10 6 7 16 13 19 13 20
ROOT
ATOM     1   N1  UNL     1       1.661  -1.589  -0.083  1.00  0.00    -0.209 N   
ATOM     2   C8  UNL     1       0.900  -1.421   1.039  1.00  0.00     0.046 A   
ATOM     3   C9  UNL     1      -0.262  -0.850   0.573  1.00  0.00     0.127 A   
ATOM     4   N3  UNL     1      -0.169  -0.691  -0.787  1.00  0.00    -0.132 NA  
ATOM     5   N4  UNL     1       1.007  -1.155  -1.177  1.00  0.00    -0.076 NA  
ATOM     6   H10 UNL     1       1.249  -1.707   2.022  1.00  0.00     0.083 HD  
ENDROOT
BRANCH   1   7
ATOM     7   C7  UNL     1       2.994  -2.147  -0.185  1.00  0.00     0.171 C   
BRANCH   7   8
ATOM     8   C6  UNL     1       4.026  -1.088  -0.572  1.00  0.00     0.170 C   
BRANCH   8   9
ATOM     9   C5  UNL     1       5.388  -1.702  -0.738  1.00  0.00     0.020 A   
ATOM     10  C2  UNL     1       7.421  -2.728  -1.699  1.00  0.00    -0.014 A   
ATOM     11  C3  UNL     1       7.502  -2.596  -0.330  1.00  0.00     0.011 A   
ATOM     12  S1  UNL     1       5.932  -2.145  -2.302  1.00  0.00    -0.097 S   
ATOM     13  C4  UNL     1       6.332  -2.004   0.225  1.00  0.00     0.014 A   
ATOM     14  C1  UNL     1       8.435  -3.296  -2.634  1.00  0.00     0.052 C   
ENDBRANCH   8   9
BRANCH   8  15
ATOM     15  O1  UNL     1       4.130  -0.112   0.474  1.00  0.00    -0.386 OA  
ATOM     16  H7  UNL     1       4.862   0.482   0.219  1.00  0.00     0.211 HD  
ENDBRANCH   8  15
ENDBRANCH   7   8
ENDBRANCH   1   7
BRANCH   3  17
ATOM     17  C10 UNL     1      -1.473  -0.344   1.298  1.00  0.00     0.120 C   
BRANCH  17  18
ATOM     18  N2  UNL     1      -1.946   0.923   0.625  1.00  0.00     0.250 N   
ATOM     19  H12 UNL     1      -2.898   1.177   0.899  1.00  0.00     0.199 HD  
ATOM     20  H13 UNL     1      -1.975   0.729  -0.386  1.00  0.00     0.199 HD  
BRANCH  18  21
ATOM     21  C11 UNL     1      -1.065   2.108   0.820  1.00  0.00     0.164 C   
BRANCH  21  22
ATOM     22  C12 UNL     1      -1.611   3.301   0.088  1.00  0.00    -0.002 A   
ATOM     23  C13 UNL     1      -1.363   3.459  -1.298  1.00  0.00     0.012 A   
ATOM     24  C17 UNL     1      -2.400   4.247   0.763  1.00  0.00     0.045 A   
ATOM     25  C14 UNL     1      -1.882   4.553  -2.000  1.00  0.00     0.037 A   
ATOM     26  C16 UNL     1      -2.891   5.315   0.041  1.00  0.00     0.109 A   
ATOM     27  C15 UNL     1      -2.639   5.465  -1.300  1.00  0.00     0.108 A   
ATOM     28  O2  UNL     1      -3.652   6.323   0.543  1.00  0.00    -0.316 OA  
ATOM     29  O3  UNL     1      -3.211   6.586  -1.812  1.00  0.00    -0.316 OA  
ATOM     30  C18 UNL     1      -3.812   7.154  -0.629  1.00  0.00     0.337 C   
ENDBRANCH  21  22
ENDBRANCH  18  21
ENDBRANCH  17  18
BRANCH  17  31
ATOM     31  C19 UNL     1      -2.643  -1.382   1.397  1.00  0.00     0.010 C   
ATOM     32  C20 UNL     1      -3.779  -0.828   2.290  1.00  0.00     0.017 C   
ATOM     33  C21 UNL     1      -3.241  -1.741   0.023  1.00  0.00     0.017 C   
ATOM     34  C22 UNL     1      -2.147  -2.684   2.065  1.00  0.00     0.017 C   
ENDBRANCH  17  31
ENDBRANCH   3  17
TORSDOF 9
