REMARK SMILES CC(C)(C)[C@H]([NH2+]Cc1ccc2c(c1)OCO2)c1cn(Cc2ncccc2F)nn1
REMARK SMILES IDX 17 1 18 2 19 3 28 4 29 5 5 7 2 8 1 9 3 10 4 11 6 12 7 15
REMARK SMILES IDX 8 16 9 17 13 18 10 19 12 20 11 21 14 22 16 23 15 24 20 25
REMARK SMILES IDX 21 26 22 27 26 28 23 29 25 30 24 31 27 32
REMARK H PARENT 18 6 6 13 6 14
ROOT
ATOM     1   C14 UNL     1      -1.718   0.407  -0.258  1.00  0.00     0.127 A   
ATOM     2   C15 UNL     1      -2.607   1.445  -0.422  1.00  0.00     0.046 A   
ATOM     3   N2  UNL     1      -3.198   1.576   0.806  1.00  0.00    -0.206 N   
ATOM     4   N4  UNL     1      -2.692   0.681   1.677  1.00  0.00    -0.076 NA  
ATOM     5   N5  UNL     1      -1.788  -0.041   1.038  1.00  0.00    -0.132 NA  
ATOM     6   H20 UNL     1      -2.861   2.091  -1.252  1.00  0.00     0.083 HD  
ENDROOT
BRANCH   1   7
ATOM     7   C5  UNL     1      -0.708  -0.194  -1.189  1.00  0.00     0.120 C   
BRANCH   7   8
ATOM     8   C2  UNL     1      -1.240  -1.418  -2.013  1.00  0.00     0.010 C   
ATOM     9   C1  UNL     1      -1.601  -2.623  -1.123  1.00  0.00     0.017 C   
ATOM     10  C3  UNL     1      -0.178  -1.875  -3.042  1.00  0.00     0.017 C   
ATOM     11  C4  UNL     1      -2.497  -1.015  -2.818  1.00  0.00     0.017 C   
ENDBRANCH   7   8
BRANCH   7  12
ATOM     12  N1  UNL     1       0.507  -0.592  -0.382  1.00  0.00     0.250 N   
ATOM     13  H11 UNL     1       0.153  -1.067   0.462  1.00  0.00     0.199 HD  
ATOM     14  H12 UNL     1       1.098  -1.271  -0.866  1.00  0.00     0.199 HD  
BRANCH  12  15
ATOM     15  C6  UNL     1       1.359   0.538   0.083  1.00  0.00     0.164 C   
BRANCH  15  16
ATOM     16  C7  UNL     1       2.467   0.030   0.961  1.00  0.00    -0.002 A   
ATOM     17  C8  UNL     1       2.242  -0.157   2.347  1.00  0.00     0.012 A   
ATOM     18  C12 UNL     1       3.710  -0.318   0.407  1.00  0.00     0.045 A   
ATOM     19  C9  UNL     1       3.246  -0.672   3.174  1.00  0.00     0.037 A   
ATOM     20  C11 UNL     1       4.677  -0.824   1.250  1.00  0.00     0.109 A   
ATOM     21  C10 UNL     1       4.453  -0.995   2.594  1.00  0.00     0.108 A   
ATOM     22  O1  UNL     1       5.926  -1.208   0.878  1.00  0.00    -0.316 OA  
ATOM     23  O2  UNL     1       5.534  -1.507   3.238  1.00  0.00    -0.316 OA  
ATOM     24  C13 UNL     1       6.476  -1.621   2.151  1.00  0.00     0.337 C   
ENDBRANCH  15  16
ENDBRANCH  12  15
ENDBRANCH   7  12
ENDBRANCH   1   7
BRANCH   3  25
ATOM     25  C16 UNL     1      -4.241   2.500   1.205  1.00  0.00     0.193 C   
BRANCH  25  26
ATOM     26  C17 UNL     1      -3.652   3.844   1.522  1.00  0.00     0.095 A   
ATOM     27  N3  UNL     1      -3.378   4.673   0.474  1.00  0.00    -0.256 NA  
ATOM     28  C21 UNL     1      -3.389   4.201   2.840  1.00  0.00     0.146 A   
ATOM     29  C18 UNL     1      -2.862   5.890   0.770  1.00  0.00     0.111 A   
ATOM     30  C20 UNL     1      -2.848   5.449   3.114  1.00  0.00     0.043 A   
ATOM     31  C19 UNL     1      -2.581   6.316   2.060  1.00  0.00     0.023 A   
ATOM     32  F1  UNL     1      -3.655   3.357   3.845  1.00  0.00    -0.205 F   
ENDBRANCH  25  26
ENDBRANCH   3  25
TORSDOF 7
