REMARK SMILES CC(C)(C)[C@H]([NH2+]Cc1ccc2c(c1)OCO2)c1cn(Cc2cnn3cc[nH]c23)nn1
REMARK SMILES IDX 17 1 18 2 19 3 29 4 30 5 5 7 2 8 1 9 3 10 4 11 6 12 7 15
REMARK SMILES IDX 8 16 9 17 13 18 10 19 12 20 11 21 14 22 16 23 15 24 20 25
REMARK SMILES IDX 21 26 22 27 28 28 23 29 24 30 27 31 25 32 26 33
REMARK H PARENT 18 6 6 13 6 14 27 34
ROOT
ATOM     1   C14 UNL     1      -0.078   1.752   1.050  1.00  0.00     0.127 A   
ATOM     2   C15 UNL     1       0.053   0.614   1.814  1.00  0.00     0.046 A   
ATOM     3   N2  UNL     1      -1.228   0.327   2.199  1.00  0.00    -0.208 N   
ATOM     4   N6  UNL     1      -2.093   1.236   1.709  1.00  0.00    -0.076 NA  
ATOM     5   N7  UNL     1      -1.402   2.108   0.993  1.00  0.00    -0.132 NA  
ATOM     6   H20 UNL     1       0.892  -0.012   2.085  1.00  0.00     0.083 HD  
ENDROOT
BRANCH   1   7
ATOM     7   C5  UNL     1       0.923   2.538   0.262  1.00  0.00     0.120 C   
BRANCH   7   8
ATOM     8   C2  UNL     1       1.500   3.789   1.010  1.00  0.00     0.010 C   
ATOM     9   C1  UNL     1       0.423   4.838   1.349  1.00  0.00     0.017 C   
ATOM     10  C3  UNL     1       2.592   4.466   0.149  1.00  0.00     0.017 C   
ATOM     11  C4  UNL     1       2.176   3.349   2.329  1.00  0.00     0.017 C   
ENDBRANCH   7   8
BRANCH   7  12
ATOM     12  N1  UNL     1       0.278   2.947  -1.049  1.00  0.00     0.250 N   
ATOM     13  H11 UNL     1      -0.741   2.832  -0.911  1.00  0.00     0.199 HD  
ATOM     14  H12 UNL     1       0.403   3.944  -1.236  1.00  0.00     0.199 HD  
BRANCH  12  15
ATOM     15  C6  UNL     1       0.677   2.167  -2.251  1.00  0.00     0.164 C   
BRANCH  15  16
ATOM     16  C7  UNL     1       0.214   0.738  -2.231  1.00  0.00    -0.002 A   
ATOM     17  C8  UNL     1       1.123  -0.311  -1.953  1.00  0.00     0.012 A   
ATOM     18  C12 UNL     1      -1.135   0.432  -2.483  1.00  0.00     0.045 A   
ATOM     19  C9  UNL     1       0.700  -1.645  -1.934  1.00  0.00     0.037 A   
ATOM     20  C11 UNL     1      -1.516  -0.893  -2.469  1.00  0.00     0.109 A   
ATOM     21  C10 UNL     1      -0.625  -1.903  -2.205  1.00  0.00     0.108 A   
ATOM     22  O1  UNL     1      -2.768  -1.356  -2.723  1.00  0.00    -0.316 OA  
ATOM     23  O2  UNL     1      -1.201  -3.132  -2.265  1.00  0.00    -0.316 OA  
ATOM     24  C13 UNL     1      -2.558  -2.783  -2.619  1.00  0.00     0.337 C   
ENDBRANCH  15  16
ENDBRANCH  12  15
ENDBRANCH   7  12
ENDBRANCH   1   7
BRANCH   3  25
ATOM     25  C16 UNL     1      -1.695  -0.782   3.014  1.00  0.00     0.174 C   
BRANCH  25  26
ATOM     26  C17 UNL     1      -1.833  -1.997   2.183  1.00  0.00     0.030 A   
ATOM     27  C18 UNL     1      -2.966  -2.421   1.426  1.00  0.00     0.140 A   
ATOM     28  C21 UNL     1      -0.924  -2.979   1.917  1.00  0.00     0.120 A   
ATOM     29  N3  UNL     1      -2.775  -3.571   0.761  1.00  0.00    -0.184 NA  
ATOM     30  N4  UNL     1      -1.515  -3.901   1.076  1.00  0.00    -0.185 N   
ATOM     31  N5  UNL     1       0.337  -3.408   2.181  1.00  0.00    -0.306 N   
ATOM     32  C19 UNL     1      -0.623  -4.934   0.843  1.00  0.00     0.118 A   
ATOM     33  C20 UNL     1       0.494  -4.640   1.541  1.00  0.00     0.091 A   
ATOM     34  H26 UNL     1       0.879  -3.221   3.019  1.00  0.00     0.154 HD  
ENDBRANCH  25  26
ENDBRANCH   3  25
TORSDOF 7
