REMARK SMILES Cc1cc([C@@H](CO)n2cc([C@@H]([NH2+]Cc3ccc4c(c3)OCO4)C3CCCCC3)nn2)ccn1
REMARK SMILES IDX 8 1 9 2 10 3 29 4 30 5 5 7 4 8 2 9 3 10 33 11 32 12 31 13
REMARK SMILES IDX 1 14 6 15 7 16 11 18 12 19 13 22 14 23 15 24 19 25 16 26
REMARK SMILES IDX 18 27 17 28 20 29 22 30 21 31 23 32 24 33 28 34 25 35 27 36
REMARK SMILES IDX 26 37
REMARK H PARENT 9 6 7 17 12 20 12 21
ROOT
ATOM     1   N1  UNL     1      -1.248  -0.477   2.574  1.00  0.00    -0.202 N   
ATOM     2   C7  UNL     1      -0.440  -0.147   1.518  1.00  0.00     0.046 A   
ATOM     3   C8  UNL     1      -1.314   0.138   0.495  1.00  0.00     0.127 A   
ATOM     4   N3  UNL     1      -2.600  -0.040   0.943  1.00  0.00    -0.132 NA  
ATOM     5   N4  UNL     1      -2.546  -0.437   2.204  1.00  0.00    -0.075 NA  
ATOM     6   H9  UNL     1       0.638  -0.135   1.601  1.00  0.00     0.083 HD  
ENDROOT
BRANCH   1   7
ATOM     7   C5  UNL     1      -0.884  -0.863   3.938  1.00  0.00     0.155 C   
BRANCH   7   8
ATOM     8   C4  UNL     1       0.234  -1.899   3.936  1.00  0.00    -0.020 A   
ATOM     9   C2  UNL     1       0.936  -4.198   3.649  1.00  0.00     0.038 A   
ATOM     10  C3  UNL     1      -0.078  -3.243   3.662  1.00  0.00     0.029 A   
ATOM     11  N5  UNL     1       2.229  -3.883   3.877  1.00  0.00    -0.262 NA  
ATOM     12  C25 UNL     1       2.522  -2.593   4.143  1.00  0.00     0.111 A   
ATOM     13  C24 UNL     1       1.575  -1.582   4.180  1.00  0.00     0.026 A   
ATOM     14  C1  UNL     1       0.618  -5.640   3.384  1.00  0.00     0.067 C   
ENDBRANCH   7   8
BRANCH   7  15
ATOM     15  C6  UNL     1      -0.687   0.380   4.832  1.00  0.00     0.185 C   
BRANCH  15  16
ATOM     16  O1  UNL     1       0.303   1.279   4.328  1.00  0.00    -0.394 OA  
ATOM     17  H8  UNL     1       0.404   1.990   4.989  1.00  0.00     0.210 HD  
ENDBRANCH  15  16
ENDBRANCH   7  15
ENDBRANCH   1   7
BRANCH   3  18
ATOM     18  C9  UNL     1      -1.076   0.518  -0.932  1.00  0.00     0.117 C   
BRANCH  18  19
ATOM     19  N2  UNL     1      -2.275   0.113  -1.770  1.00  0.00     0.249 N   
ATOM     20  H11 UNL     1      -2.310   0.654  -2.639  1.00  0.00     0.199 HD  
ATOM     21  H12 UNL     1      -3.103   0.371  -1.213  1.00  0.00     0.199 HD  
BRANCH  19  22
ATOM     22  C10 UNL     1      -2.393  -1.341  -2.084  1.00  0.00     0.164 C   
BRANCH  22  23
ATOM     23  C11 UNL     1      -1.475  -1.756  -3.199  1.00  0.00    -0.002 A   
ATOM     24  C12 UNL     1      -1.785  -1.422  -4.540  1.00  0.00     0.012 A   
ATOM     25  C16 UNL     1      -0.286  -2.451  -2.917  1.00  0.00     0.045 A   
ATOM     26  C13 UNL     1      -0.923  -1.767  -5.585  1.00  0.00     0.037 A   
ATOM     27  C15 UNL     1       0.544  -2.772  -3.971  1.00  0.00     0.109 A   
ATOM     28  C14 UNL     1       0.236  -2.439  -5.267  1.00  0.00     0.108 A   
ATOM     29  O2  UNL     1       1.729  -3.430  -3.870  1.00  0.00    -0.316 OA  
ATOM     30  O3  UNL     1       1.186  -2.847  -6.146  1.00  0.00    -0.316 OA  
ATOM     31  C17 UNL     1       2.129  -3.489  -5.258  1.00  0.00     0.337 C   
ENDBRANCH  22  23
ENDBRANCH  19  22
ENDBRANCH  18  19
BRANCH  18  32
ATOM     32  C18 UNL     1      -0.807   2.030  -1.168  1.00  0.00     0.043 C   
ATOM     33  C19 UNL     1      -1.974   2.952  -0.769  1.00  0.00     0.010 C   
ATOM     34  C23 UNL     1       0.497   2.498  -0.492  1.00  0.00     0.010 C   
ATOM     35  C20 UNL     1      -1.664   4.416  -1.082  1.00  0.00     0.001 C   
ATOM     36  C22 UNL     1       0.801   3.964  -0.806  1.00  0.00     0.001 C   
ATOM     37  C21 UNL     1      -0.365   4.872  -0.428  1.00  0.00     0.000 C   
ENDBRANCH  18  32
ENDBRANCH   3  18
TORSDOF 9
