REMARK SMILES Cc1cc([C@H](CO)n2cc([C@@H]([NH2+]Cc3ccc4c(c3)OCO4)C3CCCCC3)nn2)ccn1
REMARK SMILES IDX 8 1 9 2 10 3 29 4 30 5 5 7 4 8 2 9 3 10 33 11 32 12 31 13
REMARK SMILES IDX 1 14 6 15 7 16 11 18 12 19 13 22 14 23 15 24 19 25 16 26
REMARK SMILES IDX 18 27 17 28 20 29 22 30 21 31 23 32 24 33 28 34 25 35 27 36
REMARK SMILES IDX 26 37
REMARK H PARENT 9 6 7 17 12 20 12 21
ROOT
ATOM     1   N1  UNL     1      -1.452   1.799  -1.671  1.00  0.00    -0.202 N   
ATOM     2   C7  UNL     1      -0.309   1.039  -1.648  1.00  0.00     0.046 A   
ATOM     3   C8  UNL     1      -0.454   0.244  -0.534  1.00  0.00     0.127 A   
ATOM     4   N3  UNL     1      -1.626   0.566   0.099  1.00  0.00    -0.132 NA  
ATOM     5   N4  UNL     1      -2.235   1.499  -0.613  1.00  0.00    -0.075 NA  
ATOM     6   H9  UNL     1       0.438   1.107  -2.428  1.00  0.00     0.083 HD  
ENDROOT
BRANCH   1   7
ATOM     7   C5  UNL     1      -1.845   2.780  -2.693  1.00  0.00     0.155 C   
BRANCH   7   8
ATOM     8   C4  UNL     1      -2.731   3.881  -2.126  1.00  0.00    -0.020 A   
ATOM     9   C2  UNL     1      -2.994   6.110  -1.231  1.00  0.00     0.038 A   
ATOM     10  C3  UNL     1      -2.171   5.113  -1.754  1.00  0.00     0.029 A   
ATOM     11  N5  UNL     1      -4.324   5.939  -1.056  1.00  0.00    -0.262 NA  
ATOM     12  C25 UNL     1      -4.851   4.748  -1.408  1.00  0.00     0.111 A   
ATOM     13  C24 UNL     1      -4.110   3.706  -1.940  1.00  0.00     0.026 A   
ATOM     14  C1  UNL     1      -2.415   7.428  -0.808  1.00  0.00     0.067 C   
ENDBRANCH   7   8
BRANCH   7  15
ATOM     15  C6  UNL     1      -2.460   2.067  -3.912  1.00  0.00     0.185 C   
BRANCH  15  16
ATOM     16  O1  UNL     1      -1.448   1.357  -4.635  1.00  0.00    -0.394 OA  
ATOM     17  H8  UNL     1      -1.869   1.006  -5.442  1.00  0.00     0.210 HD  
ENDBRANCH  15  16
ENDBRANCH   7  15
ENDBRANCH   1   7
BRANCH   3  18
ATOM     18  C9  UNL     1       0.415  -0.829   0.040  1.00  0.00     0.117 C   
BRANCH  18  19
ATOM     19  N2  UNL     1       0.234  -0.891   1.538  1.00  0.00     0.249 N   
ATOM     20  H11 UNL     1      -0.781  -0.808   1.703  1.00  0.00     0.199 HD  
ATOM     21  H12 UNL     1       0.526  -1.797   1.912  1.00  0.00     0.199 HD  
BRANCH  19  22
ATOM     22  C10 UNL     1       0.899   0.195   2.319  1.00  0.00     0.164 C   
BRANCH  22  23
ATOM     23  C11 UNL     1       2.387  -0.004   2.425  1.00  0.00    -0.002 A   
ATOM     24  C12 UNL     1       2.919  -0.956   3.329  1.00  0.00     0.012 A   
ATOM     25  C16 UNL     1       3.260   0.735   1.608  1.00  0.00     0.045 A   
ATOM     26  C13 UNL     1       4.299  -1.169   3.421  1.00  0.00     0.037 A   
ATOM     27  C15 UNL     1       4.614   0.498   1.721  1.00  0.00     0.109 A   
ATOM     28  C14 UNL     1       5.120  -0.427   2.601  1.00  0.00     0.108 A   
ATOM     29  O2  UNL     1       5.587   1.118   1.002  1.00  0.00    -0.316 OA  
ATOM     30  O3  UNL     1       6.475  -0.500   2.553  1.00  0.00    -0.316 OA  
ATOM     31  C17 UNL     1       6.773   0.517   1.571  1.00  0.00     0.337 C   
ENDBRANCH  22  23
ENDBRANCH  19  22
ENDBRANCH  18  19
BRANCH  18  32
ATOM     32  C18 UNL     1       0.123  -2.215  -0.603  1.00  0.00     0.043 C   
ATOM     33  C19 UNL     1      -1.287  -2.761  -0.298  1.00  0.00     0.010 C   
ATOM     34  C23 UNL     1       1.193  -3.258  -0.228  1.00  0.00     0.010 C   
ATOM     35  C20 UNL     1      -1.533  -4.115  -0.967  1.00  0.00     0.001 C   
ATOM     36  C22 UNL     1       0.939  -4.599  -0.915  1.00  0.00     0.001 C   
ATOM     37  C21 UNL     1      -0.457  -5.129  -0.598  1.00  0.00     0.000 C   
ENDBRANCH  18  32
ENDBRANCH   3  18
TORSDOF 9
