REMARK SMILES COc1cc(F)ccc1CCn1cc([C@@H]([NH2+]Cc2ccc3c(c2)OCO3)C2CCCC2)nn1
REMARK SMILES IDX 12 1 13 2 14 3 32 4 33 5 11 7 10 8 9 9 3 10 4 11 5 12 8 13
REMARK SMILES IDX 7 14 6 15 2 16 1 17 15 18 16 19 17 22 18 23 19 24 23 25
REMARK SMILES IDX 20 26 22 27 21 28 24 29 26 30 25 31 27 32 28 33 31 34 29 35
REMARK SMILES IDX 30 36
REMARK H PARENT 13 6 16 20 16 21
ROOT
ATOM     1   N1  UNL     1       1.774  -1.721  -0.544  1.00  0.00    -0.212 N   
ATOM     2   C10 UNL     1       0.575  -1.325  -0.026  1.00  0.00     0.045 A   
ATOM     3   C11 UNL     1      -0.227  -1.168  -1.135  1.00  0.00     0.127 A   
ATOM     4   N3  UNL     1       0.488  -1.492  -2.259  1.00  0.00    -0.132 NA  
ATOM     5   N4  UNL     1       1.712  -1.827  -1.884  1.00  0.00    -0.076 NA  
ATOM     6   H11 UNL     1       0.424  -1.167   1.034  1.00  0.00     0.083 HD  
ENDROOT
BRANCH   1   7
ATOM     7   C9  UNL     1       3.002  -2.022   0.161  1.00  0.00     0.139 C   
BRANCH   7   8
ATOM     8   C8  UNL     1       3.974  -0.843   0.200  1.00  0.00     0.059 C   
BRANCH   8   9
ATOM     9   C7  UNL     1       3.567   0.234   1.184  1.00  0.00    -0.016 A   
ATOM     10  C2  UNL     1       2.881   1.392   0.783  1.00  0.00     0.081 A   
ATOM     11  C3  UNL     1       2.491   2.353   1.718  1.00  0.00     0.073 A   
ATOM     12  C4  UNL     1       2.812   2.169   3.056  1.00  0.00     0.125 A   
ATOM     13  C6  UNL     1       3.879   0.073   2.545  1.00  0.00     0.009 A   
ATOM     14  C5  UNL     1       3.505   1.042   3.478  1.00  0.00     0.040 A   
ATOM     15  F1  UNL     1       2.440   3.091   3.954  1.00  0.00    -0.207 F   
BRANCH  10  16
ATOM     16  O1  UNL     1       2.516   1.537  -0.532  1.00  0.00    -0.349 OA  
ATOM     17  C1  UNL     1       3.269   2.588  -1.147  1.00  0.00     0.203 C   
ENDBRANCH  10  16
ENDBRANCH   8   9
ENDBRANCH   7   8
ENDBRANCH   1   7
BRANCH   3  18
ATOM     18  C12 UNL     1      -1.623  -0.662  -1.274  1.00  0.00     0.117 C   
BRANCH  18  19
ATOM     19  N2  UNL     1      -1.712   0.252  -2.480  1.00  0.00     0.249 N   
ATOM     20  H13 UNL     1      -1.329  -0.285  -3.270  1.00  0.00     0.199 HD  
ATOM     21  H14 UNL     1      -2.687   0.472  -2.697  1.00  0.00     0.199 HD  
BRANCH  19  22
ATOM     22  C13 UNL     1      -0.938   1.527  -2.399  1.00  0.00     0.164 C   
BRANCH  22  23
ATOM     23  C14 UNL     1      -1.529   2.505  -1.421  1.00  0.00    -0.002 A   
ATOM     24  C15 UNL     1      -2.644   3.299  -1.781  1.00  0.00     0.012 A   
ATOM     25  C19 UNL     1      -0.995   2.612  -0.126  1.00  0.00     0.045 A   
ATOM     26  C16 UNL     1      -3.212   4.194  -0.867  1.00  0.00     0.037 A   
ATOM     27  C18 UNL     1      -1.579   3.500   0.751  1.00  0.00     0.109 A   
ATOM     28  C17 UNL     1      -2.655   4.271   0.390  1.00  0.00     0.108 A   
ATOM     29  O2  UNL     1      -1.186   3.722   2.032  1.00  0.00    -0.316 OA  
ATOM     30  O3  UNL     1      -3.071   5.082   1.397  1.00  0.00    -0.316 OA  
ATOM     31  C20 UNL     1      -2.119   4.751   2.431  1.00  0.00     0.337 C   
ENDBRANCH  22  23
ENDBRANCH  19  22
ENDBRANCH  18  19
BRANCH  18  32
ATOM     32  C21 UNL     1      -2.638  -1.806  -1.462  1.00  0.00     0.043 C   
ATOM     33  C22 UNL     1      -4.096  -1.338  -1.577  1.00  0.00     0.010 C   
ATOM     34  C25 UNL     1      -2.697  -2.771  -0.273  1.00  0.00     0.010 C   
ATOM     35  C23 UNL     1      -4.954  -2.504  -1.085  1.00  0.00     0.001 C   
ATOM     36  C24 UNL     1      -3.990  -3.535  -0.511  1.00  0.00     0.001 C   
ENDBRANCH  18  32
ENDBRANCH   3  18
TORSDOF 9
