REMARK SMILES Cc1cccc(F)c1Cn1cc([C@@H]([NH2+]Cc2ccc3c(c2)OCO3)C2CCCC2)nn1
REMARK SMILES IDX 10 1 11 2 12 3 30 4 31 5 9 7 8 8 2 9 3 10 4 11 6 12 5 13
REMARK SMILES IDX 1 14 7 15 13 16 14 17 15 20 16 21 17 22 21 23 18 24 20 25
REMARK SMILES IDX 19 26 22 27 24 28 23 29 25 30 26 31 29 32 27 33 28 34
REMARK H PARENT 11 6 14 18 14 19
ROOT
ATOM     1   N1  UNL     1       1.222   1.497  -0.643  1.00  0.00    -0.208 N   
ATOM     2   C9  UNL     1       0.186   1.294   0.226  1.00  0.00     0.046 A   
ATOM     3   C10 UNL     1       0.801   1.144   1.448  1.00  0.00     0.127 A   
ATOM     4   N3  UNL     1       2.153   1.310   1.297  1.00  0.00    -0.132 NA  
ATOM     5   N4  UNL     1       2.399   1.522   0.014  1.00  0.00    -0.076 NA  
ATOM     6   H9  UNL     1      -0.842   1.228  -0.102  1.00  0.00     0.083 HD  
ENDROOT
BRANCH   1   7
ATOM     7   C8  UNL     1       1.168   1.623  -2.091  1.00  0.00     0.172 C   
BRANCH   7   8
ATOM     8   C7  UNL     1       1.139   0.263  -2.745  1.00  0.00     0.010 A   
ATOM     9   C2  UNL     1       2.294  -0.384  -3.233  1.00  0.00    -0.043 A   
ATOM     10  C3  UNL     1       2.172  -1.667  -3.797  1.00  0.00     0.004 A   
ATOM     11  C4  UNL     1       0.934  -2.307  -3.877  1.00  0.00     0.003 A   
ATOM     12  C6  UNL     1      -0.093  -0.403  -2.840  1.00  0.00     0.128 A   
ATOM     13  C5  UNL     1      -0.204  -1.672  -3.395  1.00  0.00     0.039 A   
ATOM     14  C1  UNL     1       3.655   0.256  -3.178  1.00  0.00     0.045 C   
ATOM     15  F1  UNL     1      -1.201   0.189  -2.369  1.00  0.00    -0.207 F   
ENDBRANCH   7   8
ENDBRANCH   1   7
BRANCH   3  16
ATOM     16  C11 UNL     1       0.240   0.767   2.778  1.00  0.00     0.117 C   
BRANCH  16  17
ATOM     17  N2  UNL     1       1.128  -0.260   3.455  1.00  0.00     0.249 N   
ATOM     18  H11 UNL     1       0.766  -0.477   4.386  1.00  0.00     0.199 HD  
ATOM     19  H12 UNL     1       2.048   0.185   3.575  1.00  0.00     0.199 HD  
BRANCH  17  20
ATOM     20  C12 UNL     1       1.359  -1.543   2.718  1.00  0.00     0.164 C   
BRANCH  20  21
ATOM     21  C13 UNL     1       0.094  -2.280   2.376  1.00  0.00    -0.002 A   
ATOM     22  C14 UNL     1      -0.690  -2.878   3.390  1.00  0.00     0.012 A   
ATOM     23  C18 UNL     1      -0.330  -2.357   1.037  1.00  0.00     0.045 A   
ATOM     24  C15 UNL     1      -1.886  -3.535   3.078  1.00  0.00     0.037 A   
ATOM     25  C17 UNL     1      -1.513  -3.009   0.764  1.00  0.00     0.109 A   
ATOM     26  C16 UNL     1      -2.270  -3.580   1.756  1.00  0.00     0.108 A   
ATOM     27  O1  UNL     1      -2.066  -3.165  -0.467  1.00  0.00    -0.316 OA  
ATOM     28  O2  UNL     1      -3.395  -4.170   1.275  1.00  0.00    -0.316 OA  
ATOM     29  C19 UNL     1      -3.249  -3.929  -0.141  1.00  0.00     0.337 C   
ENDBRANCH  20  21
ENDBRANCH  17  20
ENDBRANCH  16  17
BRANCH  16  30
ATOM     30  C20 UNL     1       0.110   1.983   3.716  1.00  0.00     0.043 C   
ATOM     31  C21 UNL     1      -0.487   1.658   5.091  1.00  0.00     0.010 C   
ATOM     32  C24 UNL     1      -0.857   3.052   3.197  1.00  0.00     0.010 C   
ATOM     33  C22 UNL     1      -1.061   2.975   5.610  1.00  0.00     0.001 C   
ATOM     34  C23 UNL     1      -1.109   3.925   4.417  1.00  0.00     0.001 C   
ENDBRANCH  16  30
ENDBRANCH   3  16
TORSDOF 7
