REMARK SMILES CC(C)C[C@H]([NH2+]Cc1ccc2c(c1)OCO2)c1cn([C@@H](CO)c2cccc(Cl)n2)nn1
REMARK SMILES IDX 17 1 18 2 19 3 30 4 31 5 5 7 4 8 2 9 1 10 3 11 6 12 7 15
REMARK SMILES IDX 8 16 9 17 13 18 10 19 12 20 11 21 14 22 16 23 15 24 20 25
REMARK SMILES IDX 21 26 22 27 23 29 24 30 29 31 25 32 27 33 26 34 28 35
REMARK H PARENT 18 6 6 13 6 14 22 28
ROOT
ATOM     1   C14 UNL     1      -0.159   0.393   0.240  1.00  0.00     0.127 A   
ATOM     2   C15 UNL     1       0.572   0.157   1.381  1.00  0.00     0.046 A   
ATOM     3   N2  UNL     1       0.574   1.358   2.040  1.00  0.00    -0.201 N   
ATOM     4   N4  UNL     1      -0.113   2.283   1.336  1.00  0.00    -0.075 NA  
ATOM     5   N5  UNL     1      -0.566   1.704   0.235  1.00  0.00    -0.132 NA  
ATOM     6   H20 UNL     1       1.063  -0.722   1.780  1.00  0.00     0.083 HD  
ENDROOT
BRANCH   1   7
ATOM     7   C5  UNL     1      -0.557  -0.518  -0.872  1.00  0.00     0.114 C   
BRANCH   7   8
ATOM     8   C4  UNL     1       0.617  -0.998  -1.749  1.00  0.00     0.064 C   
BRANCH   8   9
ATOM     9   C2  UNL     1       1.275   0.013  -2.717  1.00  0.00    -0.012 C   
ATOM     10  C1  UNL     1       2.082   1.099  -2.006  1.00  0.00     0.007 C   
ATOM     11  C3  UNL     1       2.200  -0.742  -3.680  1.00  0.00     0.007 C   
ENDBRANCH   8   9
ENDBRANCH   7   8
BRANCH   7  12
ATOM     12  N1  UNL     1      -1.608   0.110  -1.751  1.00  0.00     0.249 N   
ATOM     13  H11 UNL     1      -1.324   1.092  -1.880  1.00  0.00     0.199 HD  
ATOM     14  H12 UNL     1      -1.619  -0.332  -2.674  1.00  0.00     0.199 HD  
BRANCH  12  15
ATOM     15  C6  UNL     1      -2.996   0.122  -1.198  1.00  0.00     0.164 C   
BRANCH  15  16
ATOM     16  C7  UNL     1      -3.654  -1.228  -1.277  1.00  0.00    -0.002 A   
ATOM     17  C8  UNL     1      -3.806  -2.022  -0.115  1.00  0.00     0.012 A   
ATOM     18  C12 UNL     1      -4.095  -1.726  -2.516  1.00  0.00     0.045 A   
ATOM     19  C9  UNL     1      -4.376  -3.298  -0.184  1.00  0.00     0.037 A   
ATOM     20  C11 UNL     1      -4.656  -2.986  -2.548  1.00  0.00     0.109 A   
ATOM     21  C10 UNL     1      -4.790  -3.751  -1.416  1.00  0.00     0.108 A   
ATOM     22  O1  UNL     1      -5.122  -3.614  -3.658  1.00  0.00    -0.316 OA  
ATOM     23  O2  UNL     1      -5.357  -4.959  -1.671  1.00  0.00    -0.316 OA  
ATOM     24  C13 UNL     1      -5.596  -4.857  -3.091  1.00  0.00     0.337 C   
ENDBRANCH  15  16
ENDBRANCH  12  15
ENDBRANCH   7  12
ENDBRANCH   1   7
BRANCH   3  25
ATOM     25  C16 UNL     1       1.182   1.713   3.316  1.00  0.00     0.174 C   
BRANCH  25  26
ATOM     26  C17 UNL     1       0.558   0.935   4.490  1.00  0.00     0.187 C   
BRANCH  26  27
ATOM     27  O3  UNL     1       0.749  -0.478   4.406  1.00  0.00    -0.394 OA  
ATOM     28  H24 UNL     1       1.720  -0.625   4.410  1.00  0.00     0.210 HD  
ENDBRANCH  26  27
ENDBRANCH  25  26
BRANCH  25  29
ATOM     29  C18 UNL     1       2.693   1.576   3.230  1.00  0.00     0.067 A   
ATOM     30  C19 UNL     1       3.472   2.639   2.766  1.00  0.00     0.026 A   
ATOM     31  N3  UNL     1       3.240   0.382   3.583  1.00  0.00    -0.239 NA  
ATOM     32  C20 UNL     1       4.855   2.480   2.683  1.00  0.00     0.005 A   
ATOM     33  C22 UNL     1       4.584   0.266   3.490  1.00  0.00     0.129 A   
ATOM     34  C21 UNL     1       5.428   1.269   3.054  1.00  0.00     0.041 A   
ATOM     35  CL1 UNL     1       5.189  -1.268   3.951  1.00  0.00    -0.062 Cl  
ENDBRANCH  25  29
ENDBRANCH   3  25
TORSDOF 10
