REMARK SMILES CC(C)C[C@H]([NH2+]Cc1ccc2c(c1)OCO2)c1cn([C@H](CO)c2cccc(Cl)n2)nn1
REMARK SMILES IDX 17 1 18 2 19 3 30 4 31 5 5 7 4 8 2 9 1 10 3 11 6 12 7 15
REMARK SMILES IDX 8 16 9 17 13 18 10 19 12 20 11 21 14 22 16 23 15 24 20 25
REMARK SMILES IDX 21 26 22 27 23 29 24 30 29 31 25 32 27 33 26 34 28 35
REMARK H PARENT 18 6 6 13 6 14 22 28
ROOT
ATOM     1   C14 UNL     1       1.658   0.585  -0.604  1.00  0.00     0.127 A   
ATOM     2   C15 UNL     1       1.968   1.181   0.597  1.00  0.00     0.046 A   
ATOM     3   N2  UNL     1       2.199   2.492   0.273  1.00  0.00    -0.201 N   
ATOM     4   N4  UNL     1       2.011   2.688  -1.052  1.00  0.00    -0.075 NA  
ATOM     5   N5  UNL     1       1.697   1.525  -1.599  1.00  0.00    -0.132 NA  
ATOM     6   H20 UNL     1       2.013   0.816   1.614  1.00  0.00     0.083 HD  
ENDROOT
BRANCH   1   7
ATOM     7   C5  UNL     1       1.226  -0.805  -0.917  1.00  0.00     0.114 C   
BRANCH   7   8
ATOM     8   C4  UNL     1       2.334  -1.633  -1.596  1.00  0.00     0.064 C   
BRANCH   8   9
ATOM     9   C2  UNL     1       3.599  -1.860  -0.742  1.00  0.00    -0.012 C   
ATOM     10  C1  UNL     1       4.638  -2.636  -1.558  1.00  0.00     0.007 C   
ATOM     11  C3  UNL     1       3.300  -2.610   0.557  1.00  0.00     0.007 C   
ENDBRANCH   8   9
ENDBRANCH   7   8
BRANCH   7  12
ATOM     12  N1  UNL     1       0.049  -0.778  -1.873  1.00  0.00     0.249 N   
ATOM     13  H11 UNL     1       0.355  -0.230  -2.689  1.00  0.00     0.199 HD  
ATOM     14  H12 UNL     1      -0.158  -1.727  -2.198  1.00  0.00     0.199 HD  
BRANCH  12  15
ATOM     15  C6  UNL     1      -1.205  -0.145  -1.362  1.00  0.00     0.164 C   
BRANCH  15  16
ATOM     16  C7  UNL     1      -1.806  -0.881  -0.198  1.00  0.00    -0.002 A   
ATOM     17  C8  UNL     1      -1.720  -0.341   1.108  1.00  0.00     0.012 A   
ATOM     18  C12 UNL     1      -2.433  -2.124  -0.392  1.00  0.00     0.045 A   
ATOM     19  C9  UNL     1      -2.244  -1.030   2.208  1.00  0.00     0.037 A   
ATOM     20  C11 UNL     1      -2.940  -2.776   0.713  1.00  0.00     0.109 A   
ATOM     21  C10 UNL     1      -2.848  -2.245   1.976  1.00  0.00     0.108 A   
ATOM     22  O1  UNL     1      -3.569  -3.980   0.699  1.00  0.00    -0.316 OA  
ATOM     23  O2  UNL     1      -3.408  -3.049   2.917  1.00  0.00    -0.316 OA  
ATOM     24  C13 UNL     1      -3.896  -4.134   2.100  1.00  0.00     0.337 C   
ENDBRANCH  15  16
ENDBRANCH  12  15
ENDBRANCH   7  12
ENDBRANCH   1   7
BRANCH   3  25
ATOM     25  C16 UNL     1       2.489   3.626   1.145  1.00  0.00     0.174 C   
BRANCH  25  26
ATOM     26  C17 UNL     1       3.472   3.294   2.278  1.00  0.00     0.187 C   
BRANCH  26  27
ATOM     27  O3  UNL     1       4.756   2.962   1.751  1.00  0.00    -0.394 OA  
ATOM     28  H24 UNL     1       5.367   2.861   2.505  1.00  0.00     0.210 HD  
ENDBRANCH  26  27
ENDBRANCH  25  26
BRANCH  25  29
ATOM     29  C18 UNL     1       1.186   4.164   1.709  1.00  0.00     0.067 A   
ATOM     30  C19 UNL     1       0.792   5.476   1.443  1.00  0.00     0.026 A   
ATOM     31  N3  UNL     1       0.441   3.330   2.481  1.00  0.00    -0.239 NA  
ATOM     32  C20 UNL     1      -0.400   5.950   1.990  1.00  0.00     0.005 A   
ATOM     33  C22 UNL     1      -0.708   3.824   2.993  1.00  0.00     0.129 A   
ATOM     34  C21 UNL     1      -1.170   5.108   2.784  1.00  0.00     0.041 A   
ATOM     35  CL1 UNL     1      -1.598   2.699   3.931  1.00  0.00    -0.062 Cl  
ENDBRANCH  25  29
ENDBRANCH   3  25
TORSDOF 10
