REMARK SMILES Cc1ccc([C@H](CO)n2cc([C@H](CC(C)C)[NH2+]Cc3ccc4c(c3)OCO4)nn2)cc1F
REMARK SMILES IDX 9 1 10 2 11 3 28 4 29 5 6 7 5 8 2 9 3 10 31 11 4 12 30 13
REMARK SMILES IDX 1 14 32 15 7 16 8 17 12 19 13 20 14 21 15 22 16 23 17 24
REMARK SMILES IDX 18 27 19 28 20 29 24 30 21 31 23 32 22 33 25 34 27 35 26 36
REMARK H PARENT 10 6 8 18 17 25 17 26
ROOT
ATOM     1   N1  UNL     1       0.198  -2.214  -0.689  1.00  0.00    -0.202 N   
ATOM     2   C8  UNL     1      -0.615  -1.418  -1.454  1.00  0.00     0.046 A   
ATOM     3   C9  UNL     1      -0.795  -0.285  -0.694  1.00  0.00     0.127 A   
ATOM     4   N3  UNL     1      -0.129  -0.434   0.497  1.00  0.00    -0.132 NA  
ATOM     5   N4  UNL     1       0.456  -1.621   0.498  1.00  0.00    -0.075 NA  
ATOM     6   H10 UNL     1      -0.955  -1.716  -2.436  1.00  0.00     0.083 HD  
ENDROOT
BRANCH   1   7
ATOM     7   C6  UNL     1       0.783  -3.516  -1.005  1.00  0.00     0.155 C   
BRANCH   7   8
ATOM     8   C5  UNL     1       1.804  -3.382  -2.130  1.00  0.00    -0.020 A   
ATOM     9   C2  UNL     1       3.765  -3.066  -4.157  1.00  0.00    -0.015 A   
ATOM     10  C3  UNL     1       4.128  -3.022  -2.807  1.00  0.00     0.007 A   
ATOM     11  C24 UNL     1       2.423  -3.276  -4.478  1.00  0.00     0.126 A   
ATOM     12  C4  UNL     1       3.158  -3.168  -1.806  1.00  0.00     0.006 A   
ATOM     13  C23 UNL     1       1.451  -3.431  -3.487  1.00  0.00     0.045 A   
ATOM     14  C1  UNL     1       4.788  -2.932  -5.245  1.00  0.00     0.047 C   
ATOM     15  F1  UNL     1       2.043  -3.324  -5.764  1.00  0.00    -0.207 F   
ENDBRANCH   7   8
BRANCH   7  16
ATOM     16  C7  UNL     1      -0.279  -4.623  -1.174  1.00  0.00     0.185 C   
BRANCH  16  17
ATOM     17  O1  UNL     1      -1.244  -4.341  -2.186  1.00  0.00    -0.394 OA  
ATOM     18  H9  UNL     1      -1.778  -5.145  -2.297  1.00  0.00     0.210 HD  
ENDBRANCH  16  17
ENDBRANCH   7  16
ENDBRANCH   1   7
BRANCH   3  19
ATOM     19  C10 UNL     1      -1.554   0.974  -0.974  1.00  0.00     0.114 C   
BRANCH  19  20
ATOM     20  C11 UNL     1      -0.845   1.817  -2.054  1.00  0.00     0.064 C   
BRANCH  20  21
ATOM     21  C12 UNL     1      -1.576   3.093  -2.524  1.00  0.00    -0.012 C   
ATOM     22  C13 UNL     1      -2.981   2.806  -3.052  1.00  0.00     0.007 C   
ATOM     23  C14 UNL     1      -0.748   3.788  -3.611  1.00  0.00     0.007 C   
ENDBRANCH  20  21
ENDBRANCH  19  20
BRANCH  19  24
ATOM     24  N2  UNL     1      -1.681   1.791   0.282  1.00  0.00     0.249 N   
ATOM     25  H21 UNL     1      -0.781   1.705   0.779  1.00  0.00     0.199 HD  
ATOM     26  H22 UNL     1      -1.809   2.788   0.094  1.00  0.00     0.199 HD  
BRANCH  24  27
ATOM     27  C15 UNL     1      -2.742   1.343   1.228  1.00  0.00     0.164 C   
BRANCH  27  28
ATOM     28  C16 UNL     1      -2.648   2.116   2.512  1.00  0.00    -0.002 A   
ATOM     29  C17 UNL     1      -3.364   3.324   2.678  1.00  0.00     0.012 A   
ATOM     30  C21 UNL     1      -1.787   1.672   3.534  1.00  0.00     0.045 A   
ATOM     31  C18 UNL     1      -3.232   4.080   3.848  1.00  0.00     0.037 A   
ATOM     32  C20 UNL     1      -1.674   2.446   4.670  1.00  0.00     0.109 A   
ATOM     33  C19 UNL     1      -2.377   3.616   4.824  1.00  0.00     0.108 A   
ATOM     34  O2  UNL     1      -0.881   2.172   5.738  1.00  0.00    -0.316 OA  
ATOM     35  O3  UNL     1      -2.116   4.225   6.009  1.00  0.00    -0.316 OA  
ATOM     36  C22 UNL     1      -1.148   3.317   6.580  1.00  0.00     0.337 C   
ENDBRANCH  27  28
ENDBRANCH  24  27
ENDBRANCH  19  24
ENDBRANCH   3  19
TORSDOF 10
