REMARK SMILES Cc1ccc([C@@H](CO)n2cc([C@H](CC(C)C)[NH2+]Cc3ccc4c(c3)OCO4)nn2)cc1F
REMARK SMILES IDX 9 1 10 2 11 3 28 4 29 5 6 7 5 8 2 9 3 10 31 11 4 12 30 13
REMARK SMILES IDX 1 14 32 15 7 16 8 17 12 19 13 20 14 21 15 22 16 23 17 24
REMARK SMILES IDX 18 27 19 28 20 29 24 30 21 31 23 32 22 33 25 34 27 35 26 36
REMARK H PARENT 10 6 8 18 17 25 17 26
ROOT
ATOM     1   N1  UNL     1       0.234  -2.272  -1.580  1.00  0.00    -0.202 N   
ATOM     2   C8  UNL     1       0.903  -1.301  -0.886  1.00  0.00     0.046 A   
ATOM     3   C9  UNL     1       0.553  -1.518   0.425  1.00  0.00     0.127 A   
ATOM     4   N3  UNL     1      -0.270  -2.611   0.497  1.00  0.00    -0.132 NA  
ATOM     5   N4  UNL     1      -0.468  -3.058  -0.734  1.00  0.00    -0.075 NA  
ATOM     6   H10 UNL     1       1.509  -0.552  -1.379  1.00  0.00     0.083 HD  
ENDROOT
BRANCH   1   7
ATOM     7   C6  UNL     1       0.095  -2.434  -3.027  1.00  0.00     0.155 C   
BRANCH   7   8
ATOM     8   C5  UNL     1      -0.623  -1.221  -3.611  1.00  0.00    -0.020 A   
ATOM     9   C2  UNL     1      -2.048   1.039  -4.560  1.00  0.00    -0.015 A   
ATOM     10  C3  UNL     1      -2.734  -0.096  -4.122  1.00  0.00     0.007 A   
ATOM     11  C24 UNL     1      -0.653   1.023  -4.535  1.00  0.00     0.126 A   
ATOM     12  C4  UNL     1      -2.031  -1.207  -3.644  1.00  0.00     0.006 A   
ATOM     13  C23 UNL     1       0.055  -0.083  -4.068  1.00  0.00     0.045 A   
ATOM     14  C1  UNL     1      -2.782   2.227  -5.101  1.00  0.00     0.047 C   
ATOM     15  F1  UNL     1       0.034   2.096  -4.950  1.00  0.00    -0.207 F   
ENDBRANCH   7   8
BRANCH   7  16
ATOM     16  C7  UNL     1       1.417  -2.857  -3.699  1.00  0.00     0.185 C   
BRANCH  16  17
ATOM     17  O1  UNL     1       2.488  -1.943  -3.474  1.00  0.00    -0.394 OA  
ATOM     18  H9  UNL     1       3.257  -2.275  -3.975  1.00  0.00     0.210 HD  
ENDBRANCH  16  17
ENDBRANCH   7  16
ENDBRANCH   1   7
BRANCH   3  19
ATOM     19  C10 UNL     1       0.857  -0.722   1.649  1.00  0.00     0.114 C   
BRANCH  19  20
ATOM     20  C11 UNL     1       1.976  -1.391   2.473  1.00  0.00     0.064 C   
BRANCH  20  21
ATOM     21  C12 UNL     1       2.429  -0.646   3.747  1.00  0.00    -0.012 C   
ATOM     22  C13 UNL     1       3.553  -1.432   4.429  1.00  0.00     0.007 C   
ATOM     23  C14 UNL     1       2.897   0.781   3.458  1.00  0.00     0.007 C   
ENDBRANCH  20  21
ENDBRANCH  19  20
BRANCH  19  24
ATOM     24  N2  UNL     1      -0.371  -0.571   2.518  1.00  0.00     0.249 N   
ATOM     25  H21 UNL     1      -0.137  -0.051   3.366  1.00  0.00     0.199 HD  
ATOM     26  H22 UNL     1      -0.652  -1.518   2.800  1.00  0.00     0.199 HD  
BRANCH  24  27
ATOM     27  C15 UNL     1      -1.565   0.071   1.882  1.00  0.00     0.164 C   
BRANCH  27  28
ATOM     28  C16 UNL     1      -1.297   1.446   1.339  1.00  0.00    -0.002 A   
ATOM     29  C17 UNL     1      -1.306   1.671  -0.059  1.00  0.00     0.012 A   
ATOM     30  C21 UNL     1      -1.011   2.513   2.209  1.00  0.00     0.045 A   
ATOM     31  C18 UNL     1      -1.026   2.936  -0.587  1.00  0.00     0.037 A   
ATOM     32  C20 UNL     1      -0.738   3.746   1.655  1.00  0.00     0.109 A   
ATOM     33  C19 UNL     1      -0.746   3.953   0.298  1.00  0.00     0.108 A   
ATOM     34  O2  UNL     1      -0.433   4.873   2.350  1.00  0.00    -0.316 OA  
ATOM     35  O3  UNL     1      -0.454   5.237  -0.032  1.00  0.00    -0.316 OA  
ATOM     36  C22 UNL     1      -0.274   5.826   1.274  1.00  0.00     0.337 C   
ENDBRANCH  27  28
ENDBRANCH  24  27
ENDBRANCH  19  24
ENDBRANCH   3  19
TORSDOF 10
