REMARK SMILES C[C@H](O)c1cccc(-n2cc([C@@H]([NH2+]Cc3ccc4c(c3)OCO4)C3CCCCC3)nn2)c1
REMARK SMILES IDX 9 1 10 2 11 3 30 4 31 5 8 6 4 7 5 8 32 9 6 10 7 11 2 12 1 13
REMARK SMILES IDX 3 14 12 16 13 17 14 20 15 21 16 22 20 23 17 24 19 25 18 26
REMARK SMILES IDX 21 27 23 28 22 29 24 30 25 31 29 32 26 33 28 34 27 35
REMARK H PARENT 3 15 13 18 13 19
ROOT
ATOM     1   N1  UNL     1      -0.192  -2.761   0.315  1.00  0.00    -0.181 N   
ATOM     2   C8  UNL     1      -0.276  -1.383   0.248  1.00  0.00     0.135 A   
ATOM     3   C9  UNL     1       0.620  -1.014  -0.730  1.00  0.00     0.127 A   
ATOM     4   N3  UNL     1       1.232  -2.132  -1.220  1.00  0.00    -0.131 NA  
ATOM     5   N4  UNL     1       0.728  -3.183  -0.595  1.00  0.00    -0.071 NA  
ENDROOT
BRANCH   1   6
ATOM     6   C7  UNL     1      -0.867  -3.659   1.178  1.00  0.00     0.058 A   
ATOM     7   C3  UNL     1      -2.348  -4.077   3.073  1.00  0.00    -0.018 A   
ATOM     8   C4  UNL     1      -2.123  -5.453   2.918  1.00  0.00     0.006 A   
ATOM     9   C25 UNL     1      -1.723  -3.185   2.184  1.00  0.00     0.032 A   
ATOM     10  C5  UNL     1      -1.294  -5.931   1.903  1.00  0.00     0.002 A   
ATOM     11  C6  UNL     1      -0.662  -5.039   1.037  1.00  0.00     0.026 A   
BRANCH   7  12
ATOM     12  C2  UNL     1      -3.252  -3.589   4.189  1.00  0.00     0.141 C   
ATOM     13  C1  UNL     1      -4.725  -3.671   3.803  1.00  0.00     0.043 C   
BRANCH  12  14
ATOM     14  O1  UNL     1      -2.927  -2.238   4.525  1.00  0.00    -0.389 OA  
ATOM     15  H5  UNL     1      -3.535  -1.971   5.237  1.00  0.00     0.211 HD  
ENDBRANCH  12  14
ENDBRANCH   7  12
ENDBRANCH   1   6
BRANCH   3  16
ATOM     16  C10 UNL     1       1.015   0.339  -1.235  1.00  0.00     0.117 C   
BRANCH  16  17
ATOM     17  N2  UNL     1       2.523   0.399  -1.252  1.00  0.00     0.249 N   
ATOM     18  H11 UNL     1       2.851   0.080  -0.334  1.00  0.00     0.199 HD  
ATOM     19  H12 UNL     1       2.852  -0.335  -1.895  1.00  0.00     0.199 HD  
BRANCH  17  20
ATOM     20  C11 UNL     1       3.190   1.693  -1.555  1.00  0.00     0.164 C   
BRANCH  20  21
ATOM     21  C12 UNL     1       2.873   2.776  -0.560  1.00  0.00    -0.002 A   
ATOM     22  C13 UNL     1       3.401   2.725   0.755  1.00  0.00     0.012 A   
ATOM     23  C17 UNL     1       2.047   3.851  -0.926  1.00  0.00     0.045 A   
ATOM     24  C14 UNL     1       3.117   3.730   1.687  1.00  0.00     0.037 A   
ATOM     25  C16 UNL     1       1.783   4.824   0.016  1.00  0.00     0.109 A   
ATOM     26  C15 UNL     1       2.305   4.768   1.283  1.00  0.00     0.108 A   
ATOM     27  O2  UNL     1       1.015   5.926  -0.182  1.00  0.00    -0.316 OA  
ATOM     28  O3  UNL     1       1.946   5.833   2.039  1.00  0.00    -0.316 OA  
ATOM     29  C18 UNL     1       1.089   6.548   1.123  1.00  0.00     0.337 C   
ENDBRANCH  20  21
ENDBRANCH  17  20
ENDBRANCH  16  17
BRANCH  16  30
ATOM     30  C19 UNL     1       0.415   0.694  -2.625  1.00  0.00     0.043 C   
ATOM     31  C20 UNL     1      -1.127   0.603  -2.618  1.00  0.00     0.010 C   
ATOM     32  C24 UNL     1       0.989  -0.116  -3.809  1.00  0.00     0.010 C   
ATOM     33  C21 UNL     1      -1.732   1.030  -3.953  1.00  0.00     0.001 C   
ATOM     34  C23 UNL     1       0.371   0.312  -5.140  1.00  0.00     0.001 C   
ATOM     35  C22 UNL     1      -1.149   0.228  -5.114  1.00  0.00     0.000 C   
ENDBRANCH  16  30
ENDBRANCH   3  16
TORSDOF 8
