REMARK SMILES C[C@@H](O)c1cccc(-n2cc([C@@H]([NH2+]Cc3ccc4c(c3)OCO4)C3CCCCC3)nn2)c1
REMARK SMILES IDX 9 1 10 2 11 3 30 4 31 5 8 6 4 7 5 8 32 9 6 10 7 11 2 12 1 13
REMARK SMILES IDX 3 14 12 16 13 17 14 20 15 21 16 22 20 23 17 24 19 25 18 26
REMARK SMILES IDX 21 27 23 28 22 29 24 30 25 31 29 32 26 33 28 34 27 35
REMARK H PARENT 3 15 13 18 13 19
ROOT
ATOM     1   N1  UNL     1      -1.704   1.799  -1.094  1.00  0.00    -0.181 N   
ATOM     2   C8  UNL     1      -1.118   0.913  -0.210  1.00  0.00     0.135 A   
ATOM     3   C9  UNL     1       0.123   1.444   0.061  1.00  0.00     0.127 A   
ATOM     4   N3  UNL     1       0.276   2.607  -0.639  1.00  0.00    -0.131 NA  
ATOM     5   N4  UNL     1      -0.828   2.809  -1.339  1.00  0.00    -0.071 NA  
ENDROOT
BRANCH   1   6
ATOM     6   C7  UNL     1      -2.979   1.741  -1.706  1.00  0.00     0.058 A   
ATOM     7   C3  UNL     1      -5.127   0.628  -2.042  1.00  0.00    -0.018 A   
ATOM     8   C4  UNL     1      -5.496   1.651  -2.928  1.00  0.00     0.006 A   
ATOM     9   C25 UNL     1      -3.857   0.679  -1.440  1.00  0.00     0.032 A   
ATOM     10  C5  UNL     1      -4.625   2.707  -3.199  1.00  0.00     0.002 A   
ATOM     11  C6  UNL     1      -3.371   2.756  -2.589  1.00  0.00     0.026 A   
BRANCH   7  12
ATOM     12  C2  UNL     1      -6.085  -0.514  -1.772  1.00  0.00     0.141 C   
ATOM     13  C1  UNL     1      -5.921  -1.636  -2.792  1.00  0.00     0.043 C   
BRANCH  12  14
ATOM     14  O1  UNL     1      -5.855  -1.042  -0.464  1.00  0.00    -0.389 OA  
ATOM     15  H5  UNL     1      -6.580  -1.666  -0.287  1.00  0.00     0.211 HD  
ENDBRANCH  12  14
ENDBRANCH   7  12
ENDBRANCH   1   6
BRANCH   3  16
ATOM     16  C10 UNL     1       1.244   0.940   0.914  1.00  0.00     0.117 C   
BRANCH  16  17
ATOM     17  N2  UNL     1       2.572   1.454   0.404  1.00  0.00     0.249 N   
ATOM     18  H11 UNL     1       2.444   2.462   0.236  1.00  0.00     0.199 HD  
ATOM     19  H12 UNL     1       3.302   1.355   1.113  1.00  0.00     0.199 HD  
BRANCH  17  20
ATOM     20  C11 UNL     1       3.062   0.866  -0.880  1.00  0.00     0.164 C   
BRANCH  20  21
ATOM     21  C12 UNL     1       3.408  -0.593  -0.758  1.00  0.00    -0.002 A   
ATOM     22  C13 UNL     1       4.573  -1.000  -0.063  1.00  0.00     0.012 A   
ATOM     23  C17 UNL     1       2.551  -1.565  -1.302  1.00  0.00     0.045 A   
ATOM     24  C14 UNL     1       4.874  -2.357   0.100  1.00  0.00     0.037 A   
ATOM     25  C16 UNL     1       2.877  -2.893  -1.121  1.00  0.00     0.109 A   
ATOM     26  C15 UNL     1       4.003  -3.279  -0.437  1.00  0.00     0.108 A   
ATOM     27  O2  UNL     1       2.148  -3.952  -1.560  1.00  0.00    -0.316 OA  
ATOM     28  O3  UNL     1       4.130  -4.629  -0.367  1.00  0.00    -0.316 OA  
ATOM     29  C18 UNL     1       2.971  -5.055  -1.117  1.00  0.00     0.337 C   
ENDBRANCH  20  21
ENDBRANCH  17  20
ENDBRANCH  16  17
BRANCH  16  30
ATOM     30  C19 UNL     1       1.058   1.316   2.409  1.00  0.00     0.043 C   
ATOM     31  C20 UNL     1       1.990   0.494   3.322  1.00  0.00     0.010 C   
ATOM     32  C24 UNL     1       1.213   2.821   2.705  1.00  0.00     0.010 C   
ATOM     33  C21 UNL     1       1.759   0.811   4.798  1.00  0.00     0.001 C   
ATOM     34  C23 UNL     1       0.984   3.130   4.184  1.00  0.00     0.001 C   
ATOM     35  C22 UNL     1       1.899   2.303   5.081  1.00  0.00     0.000 C   
ENDBRANCH  16  30
ENDBRANCH   3  16
TORSDOF 8
