REMARK SMILES c1cc(Cn2cc([C@@H]([NH2+]Cc3ccc4c(c3)OCO4)C3CCCC3)nn2)c2cc[nH]c2c1
REMARK SMILES IDX 5 1 6 2 7 3 25 4 26 5 4 7 3 8 1 9 2 10 32 11 31 12 27 13
REMARK SMILES IDX 30 14 28 15 29 16 8 18 9 19 10 22 11 23 12 24 16 25 13 26
REMARK SMILES IDX 15 27 14 28 17 29 19 30 18 31 20 32 21 33 24 34 22 35 23 36
REMARK H PARENT 6 6 30 17 9 20 9 21
ROOT
ATOM     1   N1  UNL     1      -2.103   0.484   1.815  1.00  0.00    -0.208 N   
ATOM     2   C5  UNL     1      -0.874   0.650   2.399  1.00  0.00     0.046 A   
ATOM     3   C6  UNL     1      -0.281   1.632   1.639  1.00  0.00     0.127 A   
ATOM     4   N3  UNL     1      -1.163   2.058   0.681  1.00  0.00    -0.132 NA  
ATOM     5   N4  UNL     1      -2.281   1.369   0.816  1.00  0.00    -0.076 NA  
ATOM     6   H5  UNL     1      -0.534   0.023   3.211  1.00  0.00     0.083 HD  
ENDROOT
BRANCH   1   7
ATOM     7   C4  UNL     1      -3.095  -0.547   2.080  1.00  0.00     0.170 C   
BRANCH   7   8
ATOM     8   C3  UNL     1      -2.532  -1.921   1.787  1.00  0.00    -0.019 A   
ATOM     9   C1  UNL     1      -1.892  -4.131   2.624  1.00  0.00     0.002 A   
ATOM     10  C2  UNL     1      -2.417  -2.858   2.836  1.00  0.00     0.006 A   
ATOM     11  C25 UNL     1      -1.458  -4.528   1.359  1.00  0.00     0.024 A   
ATOM     12  C24 UNL     1      -1.580  -3.607   0.316  1.00  0.00     0.037 A   
ATOM     13  C21 UNL     1      -2.107  -2.327   0.494  1.00  0.00     0.002 A   
ATOM     14  N5  UNL     1      -1.257  -3.741  -1.017  1.00  0.00    -0.321 N   
ATOM     15  C22 UNL     1      -2.084  -1.698  -0.787  1.00  0.00     0.025 A   
ATOM     16  C23 UNL     1      -1.542  -2.584  -1.690  1.00  0.00     0.072 A   
ATOM     17  H27 UNL     1      -0.881  -4.583  -1.435  1.00  0.00     0.152 HD  
ENDBRANCH   7   8
ENDBRANCH   1   7
BRANCH   3  18
ATOM     18  C7  UNL     1       1.119   2.151   1.616  1.00  0.00     0.117 C   
BRANCH  18  19
ATOM     19  N2  UNL     1       1.626   2.107   0.197  1.00  0.00     0.249 N   
ATOM     20  H7  UNL     1       2.364   2.796   0.024  1.00  0.00     0.199 HD  
ATOM     21  H8  UNL     1       0.830   2.385  -0.401  1.00  0.00     0.199 HD  
BRANCH  19  22
ATOM     22  C8  UNL     1       2.071   0.766  -0.266  1.00  0.00     0.164 C   
BRANCH  22  23
ATOM     23  C9  UNL     1       2.276   0.756  -1.754  1.00  0.00    -0.002 A   
ATOM     24  C10 UNL     1       3.517   1.141  -2.317  1.00  0.00     0.012 A   
ATOM     25  C14 UNL     1       1.208   0.408  -2.600  1.00  0.00     0.045 A   
ATOM     26  C11 UNL     1       3.697   1.166  -3.705  1.00  0.00     0.037 A   
ATOM     27  C13 UNL     1       1.420   0.440  -3.963  1.00  0.00     0.109 A   
ATOM     28  C12 UNL     1       2.629   0.810  -4.501  1.00  0.00     0.108 A   
ATOM     29  O1  UNL     1       0.502   0.126  -4.914  1.00  0.00    -0.316 OA  
ATOM     30  O2  UNL     1       2.623   0.780  -5.859  1.00  0.00    -0.316 OA  
ATOM     31  C15 UNL     1       1.272   0.339  -6.119  1.00  0.00     0.337 C   
ENDBRANCH  22  23
ENDBRANCH  19  22
ENDBRANCH  18  19
BRANCH  18  32
ATOM     32  C16 UNL     1       1.232   3.577   2.190  1.00  0.00     0.043 C   
ATOM     33  C17 UNL     1       0.531   4.688   1.390  1.00  0.00     0.010 C   
ATOM     34  C20 UNL     1       2.688   4.059   2.364  1.00  0.00     0.010 C   
ATOM     35  C18 UNL     1       1.331   5.938   1.722  1.00  0.00     0.001 C   
ATOM     36  C19 UNL     1       2.762   5.431   1.701  1.00  0.00     0.001 C   
ENDBRANCH  18  32
ENDBRANCH   3  18
TORSDOF 7
