REMARK SMILES CC(C)[C@H]([NH2+]Cc1ccc2c(c1)OCO2)c1cn(-c2cc(CO)ccc2F)nn1
REMARK SMILES IDX 16 1 17 2 18 3 28 4 29 5 4 6 2 7 1 8 3 9 5 10 6 13 7 14 8 15
REMARK SMILES IDX 12 16 9 17 11 18 10 19 13 20 15 21 14 22 19 23 20 24 26 25
REMARK SMILES IDX 21 26 25 27 24 28 27 29 22 30 23 31
REMARK H PARENT 5 11 5 12 23 32
ROOT
ATOM     1   C13 UNL     1       0.537   1.327   0.404  1.00  0.00     0.127 A   
ATOM     2   C14 UNL     1       1.395   0.251   0.363  1.00  0.00     0.135 A   
ATOM     3   N2  UNL     1       2.196   0.376   1.483  1.00  0.00    -0.178 N   
ATOM     4   N3  UNL     1       1.790   1.477   2.174  1.00  0.00    -0.071 NA  
ATOM     5   N4  UNL     1       0.797   2.060   1.525  1.00  0.00    -0.131 NA  
ENDROOT
BRANCH   1   6
ATOM     6   C4  UNL     1      -0.581   1.732  -0.502  1.00  0.00     0.117 C   
BRANCH   6   7
ATOM     7   C2  UNL     1      -0.153   2.678  -1.655  1.00  0.00     0.037 C   
ATOM     8   C1  UNL     1       0.798   1.981  -2.635  1.00  0.00     0.014 C   
ATOM     9   C3  UNL     1       0.465   4.002  -1.190  1.00  0.00     0.014 C   
ENDBRANCH   6   7
BRANCH   6  10
ATOM     10  N1  UNL     1      -1.673   2.418   0.294  1.00  0.00     0.249 N   
ATOM     11  H9  UNL     1      -1.205   3.118   0.887  1.00  0.00     0.199 HD  
ATOM     12  H10 UNL     1      -2.305   2.924  -0.334  1.00  0.00     0.199 HD  
BRANCH  10  13
ATOM     13  C5  UNL     1      -2.478   1.546   1.202  1.00  0.00     0.164 C   
BRANCH  13  14
ATOM     14  C6  UNL     1      -3.340   0.564   0.459  1.00  0.00    -0.002 A   
ATOM     15  C7  UNL     1      -3.027  -0.817   0.479  1.00  0.00     0.012 A   
ATOM     16  C11 UNL     1      -4.447   1.011  -0.283  1.00  0.00     0.045 A   
ATOM     17  C8  UNL     1      -3.800  -1.740  -0.234  1.00  0.00     0.037 A   
ATOM     18  C10 UNL     1      -5.186   0.075  -0.976  1.00  0.00     0.109 A   
ATOM     19  C9  UNL     1      -4.872  -1.261  -0.954  1.00  0.00     0.108 A   
ATOM     20  O1  UNL     1      -6.276   0.340  -1.742  1.00  0.00    -0.316 OA  
ATOM     21  O2  UNL     1      -5.725  -2.006  -1.703  1.00  0.00    -0.316 OA  
ATOM     22  C12 UNL     1      -6.634  -0.991  -2.180  1.00  0.00     0.337 C   
ENDBRANCH  13  14
ENDBRANCH  10  13
ENDBRANCH   6  10
ENDBRANCH   1   6
BRANCH   3  23
ATOM     23  C15 UNL     1       3.256  -0.439   1.943  1.00  0.00     0.094 A   
ATOM     24  C16 UNL     1       3.898  -0.122   3.153  1.00  0.00     0.035 A   
ATOM     25  C21 UNL     1       3.683  -1.559   1.228  1.00  0.00     0.146 A   
ATOM     26  C17 UNL     1       4.940  -0.925   3.652  1.00  0.00    -0.020 A   
ATOM     27  C20 UNL     1       4.728  -2.350   1.701  1.00  0.00     0.042 A   
ATOM     28  C19 UNL     1       5.357  -2.034   2.905  1.00  0.00     0.009 A   
ATOM     29  F1  UNL     1       3.117  -1.915   0.067  1.00  0.00    -0.205 F   
BRANCH  26  30
ATOM     30  C18 UNL     1       5.643  -0.579   4.941  1.00  0.00     0.191 C   
BRANCH  30  31
ATOM     31  O3  UNL     1       4.726  -0.004   5.862  1.00  0.00    -0.392 OA  
ATOM     32  H22 UNL     1       5.215   0.137   6.691  1.00  0.00     0.211 HD  
ENDBRANCH  30  31
ENDBRANCH  26  30
ENDBRANCH   3  23
TORSDOF 8
