REMARK SMILES c1ccn2ncc(Cn3cc([C@@H]([NH2+]Cc4ccc5c(c4)OCO5)C4CCCC4)nn3)c2c1
REMARK SMILES IDX 12 1 11 2 9 3 10 4 30 5 29 6 8 8 7 9 1 10 2 11 32 12 3 13
REMARK SMILES IDX 31 14 4 15 5 16 6 17 13 18 14 21 15 22 16 23 20 24 17 25
REMARK SMILES IDX 19 26 18 27 21 28 23 29 22 30 24 31 25 32 28 33 26 34 27 35
REMARK H PARENT 10 7 13 19 13 20
ROOT
ATOM     1   C9  UNL     1       1.986  -0.450  -0.837  1.00  0.00     0.117 C   
ENDROOT
BRANCH   1   2
ATOM     2   C8  UNL     1       1.188  -0.791   0.379  1.00  0.00     0.127 A   
ATOM     3   N3  UNL     1      -0.178  -1.517   1.889  1.00  0.00    -0.208 N   
ATOM     4   C7  UNL     1       0.230  -1.755   0.604  1.00  0.00     0.046 A   
ATOM     5   N6  UNL     1       0.504  -0.487   2.428  1.00  0.00    -0.076 NA  
ATOM     6   N5  UNL     1       1.335  -0.026   1.509  1.00  0.00    -0.132 NA  
ATOM     7   H7  UNL     1      -0.200  -2.537  -0.006  1.00  0.00     0.083 HD  
BRANCH   3   8
ATOM     8   C6  UNL     1      -1.173  -2.241   2.665  1.00  0.00     0.173 C   
BRANCH   8   9
ATOM     9   C5  UNL     1      -2.540  -1.767   2.336  1.00  0.00     0.015 A   
ATOM     10  C1  UNL     1      -3.799   1.372   3.945  1.00  0.00     0.003 A   
ATOM     11  C2  UNL     1      -5.112   1.354   3.323  1.00  0.00     0.018 A   
ATOM     12  C24 UNL     1      -2.885   0.415   3.694  1.00  0.00     0.026 A   
ATOM     13  C3  UNL     1      -5.414   0.353   2.479  1.00  0.00     0.102 A   
ATOM     14  C23 UNL     1      -3.207  -0.649   2.800  1.00  0.00     0.062 A   
ATOM     15  N1  UNL     1      -4.476  -0.645   2.210  1.00  0.00    -0.201 N   
ATOM     16  N2  UNL     1      -4.622  -1.712   1.382  1.00  0.00    -0.185 NA  
ATOM     17  C4  UNL     1      -3.475  -2.381   1.478  1.00  0.00     0.139 A   
ENDBRANCH   8   9
ENDBRANCH   3   8
ENDBRANCH   1   2
BRANCH   1  18
ATOM     18  N4  UNL     1       2.161   1.051  -0.918  1.00  0.00     0.249 N   
ATOM     19  H9  UNL     1       3.127   1.299  -1.152  1.00  0.00     0.199 HD  
ATOM     20  H10 UNL     1       2.013   1.402   0.043  1.00  0.00     0.199 HD  
BRANCH  18  21
ATOM     21  C10 UNL     1       1.231   1.778  -1.828  1.00  0.00     0.164 C   
BRANCH  21  22
ATOM     22  C11 UNL     1      -0.220   1.633  -1.466  1.00  0.00    -0.002 A   
ATOM     23  C12 UNL     1      -0.746   2.285  -0.325  1.00  0.00     0.012 A   
ATOM     24  C16 UNL     1      -1.065   0.826  -2.247  1.00  0.00     0.045 A   
ATOM     25  C13 UNL     1      -2.091   2.142   0.030  1.00  0.00     0.037 A   
ATOM     26  C15 UNL     1      -2.384   0.702  -1.866  1.00  0.00     0.109 A   
ATOM     27  C14 UNL     1      -2.886   1.347  -0.764  1.00  0.00     0.108 A   
ATOM     28  O1  UNL     1      -3.324  -0.040  -2.508  1.00  0.00    -0.316 OA  
ATOM     29  O2  UNL     1      -4.210   1.110  -0.582  1.00  0.00    -0.316 OA  
ATOM     30  C17 UNL     1      -4.486   0.218  -1.683  1.00  0.00     0.337 C   
ENDBRANCH  21  22
ENDBRANCH  18  21
ENDBRANCH   1  18
BRANCH   1  31
ATOM     31  C18 UNL     1       3.355  -1.157  -0.839  1.00  0.00     0.043 C   
ATOM     32  C19 UNL     1       4.353  -0.719   0.251  1.00  0.00     0.010 C   
ATOM     33  C22 UNL     1       4.129  -1.020  -2.155  1.00  0.00     0.010 C   
ATOM     34  C20 UNL     1       5.726  -0.677  -0.420  1.00  0.00     0.001 C   
ATOM     35  C21 UNL     1       5.550  -1.381  -1.756  1.00  0.00     0.001 C   
ENDBRANCH   1  31
TORSDOF 7
