REMARK SMILES Cc1nc(C)c(Cn2cc([C@@H]([NH2+]Cc3ccc4c(c3)OCO4)C3CCCC3)nn2)o1
REMARK SMILES IDX 8 1 9 2 10 3 28 4 29 5 7 7 6 8 2 9 3 10 30 11 4 12 1 13 5 14
REMARK SMILES IDX 11 15 12 16 13 19 14 20 15 21 19 22 16 23 18 24 17 25 20 26
REMARK SMILES IDX 22 27 21 28 23 29 24 30 27 31 25 32 26 33
REMARK H PARENT 9 6 12 17 12 18
ROOT
ATOM     1   N2  UNL     1       1.240   0.979  -2.865  1.00  0.00    -0.206 N   
ATOM     2   C7  UNL     1       0.232   1.660  -2.237  1.00  0.00     0.046 A   
ATOM     3   C8  UNL     1       0.253   1.174  -0.949  1.00  0.00     0.127 A   
ATOM     4   N4  UNL     1       1.257   0.245  -0.836  1.00  0.00    -0.132 NA  
ATOM     5   N5  UNL     1       1.847   0.130  -2.013  1.00  0.00    -0.076 NA  
ATOM     6   H9  UNL     1      -0.388   2.380  -2.755  1.00  0.00     0.083 HD  
ENDROOT
BRANCH   1   7
ATOM     7   C6  UNL     1       1.654   1.063  -4.255  1.00  0.00     0.197 C   
BRANCH   7   8
ATOM     8   C5  UNL     1       0.741   0.263  -5.094  1.00  0.00     0.102 A   
ATOM     9   C2  UNL     1      -0.879  -0.044  -6.486  1.00  0.00     0.145 A   
ATOM     10  N1  UNL     1      -0.476  -1.264  -6.203  1.00  0.00    -0.231 NA  
ATOM     11  O3  UNL     1      -0.193   0.942  -5.830  1.00  0.00    -0.297 OA  
ATOM     12  C3  UNL     1       0.572  -1.085  -5.333  1.00  0.00     0.068 A   
ATOM     13  C1  UNL     1      -1.955   0.392  -7.398  1.00  0.00     0.096 C   
ATOM     14  C4  UNL     1       1.317  -2.240  -4.788  1.00  0.00     0.069 C   
ENDBRANCH   7   8
ENDBRANCH   1   7
BRANCH   3  15
ATOM     15  C9  UNL     1      -0.618   1.462   0.233  1.00  0.00     0.117 C   
BRANCH  15  16
ATOM     16  N3  UNL     1      -0.655   0.265   1.144  1.00  0.00     0.249 N   
ATOM     17  H11 UNL     1       0.313  -0.088   1.207  1.00  0.00     0.199 HD  
ATOM     18  H12 UNL     1      -0.932   0.506   2.100  1.00  0.00     0.199 HD  
BRANCH  16  19
ATOM     19  C10 UNL     1      -1.497  -0.868   0.668  1.00  0.00     0.164 C   
BRANCH  19  20
ATOM     20  C11 UNL     1      -1.362  -2.043   1.594  1.00  0.00    -0.002 A   
ATOM     21  C12 UNL     1      -0.311  -2.974   1.408  1.00  0.00     0.012 A   
ATOM     22  C16 UNL     1      -2.239  -2.195   2.680  1.00  0.00     0.045 A   
ATOM     23  C13 UNL     1      -0.143  -4.051   2.285  1.00  0.00     0.037 A   
ATOM     24  C15 UNL     1      -2.044  -3.267   3.526  1.00  0.00     0.109 A   
ATOM     25  C14 UNL     1      -1.027  -4.170   3.335  1.00  0.00     0.108 A   
ATOM     26  O1  UNL     1      -2.797  -3.558   4.620  1.00  0.00    -0.316 OA  
ATOM     27  O2  UNL     1      -1.014  -5.144   4.281  1.00  0.00    -0.316 OA  
ATOM     28  C17 UNL     1      -2.153  -4.767   5.083  1.00  0.00     0.337 C   
ENDBRANCH  19  20
ENDBRANCH  16  19
ENDBRANCH  15  16
BRANCH  15  29
ATOM     29  C18 UNL     1      -0.142   2.714   0.994  1.00  0.00     0.043 C   
ATOM     30  C19 UNL     1       1.166   2.579   1.778  1.00  0.00     0.010 C   
ATOM     31  C22 UNL     1      -1.121   3.228   2.058  1.00  0.00     0.010 C   
ATOM     32  C20 UNL     1       1.181   3.841   2.628  1.00  0.00     0.001 C   
ATOM     33  C21 UNL     1      -0.279   4.091   3.000  1.00  0.00     0.001 C   
ENDBRANCH  15  29
ENDBRANCH   3  15
TORSDOF 7
