REMARK SMILES CC(C)C[C@H]([NH2+]Cc1ccc2c(c1)OCO2)c1cn(CC(=O)c2ccc(F)c(F)c2)nn1
REMARK SMILES IDX 17 1 18 2 19 3 31 4 32 5 5 7 4 8 2 9 1 10 3 11 6 12 7 15
REMARK SMILES IDX 8 16 9 17 13 18 10 19 12 20 11 21 14 22 16 23 15 24 20 25
REMARK SMILES IDX 21 26 22 27 23 28 24 29 30 30 25 31 28 32 26 33 29 34 27 35
REMARK H PARENT 18 6 6 13 6 14
ROOT
ATOM     1   C14 UNL     1      -0.779  -0.826   0.026  1.00  0.00     0.127 A   
ATOM     2   C15 UNL     1      -1.897  -0.524   0.770  1.00  0.00     0.046 A   
ATOM     3   N2  UNL     1      -2.180  -1.688   1.427  1.00  0.00    -0.204 N   
ATOM     4   N3  UNL     1      -1.262  -2.632   1.152  1.00  0.00    -0.076 NA  
ATOM     5   N4  UNL     1      -0.405  -2.122   0.284  1.00  0.00    -0.132 NA  
ATOM     6   H20 UNL     1      -2.519   0.357   0.860  1.00  0.00     0.083 HD  
ENDROOT
BRANCH   1   7
ATOM     7   C5  UNL     1       0.009  -0.001  -0.942  1.00  0.00     0.114 C   
BRANCH   7   8
ATOM     8   C4  UNL     1      -0.619  -0.068  -2.350  1.00  0.00     0.064 C   
BRANCH   8   9
ATOM     9   C2  UNL     1       0.021   0.833  -3.429  1.00  0.00    -0.012 C   
ATOM     10  C1  UNL     1      -0.719   0.642  -4.759  1.00  0.00     0.007 C   
ATOM     11  C3  UNL     1       0.009   2.313  -3.042  1.00  0.00     0.007 C   
ENDBRANCH   8   9
ENDBRANCH   7   8
BRANCH   7  12
ATOM     12  N1  UNL     1       1.433  -0.501  -1.018  1.00  0.00     0.249 N   
ATOM     13  H11 UNL     1       1.899  -0.155  -1.860  1.00  0.00     0.199 HD  
ATOM     14  H12 UNL     1       1.372  -1.526  -1.104  1.00  0.00     0.199 HD  
BRANCH  12  15
ATOM     15  C6  UNL     1       2.299  -0.203   0.162  1.00  0.00     0.164 C   
BRANCH  15  16
ATOM     16  C7  UNL     1       2.632   1.260   0.277  1.00  0.00    -0.002 A   
ATOM     17  C8  UNL     1       3.508   1.874  -0.650  1.00  0.00     0.012 A   
ATOM     18  C12 UNL     1       2.044   2.038   1.291  1.00  0.00     0.045 A   
ATOM     19  C9  UNL     1       3.787   3.243  -0.580  1.00  0.00     0.037 A   
ATOM     20  C11 UNL     1       2.342   3.384   1.335  1.00  0.00     0.109 A   
ATOM     21  C10 UNL     1       3.186   3.971   0.425  1.00  0.00     0.108 A   
ATOM     22  O1  UNL     1       1.860   4.272   2.244  1.00  0.00    -0.316 OA  
ATOM     23  O2  UNL     1       3.339   5.302   0.643  1.00  0.00    -0.316 OA  
ATOM     24  C13 UNL     1       2.530   5.483   1.826  1.00  0.00     0.337 C   
ENDBRANCH  15  16
ENDBRANCH  12  15
ENDBRANCH   7  12
ENDBRANCH   1   7
BRANCH   3  25
ATOM     25  C16 UNL     1      -3.295  -1.978   2.300  1.00  0.00     0.214 C   
BRANCH  25  26
ATOM     26  C17 UNL     1      -4.565  -2.109   1.499  1.00  0.00     0.182 C   
ATOM     27  O3  UNL     1      -5.158  -1.108   1.094  1.00  0.00    -0.292 OA  
BRANCH  26  28
ATOM     28  C18 UNL     1      -5.102  -3.459   1.156  1.00  0.00     0.022 A   
ATOM     29  C19 UNL     1      -4.313  -4.619   1.190  1.00  0.00     0.015 A   
ATOM     30  C23 UNL     1      -6.444  -3.547   0.756  1.00  0.00     0.054 A   
ATOM     31  C20 UNL     1      -4.868  -5.855   0.834  1.00  0.00     0.043 A   
ATOM     32  C22 UNL     1      -6.984  -4.782   0.408  1.00  0.00     0.159 A   
ATOM     33  C21 UNL     1      -6.201  -5.929   0.444  1.00  0.00     0.158 A   
ATOM     34  F2  UNL     1      -8.266  -4.853   0.029  1.00  0.00    -0.204 F   
ATOM     35  F1  UNL     1      -6.721  -7.115   0.103  1.00  0.00    -0.204 F   
ENDBRANCH  26  28
ENDBRANCH  25  26
ENDBRANCH   3  25
TORSDOF 9
