REMARK SMILES [O-]N([O-])c1cccc(CCn2cc([C@@H]([NH2+]Cc3ccc4c(c3)OCO4)C3CCCC3)nn2)c1
REMARK SMILES IDX 11 1 12 2 13 3 31 4 32 5 10 7 9 8 8 9 4 10 5 11 33 12 6 13
REMARK SMILES IDX 7 14 2 15 1 16 3 17 14 18 15 19 16 22 17 23 18 24 22 25
REMARK SMILES IDX 19 26 21 27 20 28 23 29 25 30 24 31 26 32 27 33 30 34 28 35
REMARK SMILES IDX 29 36
REMARK H PARENT 12 6 15 20 15 21
ROOT
ATOM     1   N2  UNL     1       0.743   2.922   1.598  1.00  0.00    -0.212 N   
ATOM     2   C8  UNL     1       1.276   2.312   0.496  1.00  0.00     0.045 A   
ATOM     3   C9  UNL     1       0.216   1.615  -0.048  1.00  0.00     0.127 A   
ATOM     4   N4  UNL     1      -0.908   1.875   0.689  1.00  0.00    -0.132 NA  
ATOM     5   N5  UNL     1      -0.572   2.663   1.698  1.00  0.00    -0.076 NA  
ATOM     6   H8  UNL     1       2.325   2.384   0.245  1.00  0.00     0.083 HD  
ENDROOT
BRANCH   1   7
ATOM     7   C7  UNL     1       1.436   3.628   2.658  1.00  0.00     0.139 C   
BRANCH   7   8
ATOM     8   C6  UNL     1       1.590   2.793   3.939  1.00  0.00     0.057 C   
BRANCH   8   9
ATOM     9   C5  UNL     1       2.495   1.593   3.759  1.00  0.00    -0.044 A   
ATOM     10  C1  UNL     1       2.877  -0.627   2.863  1.00  0.00     0.118 A   
ATOM     11  C2  UNL     1       4.218  -0.585   3.249  1.00  0.00     0.031 A   
ATOM     12  C24 UNL     1       2.005   0.429   3.151  1.00  0.00     0.035 A   
ATOM     13  C3  UNL     1       4.694   0.553   3.901  1.00  0.00     0.002 A   
ATOM     14  C4  UNL     1       3.844   1.641   4.138  1.00  0.00     0.004 A   
BRANCH  10  15
ATOM     15  N1  UNL     1       2.390  -1.735   2.048  1.00  0.00     0.092 N   
ATOM     16  O1  UNL     1       1.507  -1.472   1.204  1.00  0.00    -0.138 OA  
ATOM     17  O2  UNL     1       2.906  -2.846   2.202  1.00  0.00    -0.138 OA  
ENDBRANCH  10  15
ENDBRANCH   8   9
ENDBRANCH   7   8
ENDBRANCH   1   7
BRANCH   3  18
ATOM     18  C10 UNL     1       0.171   0.669  -1.206  1.00  0.00     0.117 C   
BRANCH  18  19
ATOM     19  N3  UNL     1      -0.242  -0.724  -0.804  1.00  0.00     0.249 N   
ATOM     20  H10 UNL     1      -0.075  -1.378  -1.575  1.00  0.00     0.199 HD  
ATOM     21  H11 UNL     1       0.403  -1.038  -0.055  1.00  0.00     0.199 HD  
BRANCH  19  22
ATOM     22  C11 UNL     1      -1.622  -0.940  -0.282  1.00  0.00     0.164 C   
BRANCH  22  23
ATOM     23  C12 UNL     1      -1.887  -2.410  -0.095  1.00  0.00    -0.002 A   
ATOM     24  C13 UNL     1      -2.404  -3.188  -1.158  1.00  0.00     0.012 A   
ATOM     25  C17 UNL     1      -1.572  -3.030   1.126  1.00  0.00     0.045 A   
ATOM     26  C14 UNL     1      -2.614  -4.564  -1.005  1.00  0.00     0.037 A   
ATOM     27  C16 UNL     1      -1.789  -4.387   1.243  1.00  0.00     0.109 A   
ATOM     28  C15 UNL     1      -2.296  -5.133   0.208  1.00  0.00     0.108 A   
ATOM     29  O3  UNL     1      -1.537  -5.136   2.348  1.00  0.00    -0.316 OA  
ATOM     30  O4  UNL     1      -2.431  -6.445   0.533  1.00  0.00    -0.316 OA  
ATOM     31  C18 UNL     1      -1.958  -6.442   1.897  1.00  0.00     0.337 C   
ENDBRANCH  22  23
ENDBRANCH  19  22
ENDBRANCH  18  19
BRANCH  18  32
ATOM     32  C19 UNL     1      -0.688   1.186  -2.375  1.00  0.00     0.043 C   
ATOM     33  C20 UNL     1      -0.155   2.488  -2.984  1.00  0.00     0.010 C   
ATOM     34  C23 UNL     1      -0.714   0.265  -3.597  1.00  0.00     0.010 C   
ATOM     35  C21 UNL     1      -0.856   2.587  -4.334  1.00  0.00     0.001 C   
ATOM     36  C22 UNL     1      -1.202   1.154  -4.736  1.00  0.00     0.001 C   
ENDBRANCH  18  32
ENDBRANCH   3  18
TORSDOF 9
