REMARK SMILES CCc1c(C)[nH]c(C(=O)n2cc([C@@H]([NH2+]Cc3ccc4c(c3)OCO4)C3CCCC3)nn2)c1C
REMARK SMILES IDX 10 1 11 2 12 3 30 4 31 5 8 6 9 7 7 8 3 9 4 10 32 11 6 12
REMARK SMILES IDX 5 13 33 14 2 16 1 17 13 18 14 19 15 22 16 23 17 24 21 25
REMARK SMILES IDX 18 26 20 27 19 28 22 29 24 30 23 31 25 32 26 33 29 34 27 35
REMARK SMILES IDX 28 36
REMARK H PARENT 6 15 14 20 14 21
ROOT
ATOM     1   N2  UNL     1       2.369  -0.474  -0.234  1.00  0.00    -0.142 N   
ATOM     2   C8  UNL     1       2.110   0.153  -1.445  1.00  0.00     0.139 A   
ATOM     3   C9  UNL     1       0.766   0.449  -1.415  1.00  0.00     0.128 A   
ATOM     4   N4  UNL     1       0.241   0.011  -0.228  1.00  0.00    -0.131 NA  
ATOM     5   N5  UNL     1       1.211  -0.555   0.473  1.00  0.00    -0.068 NA  
ENDROOT
BRANCH   1   6
ATOM     6   C7  UNL     1       3.585  -1.032   0.231  1.00  0.00     0.285 C   
ATOM     7   O1  UNL     1       4.527  -0.908  -0.549  1.00  0.00    -0.268 OA  
BRANCH   6   8
ATOM     8   C6  UNL     1       3.704  -1.716   1.517  1.00  0.00     0.099 A   
ATOM     9   C3  UNL     1       4.417  -2.921   3.324  1.00  0.00    -0.026 A   
ATOM     10  C4  UNL     1       3.122  -2.494   3.560  1.00  0.00     0.007 A   
ATOM     11  C24 UNL     1       4.793  -2.418   2.032  1.00  0.00    -0.020 A   
ATOM     12  N1  UNL     1       2.709  -1.783   2.469  1.00  0.00    -0.314 N   
ATOM     13  C5  UNL     1       2.232  -2.700   4.734  1.00  0.00     0.062 C   
ATOM     14  C25 UNL     1       6.110  -2.613   1.353  1.00  0.00     0.047 C   
ATOM     15  H9  UNL     1       1.792  -1.361   2.372  1.00  0.00     0.153 HD  
BRANCH   9  16
ATOM     16  C2  UNL     1       5.255  -3.746   4.256  1.00  0.00     0.034 C   
ATOM     17  C1  UNL     1       6.125  -2.890   5.163  1.00  0.00     0.009 C   
ENDBRANCH   9  16
ENDBRANCH   6   8
ENDBRANCH   1   6
BRANCH   3  18
ATOM     18  C10 UNL     1      -0.141   1.046  -2.447  1.00  0.00     0.117 C   
BRANCH  18  19
ATOM     19  N3  UNL     1      -1.510   0.429  -2.332  1.00  0.00     0.249 N   
ATOM     20  H12 UNL     1      -1.688   0.318  -1.322  1.00  0.00     0.199 HD  
ATOM     21  H13 UNL     1      -2.251   1.043  -2.683  1.00  0.00     0.199 HD  
BRANCH  19  22
ATOM     22  C11 UNL     1      -1.657  -0.919  -2.947  1.00  0.00     0.164 C   
BRANCH  22  23
ATOM     23  C12 UNL     1      -2.886  -1.602  -2.417  1.00  0.00    -0.002 A   
ATOM     24  C13 UNL     1      -4.135  -1.449  -3.063  1.00  0.00     0.012 A   
ATOM     25  C17 UNL     1      -2.807  -2.344  -1.225  1.00  0.00     0.045 A   
ATOM     26  C14 UNL     1      -5.293  -2.033  -2.531  1.00  0.00     0.037 A   
ATOM     27  C16 UNL     1      -3.966  -2.905  -0.729  1.00  0.00     0.109 A   
ATOM     28  C15 UNL     1      -5.176  -2.753  -1.361  1.00  0.00     0.108 A   
ATOM     29  O2  UNL     1      -4.063  -3.641   0.409  1.00  0.00    -0.316 OA  
ATOM     30  O3  UNL     1      -6.188  -3.373  -0.700  1.00  0.00    -0.316 OA  
ATOM     31  C18 UNL     1      -5.477  -3.954   0.415  1.00  0.00     0.337 C   
ENDBRANCH  22  23
ENDBRANCH  19  22
ENDBRANCH  18  19
BRANCH  18  32
ATOM     32  C19 UNL     1      -0.235   2.579  -2.325  1.00  0.00     0.043 C   
ATOM     33  C20 UNL     1      -0.944   3.248  -3.520  1.00  0.00     0.010 C   
ATOM     34  C23 UNL     1      -0.955   3.120  -1.080  1.00  0.00     0.010 C   
ATOM     35  C21 UNL     1      -1.897   4.285  -2.926  1.00  0.00     0.001 C   
ATOM     36  C22 UNL     1      -1.395   4.511  -1.510  1.00  0.00     0.001 C   
ENDBRANCH  18  32
ENDBRANCH   3  18
TORSDOF 8
