REMARK SMILES Cc1ccc2c(c1)C[C@H](Cn1cc([C@@H]([NH2+]Cc3ccc4c(c3)OCO4)C(C)(C)C)nn1)O2
REMARK SMILES IDX 11 1 12 2 13 3 30 4 31 5 10 7 9 8 2 9 3 10 7 11 4 12 6 13
REMARK SMILES IDX 5 14 8 15 32 16 1 17 14 18 15 19 16 22 17 23 18 24 22 25
REMARK SMILES IDX 19 26 21 27 20 28 23 29 25 30 24 31 26 32 27 33 28 34 29 35
REMARK H PARENT 12 6 15 20 15 21
ROOT
ATOM     1   N1  UNL     1       2.806  -0.068   0.242  1.00  0.00    -0.210 N   
ATOM     2   C11 UNL     1       1.698  -0.278   1.014  1.00  0.00     0.045 A   
ATOM     3   C12 UNL     1       0.991  -1.238   0.326  1.00  0.00     0.127 A   
ATOM     4   N3  UNL     1       1.683  -1.578  -0.809  1.00  0.00    -0.132 NA  
ATOM     5   N4  UNL     1       2.795  -0.864  -0.843  1.00  0.00    -0.076 NA  
ATOM     6   H12 UNL     1       1.514   0.276   1.924  1.00  0.00     0.083 HD  
ENDROOT
BRANCH   1   7
ATOM     7   C10 UNL     1       3.897   0.857   0.466  1.00  0.00     0.166 C   
BRANCH   7   8
ATOM     8   C9  UNL     1       3.623   2.283  -0.026  1.00  0.00     0.149 C   
ATOM     9   C2  UNL     1      -0.421   3.424  -1.980  1.00  0.00    -0.051 A   
ATOM     10  C3  UNL     1      -0.679   3.738  -0.630  1.00  0.00     0.006 A   
ATOM     11  C7  UNL     1       0.842   2.935  -2.352  1.00  0.00     0.010 A   
ATOM     12  C4  UNL     1       0.306   3.573   0.347  1.00  0.00     0.034 A   
ATOM     13  C6  UNL     1       1.809   2.787  -1.371  1.00  0.00    -0.015 A   
ATOM     14  C5  UNL     1       1.537   3.096  -0.051  1.00  0.00     0.079 A   
ATOM     15  C8  UNL     1       3.231   2.399  -1.510  1.00  0.00     0.072 C   
ATOM     16  O3  UNL     1       2.589   2.889   0.800  1.00  0.00    -0.341 OA  
ATOM     17  C1  UNL     1      -1.498   3.594  -3.013  1.00  0.00     0.044 C   
ENDBRANCH   7   8
ENDBRANCH   1   7
BRANCH   3  18
ATOM     18  C13 UNL     1      -0.359  -1.840   0.569  1.00  0.00     0.120 C   
BRANCH  18  19
ATOM     19  N2  UNL     1      -1.037  -2.032  -0.774  1.00  0.00     0.250 N   
ATOM     20  H14 UNL     1      -1.793  -2.718  -0.723  1.00  0.00     0.199 HD  
ATOM     21  H15 UNL     1      -0.316  -2.425  -1.396  1.00  0.00     0.199 HD  
BRANCH  19  22
ATOM     22  C14 UNL     1      -1.555  -0.793  -1.427  1.00  0.00     0.164 C   
BRANCH  22  23
ATOM     23  C15 UNL     1      -2.836  -0.316  -0.802  1.00  0.00    -0.002 A   
ATOM     24  C16 UNL     1      -2.828   0.780   0.093  1.00  0.00     0.012 A   
ATOM     25  C20 UNL     1      -4.047  -0.976  -1.075  1.00  0.00     0.045 A   
ATOM     26  C17 UNL     1      -4.005   1.222   0.704  1.00  0.00     0.037 A   
ATOM     27  C19 UNL     1      -5.191  -0.519  -0.452  1.00  0.00     0.109 A   
ATOM     28  C18 UNL     1      -5.171   0.551   0.409  1.00  0.00     0.108 A   
ATOM     29  O1  UNL     1      -6.435  -1.046  -0.598  1.00  0.00    -0.316 OA  
ATOM     30  O2  UNL     1      -6.400   0.835   0.911  1.00  0.00    -0.316 OA  
ATOM     31  C21 UNL     1      -7.206  -0.169   0.257  1.00  0.00     0.337 C   
ENDBRANCH  22  23
ENDBRANCH  19  22
ENDBRANCH  18  19
BRANCH  18  32
ATOM     32  C22 UNL     1      -0.329  -3.191   1.365  1.00  0.00     0.010 C   
ATOM     33  C23 UNL     1       0.384  -4.322   0.597  1.00  0.00     0.017 C   
ATOM     34  C24 UNL     1       0.390  -2.995   2.719  1.00  0.00     0.017 C   
ATOM     35  C25 UNL     1      -1.770  -3.654   1.685  1.00  0.00     0.017 C   
ENDBRANCH  18  32
ENDBRANCH   3  18
TORSDOF 7
