REMARK SMILES Cc1ccc2c(c1)C[C@@H](Cn1cc([C@@H]([NH2+]Cc3ccc4c(c3)OCO4)C(C)(C)C)nn1)O2
REMARK SMILES IDX 11 1 12 2 13 3 30 4 31 5 10 7 9 8 2 9 3 10 7 11 4 12 6 13
REMARK SMILES IDX 5 14 8 15 32 16 1 17 14 18 15 19 16 22 17 23 18 24 22 25
REMARK SMILES IDX 19 26 21 27 20 28 23 29 25 30 24 31 26 32 27 33 28 34 29 35
REMARK H PARENT 12 6 15 20 15 21
ROOT
ATOM     1   N1  UNL     1      -1.150  -0.480   2.357  1.00  0.00    -0.210 N   
ATOM     2   C11 UNL     1      -0.211   0.489   2.134  1.00  0.00     0.045 A   
ATOM     3   C12 UNL     1       0.454   0.059   1.012  1.00  0.00     0.127 A   
ATOM     4   N3  UNL     1      -0.040  -1.168   0.647  1.00  0.00    -0.132 NA  
ATOM     5   N4  UNL     1      -1.007  -1.494   1.490  1.00  0.00    -0.076 NA  
ATOM     6   H12 UNL     1      -0.137   1.372   2.753  1.00  0.00     0.083 HD  
ENDROOT
BRANCH   1   7
ATOM     7   C10 UNL     1      -2.136  -0.537   3.416  1.00  0.00     0.166 C   
BRANCH   7   8
ATOM     8   C9  UNL     1      -3.375   0.343   3.179  1.00  0.00     0.149 C   
ATOM     9   C2  UNL     1      -4.084   2.863  -0.656  1.00  0.00    -0.051 A   
ATOM     10  C3  UNL     1      -3.463   3.813   0.180  1.00  0.00     0.006 A   
ATOM     11  C7  UNL     1      -4.337   1.570  -0.170  1.00  0.00     0.010 A   
ATOM     12  C4  UNL     1      -3.071   3.476   1.478  1.00  0.00     0.034 A   
ATOM     13  C6  UNL     1      -3.947   1.256   1.125  1.00  0.00    -0.015 A   
ATOM     14  C5  UNL     1      -3.318   2.194   1.921  1.00  0.00     0.079 A   
ATOM     15  C8  UNL     1      -4.166   0.011   1.895  1.00  0.00     0.072 C   
ATOM     16  O3  UNL     1      -2.988   1.744   3.170  1.00  0.00    -0.341 OA  
ATOM     17  C1  UNL     1      -4.529   3.268  -2.025  1.00  0.00     0.044 C   
ENDBRANCH   7   8
ENDBRANCH   1   7
BRANCH   3  18
ATOM     18  C13 UNL     1       1.605   0.662   0.255  1.00  0.00     0.120 C   
BRANCH  18  19
ATOM     19  N2  UNL     1       2.510  -0.452  -0.220  1.00  0.00     0.250 N   
ATOM     20  H14 UNL     1       1.877  -1.167  -0.612  1.00  0.00     0.199 HD  
ATOM     21  H15 UNL     1       3.136  -0.156  -0.977  1.00  0.00     0.199 HD  
BRANCH  19  22
ATOM     22  C14 UNL     1       3.313  -1.130   0.846  1.00  0.00     0.164 C   
BRANCH  22  23
ATOM     23  C15 UNL     1       3.891  -2.422   0.333  1.00  0.00    -0.002 A   
ATOM     24  C16 UNL     1       3.089  -3.590   0.293  1.00  0.00     0.012 A   
ATOM     25  C20 UNL     1       5.215  -2.475  -0.137  1.00  0.00     0.045 A   
ATOM     26  C17 UNL     1       3.603  -4.797  -0.196  1.00  0.00     0.037 A   
ATOM     27  C19 UNL     1       5.696  -3.686  -0.598  1.00  0.00     0.109 A   
ATOM     28  C18 UNL     1       4.914  -4.814  -0.623  1.00  0.00     0.108 A   
ATOM     29  O1  UNL     1       6.956  -3.919  -1.057  1.00  0.00    -0.316 OA  
ATOM     30  O2  UNL     1       5.587  -5.896  -1.090  1.00  0.00    -0.316 OA  
ATOM     31  C21 UNL     1       6.897  -5.331  -1.302  1.00  0.00     0.337 C   
ENDBRANCH  22  23
ENDBRANCH  19  22
ENDBRANCH  18  19
BRANCH  18  32
ATOM     32  C22 UNL     1       1.185   1.569  -0.956  1.00  0.00     0.010 C   
ATOM     33  C23 UNL     1       0.178   2.650  -0.496  1.00  0.00     0.017 C   
ATOM     34  C24 UNL     1       2.421   2.316  -1.521  1.00  0.00     0.017 C   
ATOM     35  C25 UNL     1       0.527   0.772  -2.099  1.00  0.00     0.017 C   
ENDBRANCH  18  32
ENDBRANCH   3  18
TORSDOF 7
