REMARK SMILES CCOc1ccccc1Cn1cc([C@H](CC(C)C)[NH2+]Cc2ccc3c(c2)OCO3)nn1
REMARK SMILES IDX 11 1 12 2 13 3 30 4 31 5 10 7 9 8 4 9 5 10 6 11 8 12 7 13
REMARK SMILES IDX 3 14 2 15 1 16 14 17 15 18 16 19 17 20 18 21 19 22 20 25
REMARK SMILES IDX 21 26 22 27 26 28 23 29 25 30 24 31 27 32 29 33 28 34
REMARK H PARENT 12 6 19 23 19 24
ROOT
ATOM     1   N1  UNL     1      -1.099   1.262   0.494  1.00  0.00    -0.208 N   
ATOM     2   C10 UNL     1       0.178   0.919   0.135  1.00  0.00     0.046 A   
ATOM     3   C11 UNL     1       0.196   1.082  -1.231  1.00  0.00     0.127 A   
ATOM     4   N3  UNL     1      -1.039   1.504  -1.653  1.00  0.00    -0.132 NA  
ATOM     5   N4  UNL     1      -1.815   1.627  -0.590  1.00  0.00    -0.076 NA  
ATOM     6   H12 UNL     1       0.916   0.603   0.858  1.00  0.00     0.083 HD  
ENDROOT
BRANCH   1   7
ATOM     7   C9  UNL     1      -1.653   1.411   1.831  1.00  0.00     0.172 C   
BRANCH   7   8
ATOM     8   C8  UNL     1      -1.544   0.146   2.649  1.00  0.00     0.002 A   
ATOM     9   C3  UNL     1      -2.433  -0.925   2.446  1.00  0.00     0.080 A   
ATOM     10  C4  UNL     1      -2.320  -2.076   3.229  1.00  0.00     0.034 A   
ATOM     11  C5  UNL     1      -1.334  -2.166   4.214  1.00  0.00     0.003 A   
ATOM     12  C7  UNL     1      -0.555   0.042   3.643  1.00  0.00     0.008 A   
ATOM     13  C6  UNL     1      -0.452  -1.110   4.421  1.00  0.00     0.001 A   
BRANCH   9  14
ATOM     14  O1  UNL     1      -3.361  -0.743   1.457  1.00  0.00    -0.346 OA  
BRANCH  14  15
ATOM     15  C2  UNL     1      -4.451  -1.665   1.402  1.00  0.00     0.164 C   
ATOM     16  C1  UNL     1      -5.416  -1.172   0.338  1.00  0.00     0.035 C   
ENDBRANCH  14  15
ENDBRANCH   9  14
ENDBRANCH   7   8
ENDBRANCH   1   7
BRANCH   3  17
ATOM     17  C12 UNL     1       1.260   0.845  -2.248  1.00  0.00     0.114 C   
BRANCH  17  18
ATOM     18  C13 UNL     1       1.955   2.148  -2.691  1.00  0.00     0.064 C   
BRANCH  18  19
ATOM     19  C14 UNL     1       2.733   2.889  -1.583  1.00  0.00    -0.012 C   
ATOM     20  C15 UNL     1       3.303   4.196  -2.142  1.00  0.00     0.007 C   
ATOM     21  C16 UNL     1       3.865   2.043  -0.999  1.00  0.00     0.007 C   
ENDBRANCH  18  19
ENDBRANCH  17  18
BRANCH  17  22
ATOM     22  N2  UNL     1       0.624   0.234  -3.486  1.00  0.00     0.249 N   
ATOM     23  H23 UNL     1      -0.379   0.477  -3.433  1.00  0.00     0.199 HD  
ATOM     24  H24 UNL     1       0.971   0.691  -4.334  1.00  0.00     0.199 HD  
BRANCH  22  25
ATOM     25  C17 UNL     1       0.751  -1.240  -3.635  1.00  0.00     0.164 C   
BRANCH  25  26
ATOM     26  C18 UNL     1       0.136  -2.027  -2.513  1.00  0.00    -0.002 A   
ATOM     27  C19 UNL     1      -1.271  -2.085  -2.365  1.00  0.00     0.012 A   
ATOM     28  C23 UNL     1       0.955  -2.695  -1.586  1.00  0.00     0.045 A   
ATOM     29  C20 UNL     1      -1.854  -2.797  -1.312  1.00  0.00     0.037 A   
ATOM     30  C22 UNL     1       0.347  -3.384  -0.557  1.00  0.00     0.109 A   
ATOM     31  C21 UNL     1      -1.018  -3.435  -0.424  1.00  0.00     0.108 A   
ATOM     32  O2  UNL     1       0.992  -4.076   0.418  1.00  0.00    -0.316 OA  
ATOM     33  O3  UNL     1      -1.407  -4.173   0.649  1.00  0.00    -0.316 OA  
ATOM     34  C24 UNL     1      -0.128  -4.584   1.177  1.00  0.00     0.337 C   
ENDBRANCH  25  26
ENDBRANCH  22  25
ENDBRANCH  17  22
ENDBRANCH   3  17
TORSDOF 10
