REMARK SMILES Cc1cccc([C@H](CO)n2cc([C@H](CC(C)C)[NH2+]Cc3ccc4c(c3)OCO4)nn2)c1C
REMARK SMILES IDX 10 1 11 2 12 3 29 4 30 5 7 7 6 8 2 9 3 10 31 11 4 12 5 13
REMARK SMILES IDX 1 14 32 15 8 16 9 17 13 19 14 20 15 21 16 22 17 23 18 24
REMARK SMILES IDX 19 27 20 28 21 29 25 30 22 31 24 32 23 33 26 34 28 35 27 36
REMARK H PARENT 11 6 9 18 18 25 18 26
ROOT
ATOM     1   N1  UNL     1       1.124  -1.306   1.563  1.00  0.00    -0.202 N   
ATOM     2   C9  UNL     1       0.655  -0.041   1.331  1.00  0.00     0.046 A   
ATOM     3   C10 UNL     1       0.004  -0.136   0.125  1.00  0.00     0.127 A   
ATOM     4   N3  UNL     1       0.106  -1.418  -0.343  1.00  0.00    -0.132 NA  
ATOM     5   N4  UNL     1       0.781  -2.129   0.546  1.00  0.00    -0.075 NA  
ATOM     6   H11 UNL     1       0.840   0.778   2.013  1.00  0.00     0.083 HD  
ENDROOT
BRANCH   1   7
ATOM     7   C7  UNL     1       1.923  -1.816   2.681  1.00  0.00     0.155 C   
BRANCH   7   8
ATOM     8   C6  UNL     1       1.592  -1.087   3.990  1.00  0.00    -0.020 A   
ATOM     9   C2  UNL     1       0.197  -0.759   5.986  1.00  0.00    -0.048 A   
ATOM     10  C3  UNL     1       1.031   0.298   6.378  1.00  0.00     0.004 A   
ATOM     11  C24 UNL     1       0.453  -1.444   4.771  1.00  0.00    -0.043 A   
ATOM     12  C4  UNL     1       2.123   0.667   5.603  1.00  0.00     0.001 A   
ATOM     13  C5  UNL     1       2.402  -0.019   4.426  1.00  0.00     0.006 A   
ATOM     14  C1  UNL     1      -0.953  -1.123   6.890  1.00  0.00     0.044 C   
ATOM     15  C25 UNL     1      -0.449  -2.579   4.341  1.00  0.00     0.045 C   
ENDBRANCH   7   8
BRANCH   7  16
ATOM     16  C8  UNL     1       3.413  -1.893   2.280  1.00  0.00     0.185 C   
BRANCH  16  17
ATOM     17  O1  UNL     1       3.917  -0.663   1.748  1.00  0.00    -0.394 OA  
ATOM     18  H10 UNL     1       4.840  -0.834   1.484  1.00  0.00     0.210 HD  
ENDBRANCH  16  17
ENDBRANCH   7  16
ENDBRANCH   1   7
BRANCH   3  19
ATOM     19  C11 UNL     1      -0.668   0.907  -0.698  1.00  0.00     0.114 C   
BRANCH  19  20
ATOM     20  C12 UNL     1      -2.200   0.752  -0.716  1.00  0.00     0.064 C   
BRANCH  20  21
ATOM     21  C13 UNL     1      -2.888   0.888   0.661  1.00  0.00    -0.012 C   
ATOM     22  C14 UNL     1      -4.389   0.623   0.518  1.00  0.00     0.007 C   
ATOM     23  C15 UNL     1      -2.664   2.263   1.293  1.00  0.00     0.007 C   
ENDBRANCH  20  21
ENDBRANCH  19  20
BRANCH  19  24
ATOM     24  N2  UNL     1      -0.196   0.823  -2.129  1.00  0.00     0.249 N   
ATOM     25  H22 UNL     1      -0.363  -0.140  -2.451  1.00  0.00     0.199 HD  
ATOM     26  H23 UNL     1      -0.756   1.437  -2.730  1.00  0.00     0.199 HD  
BRANCH  24  27
ATOM     27  C16 UNL     1       1.249   1.124  -2.338  1.00  0.00     0.164 C   
BRANCH  27  28
ATOM     28  C17 UNL     1       1.554   1.242  -3.806  1.00  0.00    -0.002 A   
ATOM     29  C18 UNL     1       1.619   2.515  -4.422  1.00  0.00     0.012 A   
ATOM     30  C22 UNL     1       1.726   0.086  -4.587  1.00  0.00     0.045 A   
ATOM     31  C19 UNL     1       1.859   2.640  -5.796  1.00  0.00     0.037 A   
ATOM     32  C21 UNL     1       1.956   0.243  -5.939  1.00  0.00     0.109 A   
ATOM     33  C20 UNL     1       2.019   1.484  -6.526  1.00  0.00     0.108 A   
ATOM     34  O2  UNL     1       2.131  -0.766  -6.832  1.00  0.00    -0.316 OA  
ATOM     35  O3  UNL     1       2.246   1.412  -7.863  1.00  0.00    -0.316 OA  
ATOM     36  C23 UNL     1       2.332  -0.017  -8.053  1.00  0.00     0.337 C   
ENDBRANCH  27  28
ENDBRANCH  24  27
ENDBRANCH  19  24
ENDBRANCH   3  19
TORSDOF 10
