REMARK SMILES Cc1cccc([C@@H](CO)n2cc([C@H](CC(C)C)[NH2+]Cc3ccc4c(c3)OCO4)nn2)c1C
REMARK SMILES IDX 10 1 11 2 12 3 29 4 30 5 7 7 6 8 2 9 3 10 31 11 4 12 5 13
REMARK SMILES IDX 1 14 32 15 8 16 9 17 13 19 14 20 15 21 16 22 17 23 18 24
REMARK SMILES IDX 19 27 20 28 21 29 25 30 22 31 24 32 23 33 26 34 28 35 27 36
REMARK H PARENT 11 6 9 18 18 25 18 26
ROOT
ATOM     1   N1  UNL     1      -0.451   1.425  -0.704  1.00  0.00    -0.202 N   
ATOM     2   C9  UNL     1       0.383   0.341  -0.570  1.00  0.00     0.046 A   
ATOM     3   C10 UNL     1      -0.308  -0.511   0.262  1.00  0.00     0.127 A   
ATOM     4   N3  UNL     1      -1.483   0.084   0.643  1.00  0.00    -0.132 NA  
ATOM     5   N4  UNL     1      -1.563   1.260   0.044  1.00  0.00    -0.075 NA  
ATOM     6   H11 UNL     1       1.326   0.275  -1.093  1.00  0.00     0.083 HD  
ENDROOT
BRANCH   1   7
ATOM     7   C7  UNL     1      -0.233   2.606  -1.549  1.00  0.00     0.155 C   
BRANCH   7   8
ATOM     8   C6  UNL     1      -0.377   2.223  -3.025  1.00  0.00    -0.020 A   
ATOM     9   C2  UNL     1       0.484   2.031  -5.309  1.00  0.00    -0.048 A   
ATOM     10  C3  UNL     1      -0.722   1.425  -5.694  1.00  0.00     0.004 A   
ATOM     11  C24 UNL     1       0.656   2.464  -3.971  1.00  0.00    -0.043 A   
ATOM     12  C4  UNL     1      -1.748   1.227  -4.777  1.00  0.00     0.001 A   
ATOM     13  C5  UNL     1      -1.578   1.620  -3.455  1.00  0.00     0.006 A   
ATOM     14  C1  UNL     1       1.546   2.221  -6.362  1.00  0.00     0.044 C   
ATOM     15  C25 UNL     1       1.934   3.153  -3.548  1.00  0.00     0.045 C   
ENDBRANCH   7   8
BRANCH   7  16
ATOM     16  C8  UNL     1      -1.120   3.813  -1.188  1.00  0.00     0.185 C   
BRANCH  16  17
ATOM     17  O1  UNL     1      -0.671   4.412   0.029  1.00  0.00    -0.394 OA  
ATOM     18  H10 UNL     1      -1.316   5.114   0.250  1.00  0.00     0.210 HD  
ENDBRANCH  16  17
ENDBRANCH   7  16
ENDBRANCH   1   7
BRANCH   3  19
ATOM     19  C11 UNL     1       0.036  -1.855   0.814  1.00  0.00     0.114 C   
BRANCH  19  20
ATOM     20  C12 UNL     1      -0.732  -2.991   0.115  1.00  0.00     0.064 C   
BRANCH  20  21
ATOM     21  C13 UNL     1      -0.448  -3.139  -1.396  1.00  0.00    -0.012 C   
ATOM     22  C14 UNL     1      -1.353  -4.226  -1.983  1.00  0.00     0.007 C   
ATOM     23  C15 UNL     1       1.018  -3.475  -1.685  1.00  0.00     0.007 C   
ENDBRANCH  20  21
ENDBRANCH  19  20
BRANCH  19  24
ATOM     24  N2  UNL     1      -0.342  -1.887   2.276  1.00  0.00     0.249 N   
ATOM     25  H22 UNL     1      -1.263  -1.423   2.347  1.00  0.00     0.199 HD  
ATOM     26  H23 UNL     1      -0.478  -2.843   2.622  1.00  0.00     0.199 HD  
BRANCH  24  27
ATOM     27  C16 UNL     1       0.595  -1.161   3.177  1.00  0.00     0.164 C   
BRANCH  27  28
ATOM     28  C17 UNL     1      -0.012  -0.952   4.535  1.00  0.00    -0.002 A   
ATOM     29  C18 UNL     1      -0.873   0.151   4.758  1.00  0.00     0.012 A   
ATOM     30  C22 UNL     1       0.234  -1.861   5.578  1.00  0.00     0.045 A   
ATOM     31  C19 UNL     1      -1.463   0.361   6.010  1.00  0.00     0.037 A   
ATOM     32  C21 UNL     1      -0.359  -1.620   6.802  1.00  0.00     0.109 A   
ATOM     33  C20 UNL     1      -1.181  -0.540   7.013  1.00  0.00     0.108 A   
ATOM     34  O2  UNL     1      -0.225  -2.393   7.911  1.00  0.00    -0.316 OA  
ATOM     35  O3  UNL     1      -1.655  -0.490   8.286  1.00  0.00    -0.316 OA  
ATOM     36  C23 UNL     1      -0.990  -1.629   8.871  1.00  0.00     0.337 C   
ENDBRANCH  27  28
ENDBRANCH  24  27
ENDBRANCH  19  24
ENDBRANCH   3  19
TORSDOF 10
