REMARK SMILES CC(C)[C@H]([NH2+]Cc1ccc2c(c1)OCO2)c1cn([C@@H](CO)c2cccnc2)nn1
REMARK SMILES IDX 16 1 17 2 18 3 28 4 29 5 4 7 2 8 1 9 3 10 5 11 6 14 7 15
REMARK SMILES IDX 8 16 12 17 9 18 11 19 10 20 13 21 15 22 14 23 19 24 20 25
REMARK SMILES IDX 21 26 22 28 23 29 27 30 24 31 26 32 25 33
REMARK H PARENT 17 6 5 12 5 13 21 27
ROOT
ATOM     1   C13 UNL     1      -0.059  -0.102  -0.013  1.00  0.00     0.127 A   
ATOM     2   C14 UNL     1      -0.388  -0.300   1.308  1.00  0.00     0.046 A   
ATOM     3   N2  UNL     1      -1.528   0.438   1.488  1.00  0.00    -0.202 N   
ATOM     4   N4  UNL     1      -1.903   1.018   0.327  1.00  0.00    -0.075 NA  
ATOM     5   N5  UNL     1      -1.005   0.706  -0.593  1.00  0.00    -0.132 NA  
ATOM     6   H18 UNL     1       0.070  -0.861   2.113  1.00  0.00     0.083 HD  
ENDROOT
BRANCH   1   7
ATOM     7   C4  UNL     1       1.082  -0.621  -0.830  1.00  0.00     0.117 C   
BRANCH   7   8
ATOM     8   C2  UNL     1       2.401   0.147  -0.544  1.00  0.00     0.037 C   
ATOM     9   C1  UNL     1       3.619  -0.587  -1.117  1.00  0.00     0.014 C   
ATOM     10  C3  UNL     1       2.392   1.600  -1.035  1.00  0.00     0.014 C   
ENDBRANCH   7   8
BRANCH   7  11
ATOM     11  N1  UNL     1       0.748  -0.553  -2.296  1.00  0.00     0.249 N   
ATOM     12  H9  UNL     1       0.286   0.357  -2.449  1.00  0.00     0.199 HD  
ATOM     13  H10 UNL     1       1.584  -0.553  -2.886  1.00  0.00     0.199 HD  
BRANCH  11  14
ATOM     14  C5  UNL     1      -0.190  -1.603  -2.781  1.00  0.00     0.164 C   
BRANCH  14  15
ATOM     15  C6  UNL     1      -0.588  -1.327  -4.203  1.00  0.00    -0.002 A   
ATOM     16  C7  UNL     1      -1.726  -0.532  -4.478  1.00  0.00     0.012 A   
ATOM     17  C11 UNL     1       0.203  -1.798  -5.266  1.00  0.00     0.045 A   
ATOM     18  C8  UNL     1      -2.086  -0.223  -5.794  1.00  0.00     0.037 A   
ATOM     19  C10 UNL     1      -0.178  -1.471  -6.552  1.00  0.00     0.109 A   
ATOM     20  C9  UNL     1      -1.290  -0.708  -6.809  1.00  0.00     0.108 A   
ATOM     21  O1  UNL     1       0.478  -1.834  -7.686  1.00  0.00    -0.316 OA  
ATOM     22  O2  UNL     1      -1.481  -0.502  -8.138  1.00  0.00    -0.316 OA  
ATOM     23  C12 UNL     1      -0.365  -1.231  -8.694  1.00  0.00     0.337 C   
ENDBRANCH  14  15
ENDBRANCH  11  14
ENDBRANCH   7  11
ENDBRANCH   1   7
BRANCH   3  24
ATOM     24  C15 UNL     1      -2.298   0.668   2.710  1.00  0.00     0.157 C   
BRANCH  24  25
ATOM     25  C16 UNL     1      -3.150  -0.560   3.088  1.00  0.00     0.186 C   
BRANCH  25  26
ATOM     26  O3  UNL     1      -2.374  -1.746   3.261  1.00  0.00    -0.394 OA  
ATOM     27  H22 UNL     1      -2.981  -2.441   3.579  1.00  0.00     0.210 HD  
ENDBRANCH  25  26
ENDBRANCH  24  25
BRANCH  24  28
ATOM     28  C17 UNL     1      -1.409   1.245   3.795  1.00  0.00    -0.005 A   
ATOM     29  C18 UNL     1      -1.141   2.623   3.826  1.00  0.00     0.009 A   
ATOM     30  C21 UNL     1      -0.790   0.467   4.769  1.00  0.00     0.116 A   
ATOM     31  C19 UNL     1      -0.305   3.153   4.804  1.00  0.00     0.020 A   
ATOM     32  N3  UNL     1       0.035   0.956   5.722  1.00  0.00    -0.264 NA  
ATOM     33  C20 UNL     1       0.254   2.287   5.725  1.00  0.00     0.111 A   
ENDBRANCH  24  28
ENDBRANCH   3  24
TORSDOF 9
