REMARK SMILES CC(C)[C@H]([NH2+]Cc1ccc2c(c1)OCO2)c1cn([C@H](CO)c2cccnc2)nn1
REMARK SMILES IDX 16 1 17 2 18 3 28 4 29 5 4 7 2 8 1 9 3 10 5 11 6 14 7 15
REMARK SMILES IDX 8 16 12 17 9 18 11 19 10 20 13 21 15 22 14 23 19 24 20 25
REMARK SMILES IDX 21 26 22 28 23 29 27 30 24 31 26 32 25 33
REMARK H PARENT 17 6 5 12 5 13 21 27
ROOT
ATOM     1   C13 UNL     1      -0.122  -0.265  -1.421  1.00  0.00     0.127 A   
ATOM     2   C14 UNL     1       0.739  -1.337  -1.369  1.00  0.00     0.046 A   
ATOM     3   N2  UNL     1       1.903  -0.810  -0.875  1.00  0.00    -0.202 N   
ATOM     4   N4  UNL     1       1.755   0.506  -0.617  1.00  0.00    -0.075 NA  
ATOM     5   N5  UNL     1       0.522   0.850  -0.951  1.00  0.00    -0.132 NA  
ATOM     6   H18 UNL     1       0.644  -2.385  -1.620  1.00  0.00     0.083 HD  
ENDROOT
BRANCH   1   7
ATOM     7   C4  UNL     1      -1.561  -0.177  -1.811  1.00  0.00     0.117 C   
BRANCH   7   8
ATOM     8   C2  UNL     1      -1.798   0.225  -3.291  1.00  0.00     0.037 C   
ATOM     9   C1  UNL     1      -1.277  -0.845  -4.258  1.00  0.00     0.014 C   
ATOM     10  C3  UNL     1      -1.220   1.593  -3.672  1.00  0.00     0.014 C   
ENDBRANCH   7   8
BRANCH   7  11
ATOM     11  N1  UNL     1      -2.267   0.818  -0.922  1.00  0.00     0.249 N   
ATOM     12  H9  UNL     1      -3.143   1.145  -1.341  1.00  0.00     0.199 HD  
ATOM     13  H10 UNL     1      -1.650   1.642  -0.849  1.00  0.00     0.199 HD  
BRANCH  11  14
ATOM     14  C5  UNL     1      -2.533   0.347   0.468  1.00  0.00     0.164 C   
BRANCH  14  15
ATOM     15  C6  UNL     1      -3.203   1.426   1.266  1.00  0.00    -0.002 A   
ATOM     16  C7  UNL     1      -4.612   1.459   1.392  1.00  0.00     0.012 A   
ATOM     17  C11 UNL     1      -2.430   2.448   1.847  1.00  0.00     0.045 A   
ATOM     18  C8  UNL     1      -5.246   2.490   2.096  1.00  0.00     0.037 A   
ATOM     19  C10 UNL     1      -3.087   3.450   2.531  1.00  0.00     0.109 A   
ATOM     20  C9  UNL     1      -4.455   3.471   2.652  1.00  0.00     0.108 A   
ATOM     21  O1  UNL     1      -2.496   4.510   3.141  1.00  0.00    -0.316 OA  
ATOM     22  O2  UNL     1      -4.897   4.544   3.358  1.00  0.00    -0.316 OA  
ATOM     23  C12 UNL     1      -3.649   5.198   3.676  1.00  0.00     0.337 C   
ENDBRANCH  14  15
ENDBRANCH  11  14
ENDBRANCH   7  11
ENDBRANCH   1   7
BRANCH   3  24
ATOM     24  C15 UNL     1       3.148  -1.494  -0.525  1.00  0.00     0.157 C   
BRANCH  24  25
ATOM     25  C16 UNL     1       3.918  -1.943  -1.784  1.00  0.00     0.186 C   
BRANCH  25  26
ATOM     26  O3  UNL     1       3.175  -2.843  -2.607  1.00  0.00    -0.394 OA  
ATOM     27  H22 UNL     1       3.753  -3.089  -3.354  1.00  0.00     0.210 HD  
ENDBRANCH  25  26
ENDBRANCH  24  25
BRANCH  24  28
ATOM     28  C17 UNL     1       2.881  -2.535   0.548  1.00  0.00    -0.005 A   
ATOM     29  C18 UNL     1       2.882  -3.918   0.328  1.00  0.00     0.009 A   
ATOM     30  C21 UNL     1       2.581  -2.107   1.844  1.00  0.00     0.116 A   
ATOM     31  C19 UNL     1       2.597  -4.791   1.378  1.00  0.00     0.020 A   
ATOM     32  N3  UNL     1       2.284  -2.930   2.873  1.00  0.00    -0.264 NA  
ATOM     33  C20 UNL     1       2.306  -4.254   2.622  1.00  0.00     0.111 A   
ENDBRANCH  24  28
ENDBRANCH   3  24
TORSDOF 9
