REMARK SMILES CC(C)C[C@H]([NH2+]Cc1ccc2c(c1)OCO2)c1cn(Cc2nc3ccccc3o2)nn1
REMARK SMILES IDX 5 1 4 2 2 3 1 4 3 5 6 6 7 9 8 10 9 11 13 12 10 13 12 14
REMARK SMILES IDX 11 15 14 16 16 17 15 18 17 19 18 20 31 21 19 22 30 23 20 25
REMARK SMILES IDX 21 26 22 27 29 28 23 29 28 30 24 31 27 32 25 33 26 34
REMARK H PARENT 6 7 6 8 18 24
ROOT
ATOM     1   C5  UNL     1      -1.090  -1.910  -0.262  1.00  0.00     0.114 C   
ENDROOT
BRANCH   1   2
ATOM     2   C4  UNL     1      -2.176  -2.939   0.112  1.00  0.00     0.064 C   
BRANCH   2   3
ATOM     3   C2  UNL     1      -1.691  -4.371   0.423  1.00  0.00    -0.012 C   
ATOM     4   C1  UNL     1      -2.898  -5.268   0.715  1.00  0.00     0.007 C   
ATOM     5   C3  UNL     1      -0.863  -4.973  -0.712  1.00  0.00     0.007 C   
ENDBRANCH   2   3
ENDBRANCH   1   2
BRANCH   1   6
ATOM     6   N1  UNL     1      -0.127  -1.759   0.884  1.00  0.00     0.249 N   
ATOM     7   H11 UNL     1      -0.605  -1.196   1.604  1.00  0.00     0.199 HD  
ATOM     8   H12 UNL     1       0.099  -2.656   1.321  1.00  0.00     0.199 HD  
BRANCH   6   9
ATOM     9   C6  UNL     1       1.145  -1.060   0.550  1.00  0.00     0.164 C   
BRANCH   9  10
ATOM     10  C7  UNL     1       1.999  -0.909   1.777  1.00  0.00    -0.002 A   
ATOM     11  C8  UNL     1       1.915   0.268   2.560  1.00  0.00     0.012 A   
ATOM     12  C12 UNL     1       2.847  -1.953   2.184  1.00  0.00     0.045 A   
ATOM     13  C9  UNL     1       2.678   0.410   3.725  1.00  0.00     0.037 A   
ATOM     14  C11 UNL     1       3.583  -1.780   3.338  1.00  0.00     0.109 A   
ATOM     15  C10 UNL     1       3.502  -0.632   4.086  1.00  0.00     0.108 A   
ATOM     16  O1  UNL     1       4.445  -2.687   3.869  1.00  0.00    -0.316 OA  
ATOM     17  O2  UNL     1       4.308  -0.667   5.179  1.00  0.00    -0.316 OA  
ATOM     18  C13 UNL     1       4.914  -1.969   5.034  1.00  0.00     0.337 C   
ENDBRANCH   9  10
ENDBRANCH   6   9
ENDBRANCH   1   6
BRANCH   1  19
ATOM     19  C14 UNL     1      -1.704  -0.586  -0.588  1.00  0.00     0.127 A   
ATOM     20  C15 UNL     1      -2.108  -0.042  -1.785  1.00  0.00     0.046 A   
ATOM     21  N5  UNL     1      -1.890   0.335   0.411  1.00  0.00    -0.132 NA  
ATOM     22  N2  UNL     1      -2.502   1.229  -1.456  1.00  0.00    -0.204 N   
ATOM     23  N4  UNL     1      -2.376   1.439  -0.131  1.00  0.00    -0.075 NA  
ATOM     24  H20 UNL     1      -2.121  -0.402  -2.805  1.00  0.00     0.083 HD  
BRANCH  22  25
ATOM     25  C16 UNL     1      -2.999   2.272  -2.332  1.00  0.00     0.217 C   
BRANCH  25  26
ATOM     26  C17 UNL     1      -1.862   2.911  -3.032  1.00  0.00     0.168 A   
ATOM     27  N3  UNL     1      -0.997   2.366  -3.870  1.00  0.00    -0.224 NA  
ATOM     28  O3  UNL     1      -1.673   4.248  -2.798  1.00  0.00    -0.292 OA  
ATOM     29  C18 UNL     1      -0.182   3.416  -4.220  1.00  0.00     0.097 A   
ATOM     30  C23 UNL     1      -0.590   4.567  -3.564  1.00  0.00     0.109 A   
ATOM     31  C19 UNL     1       0.921   3.481  -5.080  1.00  0.00     0.031 A   
ATOM     32  C22 UNL     1       0.019   5.809  -3.689  1.00  0.00     0.036 A   
ATOM     33  C20 UNL     1       1.565   4.719  -5.236  1.00  0.00     0.002 A   
ATOM     34  C21 UNL     1       1.121   5.858  -4.552  1.00  0.00     0.003 A   
ENDBRANCH  25  26
ENDBRANCH  22  25
ENDBRANCH   1  19
TORSDOF 8
