REMARK SMILES CC(C)C[C@H]([NH2+]Cc1ccc2c(c1)OCO2)c1cn(Cc2cccnc2F)nn1
REMARK SMILES IDX 17 1 18 2 19 3 28 4 29 5 5 7 4 8 2 9 1 10 3 11 6 12 7 15
REMARK SMILES IDX 8 16 9 17 13 18 10 19 12 20 11 21 14 22 16 23 15 24 20 25
REMARK SMILES IDX 21 26 22 27 26 28 23 29 25 30 24 31 27 32
REMARK H PARENT 18 6 6 13 6 14
ROOT
ATOM     1   C14 UNL     1      -0.561  -0.996   0.604  1.00  0.00     0.127 A   
ATOM     2   C15 UNL     1       0.259  -1.934   1.191  1.00  0.00     0.046 A   
ATOM     3   N2  UNL     1      -0.486  -3.081   1.174  1.00  0.00    -0.208 N   
ATOM     4   N4  UNL     1      -1.695  -2.860   0.623  1.00  0.00    -0.076 NA  
ATOM     5   N5  UNL     1      -1.751  -1.587   0.266  1.00  0.00    -0.132 NA  
ATOM     6   H20 UNL     1       1.268  -1.903   1.580  1.00  0.00     0.083 HD  
ENDROOT
BRANCH   1   7
ATOM     7   C5  UNL     1      -0.323   0.438   0.249  1.00  0.00     0.114 C   
BRANCH   7   8
ATOM     8   C4  UNL     1      -0.961   1.407   1.260  1.00  0.00     0.064 C   
BRANCH   8   9
ATOM     9   C2  UNL     1      -0.380   1.330   2.690  1.00  0.00    -0.012 C   
ATOM     10  C1  UNL     1      -1.152   2.280   3.611  1.00  0.00     0.007 C   
ATOM     11  C3  UNL     1       1.110   1.673   2.731  1.00  0.00     0.007 C   
ENDBRANCH   8   9
ENDBRANCH   7   8
BRANCH   7  12
ATOM     12  N1  UNL     1      -0.933   0.667  -1.119  1.00  0.00     0.249 N   
ATOM     13  H11 UNL     1      -0.605  -0.103  -1.715  1.00  0.00     0.199 HD  
ATOM     14  H12 UNL     1      -1.945   0.500  -1.033  1.00  0.00     0.199 HD  
BRANCH  12  15
ATOM     15  C6  UNL     1      -0.670   1.949  -1.821  1.00  0.00     0.164 C   
BRANCH  15  16
ATOM     16  C7  UNL     1       0.792   2.208  -2.052  1.00  0.00    -0.002 A   
ATOM     17  C8  UNL     1       1.503   1.476  -3.034  1.00  0.00     0.012 A   
ATOM     18  C12 UNL     1       1.474   3.153  -1.266  1.00  0.00     0.045 A   
ATOM     19  C9  UNL     1       2.874   1.678  -3.228  1.00  0.00     0.037 A   
ATOM     20  C11 UNL     1       2.826   3.325  -1.482  1.00  0.00     0.109 A   
ATOM     21  C10 UNL     1       3.507   2.608  -2.434  1.00  0.00     0.108 A   
ATOM     22  O1  UNL     1       3.630   4.186  -0.804  1.00  0.00    -0.316 OA  
ATOM     23  O2  UNL     1       4.825   2.930  -2.479  1.00  0.00    -0.316 OA  
ATOM     24  C13 UNL     1       4.896   3.953  -1.463  1.00  0.00     0.337 C   
ENDBRANCH  15  16
ENDBRANCH  12  15
ENDBRANCH   7  12
ENDBRANCH   1   7
BRANCH   3  25
ATOM     25  C16 UNL     1      -0.111  -4.407   1.639  1.00  0.00     0.174 C   
BRANCH  25  26
ATOM     26  C17 UNL     1       0.346  -5.269   0.503  1.00  0.00     0.027 A   
ATOM     27  C18 UNL     1      -0.444  -6.299  -0.015  1.00  0.00     0.012 A   
ATOM     28  C21 UNL     1       1.581  -5.050  -0.096  1.00  0.00     0.217 A   
ATOM     29  C19 UNL     1       0.030  -7.054  -1.085  1.00  0.00     0.021 A   
ATOM     30  N3  UNL     1       2.060  -5.754  -1.140  1.00  0.00    -0.228 NA  
ATOM     31  C20 UNL     1       1.276  -6.748  -1.607  1.00  0.00     0.114 A   
ATOM     32  F1  UNL     1       2.356  -4.060   0.375  1.00  0.00    -0.185 F   
ENDBRANCH  25  26
ENDBRANCH   3  25
TORSDOF 8
