REMARK SMILES Clc1cc(Cn2cc([C@@H]([NH2+]Cc3ccc4c(c3)OCO4)C3CCCCC3)nn2)ccn1
REMARK SMILES IDX 6 1 7 2 8 3 27 4 28 5 5 7 4 8 2 9 3 10 31 11 30 12 29 13
REMARK SMILES IDX 1 14 9 15 10 16 11 19 12 20 13 21 17 22 14 23 16 24 15 25
REMARK SMILES IDX 18 26 20 27 19 28 21 29 22 30 26 31 23 32 25 33 24 34
REMARK H PARENT 7 6 10 17 10 18
ROOT
ATOM     1   N1  UNL     1      -2.248   2.562  -1.524  1.00  0.00    -0.208 N   
ATOM     2   C5  UNL     1      -1.950   1.570  -0.631  1.00  0.00     0.046 A   
ATOM     3   C6  UNL     1      -0.580   1.643  -0.495  1.00  0.00     0.127 A   
ATOM     4   N3  UNL     1      -0.104   2.647  -1.299  1.00  0.00    -0.132 NA  
ATOM     5   N4  UNL     1      -1.131   3.205  -1.915  1.00  0.00    -0.076 NA  
ATOM     6   H4  UNL     1      -2.708   0.935  -0.195  1.00  0.00     0.083 HD  
ENDROOT
BRANCH   1   7
ATOM     7   C4  UNL     1      -3.549   2.950  -2.050  1.00  0.00     0.169 C   
BRANCH   7   8
ATOM     8   C3  UNL     1      -3.741   2.446  -3.458  1.00  0.00    -0.024 A   
ATOM     9   C1  UNL     1      -3.344   2.611  -5.812  1.00  0.00     0.129 A   
ATOM     10  C2  UNL     1      -3.173   3.131  -4.540  1.00  0.00     0.046 A   
ATOM     11  N5  UNL     1      -4.024   1.481  -6.084  1.00  0.00    -0.245 NA  
ATOM     12  C23 UNL     1      -4.576   0.842  -5.035  1.00  0.00     0.113 A   
ATOM     13  C22 UNL     1      -4.461   1.275  -3.721  1.00  0.00     0.025 A   
ATOM     14  CL1 UNL     1      -2.653   3.382  -7.177  1.00  0.00    -0.062 Cl  
ENDBRANCH   7   8
ENDBRANCH   1   7
BRANCH   3  15
ATOM     15  C7  UNL     1       0.395   0.825   0.294  1.00  0.00     0.117 C   
BRANCH  15  16
ATOM     16  N2  UNL     1       1.729   0.810  -0.425  1.00  0.00     0.249 N   
ATOM     17  H6  UNL     1       2.497   0.616   0.225  1.00  0.00     0.199 HD  
ATOM     18  H7  UNL     1       1.870   1.768  -0.781  1.00  0.00     0.199 HD  
BRANCH  16  19
ATOM     19  C8  UNL     1       1.828  -0.114  -1.593  1.00  0.00     0.164 C   
BRANCH  19  20
ATOM     20  C9  UNL     1       2.049  -1.540  -1.168  1.00  0.00    -0.002 A   
ATOM     21  C10 UNL     1       0.980  -2.471  -1.178  1.00  0.00     0.012 A   
ATOM     22  C14 UNL     1       3.318  -1.953  -0.726  1.00  0.00     0.045 A   
ATOM     23  C11 UNL     1       1.169  -3.785  -0.743  1.00  0.00     0.037 A   
ATOM     24  C13 UNL     1       3.470  -3.258  -0.307  1.00  0.00     0.109 A   
ATOM     25  C12 UNL     1       2.424  -4.150  -0.315  1.00  0.00     0.108 A   
ATOM     26  O1  UNL     1       4.621  -3.813   0.153  1.00  0.00    -0.316 OA  
ATOM     27  O2  UNL     1       2.788  -5.378   0.137  1.00  0.00    -0.316 OA  
ATOM     28  C15 UNL     1       4.192  -5.174   0.399  1.00  0.00     0.337 C   
ENDBRANCH  19  20
ENDBRANCH  16  19
ENDBRANCH  15  16
BRANCH  15  29
ATOM     29  C16 UNL     1       0.628   1.325   1.743  1.00  0.00     0.043 C   
ATOM     30  C17 UNL     1       1.134   2.779   1.838  1.00  0.00     0.010 C   
ATOM     31  C21 UNL     1      -0.627   1.141   2.616  1.00  0.00     0.010 C   
ATOM     32  C18 UNL     1       1.376   3.197   3.288  1.00  0.00     0.001 C   
ATOM     33  C20 UNL     1      -0.373   1.556   4.064  1.00  0.00     0.001 C   
ATOM     34  C19 UNL     1       0.136   2.991   4.151  1.00  0.00     0.000 C   
ENDBRANCH  15  29
ENDBRANCH   3  15
TORSDOF 7
