REMARK SMILES CN1CCc2cc(Cn3cc([C@@H]([NH2+]Cc4ccc5c(c4)OCO5)C(C)(C)C)nn3)ccc21
REMARK SMILES IDX 9 1 10 2 11 3 28 4 29 5 8 7 7 8 2 9 3 10 32 11 4 12 5 13
REMARK SMILES IDX 31 14 6 15 30 16 1 17 12 18 13 19 14 22 15 23 16 24 20 25
REMARK SMILES IDX 17 26 19 27 18 28 21 29 23 30 22 31 24 32 25 33 26 34 27 35
REMARK H PARENT 10 6 13 20 13 21
ROOT
ATOM     1   N2  UNL     1       0.362  -0.787  -2.097  1.00  0.00    -0.208 N   
ATOM     2   C8  UNL     1       1.122  -0.147  -1.155  1.00  0.00     0.046 A   
ATOM     3   C9  UNL     1       1.224  -1.064  -0.134  1.00  0.00     0.127 A   
ATOM     4   N4  UNL     1       0.598  -2.226  -0.506  1.00  0.00    -0.132 NA  
ATOM     5   N5  UNL     1       0.073  -2.044  -1.707  1.00  0.00    -0.076 NA  
ATOM     6   H11 UNL     1       1.428   0.885  -1.260  1.00  0.00     0.083 HD  
ENDROOT
BRANCH   1   7
ATOM     7   C7  UNL     1      -0.270  -0.207  -3.272  1.00  0.00     0.169 C   
BRANCH   7   8
ATOM     8   C6  UNL     1      -1.308   0.803  -2.839  1.00  0.00    -0.028 A   
ATOM     9   N1  UNL     1      -3.950   3.695  -1.331  1.00  0.00    -0.333 N   
ATOM     10  C2  UNL     1      -3.357   4.883  -1.980  1.00  0.00     0.110 C   
ATOM     11  C25 UNL     1      -3.178   2.627  -1.828  1.00  0.00     0.032 A   
ATOM     12  C3  UNL     1      -1.889   4.546  -2.290  1.00  0.00     0.056 C   
ATOM     13  C4  UNL     1      -1.972   3.059  -2.387  1.00  0.00    -0.025 A   
ATOM     14  C24 UNL     1      -3.465   1.275  -1.777  1.00  0.00     0.024 A   
ATOM     15  C5  UNL     1      -1.031   2.176  -2.894  1.00  0.00     0.011 A   
ATOM     16  C23 UNL     1      -2.534   0.364  -2.290  1.00  0.00     0.007 A   
ATOM     17  C1  UNL     1      -5.400   3.557  -1.403  1.00  0.00     0.130 C   
ENDBRANCH   7   8
ENDBRANCH   1   7
BRANCH   3  18
ATOM     18  C10 UNL     1       1.740  -0.911   1.263  1.00  0.00     0.120 C   
BRANCH  18  19
ATOM     19  N3  UNL     1       0.749  -1.543   2.223  1.00  0.00     0.250 N   
ATOM     20  H13 UNL     1       1.134  -1.594   3.167  1.00  0.00     0.199 HD  
ATOM     21  H14 UNL     1       0.605  -2.507   1.893  1.00  0.00     0.199 HD  
BRANCH  19  22
ATOM     22  C11 UNL     1      -0.606  -0.906   2.291  1.00  0.00     0.164 C   
BRANCH  22  23
ATOM     23  C12 UNL     1      -0.576   0.506   2.803  1.00  0.00    -0.002 A   
ATOM     24  C13 UNL     1      -0.926   1.581   1.950  1.00  0.00     0.012 A   
ATOM     25  C17 UNL     1      -0.192   0.773   4.129  1.00  0.00     0.045 A   
ATOM     26  C14 UNL     1      -0.885   2.904   2.404  1.00  0.00     0.037 A   
ATOM     27  C16 UNL     1      -0.159   2.089   4.543  1.00  0.00     0.109 A   
ATOM     28  C15 UNL     1      -0.495   3.126   3.706  1.00  0.00     0.108 A   
ATOM     29  O1  UNL     1       0.192   2.514   5.784  1.00  0.00    -0.316 OA  
ATOM     30  O2  UNL     1      -0.398   4.336   4.317  1.00  0.00    -0.316 OA  
ATOM     31  C18 UNL     1       0.001   3.942   5.648  1.00  0.00     0.337 C   
ENDBRANCH  22  23
ENDBRANCH  19  22
ENDBRANCH  18  19
BRANCH  18  32
ATOM     32  C19 UNL     1       3.177  -1.498   1.491  1.00  0.00     0.010 C   
ATOM     33  C20 UNL     1       3.682  -1.133   2.907  1.00  0.00     0.017 C   
ATOM     34  C21 UNL     1       4.168  -0.873   0.483  1.00  0.00     0.017 C   
ATOM     35  C22 UNL     1       3.236  -3.030   1.340  1.00  0.00     0.017 C   
ENDBRANCH  18  32
ENDBRANCH   3  18
TORSDOF 7
