REMARK SMILES c1cc(CCn2cc([C@@H]([NH2+]Cc3ccc4c(c3)OCO4)C3CCCC3)nn2)ccn1
REMARK SMILES IDX 6 1 7 2 8 3 26 4 27 5 5 7 4 8 3 9 1 10 2 11 30 12 29 13
REMARK SMILES IDX 28 14 9 15 10 16 11 19 12 20 13 21 17 22 14 23 16 24 15 25
REMARK SMILES IDX 18 26 20 27 19 28 21 29 22 30 25 31 23 32 24 33
REMARK H PARENT 7 6 10 17 10 18
ROOT
ATOM     1   N1  UNL     1       2.071  -2.274  -0.396  1.00  0.00    -0.212 N   
ATOM     2   C6  UNL     1       0.906  -2.097  -1.090  1.00  0.00     0.045 A   
ATOM     3   C7  UNL     1       0.850  -0.737  -1.296  1.00  0.00     0.127 A   
ATOM     4   N3  UNL     1       1.980  -0.155  -0.781  1.00  0.00    -0.132 NA  
ATOM     5   N4  UNL     1       2.723  -1.108  -0.240  1.00  0.00    -0.076 NA  
ATOM     6   H7  UNL     1       0.225  -2.910  -1.300  1.00  0.00     0.083 HD  
ENDROOT
BRANCH   1   7
ATOM     7   C5  UNL     1       2.525  -3.477   0.273  1.00  0.00     0.139 C   
BRANCH   7   8
ATOM     8   C4  UNL     1       2.470  -3.377   1.804  1.00  0.00     0.057 C   
BRANCH   8   9
ATOM     9   C3  UNL     1       1.149  -2.867   2.336  1.00  0.00    -0.043 A   
ATOM     10  C1  UNL     1      -1.235  -2.971   2.521  1.00  0.00     0.111 A   
ATOM     11  C2  UNL     1      -0.048  -3.549   2.099  1.00  0.00     0.024 A   
ATOM     12  N5  UNL     1      -1.307  -1.778   3.151  1.00  0.00    -0.265 NA  
ATOM     13  C23 UNL     1      -0.136  -1.181   3.453  1.00  0.00     0.111 A   
ATOM     14  C22 UNL     1       1.099  -1.670   3.058  1.00  0.00     0.024 A   
ENDBRANCH   8   9
ENDBRANCH   7   8
ENDBRANCH   1   7
BRANCH   3  15
ATOM     15  C8  UNL     1      -0.243   0.125  -1.839  1.00  0.00     0.117 C   
BRANCH  15  16
ATOM     16  N2  UNL     1      -0.481   1.276  -0.894  1.00  0.00     0.249 N   
ATOM     17  H9  UNL     1       0.437   1.712  -0.723  1.00  0.00     0.199 HD  
ATOM     18  H10 UNL     1      -1.075   1.999  -1.310  1.00  0.00     0.199 HD  
BRANCH  16  19
ATOM     19  C9  UNL     1      -1.051   0.899   0.434  1.00  0.00     0.164 C   
BRANCH  19  20
ATOM     20  C10 UNL     1      -1.105   2.097   1.337  1.00  0.00    -0.002 A   
ATOM     21  C11 UNL     1       0.059   2.518   2.025  1.00  0.00     0.012 A   
ATOM     22  C15 UNL     1      -2.293   2.834   1.470  1.00  0.00     0.045 A   
ATOM     23  C12 UNL     1       0.040   3.652   2.844  1.00  0.00     0.037 A   
ATOM     24  C14 UNL     1      -2.278   3.948   2.284  1.00  0.00     0.109 A   
ATOM     25  C13 UNL     1      -1.145   4.345   2.952  1.00  0.00     0.108 A   
ATOM     26  O1  UNL     1      -3.334   4.768   2.521  1.00  0.00    -0.316 OA  
ATOM     27  O2  UNL     1      -1.347   5.463   3.696  1.00  0.00    -0.316 OA  
ATOM     28  C16 UNL     1      -2.746   5.715   3.441  1.00  0.00     0.337 C   
ENDBRANCH  19  20
ENDBRANCH  16  19
ENDBRANCH  15  16
BRANCH  15  29
ATOM     29  C17 UNL     1       0.102   0.690  -3.229  1.00  0.00     0.043 C   
ATOM     30  C18 UNL     1      -0.992   1.573  -3.842  1.00  0.00     0.010 C   
ATOM     31  C21 UNL     1       0.269  -0.395  -4.298  1.00  0.00     0.010 C   
ATOM     32  C19 UNL     1      -0.750   1.536  -5.351  1.00  0.00     0.001 C   
ATOM     33  C20 UNL     1       0.215   0.383  -5.605  1.00  0.00     0.001 C   
ENDBRANCH  15  29
ENDBRANCH   3  15
TORSDOF 8
