REMARK SMILES O=S(=O)(SC[C@@H](Cc1ccccc1)n1cc([C@@H]([NH2+]Cc2ccc3c(c2)OCO3)C2CCCCC2)nn1)c1ccccc1
REMARK SMILES IDX 14 1 15 2 16 3 35 4 36 5 6 7 5 8 4 9 2 10 1 11 3 12 37 13
REMARK SMILES IDX 38 14 42 15 39 16 41 17 40 18 7 19 8 20 9 21 13 22 10 23
REMARK SMILES IDX 12 24 11 25 17 26 18 27 19 30 20 31 21 32 25 33 22 34 24 35
REMARK SMILES IDX 23 36 26 37 28 38 27 39 29 40 30 41 34 42 31 43 33 44 32 45
REMARK H PARENT 15 6 18 28 18 29
ROOT
ATOM     1   N1  UNL     1       0.729   1.379   1.884  1.00  0.00    -0.207 N   
ATOM     2   C10 UNL     1      -0.056   0.291   1.628  1.00  0.00     0.046 A   
ATOM     3   C11 UNL     1       0.847  -0.751   1.540  1.00  0.00     0.127 A   
ATOM     4   N3  UNL     1       2.091  -0.296   1.881  1.00  0.00    -0.132 NA  
ATOM     5   N4  UNL     1       2.005   1.006   2.094  1.00  0.00    -0.076 NA  
ATOM     6   H11 UNL     1      -1.119   0.362   1.435  1.00  0.00     0.083 HD  
ENDROOT
BRANCH   1   7
ATOM     7   C2  UNL     1       0.390   2.794   1.815  1.00  0.00     0.125 C   
BRANCH   7   8
ATOM     8   C1  UNL     1      -0.228   3.226   0.462  1.00  0.00     0.230 C   
BRANCH   8   9
ATOM     9   S2  UNL     1       0.584   2.586  -1.043  1.00  0.00     0.312 SA  
BRANCH   9  10
ATOM     10  S1  UNL     1      -0.721   1.098  -1.712  1.00  0.00    -0.157 S   
ATOM     11  O1  UNL     1      -1.974   1.238  -0.998  1.00  0.00    -0.500 OA  
ATOM     12  O2  UNL     1      -0.008  -0.170  -1.625  1.00  0.00    -0.500 OA  
BRANCH  10  13
ATOM     13  C27 UNL     1      -1.012   1.497  -3.410  1.00  0.00     0.321 A   
ATOM     14  C28 UNL     1      -1.882   2.545  -3.722  1.00  0.00     0.136 A   
ATOM     15  C32 UNL     1      -0.418   0.739  -4.422  1.00  0.00     0.136 A   
ATOM     16  C29 UNL     1      -2.134   2.854  -5.059  1.00  0.00     0.012 A   
ATOM     17  C31 UNL     1      -0.673   1.055  -5.757  1.00  0.00     0.012 A   
ATOM     18  C30 UNL     1      -1.528   2.111  -6.073  1.00  0.00     0.001 A   
ENDBRANCH  10  13
ENDBRANCH   9  10
ENDBRANCH   8   9
ENDBRANCH   7   8
BRANCH   7  19
ATOM     19  C3  UNL     1      -0.513   3.170   3.009  1.00  0.00     0.061 C   
BRANCH  19  20
ATOM     20  C4  UNL     1      -0.820   4.645   3.086  1.00  0.00    -0.046 A   
ATOM     21  C5  UNL     1       0.152   5.552   3.531  1.00  0.00     0.004 A   
ATOM     22  C9  UNL     1      -2.071   5.133   2.680  1.00  0.00     0.004 A   
ATOM     23  C6  UNL     1      -0.120   6.918   3.561  1.00  0.00     0.000 A   
ATOM     24  C8  UNL     1      -2.339   6.502   2.710  1.00  0.00     0.000 A   
ATOM     25  C7  UNL     1      -1.363   7.394   3.147  1.00  0.00     0.000 A   
ENDBRANCH  19  20
ENDBRANCH   7  19
ENDBRANCH   1   7
BRANCH   3  26
ATOM     26  C12 UNL     1       0.652  -2.140   1.005  1.00  0.00     0.117 C   
BRANCH  26  27
ATOM     27  N2  UNL     1       1.220  -2.225  -0.394  1.00  0.00     0.249 N   
ATOM     28  H13 UNL     1       0.825  -3.020  -0.904  1.00  0.00     0.199 HD  
ATOM     29  H14 UNL     1       0.841  -1.393  -0.894  1.00  0.00     0.199 HD  
BRANCH  27  30
ATOM     30  C13 UNL     1       2.707  -2.195  -0.567  1.00  0.00     0.164 C   
BRANCH  30  31
ATOM     31  C14 UNL     1       3.142  -1.163  -1.574  1.00  0.00    -0.002 A   
ATOM     32  C15 UNL     1       3.856  -0.015  -1.152  1.00  0.00     0.012 A   
ATOM     33  C19 UNL     1       2.805  -1.305  -2.932  1.00  0.00     0.045 A   
ATOM     34  C16 UNL     1       4.226   0.983  -2.061  1.00  0.00     0.037 A   
ATOM     35  C18 UNL     1       3.164  -0.292  -3.798  1.00  0.00     0.109 A   
ATOM     36  C17 UNL     1       3.855   0.819  -3.378  1.00  0.00     0.108 A   
ATOM     37  O3  UNL     1       2.855  -0.242  -5.124  1.00  0.00    -0.316 OA  
ATOM     38  O4  UNL     1       4.093   1.695  -4.389  1.00  0.00    -0.316 OA  
ATOM     39  C20 UNL     1       3.484   1.007  -5.502  1.00  0.00     0.337 C   
ENDBRANCH  30  31
ENDBRANCH  27  30
ENDBRANCH  26  27
BRANCH  26  40
ATOM     40  C21 UNL     1       1.181  -3.283   1.915  1.00  0.00     0.043 C   
ATOM     41  C22 UNL     1       0.513  -3.265   3.312  1.00  0.00     0.010 C   
ATOM     42  C26 UNL     1       1.025  -4.664   1.238  1.00  0.00     0.010 C   
ATOM     43  C23 UNL     1      -0.600  -4.300   3.447  1.00  0.00     0.001 C   
ATOM     44  C25 UNL     1       1.066  -5.810   2.245  1.00  0.00     0.001 C   
ATOM     45  C24 UNL     1      -0.065  -5.719   3.267  1.00  0.00     0.000 C   
ENDBRANCH  26  40
ENDBRANCH   3  26
TORSDOF 12
