REMARK SMILES CC(C)C[C@H]([NH2+]Cc1ccc2c(c1)OCO2)c1cn(-c2ccc(O)c(Cl)c2)nn1
REMARK SMILES IDX 17 1 18 2 19 3 28 4 29 5 5 6 4 7 2 8 1 9 3 10 6 11 7 14 8 15
REMARK SMILES IDX 9 16 13 17 10 18 12 19 11 20 14 21 16 22 15 23 20 24 21 25
REMARK SMILES IDX 27 26 22 27 25 28 23 29 26 30 24 31
REMARK H PARENT 6 12 6 13 24 32
ROOT
ATOM     1   C14 UNL     1       0.714  -1.615  -0.759  1.00  0.00     0.127 A   
ATOM     2   C15 UNL     1      -0.398  -1.117  -0.117  1.00  0.00     0.135 A   
ATOM     3   N2  UNL     1      -0.897  -2.183   0.607  1.00  0.00    -0.181 N   
ATOM     4   N3  UNL     1      -0.147  -3.283   0.339  1.00  0.00    -0.071 NA  
ATOM     5   N4  UNL     1       0.840  -2.945  -0.474  1.00  0.00    -0.131 NA  
ENDROOT
BRANCH   1   6
ATOM     6   C5  UNL     1       1.775  -0.939  -1.562  1.00  0.00     0.114 C   
BRANCH   6   7
ATOM     7   C4  UNL     1       1.720  -1.325  -3.052  1.00  0.00     0.064 C   
BRANCH   7   8
ATOM     8   C2  UNL     1       0.427  -0.908  -3.786  1.00  0.00    -0.012 C   
ATOM     9   C1  UNL     1       0.221   0.608  -3.786  1.00  0.00     0.007 C   
ATOM     10  C3  UNL     1       0.463  -1.423  -5.227  1.00  0.00     0.007 C   
ENDBRANCH   7   8
ENDBRANCH   6   7
BRANCH   6  11
ATOM     11  N1  UNL     1       3.139  -1.359  -1.037  1.00  0.00     0.249 N   
ATOM     12  H11 UNL     1       3.031  -2.328  -0.699  1.00  0.00     0.199 HD  
ATOM     13  H12 UNL     1       3.818  -1.402  -1.804  1.00  0.00     0.199 HD  
BRANCH  11  14
ATOM     14  C6  UNL     1       3.716  -0.531   0.066  1.00  0.00     0.164 C   
BRANCH  14  15
ATOM     15  C7  UNL     1       2.881  -0.501   1.316  1.00  0.00    -0.002 A   
ATOM     16  C8  UNL     1       2.784  -1.648   2.142  1.00  0.00     0.012 A   
ATOM     17  C12 UNL     1       2.139   0.648   1.643  1.00  0.00     0.045 A   
ATOM     18  C9  UNL     1       1.944  -1.660   3.261  1.00  0.00     0.037 A   
ATOM     19  C11 UNL     1       1.317   0.600   2.751  1.00  0.00     0.109 A   
ATOM     20  C10 UNL     1       1.221  -0.521   3.536  1.00  0.00     0.108 A   
ATOM     21  O1  UNL     1       0.507   1.603   3.179  1.00  0.00    -0.316 OA  
ATOM     22  O2  UNL     1       0.347  -0.362   4.564  1.00  0.00    -0.316 OA  
ATOM     23  C13 UNL     1      -0.062   1.008   4.369  1.00  0.00     0.337 C   
ENDBRANCH  14  15
ENDBRANCH  11  14
ENDBRANCH   6  11
ENDBRANCH   1   6
BRANCH   3  24
ATOM     24  C16 UNL     1      -1.972  -2.212   1.529  1.00  0.00     0.059 A   
ATOM     25  C17 UNL     1      -2.313  -3.422   2.156  1.00  0.00     0.029 A   
ATOM     26  C21 UNL     1      -2.687  -1.045   1.840  1.00  0.00     0.049 A   
ATOM     27  C18 UNL     1      -3.360  -3.466   3.081  1.00  0.00     0.037 A   
ATOM     28  C20 UNL     1      -3.728  -1.100   2.771  1.00  0.00     0.072 A   
ATOM     29  C19 UNL     1      -4.062  -2.306   3.385  1.00  0.00     0.090 A   
ATOM     30  CL1 UNL     1      -4.585   0.345   3.157  1.00  0.00    -0.081 Cl  
BRANCH  29  31
ATOM     31  O3  UNL     1      -5.074  -2.407   4.297  1.00  0.00    -0.359 OA  
ATOM     32  H23 UNL     1      -5.486  -1.527   4.388  1.00  0.00     0.218 HD  
ENDBRANCH  29  31
ENDBRANCH   3  24
TORSDOF 8
