REMARK SMILES Cc1occc1CCn1cc([C@H](CC(C)C)[NH2+]Cc2ccc3c(c2)OCO3)nn1
REMARK SMILES IDX 9 1 10 2 11 3 28 4 29 5 8 7 7 8 6 9 2 10 3 11 4 12 5 13 1 14
REMARK SMILES IDX 12 15 13 16 14 17 15 18 16 19 17 20 18 23 19 24 20 25 24 26
REMARK SMILES IDX 21 27 23 28 22 29 25 30 27 31 26 32
REMARK H PARENT 10 6 17 21 17 22
ROOT
ATOM     1   N1  UNL     1      -0.151   0.517  -2.931  1.00  0.00    -0.212 N   
ATOM     2   C8  UNL     1      -1.007  -0.376  -2.350  1.00  0.00     0.045 A   
ATOM     3   C9  UNL     1      -1.404   0.253  -1.192  1.00  0.00     0.127 A   
ATOM     4   N3  UNL     1      -0.815   1.490  -1.125  1.00  0.00    -0.132 NA  
ATOM     5   N4  UNL     1      -0.050   1.638  -2.195  1.00  0.00    -0.076 NA  
ATOM     6   H10 UNL     1      -1.204  -1.353  -2.772  1.00  0.00     0.083 HD  
ENDROOT
BRANCH   1   7
ATOM     7   C7  UNL     1       0.665   0.331  -4.112  1.00  0.00     0.139 C   
BRANCH   7   8
ATOM     8   C6  UNL     1       2.120  -0.002  -3.778  1.00  0.00     0.059 C   
BRANCH   8   9
ATOM     9   C5  UNL     1       2.258  -1.214  -2.911  1.00  0.00    -0.018 A   
ATOM     10  C2  UNL     1       2.642  -1.256  -1.580  1.00  0.00     0.059 A   
ATOM     11  O1  UNL     1       2.592  -2.532  -1.112  1.00  0.00    -0.323 OA  
ATOM     12  C3  UNL     1       2.230  -3.324  -2.152  1.00  0.00     0.136 A   
ATOM     13  C4  UNL     1       2.011  -2.567  -3.278  1.00  0.00     0.032 A   
ATOM     14  C1  UNL     1       3.085  -0.227  -0.613  1.00  0.00     0.073 C   
ENDBRANCH   8   9
ENDBRANCH   7   8
ENDBRANCH   1   7
BRANCH   3  15
ATOM     15  C10 UNL     1      -2.239  -0.229  -0.054  1.00  0.00     0.114 C   
BRANCH  15  16
ATOM     16  C11 UNL     1      -3.675   0.326  -0.097  1.00  0.00     0.064 C   
BRANCH  16  17
ATOM     17  C12 UNL     1      -4.524  -0.162  -1.292  1.00  0.00    -0.012 C   
ATOM     18  C13 UNL     1      -5.877   0.554  -1.291  1.00  0.00     0.007 C   
ATOM     19  C14 UNL     1      -4.741  -1.676  -1.266  1.00  0.00     0.007 C   
ENDBRANCH  16  17
ENDBRANCH  15  16
BRANCH  15  20
ATOM     20  N2  UNL     1      -1.629   0.223   1.252  1.00  0.00     0.249 N   
ATOM     21  H21 UNL     1      -1.450   1.235   1.164  1.00  0.00     0.199 HD  
ATOM     22  H22 UNL     1      -2.288   0.110   2.028  1.00  0.00     0.199 HD  
BRANCH  20  23
ATOM     23  C15 UNL     1      -0.339  -0.434   1.610  1.00  0.00     0.164 C   
BRANCH  23  24
ATOM     24  C16 UNL     1       0.210   0.146   2.882  1.00  0.00    -0.002 A   
ATOM     25  C17 UNL     1      -0.005  -0.507   4.119  1.00  0.00     0.012 A   
ATOM     26  C21 UNL     1       0.903   1.370   2.853  1.00  0.00     0.045 A   
ATOM     27  C18 UNL     1       0.468   0.047   5.311  1.00  0.00     0.037 A   
ATOM     28  C20 UNL     1       1.352   1.889   4.050  1.00  0.00     0.109 A   
ATOM     29  C19 UNL     1       1.144   1.245   5.243  1.00  0.00     0.108 A   
ATOM     30  O2  UNL     1       2.027   3.058   4.202  1.00  0.00    -0.316 OA  
ATOM     31  O3  UNL     1       1.663   1.927   6.296  1.00  0.00    -0.316 OA  
ATOM     32  C22 UNL     1       2.239   3.069   5.631  1.00  0.00     0.337 C   
ENDBRANCH  23  24
ENDBRANCH  20  23
ENDBRANCH  15  20
ENDBRANCH   3  15
TORSDOF 9
