REMARK SMILES CC(C)C[C@H]([NH2+]Cc1ccc2c(c1)OCO2)c1cn(CCc2ccccc2N(C)C)nn1
REMARK SMILES IDX 17 1 18 2 19 3 31 4 32 5 5 7 4 8 2 9 1 10 3 11 6 12 7 15
REMARK SMILES IDX 8 16 9 17 13 18 10 19 12 20 11 21 14 22 16 23 15 24 20 25
REMARK SMILES IDX 21 26 22 27 23 28 27 29 24 30 26 31 25 32 28 33 29 34 30 35
REMARK H PARENT 18 6 6 13 6 14
ROOT
ATOM     1   C14 UNL     1       0.184  -2.798   0.691  1.00  0.00     0.127 A   
ATOM     2   C15 UNL     1       0.975  -1.962   1.445  1.00  0.00     0.045 A   
ATOM     3   N2  UNL     1       0.578  -2.207   2.731  1.00  0.00    -0.212 N   
ATOM     4   N4  UNL     1      -0.328  -3.201   2.774  1.00  0.00    -0.076 NA  
ATOM     5   N5  UNL     1      -0.587  -3.564   1.528  1.00  0.00    -0.132 NA  
ATOM     6   H20 UNL     1       1.664  -1.166   1.202  1.00  0.00     0.083 HD  
ENDROOT
BRANCH   1   7
ATOM     7   C5  UNL     1      -0.114  -2.822  -0.771  1.00  0.00     0.114 C   
BRANCH   7   8
ATOM     8   C4  UNL     1       0.962  -2.184  -1.667  1.00  0.00     0.064 C   
BRANCH   8   9
ATOM     9   C2  UNL     1       2.323  -2.913  -1.672  1.00  0.00    -0.012 C   
ATOM     10  C1  UNL     1       3.317  -2.131  -2.536  1.00  0.00     0.007 C   
ATOM     11  C3  UNL     1       2.213  -4.350  -2.184  1.00  0.00     0.007 C   
ENDBRANCH   8   9
ENDBRANCH   7   8
BRANCH   7  12
ATOM     12  N1  UNL     1      -1.409  -2.058  -0.930  1.00  0.00     0.249 N   
ATOM     13  H11 UNL     1      -2.021  -2.375  -0.161  1.00  0.00     0.199 HD  
ATOM     14  H12 UNL     1      -1.252  -1.064  -0.719  1.00  0.00     0.199 HD  
BRANCH  12  15
ATOM     15  C6  UNL     1      -2.155  -2.232  -2.197  1.00  0.00     0.164 C   
BRANCH  15  16
ATOM     16  C7  UNL     1      -3.467  -1.499  -2.148  1.00  0.00    -0.002 A   
ATOM     17  C8  UNL     1      -4.677  -2.206  -1.957  1.00  0.00     0.012 A   
ATOM     18  C12 UNL     1      -3.495  -0.096  -2.254  1.00  0.00     0.045 A   
ATOM     19  C9  UNL     1      -5.901  -1.530  -1.887  1.00  0.00     0.037 A   
ATOM     20  C11 UNL     1      -4.716   0.539  -2.172  1.00  0.00     0.109 A   
ATOM     21  C10 UNL     1      -5.887  -0.157  -1.999  1.00  0.00     0.108 A   
ATOM     22  O1  UNL     1      -4.911   1.881  -2.246  1.00  0.00    -0.316 OA  
ATOM     23  O2  UNL     1      -6.973   0.657  -1.962  1.00  0.00    -0.316 OA  
ATOM     24  C13 UNL     1      -6.354   1.950  -2.136  1.00  0.00     0.337 C   
ENDBRANCH  15  16
ENDBRANCH  12  15
ENDBRANCH   7  12
ENDBRANCH   1   7
BRANCH   3  25
ATOM     25  C16 UNL     1       0.834  -1.383   3.895  1.00  0.00     0.139 C   
BRANCH  25  26
ATOM     26  C17 UNL     1      -0.342  -0.450   4.209  1.00  0.00     0.059 C   
BRANCH  26  27
ATOM     27  C18 UNL     1      -0.798   0.402   3.030  1.00  0.00    -0.025 A   
ATOM     28  C19 UNL     1      -2.069   0.148   2.477  1.00  0.00     0.006 A   
ATOM     29  C23 UNL     1       0.030   1.395   2.457  1.00  0.00     0.031 A   
ATOM     30  C20 UNL     1      -2.522   0.858   1.367  1.00  0.00     0.000 A   
ATOM     31  C22 UNL     1      -0.446   2.092   1.333  1.00  0.00     0.024 A   
ATOM     32  C21 UNL     1      -1.708   1.827   0.792  1.00  0.00     0.002 A   
BRANCH  29  33
ATOM     33  N3  UNL     1       1.282   1.679   3.045  1.00  0.00    -0.337 N   
ATOM     34  C24 UNL     1       2.376   1.988   2.116  1.00  0.00     0.129 C   
ATOM     35  C25 UNL     1       1.133   2.702   4.098  1.00  0.00     0.129 C   
ENDBRANCH  29  33
ENDBRANCH  26  27
ENDBRANCH  25  26
ENDBRANCH   3  25
TORSDOF 10
