REMARK SMILES CC(C)n1cc(CCn2cc([C@@H]([NH2+]Cc3ccc4c(c3)OCO4)C(C)(C)C)nn2)cn1
REMARK SMILES IDX 9 1 10 2 11 3 28 4 29 5 8 7 7 8 6 9 4 10 5 11 31 12 30 13
REMARK SMILES IDX 2 14 1 15 3 16 12 17 13 18 14 21 15 22 16 23 20 24 17 25
REMARK SMILES IDX 19 26 18 27 21 28 23 29 22 30 24 31 25 32 26 33 27 34
REMARK H PARENT 10 6 13 19 13 20
ROOT
ATOM     1   N2  UNL     1      -1.497   3.810   0.965  1.00  0.00    -0.212 N   
ATOM     2   C8  UNL     1      -1.068   2.905   1.900  1.00  0.00     0.045 A   
ATOM     3   C9  UNL     1      -1.704   1.734   1.556  1.00  0.00     0.127 A   
ATOM     4   N4  UNL     1      -2.576   2.000   0.532  1.00  0.00    -0.132 NA  
ATOM     5   N5  UNL     1      -2.449   3.274   0.189  1.00  0.00    -0.076 NA  
ATOM     6   H13 UNL     1      -0.287   3.155   2.598  1.00  0.00     0.083 HD  
ENDROOT
BRANCH   1   7
ATOM     7   C7  UNL     1      -0.814   5.028   0.565  1.00  0.00     0.139 C   
BRANCH   7   8
ATOM     8   C6  UNL     1       0.107   4.820  -0.652  1.00  0.00     0.060 C   
BRANCH   8   9
ATOM     9   C5  UNL     1       0.959   3.595  -0.525  1.00  0.00    -0.011 A   
ATOM     10  N1  UNL     1       2.474   2.093   0.015  1.00  0.00    -0.230 N   
ATOM     11  C4  UNL     1       2.195   3.434   0.063  1.00  0.00     0.101 A   
ATOM     12  N6  UNL     1       1.419   1.357  -0.425  1.00  0.00    -0.190 NA  
ATOM     13  C23 UNL     1       0.602   2.288  -0.932  1.00  0.00     0.136 A   
BRANCH  10  14
ATOM     14  C2  UNL     1       3.725   1.448   0.411  1.00  0.00     0.091 C   
ATOM     15  C1  UNL     1       4.373   0.738  -0.774  1.00  0.00     0.030 C   
ATOM     16  C3  UNL     1       3.517   0.499   1.589  1.00  0.00     0.030 C   
ENDBRANCH  10  14
ENDBRANCH   8   9
ENDBRANCH   7   8
ENDBRANCH   1   7
BRANCH   3  17
ATOM     17  C10 UNL     1      -1.503   0.308   1.976  1.00  0.00     0.120 C   
BRANCH  17  18
ATOM     18  N3  UNL     1      -0.474  -0.356   1.085  1.00  0.00     0.250 N   
ATOM     19  H15 UNL     1       0.120  -1.006   1.602  1.00  0.00     0.199 HD  
ATOM     20  H16 UNL     1       0.191   0.351   0.704  1.00  0.00     0.199 HD  
BRANCH  18  21
ATOM     21  C11 UNL     1      -1.032  -1.077  -0.094  1.00  0.00     0.164 C   
BRANCH  21  22
ATOM     22  C12 UNL     1      -0.007  -2.007  -0.688  1.00  0.00    -0.002 A   
ATOM     23  C13 UNL     1       0.732  -1.628  -1.832  1.00  0.00     0.012 A   
ATOM     24  C17 UNL     1       0.258  -3.246  -0.074  1.00  0.00     0.045 A   
ATOM     25  C14 UNL     1       1.718  -2.465  -2.365  1.00  0.00     0.037 A   
ATOM     26  C16 UNL     1       1.242  -4.045  -0.618  1.00  0.00     0.109 A   
ATOM     27  C15 UNL     1       1.952  -3.665  -1.731  1.00  0.00     0.108 A   
ATOM     28  O1  UNL     1       1.630  -5.257  -0.141  1.00  0.00    -0.316 OA  
ATOM     29  O2  UNL     1       2.873  -4.593  -2.099  1.00  0.00    -0.316 OA  
ATOM     30  C18 UNL     1       2.655  -5.611  -1.097  1.00  0.00     0.337 C   
ENDBRANCH  21  22
ENDBRANCH  18  21
ENDBRANCH  17  18
BRANCH  17  31
ATOM     31  C19 UNL     1      -1.194   0.029   3.488  1.00  0.00     0.010 C   
ATOM     32  C20 UNL     1      -2.202   0.774   4.390  1.00  0.00     0.017 C   
ATOM     33  C21 UNL     1      -1.374  -1.486   3.770  1.00  0.00     0.017 C   
ATOM     34  C22 UNL     1       0.234   0.413   3.919  1.00  0.00     0.017 C   
ENDBRANCH  17  31
ENDBRANCH   3  17
TORSDOF 9
