REMARK SMILES c1cc(-n2cc([C@@H]([NH2+]Cc3ccc4c(c3)OCO4)C3CCCCC3)nn2)ccn1
REMARK SMILES IDX 7 1 6 2 4 3 5 4 26 5 25 6 3 7 1 8 2 9 29 10 28 11 27 12 8 13
REMARK SMILES IDX 9 16 10 17 11 18 15 19 12 20 14 21 13 22 16 23 18 24 17 25
REMARK SMILES IDX 19 26 20 27 24 28 21 29 23 30 22 31
REMARK H PARENT 8 14 8 15
ROOT
ATOM     1   C6  UNL     1       0.466  -0.389  -0.378  1.00  0.00     0.117 C   
ENDROOT
BRANCH   1   2
ATOM     2   C5  UNL     1      -0.029   0.928   0.144  1.00  0.00     0.127 A   
ATOM     3   N1  UNL     1      -0.972   2.620   1.170  1.00  0.00    -0.181 N   
ATOM     4   C4  UNL     1      -0.820   1.250   1.226  1.00  0.00     0.135 A   
ATOM     5   N4  UNL     1      -0.323   3.085   0.069  1.00  0.00    -0.071 NA  
ATOM     6   N3  UNL     1       0.256   2.071  -0.551  1.00  0.00    -0.131 NA  
BRANCH   3   7
ATOM     7   C3  UNL     1      -1.680   3.479   2.042  1.00  0.00     0.061 A   
ATOM     8   C1  UNL     1      -2.976   3.886   4.005  1.00  0.00     0.113 A   
ATOM     9   C2  UNL     1      -2.295   2.987   3.197  1.00  0.00     0.046 A   
ATOM     10  N5  UNL     1      -3.080   5.204   3.734  1.00  0.00    -0.265 NA  
ATOM     11  C22 UNL     1      -2.472   5.659   2.615  1.00  0.00     0.113 A   
ATOM     12  C21 UNL     1      -1.767   4.845   1.746  1.00  0.00     0.046 A   
ENDBRANCH   3   7
ENDBRANCH   1   2
BRANCH   1  13
ATOM     13  N2  UNL     1       0.750  -0.226  -1.859  1.00  0.00     0.249 N   
ATOM     14  H5  UNL     1       1.579   0.368  -1.971  1.00  0.00     0.199 HD  
ATOM     15  H6  UNL     1      -0.009   0.363  -2.233  1.00  0.00     0.199 HD  
BRANCH  13  16
ATOM     16  C7  UNL     1       0.855  -1.442  -2.707  1.00  0.00     0.164 C   
BRANCH  16  17
ATOM     17  C8  UNL     1      -0.398  -2.271  -2.712  1.00  0.00    -0.002 A   
ATOM     18  C9  UNL     1      -0.396  -3.569  -2.147  1.00  0.00     0.012 A   
ATOM     19  C13 UNL     1      -1.591  -1.755  -3.253  1.00  0.00     0.045 A   
ATOM     20  C10 UNL     1      -1.566  -4.338  -2.107  1.00  0.00     0.037 A   
ATOM     21  C12 UNL     1      -2.727  -2.537  -3.192  1.00  0.00     0.109 A   
ATOM     22  C11 UNL     1      -2.716  -3.791  -2.635  1.00  0.00     0.108 A   
ATOM     23  O1  UNL     1      -3.957  -2.181  -3.651  1.00  0.00    -0.316 OA  
ATOM     24  O2  UNL     1      -3.938  -4.386  -2.676  1.00  0.00    -0.316 OA  
ATOM     25  C14 UNL     1      -4.722  -3.369  -3.338  1.00  0.00     0.337 C   
ENDBRANCH  16  17
ENDBRANCH  13  16
ENDBRANCH   1  13
BRANCH   1  26
ATOM     26  C15 UNL     1       1.723  -0.938   0.351  1.00  0.00     0.043 C   
ATOM     27  C16 UNL     1       1.380  -1.416   1.778  1.00  0.00     0.010 C   
ATOM     28  C20 UNL     1       2.914   0.041   0.391  1.00  0.00     0.010 C   
ATOM     29  C17 UNL     1       2.592  -2.026   2.478  1.00  0.00     0.001 C   
ATOM     30  C19 UNL     1       4.122  -0.561   1.109  1.00  0.00     0.001 C   
ATOM     31  C18 UNL     1       3.766  -1.053   2.510  1.00  0.00     0.000 C   
ENDBRANCH   1  26
TORSDOF 6
