REMARK SMILES Cc1ccc(C)c(C(=O)Cn2cc([C@@H]([NH2+]Cc3ccc4c(c3)OCO4)C(C)C)nn2)c1
REMARK SMILES IDX 11 1 12 2 13 3 29 4 30 5 10 7 8 8 9 9 7 10 2 11 3 12 31 13
REMARK SMILES IDX 4 14 5 15 1 16 6 17 14 18 15 19 16 22 17 23 18 24 22 25
REMARK SMILES IDX 19 26 21 27 20 28 23 29 25 30 24 31 26 32 27 33 28 34
REMARK H PARENT 12 6 15 20 15 21
ROOT
ATOM     1   N1  UNL     1      -0.862   1.934  -0.631  1.00  0.00    -0.204 N   
ATOM     2   C10 UNL     1      -1.552   0.851  -1.098  1.00  0.00     0.046 A   
ATOM     3   C11 UNL     1      -2.496   0.614  -0.126  1.00  0.00     0.127 A   
ATOM     4   N3  UNL     1      -2.391   1.575   0.848  1.00  0.00    -0.132 NA  
ATOM     5   N4  UNL     1      -1.388   2.377   0.528  1.00  0.00    -0.076 NA  
ATOM     6   H11 UNL     1      -1.287   0.350  -2.020  1.00  0.00     0.083 HD  
ENDROOT
BRANCH   1   7
ATOM     7   C9  UNL     1       0.287   2.591  -1.213  1.00  0.00     0.214 C   
BRANCH   7   8
ATOM     8   C8  UNL     1       1.463   1.649  -1.288  1.00  0.00     0.182 C   
ATOM     9   O1  UNL     1       1.439   0.631  -1.978  1.00  0.00    -0.292 OA  
BRANCH   8  10
ATOM     10  C7  UNL     1       2.678   1.977  -0.497  1.00  0.00     0.022 A   
ATOM     11  C2  UNL     1       3.648   2.619   1.640  1.00  0.00    -0.050 A   
ATOM     12  C3  UNL     1       4.920   2.527   1.068  1.00  0.00     0.004 A   
ATOM     13  C24 UNL     1       2.527   2.329   0.853  1.00  0.00     0.015 A   
ATOM     14  C4  UNL     1       5.073   2.173  -0.274  1.00  0.00     0.004 A   
ATOM     15  C5  UNL     1       3.958   1.899  -1.077  1.00  0.00    -0.040 A   
ATOM     16  C1  UNL     1       3.501   2.948   3.097  1.00  0.00     0.044 C   
ATOM     17  C6  UNL     1       4.177   1.505  -2.512  1.00  0.00     0.045 C   
ENDBRANCH   8  10
ENDBRANCH   7   8
ENDBRANCH   1   7
BRANCH   3  18
ATOM     18  C12 UNL     1      -3.504  -0.480   0.021  1.00  0.00     0.117 C   
BRANCH  18  19
ATOM     19  N2  UNL     1      -3.830  -0.691   1.483  1.00  0.00     0.249 N   
ATOM     20  H13 UNL     1      -3.630   0.211   1.946  1.00  0.00     0.199 HD  
ATOM     21  H14 UNL     1      -4.829  -0.862   1.620  1.00  0.00     0.199 HD  
BRANCH  19  22
ATOM     22  C13 UNL     1      -3.053  -1.750   2.187  1.00  0.00     0.164 C   
BRANCH  22  23
ATOM     23  C14 UNL     1      -1.594  -1.434   2.346  1.00  0.00    -0.002 A   
ATOM     24  C15 UNL     1      -1.170  -0.486   3.308  1.00  0.00     0.012 A   
ATOM     25  C19 UNL     1      -0.638  -2.056   1.525  1.00  0.00     0.045 A   
ATOM     26  C16 UNL     1       0.182  -0.159   3.451  1.00  0.00     0.037 A   
ATOM     27  C18 UNL     1       0.687  -1.712   1.691  1.00  0.00     0.109 A   
ATOM     28  C17 UNL     1       1.086  -0.791   2.627  1.00  0.00     0.108 A   
ATOM     29  O2  UNL     1       1.730  -2.219   0.985  1.00  0.00    -0.316 OA  
ATOM     30  O3  UNL     1       2.429  -0.601   2.627  1.00  0.00    -0.316 OA  
ATOM     31  C20 UNL     1       2.839  -1.515   1.587  1.00  0.00     0.337 C   
ENDBRANCH  22  23
ENDBRANCH  19  22
ENDBRANCH  18  19
BRANCH  18  32
ATOM     32  C21 UNL     1      -4.796  -0.200  -0.789  1.00  0.00     0.037 C   
ATOM     33  C22 UNL     1      -5.610   0.993  -0.272  1.00  0.00     0.014 C   
ATOM     34  C23 UNL     1      -5.689  -1.443  -0.875  1.00  0.00     0.014 C   
ENDBRANCH  18  32
ENDBRANCH   3  18
TORSDOF 8
