REMARK SMILES Fc1ccc(F)c(-n2cc([C@@H]([NH2+]Cc3ccc4c(c3)OCO4)C3CCCC3)nn2)c1
REMARK SMILES IDX 11 1 10 2 8 3 9 4 29 5 28 6 7 7 2 8 3 9 30 10 4 11 5 12 1 13
REMARK SMILES IDX 6 14 12 15 13 18 14 19 15 20 19 21 16 22 18 23 17 24 20 25
REMARK SMILES IDX 22 26 21 27 23 28 24 29 27 30 25 31 26 32
REMARK H PARENT 12 16 12 17
ROOT
ATOM     1   C8  UNL     1       0.627  -0.706   0.420  1.00  0.00     0.117 C   
ENDROOT
BRANCH   1   2
ATOM     2   C7  UNL     1      -0.694  -1.087  -0.171  1.00  0.00     0.127 A   
ATOM     3   N1  UNL     1      -2.395  -1.899  -1.294  1.00  0.00    -0.178 N   
ATOM     4   C6  UNL     1      -1.022  -1.984  -1.163  1.00  0.00     0.135 A   
ATOM     5   N4  UNL     1      -2.848  -0.946  -0.434  1.00  0.00    -0.071 NA  
ATOM     6   N3  UNL     1      -1.830  -0.463   0.257  1.00  0.00    -0.131 NA  
BRANCH   3   7
ATOM     7   C5  UNL     1      -3.279  -2.604  -2.143  1.00  0.00     0.096 A   
ATOM     8   C1  UNL     1      -5.534  -3.021  -2.916  1.00  0.00     0.125 A   
ATOM     9   C2  UNL     1      -5.075  -3.983  -3.808  1.00  0.00     0.042 A   
ATOM     10  C22 UNL     1      -4.656  -2.330  -2.085  1.00  0.00     0.068 A   
ATOM     11  C3  UNL     1      -3.711  -4.260  -3.870  1.00  0.00     0.044 A   
ATOM     12  C4  UNL     1      -2.821  -3.573  -3.042  1.00  0.00     0.146 A   
ATOM     13  F1  UNL     1      -6.843  -2.752  -2.854  1.00  0.00    -0.207 F   
ATOM     14  F2  UNL     1      -1.521  -3.877  -3.147  1.00  0.00    -0.205 F   
ENDBRANCH   3   7
ENDBRANCH   1   2
BRANCH   1  15
ATOM     15  N2  UNL     1       0.610   0.753   0.803  1.00  0.00     0.249 N   
ATOM     16  H5  UNL     1      -0.263   0.917   1.329  1.00  0.00     0.199 HD  
ATOM     17  H6  UNL     1       1.375   0.990   1.442  1.00  0.00     0.199 HD  
BRANCH  15  18
ATOM     18  C9  UNL     1       0.633   1.715  -0.335  1.00  0.00     0.164 C   
BRANCH  18  19
ATOM     19  C10 UNL     1       0.557   3.127   0.174  1.00  0.00    -0.002 A   
ATOM     20  C11 UNL     1      -0.702   3.727   0.416  1.00  0.00     0.012 A   
ATOM     21  C15 UNL     1       1.732   3.839   0.467  1.00  0.00     0.045 A   
ATOM     22  C12 UNL     1      -0.792   5.024   0.932  1.00  0.00     0.037 A   
ATOM     23  C14 UNL     1       1.607   5.115   0.975  1.00  0.00     0.109 A   
ATOM     24  C13 UNL     1       0.382   5.692   1.201  1.00  0.00     0.108 A   
ATOM     25  O1  UNL     1       2.637   5.935   1.311  1.00  0.00    -0.316 OA  
ATOM     26  O2  UNL     1       0.485   6.949   1.705  1.00  0.00    -0.316 OA  
ATOM     27  C16 UNL     1       1.919   7.111   1.753  1.00  0.00     0.337 C   
ENDBRANCH  18  19
ENDBRANCH  15  18
ENDBRANCH   1  15
BRANCH   1  28
ATOM     28  C17 UNL     1       0.956  -1.535   1.679  1.00  0.00     0.043 C   
ATOM     29  C18 UNL     1       2.309  -1.197   2.320  1.00  0.00     0.010 C   
ATOM     30  C21 UNL     1       1.095  -3.036   1.405  1.00  0.00     0.010 C   
ATOM     31  C19 UNL     1       2.744  -2.455   3.073  1.00  0.00     0.001 C   
ATOM     32  C20 UNL     1       1.777  -3.558   2.660  1.00  0.00     0.001 C   
ENDBRANCH   1  28
TORSDOF 6
