REMARK SMILES Cc1cc(C)n(CCn2cc([C@@H]([NH2+]Cc3ccc4c(c3)OCO4)C3CCCC3)nn2)n1
REMARK SMILES IDX 9 1 10 2 11 3 29 4 30 5 8 7 7 8 6 9 2 10 3 11 31 12 4 13
REMARK SMILES IDX 1 14 5 15 12 16 13 17 14 20 15 21 16 22 20 23 17 24 19 25
REMARK SMILES IDX 18 26 21 27 23 28 22 29 24 30 25 31 28 32 26 33 27 34
REMARK H PARENT 10 6 13 18 13 19
ROOT
ATOM     1   N2  UNL     1      -2.084  -2.678  -1.190  1.00  0.00    -0.210 N   
ATOM     2   C8  UNL     1      -0.851  -2.406  -0.672  1.00  0.00     0.045 A   
ATOM     3   C9  UNL     1      -1.125  -1.888   0.573  1.00  0.00     0.127 A   
ATOM     4   N4  UNL     1      -2.481  -1.884   0.774  1.00  0.00    -0.132 NA  
ATOM     5   N5  UNL     1      -3.056  -2.376  -0.311  1.00  0.00    -0.076 NA  
ATOM     6   H12 UNL     1       0.060  -2.550  -1.238  1.00  0.00     0.083 HD  
ENDROOT
BRANCH   1   7
ATOM     7   C7  UNL     1      -2.412  -3.123  -2.527  1.00  0.00     0.155 C   
BRANCH   7   8
ATOM     8   C6  UNL     1      -3.216  -2.086  -3.302  1.00  0.00     0.153 C   
BRANCH   8   9
ATOM     9   N1  UNL     1      -2.545  -0.803  -3.427  1.00  0.00    -0.228 N   
ATOM     10  C2  UNL     1      -0.980   0.514  -3.989  1.00  0.00     0.057 A   
ATOM     11  C3  UNL     1      -2.081   1.325  -3.644  1.00  0.00     0.045 A   
ATOM     12  N6  UNL     1      -1.243  -0.781  -3.783  1.00  0.00    -0.187 NA  
ATOM     13  C4  UNL     1      -3.077   0.450  -3.264  1.00  0.00     0.027 A   
ATOM     14  C1  UNL     1       0.334   0.951  -4.521  1.00  0.00     0.068 C   
ATOM     15  C5  UNL     1      -4.470   0.713  -2.824  1.00  0.00     0.063 C   
ENDBRANCH   8   9
ENDBRANCH   7   8
ENDBRANCH   1   7
BRANCH   3  16
ATOM     16  C10 UNL     1      -0.228  -1.271   1.591  1.00  0.00     0.117 C   
BRANCH  16  17
ATOM     17  N3  UNL     1      -0.774   0.088   1.979  1.00  0.00     0.249 N   
ATOM     18  H14 UNL     1      -1.740  -0.073   2.293  1.00  0.00     0.199 HD  
ATOM     19  H15 UNL     1      -0.254   0.469   2.773  1.00  0.00     0.199 HD  
BRANCH  17  20
ATOM     20  C11 UNL     1      -0.817   1.119   0.898  1.00  0.00     0.164 C   
BRANCH  20  21
ATOM     21  C12 UNL     1       0.553   1.583   0.493  1.00  0.00    -0.002 A   
ATOM     22  C13 UNL     1       1.157   1.089  -0.687  1.00  0.00     0.012 A   
ATOM     23  C17 UNL     1       1.264   2.479   1.310  1.00  0.00     0.045 A   
ATOM     24  C14 UNL     1       2.453   1.473  -1.048  1.00  0.00     0.037 A   
ATOM     25  C16 UNL     1       2.537   2.842   0.923  1.00  0.00     0.109 A   
ATOM     26  C15 UNL     1       3.117   2.352  -0.221  1.00  0.00     0.108 A   
ATOM     27  O1  UNL     1       3.355   3.690   1.598  1.00  0.00    -0.316 OA  
ATOM     28  O2  UNL     1       4.375   2.828  -0.410  1.00  0.00    -0.316 OA  
ATOM     29  C18 UNL     1       4.510   3.708   0.728  1.00  0.00     0.337 C   
ENDBRANCH  20  21
ENDBRANCH  17  20
ENDBRANCH  16  17
BRANCH  16  30
ATOM     30  C19 UNL     1      -0.122  -2.125   2.870  1.00  0.00     0.043 C   
ATOM     31  C20 UNL     1       0.445  -3.528   2.631  1.00  0.00     0.010 C   
ATOM     32  C23 UNL     1       0.843  -1.560   3.922  1.00  0.00     0.010 C   
ATOM     33  C21 UNL     1       0.793  -4.001   4.034  1.00  0.00     0.001 C   
ATOM     34  C22 UNL     1       1.301  -2.757   4.755  1.00  0.00     0.001 C   
ENDBRANCH  16  30
ENDBRANCH   3  16
TORSDOF 8
