REMARK SMILES COc1ccc(F)cc1CCn1cc([C@@H]([NH2+]Cc2ccc3c(c2)OCO3)C(C)C)nn1
REMARK SMILES IDX 12 1 13 2 14 3 30 4 31 5 11 7 10 8 9 9 3 10 4 11 5 12 8 13
REMARK SMILES IDX 6 14 7 15 2 16 1 17 15 18 16 19 17 22 18 23 19 24 23 25
REMARK SMILES IDX 20 26 22 27 21 28 24 29 26 30 25 31 27 32 28 33 29 34
REMARK H PARENT 13 6 16 20 16 21
ROOT
ATOM     1   N1  UNL     1       2.174  -2.047   0.905  1.00  0.00    -0.212 N   
ATOM     2   C10 UNL     1       0.812  -1.942   0.876  1.00  0.00     0.045 A   
ATOM     3   C11 UNL     1       0.519  -1.827  -0.464  1.00  0.00     0.127 A   
ATOM     4   N3  UNL     1       1.682  -1.903  -1.189  1.00  0.00    -0.132 NA  
ATOM     5   N4  UNL     1       2.687  -2.038  -0.339  1.00  0.00    -0.076 NA  
ATOM     6   H11 UNL     1       0.212  -1.919   1.776  1.00  0.00     0.083 HD  
ENDROOT
BRANCH   1   7
ATOM     7   C9  UNL     1       3.040  -2.160   2.058  1.00  0.00     0.139 C   
BRANCH   7   8
ATOM     8   C8  UNL     1       3.583  -0.811   2.533  1.00  0.00     0.060 C   
BRANCH   8   9
ATOM     9   C7  UNL     1       2.537   0.045   3.213  1.00  0.00    -0.013 A   
ATOM     10  C2  UNL     1       1.871   1.086   2.546  1.00  0.00     0.078 A   
ATOM     11  C3  UNL     1       0.877   1.834   3.187  1.00  0.00     0.037 A   
ATOM     12  C4  UNL     1       0.557   1.567   4.517  1.00  0.00     0.042 A   
ATOM     13  C6  UNL     1       2.203  -0.208   4.553  1.00  0.00     0.045 A   
ATOM     14  C5  UNL     1       1.225   0.552   5.188  1.00  0.00     0.123 A   
ATOM     15  F1  UNL     1       0.915   0.291   6.464  1.00  0.00    -0.207 F   
BRANCH  10  16
ATOM     16  O1  UNL     1       2.145   1.322   1.223  1.00  0.00    -0.349 OA  
ATOM     17  C1  UNL     1       2.888   2.538   1.083  1.00  0.00     0.203 C   
ENDBRANCH  10  16
ENDBRANCH   8   9
ENDBRANCH   7   8
ENDBRANCH   1   7
BRANCH   3  18
ATOM     18  C12 UNL     1      -0.774  -1.581  -1.167  1.00  0.00     0.117 C   
BRANCH  18  19
ATOM     19  N2  UNL     1      -0.540  -0.797  -2.438  1.00  0.00     0.249 N   
ATOM     20  H13 UNL     1      -1.360  -0.833  -3.047  1.00  0.00     0.199 HD  
ATOM     21  H14 UNL     1       0.231  -1.274  -2.925  1.00  0.00     0.199 HD  
BRANCH  19  22
ATOM     22  C13 UNL     1      -0.123   0.627  -2.262  1.00  0.00     0.164 C   
BRANCH  22  23
ATOM     23  C14 UNL     1      -1.221   1.493  -1.710  1.00  0.00    -0.002 A   
ATOM     24  C15 UNL     1      -2.308   1.888  -2.526  1.00  0.00     0.012 A   
ATOM     25  C19 UNL     1      -1.188   1.891  -0.363  1.00  0.00     0.045 A   
ATOM     26  C16 UNL     1      -3.348   2.666  -2.006  1.00  0.00     0.037 A   
ATOM     27  C18 UNL     1      -2.227   2.659   0.118  1.00  0.00     0.109 A   
ATOM     28  C17 UNL     1      -3.278   3.034  -0.680  1.00  0.00     0.108 A   
ATOM     29  O2  UNL     1      -2.346   3.123   1.390  1.00  0.00    -0.316 OA  
ATOM     30  O3  UNL     1      -4.194   3.783  -0.012  1.00  0.00    -0.316 OA  
ATOM     31  C20 UNL     1      -3.589   3.856   1.297  1.00  0.00     0.337 C   
ENDBRANCH  22  23
ENDBRANCH  19  22
ENDBRANCH  18  19
BRANCH  18  32
ATOM     32  C21 UNL     1      -1.534  -2.898  -1.481  1.00  0.00     0.037 C   
ATOM     33  C22 UNL     1      -0.861  -3.773  -2.546  1.00  0.00     0.014 C   
ATOM     34  C23 UNL     1      -2.990  -2.627  -1.883  1.00  0.00     0.014 C   
ENDBRANCH  18  32
ENDBRANCH   3  18
TORSDOF 9
