REMARK SMILES Cc1n[nH]c(C2CCC2)c1Cn1cc([C@@H]([NH2+]Cc2ccc3c(c2)OCO3)C2CCCC2)nn1
REMARK SMILES IDX 12 1 13 2 14 3 32 4 33 5 11 7 10 8 2 9 3 10 4 11 5 12 1 13
REMARK SMILES IDX 6 15 7 16 9 17 8 18 15 19 16 20 17 23 18 24 19 25 23 26
REMARK SMILES IDX 20 27 22 28 21 29 24 30 26 31 25 32 27 33 28 34 31 35 29 36
REMARK SMILES IDX 30 37
REMARK H PARENT 13 6 4 14 16 21 16 22
ROOT
ATOM     1   N3  UNL     1      -2.590   1.376  -0.031  1.00  0.00    -0.208 N   
ATOM     2   C10 UNL     1      -1.286   1.620   0.303  1.00  0.00     0.046 A   
ATOM     3   C11 UNL     1      -0.629   1.642  -0.908  1.00  0.00     0.127 A   
ATOM     4   N5  UNL     1      -1.538   1.464  -1.919  1.00  0.00    -0.132 NA  
ATOM     5   N6  UNL     1      -2.734   1.315  -1.371  1.00  0.00    -0.076 NA  
ATOM     6   H14 UNL     1      -0.956   1.707   1.328  1.00  0.00     0.083 HD  
ENDROOT
BRANCH   1   7
ATOM     7   C9  UNL     1      -3.711   1.119   0.860  1.00  0.00     0.173 C   
BRANCH   7   8
ATOM     8   C8  UNL     1      -3.634  -0.277   1.380  1.00  0.00     0.013 A   
ATOM     9   C2  UNL     1      -2.981  -0.733   2.564  1.00  0.00     0.062 A   
ATOM     10  N1  UNL     1      -3.056  -2.062   2.692  1.00  0.00    -0.189 NA  
ATOM     11  N2  UNL     1      -3.824  -2.456   1.667  1.00  0.00    -0.242 N   
ATOM     12  C3  UNL     1      -4.163  -1.433   0.833  1.00  0.00     0.035 A   
ATOM     13  C1  UNL     1      -2.246   0.051   3.591  1.00  0.00     0.069 C   
ATOM     14  H4  UNL     1      -4.059  -3.442   1.595  1.00  0.00     0.175 HD  
BRANCH  12  15
ATOM     15  C4  UNL     1      -4.985  -1.551  -0.483  1.00  0.00     0.036 C   
ATOM     16  C5  UNL     1      -5.775  -2.867  -0.701  1.00  0.00     0.010 C   
ATOM     17  C7  UNL     1      -4.152  -1.945  -1.728  1.00  0.00     0.010 C   
ATOM     18  C6  UNL     1      -5.363  -2.782  -2.185  1.00  0.00     0.001 C   
ENDBRANCH  12  15
ENDBRANCH   7   8
ENDBRANCH   1   7
BRANCH   3  19
ATOM     19  C12 UNL     1       0.825   1.741  -1.228  1.00  0.00     0.117 C   
BRANCH  19  20
ATOM     20  N4  UNL     1       1.183   0.746  -2.313  1.00  0.00     0.249 N   
ATOM     21  H16 UNL     1       2.148   0.889  -2.623  1.00  0.00     0.199 HD  
ATOM     22  H17 UNL     1       0.568   0.953  -3.111  1.00  0.00     0.199 HD  
BRANCH  20  23
ATOM     23  C13 UNL     1       0.995  -0.701  -1.976  1.00  0.00     0.164 C   
BRANCH  23  24
ATOM     24  C14 UNL     1       1.890  -1.160  -0.857  1.00  0.00    -0.002 A   
ATOM     25  C15 UNL     1       1.356  -1.415   0.431  1.00  0.00     0.012 A   
ATOM     26  C19 UNL     1       3.273  -1.303  -1.074  1.00  0.00     0.045 A   
ATOM     27  C16 UNL     1       2.187  -1.789   1.494  1.00  0.00     0.037 A   
ATOM     28  C18 UNL     1       4.062  -1.677  -0.006  1.00  0.00     0.109 A   
ATOM     29  C17 UNL     1       3.538  -1.904   1.245  1.00  0.00     0.108 A   
ATOM     30  O1  UNL     1       5.409  -1.854  -0.045  1.00  0.00    -0.316 OA  
ATOM     31  O2  UNL     1       4.490  -2.248   2.151  1.00  0.00    -0.316 OA  
ATOM     32  C20 UNL     1       5.680  -2.224   1.329  1.00  0.00     0.337 C   
ENDBRANCH  23  24
ENDBRANCH  20  23
ENDBRANCH  19  20
BRANCH  19  33
ATOM     33  C21 UNL     1       1.216   3.151  -1.713  1.00  0.00     0.043 C   
ATOM     34  C22 UNL     1       0.914   4.250  -0.686  1.00  0.00     0.010 C   
ATOM     35  C25 UNL     1       2.719   3.340  -1.934  1.00  0.00     0.010 C   
ATOM     36  C23 UNL     1       1.782   5.432  -1.105  1.00  0.00     0.001 C   
ATOM     37  C24 UNL     1       2.902   4.854  -1.970  1.00  0.00     0.001 C   
ENDBRANCH  19  33
ENDBRANCH   3  19
TORSDOF 8
