REMARK SMILES Cc1cc(-n2cc([C@@H]([NH2+]Cc3ccc4c(c3)OCO4)C(C)(C)C)nn2)cc(=O)o1
REMARK SMILES IDX 8 1 7 2 5 3 6 4 25 5 24 6 4 7 2 8 3 9 29 10 27 11 26 12 1 13
REMARK SMILES IDX 28 14 9 15 10 18 11 19 12 20 16 21 13 22 15 23 14 24 17 25
REMARK SMILES IDX 19 26 18 27 20 28 21 29 22 30 23 31
REMARK H PARENT 9 16 9 17
ROOT
ATOM     1   C7  UNL     1      -0.899   0.993  -1.483  1.00  0.00     0.120 C   
ENDROOT
BRANCH   1   2
ATOM     2   C6  UNL     1      -0.353   1.405  -0.145  1.00  0.00     0.128 A   
ATOM     3   N1  UNL     1       0.556   2.382   1.629  1.00  0.00    -0.180 N   
ATOM     4   C5  UNL     1       0.213   2.580   0.288  1.00  0.00     0.135 A   
ATOM     5   N4  UNL     1       0.243   1.078   1.918  1.00  0.00    -0.071 NA  
ATOM     6   N3  UNL     1      -0.311   0.498   0.869  1.00  0.00    -0.131 NA  
BRANCH   3   7
ATOM     7   C4  UNL     1       1.126   3.321   2.522  1.00  0.00     0.066 A   
ATOM     8   C2  UNL     1       1.966   3.777   4.757  1.00  0.00     0.062 A   
ATOM     9   C3  UNL     1       1.419   2.918   3.888  1.00  0.00     0.055 A   
ATOM     10  O4  UNL     1       2.278   5.104   4.388  1.00  0.00    -0.279 OA  
ATOM     11  C21 UNL     1       2.014   5.549   3.128  1.00  0.00     0.292 A   
ATOM     12  C20 UNL     1       1.417   4.590   2.180  1.00  0.00     0.106 A   
ATOM     13  C1  UNL     1       2.295   3.445   6.177  1.00  0.00     0.073 C   
ATOM     14  O3  UNL     1       2.252   6.693   2.758  1.00  0.00    -0.261 OA  
ENDBRANCH   3   7
ENDBRANCH   1   2
BRANCH   1  15
ATOM     15  N2  UNL     1      -0.629  -0.480  -1.688  1.00  0.00     0.250 N   
ATOM     16  H7  UNL     1      -1.239  -0.895  -2.397  1.00  0.00     0.199 HD  
ATOM     17  H8  UNL     1      -0.864  -0.954  -0.802  1.00  0.00     0.199 HD  
BRANCH  15  18
ATOM     18  C8  UNL     1       0.780  -0.836  -2.014  1.00  0.00     0.164 C   
BRANCH  18  19
ATOM     19  C9  UNL     1       0.935  -2.328  -2.104  1.00  0.00    -0.002 A   
ATOM     20  C10 UNL     1       1.389  -3.064  -0.982  1.00  0.00     0.012 A   
ATOM     21  C14 UNL     1       0.576  -3.008  -3.281  1.00  0.00     0.045 A   
ATOM     22  C11 UNL     1       1.499  -4.458  -1.036  1.00  0.00     0.037 A   
ATOM     23  C13 UNL     1       0.690  -4.383  -3.296  1.00  0.00     0.109 A   
ATOM     24  C12 UNL     1       1.139  -5.088  -2.207  1.00  0.00     0.108 A   
ATOM     25  O1  UNL     1       0.379  -5.188  -4.345  1.00  0.00    -0.316 OA  
ATOM     26  O2  UNL     1       1.177  -6.426  -2.436  1.00  0.00    -0.316 OA  
ATOM     27  C15 UNL     1       0.700  -6.488  -3.797  1.00  0.00     0.337 C   
ENDBRANCH  18  19
ENDBRANCH  15  18
ENDBRANCH   1  15
BRANCH   1  28
ATOM     28  C16 UNL     1      -2.428   1.296  -1.671  1.00  0.00     0.010 C   
ATOM     29  C17 UNL     1      -3.317   0.481  -0.710  1.00  0.00     0.017 C   
ATOM     30  C18 UNL     1      -2.864   0.980  -3.121  1.00  0.00     0.017 C   
ATOM     31  C19 UNL     1      -2.712   2.798  -1.438  1.00  0.00     0.017 C   
ENDBRANCH   1  28
TORSDOF 6
