REMARK SMILES CC(C)C[C@H]([NH2+]Cc1ccc2c(c1)OCO2)c1cn(-c2ccc(CO)cc2F)nn1
REMARK SMILES IDX 17 1 18 2 19 3 29 4 30 5 5 6 4 7 2 8 1 9 3 10 6 11 7 14 8 15
REMARK SMILES IDX 9 16 13 17 10 18 12 19 11 20 14 21 16 22 15 23 20 24 21 25
REMARK SMILES IDX 27 26 22 27 26 28 23 29 28 30 24 31 25 32
REMARK H PARENT 6 12 6 13 25 33
ROOT
ATOM     1   C14 UNL     1       0.407   1.278  -0.380  1.00  0.00     0.127 A   
ATOM     2   C15 UNL     1       0.477   2.132  -1.457  1.00  0.00     0.135 A   
ATOM     3   N2  UNL     1       0.448   1.318  -2.575  1.00  0.00    -0.178 N   
ATOM     4   N3  UNL     1       0.340   0.025  -2.159  1.00  0.00    -0.071 NA  
ATOM     5   N4  UNL     1       0.327  -0.006  -0.836  1.00  0.00    -0.131 NA  
ENDROOT
BRANCH   1   6
ATOM     6   C5  UNL     1       0.396   1.554   1.087  1.00  0.00     0.114 C   
BRANCH   6   7
ATOM     7   C4  UNL     1       1.742   2.084   1.624  1.00  0.00     0.064 C   
BRANCH   7   8
ATOM     8   C2  UNL     1       3.040   1.333   1.245  1.00  0.00    -0.012 C   
ATOM     9   C1  UNL     1       3.083  -0.123   1.705  1.00  0.00     0.007 C   
ATOM     10  C3  UNL     1       4.244   2.078   1.834  1.00  0.00     0.007 C   
ENDBRANCH   7   8
ENDBRANCH   6   7
BRANCH   6  11
ATOM     11  N1  UNL     1      -0.030   0.359   1.892  1.00  0.00     0.249 N   
ATOM     12  H11 UNL     1       0.446  -0.465   1.502  1.00  0.00     0.199 HD  
ATOM     13  H12 UNL     1       0.273   0.439   2.868  1.00  0.00     0.199 HD  
BRANCH  11  14
ATOM     14  C6  UNL     1      -1.489   0.051   1.867  1.00  0.00     0.164 C   
BRANCH  14  15
ATOM     15  C7  UNL     1      -1.803  -1.062   2.828  1.00  0.00    -0.002 A   
ATOM     16  C8  UNL     1      -2.434  -0.785   4.061  1.00  0.00     0.012 A   
ATOM     17  C12 UNL     1      -1.421  -2.386   2.527  1.00  0.00     0.045 A   
ATOM     18  C9  UNL     1      -2.693  -1.806   4.982  1.00  0.00     0.037 A   
ATOM     19  C11 UNL     1      -1.676  -3.365   3.466  1.00  0.00     0.109 A   
ATOM     20  C10 UNL     1      -2.299  -3.085   4.655  1.00  0.00     0.108 A   
ATOM     21  O1  UNL     1      -1.358  -4.681   3.343  1.00  0.00    -0.316 OA  
ATOM     22  O2  UNL     1      -2.466  -4.191   5.425  1.00  0.00    -0.316 OA  
ATOM     23  C13 UNL     1      -1.839  -5.200   4.604  1.00  0.00     0.337 C   
ENDBRANCH  14  15
ENDBRANCH  11  14
ENDBRANCH   6  11
ENDBRANCH   1   6
BRANCH   3  24
ATOM     24  C16 UNL     1       0.491   1.655  -3.948  1.00  0.00     0.093 A   
ATOM     25  C17 UNL     1       0.381   0.641  -4.915  1.00  0.00     0.029 A   
ATOM     26  C22 UNL     1       0.624   2.977  -4.374  1.00  0.00     0.147 A   
ATOM     27  C18 UNL     1       0.387   0.961  -6.279  1.00  0.00     0.008 A   
ATOM     28  C21 UNL     1       0.630   3.294  -5.732  1.00  0.00     0.047 A   
ATOM     29  C19 UNL     1       0.492   2.292  -6.703  1.00  0.00    -0.020 A   
ATOM     30  F1  UNL     1       0.762   3.988  -3.507  1.00  0.00    -0.205 F   
BRANCH  29  31
ATOM     31  C20 UNL     1       0.509   2.624  -8.173  1.00  0.00     0.191 C   
BRANCH  31  32
ATOM     32  O3  UNL     1      -0.114   3.882  -8.393  1.00  0.00    -0.392 OA  
ATOM     33  H25 UNL     1      -0.097   4.040  -9.353  1.00  0.00     0.211 HD  
ENDBRANCH  31  32
ENDBRANCH  29  31
ENDBRANCH   3  24
TORSDOF 9
