REMARK SMILES Cc1cc([C@@H](CO)n2cc([C@@H]([NH2+]Cc3ccc4c(c3)OCO4)C3CCCCC3)nn2)c(C)s1
REMARK SMILES IDX 8 1 9 2 10 3 29 4 30 5 5 7 4 8 2 9 3 10 33 11 31 12 1 13
REMARK SMILES IDX 32 14 6 15 7 16 11 18 12 19 13 22 14 23 15 24 19 25 16 26
REMARK SMILES IDX 18 27 17 28 20 29 22 30 21 31 23 32 24 33 28 34 25 35 27 36
REMARK SMILES IDX 26 37
REMARK H PARENT 9 6 7 17 12 20 12 21
ROOT
ATOM     1   N1  UNL     1       0.846  -2.007   0.550  1.00  0.00    -0.202 N   
ATOM     2   C7  UNL     1      -0.254  -1.202   0.399  1.00  0.00     0.046 A   
ATOM     3   C8  UNL     1      -0.282  -0.918  -0.947  1.00  0.00     0.127 A   
ATOM     4   N3  UNL     1       0.770  -1.545  -1.561  1.00  0.00    -0.132 NA  
ATOM     5   N4  UNL     1       1.447  -2.212  -0.641  1.00  0.00    -0.075 NA  
ATOM     6   H9  UNL     1      -0.866  -0.894   1.236  1.00  0.00     0.083 HD  
ENDROOT
BRANCH   1   7
ATOM     7   C5  UNL     1       1.392  -2.608   1.769  1.00  0.00     0.156 C   
BRANCH   7   8
ATOM     8   C4  UNL     1       1.512  -1.539   2.850  1.00  0.00    -0.013 A   
ATOM     9   C2  UNL     1       0.970  -0.321   4.789  1.00  0.00    -0.013 A   
ATOM     10  C3  UNL     1       0.641  -1.392   3.987  1.00  0.00     0.017 A   
ATOM     11  S1  UNL     1       2.321   0.520   4.185  1.00  0.00    -0.099 S   
ATOM     12  C24 UNL     1       2.495  -0.554   2.867  1.00  0.00    -0.008 A   
ATOM     13  C1  UNL     1       0.313   0.134   6.048  1.00  0.00     0.052 C   
ATOM     14  C25 UNL     1       3.620  -0.346   1.901  1.00  0.00     0.053 C   
ENDBRANCH   7   8
BRANCH   7  15
ATOM     15  C6  UNL     1       0.575  -3.856   2.141  1.00  0.00     0.185 C   
BRANCH  15  16
ATOM     16  O1  UNL     1       1.216  -4.602   3.172  1.00  0.00    -0.394 OA  
ATOM     17  H8  UNL     1       0.695  -5.409   3.330  1.00  0.00     0.210 HD  
ENDBRANCH  15  16
ENDBRANCH   7  15
ENDBRANCH   1   7
BRANCH   3  18
ATOM     18  C9  UNL     1      -1.165  -0.019  -1.751  1.00  0.00     0.117 C   
BRANCH  18  19
ATOM     19  N2  UNL     1      -0.279   0.740  -2.723  1.00  0.00     0.249 N   
ATOM     20  H11 UNL     1       0.682   0.394  -2.565  1.00  0.00     0.199 HD  
ATOM     21  H12 UNL     1      -0.478   0.457  -3.688  1.00  0.00     0.199 HD  
BRANCH  19  22
ATOM     22  C10 UNL     1      -0.267   2.220  -2.602  1.00  0.00     0.164 C   
BRANCH  22  23
ATOM     23  C11 UNL     1       0.316   2.710  -1.305  1.00  0.00    -0.002 A   
ATOM     24  C12 UNL     1      -0.513   3.320  -0.333  1.00  0.00     0.012 A   
ATOM     25  C16 UNL     1       1.690   2.561  -1.043  1.00  0.00     0.045 A   
ATOM     26  C13 UNL     1       0.014   3.776   0.880  1.00  0.00     0.037 A   
ATOM     27  C15 UNL     1       2.178   3.027   0.160  1.00  0.00     0.109 A   
ATOM     28  C14 UNL     1       1.365   3.618   1.095  1.00  0.00     0.108 A   
ATOM     29  O2  UNL     1       3.476   2.975   0.560  1.00  0.00    -0.316 OA  
ATOM     30  O3  UNL     1       2.047   4.017   2.199  1.00  0.00    -0.316 OA  
ATOM     31  C17 UNL     1       3.396   3.652   1.837  1.00  0.00     0.337 C   
ENDBRANCH  22  23
ENDBRANCH  19  22
ENDBRANCH  18  19
BRANCH  18  32
ATOM     32  C18 UNL     1      -2.267  -0.779  -2.542  1.00  0.00     0.043 C   
ATOM     33  C19 UNL     1      -3.155   0.189  -3.355  1.00  0.00     0.010 C   
ATOM     34  C23 UNL     1      -3.155  -1.622  -1.600  1.00  0.00     0.010 C   
ATOM     35  C20 UNL     1      -4.279  -0.534  -4.093  1.00  0.00     0.001 C   
ATOM     36  C22 UNL     1      -4.280  -2.336  -2.345  1.00  0.00     0.001 C   
ATOM     37  C21 UNL     1      -5.135  -1.363  -3.145  1.00  0.00     0.000 C   
ENDBRANCH  18  32
ENDBRANCH   3  18
TORSDOF 9
