REMARK SMILES Cc1cc([C@H](CO)n2cc([C@@H]([NH2+]Cc3ccc4c(c3)OCO4)C3CCCCC3)nn2)c(C)s1
REMARK SMILES IDX 8 1 9 2 10 3 29 4 30 5 5 7 4 8 2 9 3 10 33 11 31 12 1 13
REMARK SMILES IDX 32 14 6 15 7 16 11 18 12 19 13 22 14 23 15 24 19 25 16 26
REMARK SMILES IDX 18 27 17 28 20 29 22 30 21 31 23 32 24 33 28 34 25 35 27 36
REMARK SMILES IDX 26 37
REMARK H PARENT 9 6 7 17 12 20 12 21
ROOT
ATOM     1   N1  UNL     1       0.051   2.300   0.294  1.00  0.00    -0.202 N   
ATOM     2   C7  UNL     1      -0.978   1.506   0.739  1.00  0.00     0.046 A   
ATOM     3   C8  UNL     1      -0.815   0.317   0.059  1.00  0.00     0.127 A   
ATOM     4   N3  UNL     1       0.294   0.413  -0.744  1.00  0.00    -0.132 NA  
ATOM     5   N4  UNL     1       0.809   1.622  -0.600  1.00  0.00    -0.075 NA  
ATOM     6   H9  UNL     1      -1.697   1.851   1.473  1.00  0.00     0.083 HD  
ENDROOT
BRANCH   1   7
ATOM     7   C5  UNL     1       0.425   3.646   0.751  1.00  0.00     0.156 C   
BRANCH   7   8
ATOM     8   C4  UNL     1      -0.812   4.507   0.951  1.00  0.00    -0.013 A   
ATOM     9   C2  UNL     1      -2.345   5.770   2.215  1.00  0.00    -0.013 A   
ATOM     10  C3  UNL     1      -1.190   5.021   2.243  1.00  0.00     0.017 A   
ATOM     11  S1  UNL     1      -2.980   5.878   0.639  1.00  0.00    -0.099 S   
ATOM     12  C24 UNL     1      -1.717   4.923  -0.020  1.00  0.00    -0.008 A   
ATOM     13  C1  UNL     1      -3.035   6.453   3.347  1.00  0.00     0.052 C   
ATOM     14  C25 UNL     1      -1.726   4.680  -1.497  1.00  0.00     0.053 C   
ENDBRANCH   7   8
BRANCH   7  15
ATOM     15  C6  UNL     1       1.474   4.339  -0.143  1.00  0.00     0.185 C   
BRANCH  15  16
ATOM     16  O1  UNL     1       2.754   3.713  -0.031  1.00  0.00    -0.394 OA  
ATOM     17  H8  UNL     1       2.704   2.872  -0.525  1.00  0.00     0.210 HD  
ENDBRANCH  15  16
ENDBRANCH   7  15
ENDBRANCH   1   7
BRANCH   3  18
ATOM     18  C9  UNL     1      -1.609  -0.958   0.096  1.00  0.00     0.117 C   
BRANCH  18  19
ATOM     19  N2  UNL     1      -1.039  -1.967  -0.863  1.00  0.00     0.249 N   
ATOM     20  H11 UNL     1      -1.266  -2.928  -0.602  1.00  0.00     0.199 HD  
ATOM     21  H12 UNL     1      -0.013  -1.887  -0.807  1.00  0.00     0.199 HD  
BRANCH  19  22
ATOM     22  C10 UNL     1      -1.416  -1.780  -2.295  1.00  0.00     0.164 C   
BRANCH  22  23
ATOM     23  C11 UNL     1      -0.637  -2.737  -3.152  1.00  0.00    -0.002 A   
ATOM     24  C12 UNL     1      -1.152  -4.021  -3.451  1.00  0.00     0.012 A   
ATOM     25  C16 UNL     1       0.655  -2.389  -3.584  1.00  0.00     0.045 A   
ATOM     26  C13 UNL     1      -0.389  -4.950  -4.168  1.00  0.00     0.037 A   
ATOM     27  C15 UNL     1       1.382  -3.332  -4.280  1.00  0.00     0.109 A   
ATOM     28  C14 UNL     1       0.878  -4.578  -4.561  1.00  0.00     0.108 A   
ATOM     29  O2  UNL     1       2.652  -3.172  -4.731  1.00  0.00    -0.316 OA  
ATOM     30  O3  UNL     1       1.764  -5.357  -5.235  1.00  0.00    -0.316 OA  
ATOM     31  C17 UNL     1       2.877  -4.446  -5.377  1.00  0.00     0.337 C   
ENDBRANCH  22  23
ENDBRANCH  19  22
ENDBRANCH  18  19
BRANCH  18  32
ATOM     32  C18 UNL     1      -1.690  -1.562   1.525  1.00  0.00     0.043 C   
ATOM     33  C19 UNL     1      -0.337  -2.063   2.071  1.00  0.00     0.010 C   
ATOM     34  C23 UNL     1      -2.745  -2.682   1.620  1.00  0.00     0.010 C   
ATOM     35  C20 UNL     1      -0.472  -2.581   3.504  1.00  0.00     0.001 C   
ATOM     36  C22 UNL     1      -2.881  -3.200   3.052  1.00  0.00     0.001 C   
ATOM     37  C21 UNL     1      -1.540  -3.667   3.613  1.00  0.00     0.000 C   
ENDBRANCH  18  32
ENDBRANCH   3  18
TORSDOF 9
