REMARK SMILES Cc1ccc(N([O-])[O-])cc1-n1cc([C@@H]([NH2+]Cc2ccc3c(c2)OCO3)C(C)(C)C)nn1
REMARK SMILES IDX 11 1 12 2 13 3 30 4 31 5 10 6 2 7 3 8 4 9 9 10 5 11 1 12
REMARK SMILES IDX 6 13 7 14 8 15 14 16 15 17 16 20 17 21 18 22 22 23 19 24
REMARK SMILES IDX 21 25 20 26 23 27 25 28 24 29 26 30 27 31 28 32 29 33
REMARK H PARENT 15 18 15 19
ROOT
ATOM     1   N2  UNL     1      -0.539   0.603   0.464  1.00  0.00    -0.180 N   
ATOM     2   C8  UNL     1       0.430  -0.380   0.594  1.00  0.00     0.135 A   
ATOM     3   C9  UNL     1       1.431   0.193   1.347  1.00  0.00     0.128 A   
ATOM     4   N4  UNL     1       1.062   1.462   1.682  1.00  0.00    -0.131 NA  
ATOM     5   N5  UNL     1      -0.136   1.687   1.172  1.00  0.00    -0.071 NA  
ENDROOT
BRANCH   1   6
ATOM     6   C7  UNL     1      -1.732   0.580  -0.321  1.00  0.00     0.063 A   
ATOM     7   C2  UNL     1      -2.730   1.583  -0.229  1.00  0.00    -0.027 A   
ATOM     8   C3  UNL     1      -3.857   1.507  -1.076  1.00  0.00     0.007 A   
ATOM     9   C4  UNL     1      -4.014   0.469  -1.993  1.00  0.00     0.031 A   
ATOM     10  C6  UNL     1      -1.902  -0.472  -1.244  1.00  0.00     0.057 A   
ATOM     11  C5  UNL     1      -3.034  -0.517  -2.074  1.00  0.00     0.120 A   
ATOM     12  C1  UNL     1      -2.688   2.747   0.730  1.00  0.00     0.046 C   
BRANCH  11  13
ATOM     13  N1  UNL     1      -3.173  -1.605  -3.051  1.00  0.00     0.092 N   
ATOM     14  O1  UNL     1      -2.218  -2.389  -3.169  1.00  0.00    -0.138 OA  
ATOM     15  O2  UNL     1      -4.225  -1.672  -3.699  1.00  0.00    -0.138 OA  
ENDBRANCH  11  13
ENDBRANCH   1   6
BRANCH   3  16
ATOM     16  C10 UNL     1       2.807  -0.290   1.696  1.00  0.00     0.120 C   
BRANCH  16  17
ATOM     17  N3  UNL     1       3.788   0.828   1.375  1.00  0.00     0.250 N   
ATOM     18  H9  UNL     1       3.254   1.707   1.466  1.00  0.00     0.199 HD  
ATOM     19  H10 UNL     1       4.527   0.890   2.080  1.00  0.00     0.199 HD  
BRANCH  17  20
ATOM     20  C11 UNL     1       4.420   0.798   0.021  1.00  0.00     0.164 C   
BRANCH  20  21
ATOM     21  C12 UNL     1       3.440   0.773  -1.119  1.00  0.00    -0.002 A   
ATOM     22  C13 UNL     1       2.658   1.913  -1.427  1.00  0.00     0.012 A   
ATOM     23  C17 UNL     1       3.253  -0.409  -1.859  1.00  0.00     0.045 A   
ATOM     24  C14 UNL     1       1.687   1.871  -2.434  1.00  0.00     0.037 A   
ATOM     25  C16 UNL     1       2.289  -0.415  -2.846  1.00  0.00     0.109 A   
ATOM     26  C15 UNL     1       1.523   0.689  -3.122  1.00  0.00     0.108 A   
ATOM     27  O3  UNL     1       1.970  -1.479  -3.628  1.00  0.00    -0.316 OA  
ATOM     28  O4  UNL     1       0.621   0.458  -4.111  1.00  0.00    -0.316 OA  
ATOM     29  C18 UNL     1       0.962  -0.895  -4.486  1.00  0.00     0.337 C   
ENDBRANCH  20  21
ENDBRANCH  17  20
ENDBRANCH  16  17
BRANCH  16  30
ATOM     30  C19 UNL     1       2.970  -0.766   3.180  1.00  0.00     0.010 C   
ATOM     31  C20 UNL     1       4.374  -1.381   3.388  1.00  0.00     0.017 C   
ATOM     32  C21 UNL     1       1.940  -1.876   3.491  1.00  0.00     0.017 C   
ATOM     33  C22 UNL     1       2.780   0.370   4.205  1.00  0.00     0.017 C   
ENDBRANCH  16  30
ENDBRANCH   3  16
TORSDOF 7
