REMARK SMILES CC(C)[C@H]([NH2+]Cc1ccc2c(c1)OCO2)c1cn(Cc2cc(C3CC3)no2)nn1
REMARK SMILES IDX 16 1 17 2 18 3 28 4 29 5 4 7 2 8 1 9 3 10 5 11 6 14 7 15
REMARK SMILES IDX 8 16 12 17 9 18 11 19 10 20 13 21 15 22 14 23 19 24 20 25
REMARK SMILES IDX 21 26 27 27 22 28 26 29 23 30 24 31 25 32
REMARK H PARENT 17 6 5 12 5 13
ROOT
ATOM     1   C13 UNL     1      -1.433   0.971  -1.039  1.00  0.00     0.127 A   
ATOM     2   C14 UNL     1      -1.524   0.948   0.335  1.00  0.00     0.046 A   
ATOM     3   N2  UNL     1      -2.672   0.244   0.577  1.00  0.00    -0.206 N   
ATOM     4   N4  UNL     1      -3.275  -0.104  -0.576  1.00  0.00    -0.076 NA  
ATOM     5   N5  UNL     1      -2.521   0.330  -1.573  1.00  0.00    -0.132 NA  
ATOM     6   H18 UNL     1      -0.877   1.295   1.129  1.00  0.00     0.083 HD  
ENDROOT
BRANCH   1   7
ATOM     7   C4  UNL     1      -0.341   1.449  -1.938  1.00  0.00     0.117 C   
BRANCH   7   8
ATOM     8   C2  UNL     1      -0.596   2.841  -2.572  1.00  0.00     0.037 C   
ATOM     9   C1  UNL     1      -0.639   3.941  -1.504  1.00  0.00     0.014 C   
ATOM     10  C3  UNL     1      -1.850   2.924  -3.449  1.00  0.00     0.014 C   
ENDBRANCH   7   8
BRANCH   7  11
ATOM     11  N1  UNL     1      -0.111   0.446  -3.050  1.00  0.00     0.249 N   
ATOM     12  H9  UNL     1       0.488   0.853  -3.773  1.00  0.00     0.199 HD  
ATOM     13  H10 UNL     1      -1.031   0.266  -3.474  1.00  0.00     0.199 HD  
BRANCH  11  14
ATOM     14  C5  UNL     1       0.442  -0.883  -2.639  1.00  0.00     0.164 C   
BRANCH  14  15
ATOM     15  C6  UNL     1       1.829  -0.792  -2.066  1.00  0.00    -0.002 A   
ATOM     16  C7  UNL     1       2.934  -0.504  -2.902  1.00  0.00     0.012 A   
ATOM     17  C11 UNL     1       2.031  -0.961  -0.685  1.00  0.00     0.045 A   
ATOM     18  C8  UNL     1       4.222  -0.377  -2.371  1.00  0.00     0.037 A   
ATOM     19  C10 UNL     1       3.313  -0.826  -0.194  1.00  0.00     0.109 A   
ATOM     20  C9  UNL     1       4.378  -0.542  -1.012  1.00  0.00     0.108 A   
ATOM     21  O1  UNL     1       3.677  -0.943   1.109  1.00  0.00    -0.316 OA  
ATOM     22  O2  UNL     1       5.547  -0.450  -0.328  1.00  0.00    -0.316 OA  
ATOM     23  C12 UNL     1       5.105  -0.742   1.015  1.00  0.00     0.337 C   
ENDBRANCH  14  15
ENDBRANCH  11  14
ENDBRANCH   7  11
ENDBRANCH   1   7
BRANCH   3  24
ATOM     24  C15 UNL     1      -3.188  -0.213   1.857  1.00  0.00     0.198 C   
BRANCH  24  25
ATOM     25  C16 UNL     1      -2.602  -1.528   2.195  1.00  0.00     0.106 A   
ATOM     26  C17 UNL     1      -3.118  -2.777   2.448  1.00  0.00     0.060 A   
ATOM     27  O3  UNL     1      -1.242  -1.579   2.284  1.00  0.00    -0.216 OA  
ATOM     28  C18 UNL     1      -1.978  -3.569   2.679  1.00  0.00     0.074 A   
ATOM     29  N3  UNL     1      -0.846  -2.873   2.559  1.00  0.00    -0.134 NA  
BRANCH  28  30
ATOM     30  C19 UNL     1      -2.016  -5.084   3.002  1.00  0.00     0.041 C   
ATOM     31  C20 UNL     1      -1.208  -5.612   4.159  1.00  0.00     0.011 C   
ATOM     32  C21 UNL     1      -2.704  -5.555   4.258  1.00  0.00     0.011 C   
ENDBRANCH  28  30
ENDBRANCH  24  25
ENDBRANCH   3  24
TORSDOF 8
