REMARK SMILES CC(C)(C)[C@H]([NH2+]Cc1ccc2c(c1)OCO2)c1cn(Cc2cccnc2Cl)nn1
REMARK SMILES IDX 17 1 18 2 19 3 28 4 29 5 5 7 2 8 1 9 3 10 4 11 6 12 7 15
REMARK SMILES IDX 8 16 9 17 13 18 10 19 12 20 11 21 14 22 16 23 15 24 20 25
REMARK SMILES IDX 21 26 22 27 26 28 23 29 25 30 24 31 27 32
REMARK H PARENT 18 6 6 13 6 14
ROOT
ATOM     1   C14 UNL     1       0.158  -1.038  -0.483  1.00  0.00     0.127 A   
ATOM     2   C15 UNL     1      -1.129  -0.554  -0.389  1.00  0.00     0.046 A   
ATOM     3   N2  UNL     1      -1.554  -0.981   0.839  1.00  0.00    -0.208 N   
ATOM     4   N4  UNL     1      -0.606  -1.724   1.442  1.00  0.00    -0.076 NA  
ATOM     5   N5  UNL     1       0.452  -1.756   0.648  1.00  0.00    -0.132 NA  
ATOM     6   H20 UNL     1      -1.738   0.061  -1.037  1.00  0.00     0.083 HD  
ENDROOT
BRANCH   1   7
ATOM     7   C5  UNL     1       1.222  -0.814  -1.515  1.00  0.00     0.120 C   
BRANCH   7   8
ATOM     8   C2  UNL     1       1.335  -1.956  -2.585  1.00  0.00     0.010 C   
ATOM     9   C1  UNL     1       1.787  -3.301  -1.982  1.00  0.00     0.017 C   
ATOM     10  C3  UNL     1       2.341  -1.557  -3.691  1.00  0.00     0.017 C   
ATOM     11  C4  UNL     1      -0.030  -2.170  -3.280  1.00  0.00     0.017 C   
ENDBRANCH   7   8
BRANCH   7  12
ATOM     12  N1  UNL     1       2.550  -0.621  -0.805  1.00  0.00     0.250 N   
ATOM     13  H11 UNL     1       2.633  -1.398  -0.134  1.00  0.00     0.199 HD  
ATOM     14  H12 UNL     1       3.334  -0.700  -1.455  1.00  0.00     0.199 HD  
BRANCH  12  15
ATOM     15  C6  UNL     1       2.702   0.646  -0.024  1.00  0.00     0.164 C   
BRANCH  15  16
ATOM     16  C7  UNL     1       2.688   1.874  -0.891  1.00  0.00    -0.002 A   
ATOM     17  C8  UNL     1       1.617   2.795  -0.804  1.00  0.00     0.012 A   
ATOM     18  C12 UNL     1       3.724   2.107  -1.812  1.00  0.00     0.045 A   
ATOM     19  C9  UNL     1       1.568   3.923  -1.631  1.00  0.00     0.037 A   
ATOM     20  C11 UNL     1       3.644   3.227  -2.613  1.00  0.00     0.109 A   
ATOM     21  C10 UNL     1       2.595   4.109  -2.527  1.00  0.00     0.108 A   
ATOM     22  O1  UNL     1       4.553   3.591  -3.555  1.00  0.00    -0.316 OA  
ATOM     23  O2  UNL     1       2.712   5.141  -3.404  1.00  0.00    -0.316 OA  
ATOM     24  C13 UNL     1       3.979   4.832  -4.026  1.00  0.00     0.337 C   
ENDBRANCH  15  16
ENDBRANCH  12  15
ENDBRANCH   7  12
ENDBRANCH   1   7
BRANCH   3  25
ATOM     25  C16 UNL     1      -2.816  -0.699   1.506  1.00  0.00     0.172 C   
BRANCH  25  26
ATOM     26  C17 UNL     1      -2.623   0.222   2.680  1.00  0.00     0.009 A   
ATOM     27  C18 UNL     1      -2.630  -0.285   3.987  1.00  0.00     0.010 A   
ATOM     28  C21 UNL     1      -2.403   1.591   2.544  1.00  0.00     0.133 A   
ATOM     29  C19 UNL     1      -2.434   0.571   5.067  1.00  0.00     0.021 A   
ATOM     30  N3  UNL     1      -2.198   2.442   3.571  1.00  0.00    -0.244 NA  
ATOM     31  C20 UNL     1      -2.227   1.915   4.812  1.00  0.00     0.113 A   
ATOM     32  CL1 UNL     1      -2.345   2.383   1.016  1.00  0.00    -0.062 Cl  
ENDBRANCH  25  26
ENDBRANCH   3  25
TORSDOF 7
