REMARK SMILES CC(C)C[C@H]([NH2+]Cc1ccc2c(c1)OCO2)c1cn(C[C@@H](O)c2cc(F)ccc2F)nn1
REMARK SMILES IDX 17 1 18 2 19 3 31 4 32 5 5 7 4 8 2 9 1 10 3 11 6 12 7 15
REMARK SMILES IDX 8 16 9 17 13 18 10 19 12 20 11 21 14 22 16 23 15 24 20 25
REMARK SMILES IDX 21 26 22 27 23 29 24 30 29 31 25 32 28 33 27 34 30 35 26 36
REMARK H PARENT 18 6 6 13 6 14 22 28
ROOT
ATOM     1   C14 UNL     1       0.968  -0.089   0.876  1.00  0.00     0.127 A   
ATOM     2   C15 UNL     1       0.265   0.936   1.470  1.00  0.00     0.045 A   
ATOM     3   N2  UNL     1      -1.011   0.453   1.563  1.00  0.00    -0.209 N   
ATOM     4   N3  UNL     1      -1.100  -0.780   1.032  1.00  0.00    -0.076 NA  
ATOM     5   N4  UNL     1       0.109  -1.134   0.631  1.00  0.00    -0.132 NA  
ATOM     6   H20 UNL     1       0.538   1.913   1.843  1.00  0.00     0.083 HD  
ENDROOT
BRANCH   1   7
ATOM     7   C5  UNL     1       2.414  -0.237   0.514  1.00  0.00     0.114 C   
BRANCH   7   8
ATOM     8   C4  UNL     1       3.059   1.055  -0.019  1.00  0.00     0.064 C   
BRANCH   8   9
ATOM     9   C2  UNL     1       4.555   0.963  -0.387  1.00  0.00    -0.012 C   
ATOM     10  C1  UNL     1       5.030   2.305  -0.955  1.00  0.00     0.007 C   
ATOM     11  C3  UNL     1       5.427   0.571   0.807  1.00  0.00     0.007 C   
ENDBRANCH   8   9
ENDBRANCH   7   8
BRANCH   7  12
ATOM     12  N1  UNL     1       2.611  -1.383  -0.442  1.00  0.00     0.249 N   
ATOM     13  H11 UNL     1       3.588  -1.691  -0.458  1.00  0.00     0.199 HD  
ATOM     14  H12 UNL     1       2.078  -2.167  -0.036  1.00  0.00     0.199 HD  
BRANCH  12  15
ATOM     15  C6  UNL     1       2.100  -1.225  -1.834  1.00  0.00     0.164 C   
BRANCH  15  16
ATOM     16  C7  UNL     1       2.137  -2.545  -2.553  1.00  0.00    -0.002 A   
ATOM     17  C8  UNL     1       3.285  -2.933  -3.284  1.00  0.00     0.012 A   
ATOM     18  C12 UNL     1       1.048  -3.429  -2.449  1.00  0.00     0.045 A   
ATOM     19  C9  UNL     1       3.344  -4.179  -3.916  1.00  0.00     0.037 A   
ATOM     20  C11 UNL     1       1.139  -4.649  -3.084  1.00  0.00     0.109 A   
ATOM     21  C10 UNL     1       2.254  -5.014  -3.798  1.00  0.00     0.108 A   
ATOM     22  O1  UNL     1       0.181  -5.613  -3.089  1.00  0.00    -0.316 OA  
ATOM     23  O2  UNL     1       2.138  -6.253  -4.342  1.00  0.00    -0.316 OA  
ATOM     24  C13 UNL     1       0.812  -6.623  -3.908  1.00  0.00     0.337 C   
ENDBRANCH  15  16
ENDBRANCH  12  15
ENDBRANCH   7  12
ENDBRANCH   1   7
BRANCH   3  25
ATOM     25  C16 UNL     1      -2.183   1.104   2.115  1.00  0.00     0.170 C   
BRANCH  25  26
ATOM     26  C17 UNL     1      -2.453   0.645   3.549  1.00  0.00     0.167 C   
BRANCH  26  27
ATOM     27  O3  UNL     1      -1.440   1.174   4.416  1.00  0.00    -0.387 OA  
ATOM     28  H24 UNL     1      -1.709   0.955   5.328  1.00  0.00     0.211 HD  
ENDBRANCH  26  27
BRANCH  26  29
ATOM     29  C18 UNL     1      -3.814   1.107   4.016  1.00  0.00     0.021 A   
ATOM     30  C19 UNL     1      -4.023   2.380   4.568  1.00  0.00     0.048 A   
ATOM     31  C23 UNL     1      -4.920   0.262   3.861  1.00  0.00     0.129 A   
ATOM     32  C20 UNL     1      -5.301   2.764   4.967  1.00  0.00     0.123 A   
ATOM     33  C22 UNL     1      -6.197   0.649   4.260  1.00  0.00     0.042 A   
ATOM     34  C21 UNL     1      -6.390   1.911   4.819  1.00  0.00     0.042 A   
ATOM     35  F2  UNL     1      -4.753  -0.948   3.310  1.00  0.00    -0.207 F   
ATOM     36  F1  UNL     1      -5.484   3.979   5.498  1.00  0.00    -0.207 F   
ENDBRANCH  26  29
ENDBRANCH  25  26
ENDBRANCH   3  25
TORSDOF 10
