REMARK SMILES CC(C)C[C@H]([NH2+]Cc1ccc2c(c1)OCO2)c1cn(C[C@H](O)c2cc(F)ccc2F)nn1
REMARK SMILES IDX 17 1 18 2 19 3 31 4 32 5 5 7 4 8 2 9 1 10 3 11 6 12 7 15
REMARK SMILES IDX 8 16 9 17 13 18 10 19 12 20 11 21 14 22 16 23 15 24 20 25
REMARK SMILES IDX 21 26 22 27 23 29 24 30 29 31 25 32 28 33 27 34 30 35 26 36
REMARK H PARENT 18 6 6 13 6 14 22 28
ROOT
ATOM     1   C14 UNL     1       0.709  -1.138   0.008  1.00  0.00     0.127 A   
ATOM     2   C15 UNL     1      -0.329  -2.042  -0.028  1.00  0.00     0.045 A   
ATOM     3   N2  UNL     1      -0.133  -2.813   1.084  1.00  0.00    -0.209 N   
ATOM     4   N3  UNL     1       0.969  -2.421   1.752  1.00  0.00    -0.076 NA  
ATOM     5   N4  UNL     1       1.491  -1.393   1.105  1.00  0.00    -0.132 NA  
ATOM     6   H20 UNL     1      -1.173  -2.187  -0.688  1.00  0.00     0.083 HD  
ENDROOT
BRANCH   1   7
ATOM     7   C5  UNL     1       1.027   0.035  -0.862  1.00  0.00     0.114 C   
BRANCH   7   8
ATOM     8   C4  UNL     1       2.127  -0.277  -1.893  1.00  0.00     0.064 C   
BRANCH   8   9
ATOM     9   C2  UNL     1       1.756  -1.357  -2.934  1.00  0.00    -0.012 C   
ATOM     10  C1  UNL     1       0.549  -0.955  -3.783  1.00  0.00     0.007 C   
ATOM     11  C3  UNL     1       2.957  -1.629  -3.844  1.00  0.00     0.007 C   
ENDBRANCH   8   9
ENDBRANCH   7   8
BRANCH   7  12
ATOM     12  N1  UNL     1       1.497   1.151   0.048  1.00  0.00     0.249 N   
ATOM     13  H11 UNL     1       2.363   0.829   0.504  1.00  0.00     0.199 HD  
ATOM     14  H12 UNL     1       0.820   1.199   0.821  1.00  0.00     0.199 HD  
BRANCH  12  15
ATOM     15  C6  UNL     1       1.669   2.514  -0.511  1.00  0.00     0.164 C   
BRANCH  15  16
ATOM     16  C7  UNL     1       0.407   3.071  -1.110  1.00  0.00    -0.002 A   
ATOM     17  C8  UNL     1       0.276   3.195  -2.514  1.00  0.00     0.012 A   
ATOM     18  C12 UNL     1      -0.666   3.439  -0.280  1.00  0.00     0.045 A   
ATOM     19  C9  UNL     1      -0.908   3.673  -3.086  1.00  0.00     0.037 A   
ATOM     20  C11 UNL     1      -1.819   3.906  -0.877  1.00  0.00     0.109 A   
ATOM     21  C10 UNL     1      -1.937   4.019  -2.240  1.00  0.00     0.108 A   
ATOM     22  O1  UNL     1      -2.945   4.295  -0.224  1.00  0.00    -0.316 OA  
ATOM     23  O2  UNL     1      -3.152   4.496  -2.617  1.00  0.00    -0.316 OA  
ATOM     24  C13 UNL     1      -3.778   4.705  -1.332  1.00  0.00     0.337 C   
ENDBRANCH  15  16
ENDBRANCH  12  15
ENDBRANCH   7  12
ENDBRANCH   1   7
BRANCH   3  25
ATOM     25  C16 UNL     1      -0.955  -3.897   1.586  1.00  0.00     0.170 C   
BRANCH  25  26
ATOM     26  C17 UNL     1      -2.247  -3.420   2.268  1.00  0.00     0.167 C   
BRANCH  26  27
ATOM     27  O3  UNL     1      -3.137  -2.872   1.287  1.00  0.00    -0.387 OA  
ATOM     28  H24 UNL     1      -3.997  -2.748   1.731  1.00  0.00     0.211 HD  
ENDBRANCH  26  27
BRANCH  26  29
ATOM     29  C18 UNL     1      -2.017  -2.434   3.388  1.00  0.00     0.021 A   
ATOM     30  C19 UNL     1      -2.128  -1.047   3.201  1.00  0.00     0.048 A   
ATOM     31  C23 UNL     1      -1.619  -2.901   4.647  1.00  0.00     0.129 A   
ATOM     32  C20 UNL     1      -1.843  -0.176   4.250  1.00  0.00     0.123 A   
ATOM     33  C22 UNL     1      -1.349  -2.029   5.699  1.00  0.00     0.042 A   
ATOM     34  C21 UNL     1      -1.460  -0.654   5.498  1.00  0.00     0.042 A   
ATOM     35  F2  UNL     1      -1.483  -4.219   4.845  1.00  0.00    -0.207 F   
ATOM     36  F1  UNL     1      -1.920   1.144   4.040  1.00  0.00    -0.207 F   
ENDBRANCH  26  29
ENDBRANCH  25  26
ENDBRANCH   3  25
TORSDOF 10
