REMARK SMILES [O-]N([O-])c1cccc(-n2cc([C@@H]([NH2+]Cc3ccc4c(c3)OCO4)C3CCCC3)nn2)c1
REMARK SMILES IDX 9 1 10 2 11 3 29 4 30 5 8 6 4 7 5 8 31 9 6 10 7 11 2 12 1 13
REMARK SMILES IDX 3 14 12 15 13 16 14 19 15 20 16 21 20 22 17 23 19 24 18 25
REMARK SMILES IDX 21 26 23 27 22 28 24 29 25 30 28 31 26 32 27 33
REMARK H PARENT 13 17 13 18
ROOT
ATOM     1   N2  UNL     1       2.429  -0.015  -1.469  1.00  0.00    -0.181 N   
ATOM     2   C6  UNL     1       2.054   0.770  -0.395  1.00  0.00     0.135 A   
ATOM     3   C7  UNL     1       0.859   0.238   0.038  1.00  0.00     0.127 A   
ATOM     4   N4  UNL     1       0.521  -0.811  -0.769  1.00  0.00    -0.131 NA  
ATOM     5   N5  UNL     1       1.466  -0.947  -1.683  1.00  0.00    -0.071 NA  
ENDROOT
BRANCH   1   6
ATOM     6   C5  UNL     1       3.589   0.070  -2.281  1.00  0.00     0.060 A   
ATOM     7   C1  UNL     1       5.701   1.105  -2.872  1.00  0.00     0.120 A   
ATOM     8   C2  UNL     1       5.872   0.197  -3.923  1.00  0.00     0.031 A   
ATOM     9   C22 UNL     1       4.564   1.049  -2.046  1.00  0.00     0.057 A   
ATOM     10  C3  UNL     1       4.899  -0.775  -4.150  1.00  0.00     0.004 A   
ATOM     11  C4  UNL     1       3.764  -0.841  -3.337  1.00  0.00     0.026 A   
BRANCH   7  12
ATOM     12  N1  UNL     1       6.721   2.135  -2.626  1.00  0.00     0.092 N   
ATOM     13  O1  UNL     1       6.513   2.927  -1.695  1.00  0.00    -0.138 OA  
ATOM     14  O2  UNL     1       7.718   2.150  -3.359  1.00  0.00    -0.138 OA  
ENDBRANCH   7  12
ENDBRANCH   1   6
BRANCH   3  15
ATOM     15  C8  UNL     1      -0.059   0.638   1.151  1.00  0.00     0.117 C   
BRANCH  15  16
ATOM     16  N3  UNL     1      -1.489   0.357   0.757  1.00  0.00     0.249 N   
ATOM     17  H6  UNL     1      -2.117   0.358   1.566  1.00  0.00     0.199 HD  
ATOM     18  H7  UNL     1      -1.514  -0.603   0.378  1.00  0.00     0.199 HD  
BRANCH  16  19
ATOM     19  C9  UNL     1      -2.059   1.261  -0.281  1.00  0.00     0.164 C   
BRANCH  19  20
ATOM     20  C10 UNL     1      -3.467   0.855  -0.613  1.00  0.00    -0.002 A   
ATOM     21  C11 UNL     1      -4.563   1.462   0.045  1.00  0.00     0.012 A   
ATOM     22  C15 UNL     1      -3.699  -0.173  -1.543  1.00  0.00     0.045 A   
ATOM     23  C12 UNL     1      -5.875   1.059  -0.226  1.00  0.00     0.037 A   
ATOM     24  C14 UNL     1      -5.004  -0.546  -1.787  1.00  0.00     0.109 A   
ATOM     25  C13 UNL     1      -6.062   0.052  -1.147  1.00  0.00     0.108 A   
ATOM     26  O3  UNL     1      -5.401  -1.517  -2.651  1.00  0.00    -0.316 OA  
ATOM     27  O4  UNL     1      -7.258  -0.465  -1.530  1.00  0.00    -0.316 OA  
ATOM     28  C16 UNL     1      -6.837  -1.447  -2.502  1.00  0.00     0.337 C   
ENDBRANCH  19  20
ENDBRANCH  16  19
ENDBRANCH  15  16
BRANCH  15  29
ATOM     29  C17 UNL     1       0.245  -0.129   2.454  1.00  0.00     0.043 C   
ATOM     30  C18 UNL     1       1.644   0.147   3.015  1.00  0.00     0.010 C   
ATOM     31  C21 UNL     1      -0.656   0.254   3.636  1.00  0.00     0.010 C   
ATOM     32  C19 UNL     1       1.563  -0.385   4.437  1.00  0.00     0.001 C   
ATOM     33  C20 UNL     1       0.144  -0.071   4.898  1.00  0.00     0.001 C   
ENDBRANCH  15  29
ENDBRANCH   3  15
TORSDOF 7
