REMARK SMILES COc1ccc(CCn2cc([C@@H]([NH2+]Cc3ccc4c(c3)OCO4)C(C)C)nn2)cc1C
REMARK SMILES IDX 9 1 10 2 11 3 27 4 28 5 8 7 7 8 6 9 3 10 4 11 30 12 5 13
REMARK SMILES IDX 29 14 31 15 2 16 1 17 12 18 13 19 14 22 15 23 16 24 20 25
REMARK SMILES IDX 17 26 19 27 18 28 21 29 23 30 22 31 24 32 25 33 26 34
REMARK H PARENT 10 6 13 20 13 21
ROOT
ATOM     1   N1  UNL     1      -1.751   0.673   1.729  1.00  0.00    -0.212 N   
ATOM     2   C8  UNL     1      -0.936   1.011   0.685  1.00  0.00     0.045 A   
ATOM     3   C9  UNL     1      -1.342   0.174  -0.331  1.00  0.00     0.127 A   
ATOM     4   N3  UNL     1      -2.400  -0.581   0.102  1.00  0.00    -0.132 NA  
ATOM     5   N4  UNL     1      -2.661  -0.245   1.355  1.00  0.00    -0.076 NA  
ATOM     6   H10 UNL     1      -0.124   1.717   0.786  1.00  0.00     0.083 HD  
ENDROOT
BRANCH   1   7
ATOM     7   C7  UNL     1      -1.581   1.026   3.124  1.00  0.00     0.139 C   
BRANCH   7   8
ATOM     8   C6  UNL     1      -1.077  -0.145   3.978  1.00  0.00     0.057 C   
BRANCH   8   9
ATOM     9   C5  UNL     1       0.110  -0.863   3.374  1.00  0.00    -0.046 A   
ATOM     10  C2  UNL     1       2.254  -2.176   2.106  1.00  0.00     0.077 A   
ATOM     11  C3  UNL     1       2.433  -0.912   2.680  1.00  0.00     0.034 A   
ATOM     12  C23 UNL     1       0.995  -2.793   2.163  1.00  0.00    -0.021 A   
ATOM     13  C4  UNL     1       1.370  -0.261   3.315  1.00  0.00     0.006 A   
ATOM     14  C22 UNL     1      -0.064  -2.132   2.802  1.00  0.00     0.010 A   
ATOM     15  C24 UNL     1       0.772  -4.168   1.591  1.00  0.00     0.047 C   
BRANCH  10  16
ATOM     16  O1  UNL     1       3.235  -2.865   1.442  1.00  0.00    -0.349 OA  
ATOM     17  C1  UNL     1       4.578  -2.545   1.813  1.00  0.00     0.203 C   
ENDBRANCH  10  16
ENDBRANCH   8   9
ENDBRANCH   7   8
ENDBRANCH   1   7
BRANCH   3  18
ATOM     18  C10 UNL     1      -0.730  -0.091  -1.669  1.00  0.00     0.117 C   
BRANCH  18  19
ATOM     19  N2  UNL     1      -0.519  -1.582  -1.775  1.00  0.00     0.249 N   
ATOM     20  H12 UNL     1      -1.442  -2.031  -1.711  1.00  0.00     0.199 HD  
ATOM     21  H13 UNL     1      -0.047  -1.868  -0.906  1.00  0.00     0.199 HD  
BRANCH  19  22
ATOM     22  C11 UNL     1       0.258  -2.118  -2.921  1.00  0.00     0.164 C   
BRANCH  22  23
ATOM     23  C12 UNL     1       1.691  -1.669  -2.922  1.00  0.00    -0.002 A   
ATOM     24  C13 UNL     1       2.627  -2.265  -2.044  1.00  0.00     0.012 A   
ATOM     25  C17 UNL     1       2.109  -0.628  -3.770  1.00  0.00     0.045 A   
ATOM     26  C14 UNL     1       3.958  -1.834  -2.010  1.00  0.00     0.037 A   
ATOM     27  C16 UNL     1       3.425  -0.222  -3.706  1.00  0.00     0.109 A   
ATOM     28  C15 UNL     1       4.325  -0.807  -2.851  1.00  0.00     0.108 A   
ATOM     29  O2  UNL     1       3.983   0.773  -4.446  1.00  0.00    -0.316 OA  
ATOM     30  O3  UNL     1       5.563  -0.259  -2.946  1.00  0.00    -0.316 OA  
ATOM     31  C18 UNL     1       5.356   0.707  -4.000  1.00  0.00     0.337 C   
ENDBRANCH  22  23
ENDBRANCH  19  22
ENDBRANCH  18  19
BRANCH  18  32
ATOM     32  C19 UNL     1      -1.550   0.462  -2.863  1.00  0.00     0.037 C   
ATOM     33  C20 UNL     1      -1.669   1.990  -2.792  1.00  0.00     0.014 C   
ATOM     34  C21 UNL     1      -2.941  -0.159  -3.030  1.00  0.00     0.014 C   
ENDBRANCH  18  32
ENDBRANCH   3  18
TORSDOF 9
