REMARK SMILES Nc1ccc(Cn2cc([C@@H]([NH2+]Cc3ccc4c(c3)OCO4)C3CCCCC3)nn2)nc1
REMARK SMILES IDX 7 1 8 2 9 3 28 4 29 5 6 7 5 8 2 9 3 10 31 11 4 12 30 13 1 14
REMARK SMILES IDX 10 17 11 18 12 21 13 22 14 23 18 24 15 25 17 26 16 27 19 28
REMARK SMILES IDX 21 29 20 30 22 31 23 32 27 33 24 34 26 35 25 36
REMARK H PARENT 8 6 1 15 1 16 11 19 11 20
ROOT
ATOM     1   N2  UNL     1       1.617   0.787  -3.348  1.00  0.00    -0.206 N   
ATOM     2   C6  UNL     1       2.058   0.711  -2.054  1.00  0.00     0.046 A   
ATOM     3   C7  UNL     1       0.922   0.907  -1.302  1.00  0.00     0.127 A   
ATOM     4   N4  UNL     1      -0.139   1.136  -2.143  1.00  0.00    -0.132 NA  
ATOM     5   N5  UNL     1       0.301   1.081  -3.389  1.00  0.00    -0.076 NA  
ATOM     6   H7  UNL     1       3.089   0.492  -1.812  1.00  0.00     0.083 HD  
ENDROOT
BRANCH   1   7
ATOM     7   C5  UNL     1       2.381   0.618  -4.568  1.00  0.00     0.190 C   
BRANCH   7   8
ATOM     8   C4  UNL     1       2.669  -0.840  -4.799  1.00  0.00     0.060 A   
ATOM     9   C1  UNL     1       3.257  -3.522  -5.181  1.00  0.00     0.042 A   
ATOM     10  C2  UNL     1       2.070  -2.992  -5.680  1.00  0.00     0.026 A   
ATOM     11  C23 UNL     1       4.052  -2.658  -4.431  1.00  0.00     0.134 A   
ATOM     12  C3  UNL     1       1.776  -1.639  -5.509  1.00  0.00     0.027 A   
ATOM     13  N6  UNL     1       3.799  -1.339  -4.239  1.00  0.00    -0.258 NA  
BRANCH   9  14
ATOM     14  N1  UNL     1       3.500  -4.896  -5.236  1.00  0.00    -0.357 N   
ATOM     15  H1  UNL     1       3.058  -5.366  -6.022  1.00  0.00     0.143 HD  
ATOM     16  H2  UNL     1       4.479  -5.155  -5.148  1.00  0.00     0.143 HD  
ENDBRANCH   9  14
ENDBRANCH   7   8
ENDBRANCH   1   7
BRANCH   3  17
ATOM     17  C8  UNL     1       0.707   0.910   0.179  1.00  0.00     0.117 C   
BRANCH  17  18
ATOM     18  N3  UNL     1      -0.598   1.582   0.513  1.00  0.00     0.249 N   
ATOM     19  H9  UNL     1      -0.971   1.286   1.418  1.00  0.00     0.199 HD  
ATOM     20  H10 UNL     1      -1.278   1.267  -0.197  1.00  0.00     0.199 HD  
BRANCH  18  21
ATOM     21  C9  UNL     1      -0.575   3.070   0.460  1.00  0.00     0.164 C   
BRANCH  21  22
ATOM     22  C10 UNL     1      -1.958   3.620   0.663  1.00  0.00    -0.002 A   
ATOM     23  C11 UNL     1      -2.821   3.793  -0.446  1.00  0.00     0.012 A   
ATOM     24  C15 UNL     1      -2.425   3.906   1.956  1.00  0.00     0.045 A   
ATOM     25  C12 UNL     1      -4.129   4.256  -0.272  1.00  0.00     0.037 A   
ATOM     26  C14 UNL     1      -3.721   4.359   2.092  1.00  0.00     0.109 A   
ATOM     27  C13 UNL     1      -4.549   4.529   1.011  1.00  0.00     0.108 A   
ATOM     28  O1  UNL     1      -4.327   4.677   3.267  1.00  0.00    -0.316 OA  
ATOM     29  O2  UNL     1      -5.781   4.976   1.367  1.00  0.00    -0.316 OA  
ATOM     30  C16 UNL     1      -5.629   5.093   2.798  1.00  0.00     0.337 C   
ENDBRANCH  21  22
ENDBRANCH  18  21
ENDBRANCH  17  18
BRANCH  17  31
ATOM     31  C17 UNL     1       0.748  -0.522   0.780  1.00  0.00     0.043 C   
ATOM     32  C18 UNL     1      -0.431  -1.416   0.344  1.00  0.00     0.010 C   
ATOM     33  C22 UNL     1       0.855  -0.493   2.318  1.00  0.00     0.010 C   
ATOM     34  C19 UNL     1      -0.319  -2.820   0.935  1.00  0.00     0.001 C   
ATOM     35  C21 UNL     1       0.962  -1.900   2.903  1.00  0.00     0.001 C   
ATOM     36  C20 UNL     1      -0.197  -2.784   2.455  1.00  0.00     0.000 C   
ENDBRANCH  17  31
ENDBRANCH   3  17
TORSDOF 8
