REMARK SMILES CC(C)C[C@H]([NH2+]Cc1ccc2c(c1)OCO2)c1cn([C@@H](C)c2ccc(F)nc2)nn1
REMARK SMILES IDX 17 1 18 2 19 3 29 4 30 5 5 7 4 8 2 9 1 10 3 11 6 12 7 15
REMARK SMILES IDX 8 16 9 17 13 18 10 19 12 20 11 21 14 22 16 23 15 24 20 25
REMARK SMILES IDX 21 26 22 27 23 28 28 29 24 30 27 31 25 32 26 33
REMARK H PARENT 18 6 6 13 6 14
ROOT
ATOM     1   C14 UNL     1       0.901   1.335  -0.242  1.00  0.00     0.127 A   
ATOM     2   C15 UNL     1       0.075   1.438   0.856  1.00  0.00     0.046 A   
ATOM     3   N2  UNL     1      -1.109   1.892   0.338  1.00  0.00    -0.205 N   
ATOM     4   N4  UNL     1      -1.012   2.059  -0.997  1.00  0.00    -0.075 NA  
ATOM     5   N5  UNL     1       0.210   1.714  -1.363  1.00  0.00    -0.132 NA  
ATOM     6   H20 UNL     1       0.203   1.218   1.907  1.00  0.00     0.083 HD  
ENDROOT
BRANCH   1   7
ATOM     7   C5  UNL     1       2.299   0.834  -0.397  1.00  0.00     0.114 C   
BRANCH   7   8
ATOM     8   C4  UNL     1       3.310   1.970  -0.643  1.00  0.00     0.064 C   
BRANCH   8   9
ATOM     9   C2  UNL     1       3.447   2.986   0.511  1.00  0.00    -0.012 C   
ATOM     10  C1  UNL     1       4.426   4.092   0.111  1.00  0.00     0.007 C   
ATOM     11  C3  UNL     1       3.913   2.331   1.812  1.00  0.00     0.007 C   
ENDBRANCH   8   9
ENDBRANCH   7   8
BRANCH   7  12
ATOM     12  N1  UNL     1       2.349  -0.086  -1.606  1.00  0.00     0.249 N   
ATOM     13  H11 UNL     1       1.537   0.171  -2.192  1.00  0.00     0.199 HD  
ATOM     14  H12 UNL     1       3.172   0.118  -2.182  1.00  0.00     0.199 HD  
BRANCH  12  15
ATOM     15  C6  UNL     1       2.296  -1.549  -1.333  1.00  0.00     0.164 C   
BRANCH  15  16
ATOM     16  C7  UNL     1       1.094  -1.992  -0.547  1.00  0.00    -0.002 A   
ATOM     17  C8  UNL     1      -0.195  -1.986  -1.132  1.00  0.00     0.012 A   
ATOM     18  C12 UNL     1       1.241  -2.398   0.791  1.00  0.00     0.045 A   
ATOM     19  C9  UNL     1      -1.320  -2.379  -0.398  1.00  0.00     0.037 A   
ATOM     20  C11 UNL     1       0.111  -2.776   1.486  1.00  0.00     0.109 A   
ATOM     21  C10 UNL     1      -1.134  -2.768   0.909  1.00  0.00     0.108 A   
ATOM     22  O1  UNL     1       0.082  -3.187   2.781  1.00  0.00    -0.316 OA  
ATOM     23  O2  UNL     1      -2.103  -3.179   1.768  1.00  0.00    -0.316 OA  
ATOM     24  C13 UNL     1      -1.320  -3.504   2.934  1.00  0.00     0.337 C   
ENDBRANCH  15  16
ENDBRANCH  12  15
ENDBRANCH   7  12
ENDBRANCH   1   7
BRANCH   3  25
ATOM     25  C16 UNL     1      -2.361   2.157   1.050  1.00  0.00     0.128 C   
ATOM     26  C17 UNL     1      -3.031   3.461   0.609  1.00  0.00     0.036 C   
BRANCH  25  27
ATOM     27  C18 UNL     1      -3.290   0.965   0.955  1.00  0.00    -0.007 A   
ATOM     28  C19 UNL     1      -3.693   0.269   2.101  1.00  0.00     0.012 A   
ATOM     29  C22 UNL     1      -3.788   0.512  -0.268  1.00  0.00     0.120 A   
ATOM     30  C20 UNL     1      -4.548  -0.824   1.981  1.00  0.00     0.061 A   
ATOM     31  N3  UNL     1      -4.603  -0.555  -0.412  1.00  0.00    -0.228 NA  
ATOM     32  C21 UNL     1      -4.967  -1.195   0.717  1.00  0.00     0.212 A   
ATOM     33  F1  UNL     1      -5.777  -2.256   0.596  1.00  0.00    -0.185 F   
ENDBRANCH  25  27
ENDBRANCH   3  25
TORSDOF 8
