REMARK SMILES CC(C)C[C@H]([NH2+]Cc1ccc2c(c1)OCO2)c1cn([C@H](C)c2ccc(F)nc2)nn1
REMARK SMILES IDX 17 1 18 2 19 3 29 4 30 5 5 7 4 8 2 9 1 10 3 11 6 12 7 15
REMARK SMILES IDX 8 16 9 17 13 18 10 19 12 20 11 21 14 22 16 23 15 24 20 25
REMARK SMILES IDX 21 26 22 27 23 28 28 29 24 30 27 31 25 32 26 33
REMARK H PARENT 18 6 6 13 6 14
ROOT
ATOM     1   C14 UNL     1       0.695   0.753   0.689  1.00  0.00     0.127 A   
ATOM     2   C15 UNL     1       0.478   1.590  -0.384  1.00  0.00     0.046 A   
ATOM     3   N2  UNL     1       1.242   2.693  -0.106  1.00  0.00    -0.205 N   
ATOM     4   N4  UNL     1       1.942   2.510   1.032  1.00  0.00    -0.075 NA  
ATOM     5   N5  UNL     1       1.605   1.334   1.533  1.00  0.00    -0.132 NA  
ATOM     6   H20 UNL     1      -0.154   1.529  -1.259  1.00  0.00     0.083 HD  
ENDROOT
BRANCH   1   7
ATOM     7   C5  UNL     1       0.143  -0.593   1.021  1.00  0.00     0.114 C   
BRANCH   7   8
ATOM     8   C4  UNL     1      -1.069  -0.514   1.972  1.00  0.00     0.064 C   
BRANCH   8   9
ATOM     9   C2  UNL     1      -2.310   0.207   1.403  1.00  0.00    -0.012 C   
ATOM     10  C1  UNL     1      -3.405   0.269   2.473  1.00  0.00     0.007 C   
ATOM     11  C3  UNL     1      -2.856  -0.473   0.147  1.00  0.00     0.007 C   
ENDBRANCH   8   9
ENDBRANCH   7   8
BRANCH   7  12
ATOM     12  N1  UNL     1       1.192  -1.430   1.729  1.00  0.00     0.249 N   
ATOM     13  H11 UNL     1       0.760  -2.264   2.136  1.00  0.00     0.199 HD  
ATOM     14  H12 UNL     1       1.540  -0.854   2.509  1.00  0.00     0.199 HD  
BRANCH  12  15
ATOM     15  C6  UNL     1       2.378  -1.839   0.918  1.00  0.00     0.164 C   
BRANCH  15  16
ATOM     16  C7  UNL     1       2.025  -2.777  -0.202  1.00  0.00    -0.002 A   
ATOM     17  C8  UNL     1       1.703  -4.129   0.069  1.00  0.00     0.012 A   
ATOM     18  C12 UNL     1       1.977  -2.305  -1.525  1.00  0.00     0.045 A   
ATOM     19  C9  UNL     1       1.333  -4.998  -0.963  1.00  0.00     0.037 A   
ATOM     20  C11 UNL     1       1.605  -3.188  -2.518  1.00  0.00     0.109 A   
ATOM     21  C10 UNL     1       1.292  -4.497  -2.245  1.00  0.00     0.108 A   
ATOM     22  O1  UNL     1       1.498  -2.893  -3.839  1.00  0.00    -0.316 OA  
ATOM     23  O2  UNL     1       0.951  -5.191  -3.361  1.00  0.00    -0.316 OA  
ATOM     24  C13 UNL     1       1.116  -4.179  -4.378  1.00  0.00     0.337 C   
ENDBRANCH  15  16
ENDBRANCH  12  15
ENDBRANCH   7  12
ENDBRANCH   1   7
BRANCH   3  25
ATOM     25  C16 UNL     1       1.296   3.954  -0.849  1.00  0.00     0.128 C   
ATOM     26  C17 UNL     1       2.622   4.704  -0.695  1.00  0.00     0.036 C   
BRANCH  25  27
ATOM     27  C18 UNL     1       0.108   4.822  -0.490  1.00  0.00    -0.007 A   
ATOM     28  C19 UNL     1      -0.771   5.288  -1.475  1.00  0.00     0.012 A   
ATOM     29  C22 UNL     1      -0.157   5.199   0.828  1.00  0.00     0.120 A   
ATOM     30  C20 UNL     1      -1.859   6.078  -1.111  1.00  0.00     0.061 A   
ATOM     31  N3  UNL     1      -1.213   5.952   1.205  1.00  0.00    -0.228 NA  
ATOM     32  C21 UNL     1      -2.036   6.378   0.227  1.00  0.00     0.212 A   
ATOM     33  F1  UNL     1      -3.088   7.128   0.582  1.00  0.00    -0.185 F   
ENDBRANCH  25  27
ENDBRANCH   3  25
TORSDOF 8
