REMARK SMILES CCc1[nH]nc(C)c1Cn1cc([C@@H]([NH2+]Cc2ccc3c(c2)OCO3)C2CCCC2)nn1
REMARK SMILES IDX 10 1 11 2 12 3 30 4 31 5 9 7 8 8 3 9 4 10 5 11 6 12 7 14
REMARK SMILES IDX 2 15 1 16 13 17 14 18 15 21 16 22 17 23 21 24 18 25 20 26
REMARK SMILES IDX 19 27 22 28 24 29 23 30 25 31 26 32 29 33 27 34 28 35
REMARK H PARENT 11 6 4 13 14 19 14 20
ROOT
ATOM     1   N3  UNL     1      -0.007   2.077  -1.369  1.00  0.00    -0.208 N   
ATOM     2   C8  UNL     1      -0.043   0.709  -1.336  1.00  0.00     0.046 A   
ATOM     3   C9  UNL     1      -1.294   0.422  -0.840  1.00  0.00     0.127 A   
ATOM     4   N5  UNL     1      -1.982   1.591  -0.646  1.00  0.00    -0.132 NA  
ATOM     5   N6  UNL     1      -1.184   2.596  -0.969  1.00  0.00    -0.076 NA  
ATOM     6   H12 UNL     1       0.814   0.103  -1.589  1.00  0.00     0.083 HD  
ENDROOT
BRANCH   1   7
ATOM     7   C7  UNL     1       1.139   2.934  -1.636  1.00  0.00     0.173 C   
BRANCH   7   8
ATOM     8   C6  UNL     1       2.133   2.792  -0.529  1.00  0.00     0.013 A   
ATOM     9   C3  UNL     1       3.380   2.187  -0.564  1.00  0.00     0.031 A   
ATOM     10  N1  UNL     1       3.880   2.286   0.706  1.00  0.00    -0.242 N   
ATOM     11  N2  UNL     1       3.027   2.851   1.570  1.00  0.00    -0.189 NA  
ATOM     12  C4  UNL     1       1.997   3.243   0.816  1.00  0.00     0.062 A   
ATOM     13  H6  UNL     1       4.782   1.975   1.055  1.00  0.00     0.175 HD  
ATOM     14  C5  UNL     1       0.881   4.002   1.439  1.00  0.00     0.069 C   
BRANCH   9  15
ATOM     15  C2  UNL     1       4.158   1.541  -1.659  1.00  0.00     0.050 C   
ATOM     16  C1  UNL     1       4.986   2.560  -2.427  1.00  0.00     0.010 C   
ENDBRANCH   9  15
ENDBRANCH   7   8
ENDBRANCH   1   7
BRANCH   3  17
ATOM     17  C10 UNL     1      -1.893  -0.875  -0.410  1.00  0.00     0.117 C   
BRANCH  17  18
ATOM     18  N4  UNL     1      -2.509  -0.735   0.970  1.00  0.00     0.249 N   
ATOM     19  H14 UNL     1      -2.967  -1.608   1.240  1.00  0.00     0.199 HD  
ATOM     20  H15 UNL     1      -3.239  -0.014   0.894  1.00  0.00     0.199 HD  
BRANCH  18  21
ATOM     21  C11 UNL     1      -1.591  -0.313   2.076  1.00  0.00     0.164 C   
BRANCH  21  22
ATOM     22  C12 UNL     1      -0.399  -1.212   2.251  1.00  0.00    -0.002 A   
ATOM     23  C13 UNL     1       0.908  -0.699   2.064  1.00  0.00     0.012 A   
ATOM     24  C17 UNL     1      -0.567  -2.566   2.587  1.00  0.00     0.045 A   
ATOM     25  C14 UNL     1       2.031  -1.523   2.188  1.00  0.00     0.037 A   
ATOM     26  C16 UNL     1       0.561  -3.354   2.693  1.00  0.00     0.109 A   
ATOM     27  C15 UNL     1       1.823  -2.849   2.496  1.00  0.00     0.108 A   
ATOM     28  O1  UNL     1       0.571  -4.683   2.983  1.00  0.00    -0.316 OA  
ATOM     29  O2  UNL     1       2.787  -3.796   2.642  1.00  0.00    -0.316 OA  
ATOM     30  C18 UNL     1       1.993  -4.948   2.997  1.00  0.00     0.337 C   
ENDBRANCH  21  22
ENDBRANCH  18  21
ENDBRANCH  17  18
BRANCH  17  31
ATOM     31  C19 UNL     1      -2.988  -1.364  -1.377  1.00  0.00     0.043 C   
ATOM     32  C20 UNL     1      -3.600  -2.719  -0.996  1.00  0.00     0.010 C   
ATOM     33  C23 UNL     1      -2.477  -1.629  -2.797  1.00  0.00     0.010 C   
ATOM     34  C21 UNL     1      -4.139  -3.314  -2.297  1.00  0.00     0.001 C   
ATOM     35  C22 UNL     1      -3.598  -2.443  -3.425  1.00  0.00     0.001 C   
ENDBRANCH  17  31
ENDBRANCH   3  17
TORSDOF 8
