REMARK SMILES COc1ccnc(Cn2cc([C@@H]([NH2+]Cc3ccc4c(c3)OCO4)C(C)C)nn2)c1
REMARK SMILES IDX 9 1 10 2 11 3 27 4 28 5 8 7 7 8 3 9 4 10 29 11 5 12 6 13
REMARK SMILES IDX 2 14 1 15 12 16 13 17 14 20 15 21 16 22 20 23 17 24 19 25
REMARK SMILES IDX 18 26 21 27 23 28 22 29 24 30 25 31 26 32
REMARK H PARENT 10 6 13 18 13 19
ROOT
ATOM     1   N2  UNL     1      -0.240  -0.227   2.412  1.00  0.00    -0.206 N   
ATOM     2   C7  UNL     1      -1.216  -0.675   1.562  1.00  0.00     0.046 A   
ATOM     3   C8  UNL     1      -0.850  -0.168   0.337  1.00  0.00     0.127 A   
ATOM     4   N4  UNL     1       0.275   0.606   0.490  1.00  0.00    -0.132 NA  
ATOM     5   N5  UNL     1       0.629   0.571   1.764  1.00  0.00    -0.076 NA  
ATOM     6   H8  UNL     1      -2.020  -1.316   1.899  1.00  0.00     0.083 HD  
ENDROOT
BRANCH   1   7
ATOM     7   C6  UNL     1      -0.100  -0.484   3.833  1.00  0.00     0.190 C   
BRANCH   7   8
ATOM     8   C5  UNL     1       0.487  -1.850   4.059  1.00  0.00     0.062 A   
ATOM     9   C2  UNL     1       2.377  -3.308   4.332  1.00  0.00     0.078 A   
ATOM     10  C3  UNL     1       1.497  -4.373   4.477  1.00  0.00     0.053 A   
ATOM     11  C21 UNL     1       1.866  -2.030   4.113  1.00  0.00     0.059 A   
ATOM     12  C4  UNL     1       0.139  -4.112   4.394  1.00  0.00     0.114 A   
ATOM     13  N1  UNL     1      -0.385  -2.883   4.181  1.00  0.00    -0.259 NA  
BRANCH   9  14
ATOM     14  O1  UNL     1       3.742  -3.377   4.377  1.00  0.00    -0.349 OA  
ATOM     15  C1  UNL     1       4.309  -4.622   4.771  1.00  0.00     0.203 C   
ENDBRANCH   9  14
ENDBRANCH   7   8
ENDBRANCH   1   7
BRANCH   3  16
ATOM     16  C9  UNL     1      -1.480  -0.282  -1.014  1.00  0.00     0.117 C   
BRANCH  16  17
ATOM     17  N3  UNL     1      -1.171   0.953  -1.827  1.00  0.00     0.249 N   
ATOM     18  H10 UNL     1      -0.173   1.164  -1.674  1.00  0.00     0.199 HD  
ATOM     19  H11 UNL     1      -1.280   0.784  -2.832  1.00  0.00     0.199 HD  
BRANCH  17  20
ATOM     20  C10 UNL     1      -1.941   2.168  -1.446  1.00  0.00     0.164 C   
BRANCH  20  21
ATOM     21  C11 UNL     1      -1.482   3.358  -2.240  1.00  0.00    -0.002 A   
ATOM     22  C12 UNL     1      -2.182   3.762  -3.401  1.00  0.00     0.012 A   
ATOM     23  C16 UNL     1      -0.322   4.053  -1.853  1.00  0.00     0.045 A   
ATOM     24  C13 UNL     1      -1.741   4.850  -4.163  1.00  0.00     0.037 A   
ATOM     25  C15 UNL     1       0.086   5.120  -2.626  1.00  0.00     0.109 A   
ATOM     26  C14 UNL     1      -0.604   5.508  -3.748  1.00  0.00     0.108 A   
ATOM     27  O2  UNL     1       1.178   5.895  -2.392  1.00  0.00    -0.316 OA  
ATOM     28  O3  UNL     1      -0.035   6.578  -4.361  1.00  0.00    -0.316 OA  
ATOM     29  C17 UNL     1       1.086   6.834  -3.487  1.00  0.00     0.337 C   
ENDBRANCH  20  21
ENDBRANCH  17  20
ENDBRANCH  16  17
BRANCH  16  30
ATOM     30  C18 UNL     1      -1.028  -1.526  -1.822  1.00  0.00     0.037 C   
ATOM     31  C19 UNL     1       0.485  -1.604  -2.063  1.00  0.00     0.014 C   
ATOM     32  C20 UNL     1      -1.519  -2.829  -1.177  1.00  0.00     0.014 C   
ENDBRANCH  16  30
ENDBRANCH   3  16
TORSDOF 8
