REMARK SMILES CCn1ccnc1Cn1cc([C@H](CC(C)C)[NH2+]Cc2ccc3c(c2)OCO3)nn1
REMARK SMILES IDX 9 1 10 2 11 3 28 4 29 5 8 7 7 8 3 9 4 10 5 11 6 12 2 13 1 14
REMARK SMILES IDX 12 15 13 16 14 17 15 18 16 19 17 20 18 23 19 24 20 25 24 26
REMARK SMILES IDX 21 27 23 28 22 29 25 30 27 31 26 32
REMARK H PARENT 10 6 17 21 17 22
ROOT
ATOM     1   N3  UNL     1      -0.322  -2.135   0.050  1.00  0.00    -0.205 N   
ATOM     2   C7  UNL     1       0.701  -1.600   0.785  1.00  0.00     0.046 A   
ATOM     3   C8  UNL     1       0.250  -0.343   1.115  1.00  0.00     0.127 A   
ATOM     4   N5  UNL     1      -1.010  -0.165   0.602  1.00  0.00    -0.132 NA  
ATOM     5   N6  UNL     1      -1.350  -1.268  -0.047  1.00  0.00    -0.076 NA  
ATOM     6   H10 UNL     1       1.628  -2.132   0.949  1.00  0.00     0.083 HD  
ENDROOT
BRANCH   1   7
ATOM     7   C6  UNL     1      -0.366  -3.424  -0.617  1.00  0.00     0.206 C   
BRANCH   7   8
ATOM     8   C5  UNL     1       0.351  -3.324  -1.919  1.00  0.00     0.120 A   
ATOM     9   N1  UNL     1      -0.258  -3.299  -3.155  1.00  0.00    -0.293 N   
ATOM     10  C3  UNL     1       0.728  -3.210  -4.101  1.00  0.00     0.096 A   
ATOM     11  C4  UNL     1       1.906  -3.182  -3.398  1.00  0.00     0.128 A   
ATOM     12  N2  UNL     1       1.664  -3.237  -2.051  1.00  0.00    -0.242 NA  
BRANCH   9  13
ATOM     13  C2  UNL     1      -1.678  -3.337  -3.449  1.00  0.00     0.108 C   
ATOM     14  C1  UNL     1      -2.210  -4.756  -3.544  1.00  0.00     0.025 C   
ENDBRANCH   9  13
ENDBRANCH   7   8
ENDBRANCH   1   7
BRANCH   3  15
ATOM     15  C9  UNL     1       0.928   0.787   1.812  1.00  0.00     0.114 C   
BRANCH  15  16
ATOM     16  C10 UNL     1       0.421   0.991   3.251  1.00  0.00     0.064 C   
BRANCH  16  17
ATOM     17  C11 UNL     1       0.679  -0.191   4.211  1.00  0.00    -0.012 C   
ATOM     18  C12 UNL     1       2.170  -0.493   4.374  1.00  0.00     0.007 C   
ATOM     19  C13 UNL     1       0.062   0.112   5.579  1.00  0.00     0.007 C   
ENDBRANCH  16  17
ENDBRANCH  15  16
BRANCH  15  20
ATOM     20  N4  UNL     1       0.663   2.072   1.063  1.00  0.00     0.249 N   
ATOM     21  H21 UNL     1       0.894   2.891   1.634  1.00  0.00     0.199 HD  
ATOM     22  H22 UNL     1      -0.353   2.112   0.892  1.00  0.00     0.199 HD  
BRANCH  20  23
ATOM     23  C14 UNL     1       1.344   2.188  -0.258  1.00  0.00     0.164 C   
BRANCH  23  24
ATOM     24  C15 UNL     1       0.980   3.487  -0.920  1.00  0.00    -0.002 A   
ATOM     25  C16 UNL     1       1.802   4.628  -0.766  1.00  0.00     0.012 A   
ATOM     26  C20 UNL     1      -0.215   3.588  -1.656  1.00  0.00     0.045 A   
ATOM     27  C17 UNL     1       1.448   5.852  -1.345  1.00  0.00     0.037 A   
ATOM     28  C19 UNL     1      -0.534   4.808  -2.212  1.00  0.00     0.109 A   
ATOM     29  C18 UNL     1       0.273   5.909  -2.062  1.00  0.00     0.108 A   
ATOM     30  O1  UNL     1      -1.645   5.076  -2.948  1.00  0.00    -0.316 OA  
ATOM     31  O2  UNL     1      -0.226   7.007  -2.685  1.00  0.00    -0.316 OA  
ATOM     32  C21 UNL     1      -1.434   6.470  -3.266  1.00  0.00     0.337 C   
ENDBRANCH  23  24
ENDBRANCH  20  23
ENDBRANCH  15  20
ENDBRANCH   3  15
TORSDOF 9
