REMARK SMILES Cc1nc(C(C)C)oc1Cn1cc([C@@H]([NH2+]Cc2ccc3c(c2)OCO3)C2CCCC2)nn1
REMARK SMILES IDX 11 1 12 2 13 3 31 4 32 5 10 7 9 8 2 9 3 10 4 11 8 12 1 13
REMARK SMILES IDX 5 14 6 15 7 16 14 17 15 18 16 21 17 22 18 23 22 24 19 25
REMARK SMILES IDX 21 26 20 27 23 28 25 29 24 30 26 31 27 32 30 33 28 34 29 35
REMARK H PARENT 12 6 15 19 15 20
ROOT
ATOM     1   N2  UNL     1       0.815   0.211  -2.206  1.00  0.00    -0.206 N   
ATOM     2   C9  UNL     1       0.452  -0.758  -1.311  1.00  0.00     0.046 A   
ATOM     3   C10 UNL     1      -0.918  -0.826  -1.434  1.00  0.00     0.127 A   
ATOM     4   N4  UNL     1      -1.330   0.056  -2.398  1.00  0.00    -0.132 NA  
ATOM     5   N5  UNL     1      -0.263   0.689  -2.860  1.00  0.00    -0.076 NA  
ATOM     6   H13 UNL     1       1.168  -1.246  -0.662  1.00  0.00     0.083 HD  
ENDROOT
BRANCH   1   7
ATOM     7   C8  UNL     1       2.128   0.802  -2.399  1.00  0.00     0.197 C   
BRANCH   7   8
ATOM     8   C7  UNL     1       2.342   1.840  -1.370  1.00  0.00     0.102 A   
ATOM     9   C2  UNL     1       1.987   3.167  -1.240  1.00  0.00     0.068 A   
ATOM     10  N1  UNL     1       2.411   3.633  -0.018  1.00  0.00    -0.231 NA  
ATOM     11  C3  UNL     1       3.026   2.607   0.531  1.00  0.00     0.150 A   
ATOM     12  O1  UNL     1       3.009   1.470  -0.233  1.00  0.00    -0.296 OA  
ATOM     13  C1  UNL     1       1.247   4.041  -2.174  1.00  0.00     0.069 C   
BRANCH  11  14
ATOM     14  C4  UNL     1       3.730   2.523   1.845  1.00  0.00     0.057 C   
ATOM     15  C5  UNL     1       2.895   3.183   2.949  1.00  0.00     0.016 C   
ATOM     16  C6  UNL     1       5.113   3.176   1.746  1.00  0.00     0.016 C   
ENDBRANCH  11  14
ENDBRANCH   7   8
ENDBRANCH   1   7
BRANCH   3  17
ATOM     17  C11 UNL     1      -1.928  -1.593  -0.649  1.00  0.00     0.117 C   
BRANCH  17  18
ATOM     18  N3  UNL     1      -3.073  -0.688  -0.239  1.00  0.00     0.249 N   
ATOM     19  H15 UNL     1      -3.484  -0.325  -1.111  1.00  0.00     0.199 HD  
ATOM     20  H16 UNL     1      -3.797  -1.229   0.240  1.00  0.00     0.199 HD  
BRANCH  18  21
ATOM     21  C12 UNL     1      -2.722   0.498   0.607  1.00  0.00     0.164 C   
BRANCH  21  22
ATOM     22  C13 UNL     1      -2.068   0.128   1.911  1.00  0.00    -0.002 A   
ATOM     23  C14 UNL     1      -2.816  -0.499   2.938  1.00  0.00     0.012 A   
ATOM     24  C18 UNL     1      -0.696   0.378   2.107  1.00  0.00     0.045 A   
ATOM     25  C15 UNL     1      -2.207  -0.877   4.142  1.00  0.00     0.037 A   
ATOM     26  C17 UNL     1      -0.127  -0.011   3.303  1.00  0.00     0.109 A   
ATOM     27  C16 UNL     1      -0.861  -0.620   4.293  1.00  0.00     0.108 A   
ATOM     28  O2  UNL     1       1.181   0.143   3.646  1.00  0.00    -0.316 OA  
ATOM     29  O3  UNL     1      -0.110  -0.916   5.388  1.00  0.00    -0.316 OA  
ATOM     30  C19 UNL     1       1.172  -0.378   4.997  1.00  0.00     0.337 C   
ENDBRANCH  21  22
ENDBRANCH  18  21
ENDBRANCH  17  18
BRANCH  17  31
ATOM     31  C20 UNL     1      -2.510  -2.769  -1.459  1.00  0.00     0.043 C   
ATOM     32  C21 UNL     1      -1.460  -3.812  -1.856  1.00  0.00     0.010 C   
ATOM     33  C24 UNL     1      -3.523  -3.624  -0.688  1.00  0.00     0.010 C   
ATOM     34  C22 UNL     1      -2.292  -5.016  -2.275  1.00  0.00     0.001 C   
ATOM     35  C23 UNL     1      -3.542  -4.973  -1.401  1.00  0.00     0.001 C   
ENDBRANCH  17  31
ENDBRANCH   3  17
TORSDOF 8
