REMARK SMILES CC(C)(C)[C@H]([NH2+]Cc1ccc2c(c1)OCO2)c1cn(CCC(=O)c2ccc(F)cc2)nn1
REMARK SMILES IDX 17 1 18 2 19 3 31 4 32 5 5 7 2 8 1 9 3 10 4 11 6 12 7 15
REMARK SMILES IDX 8 16 9 17 13 18 10 19 12 20 11 21 14 22 16 23 15 24 20 25
REMARK SMILES IDX 21 26 22 27 23 28 24 29 25 30 30 31 26 32 29 33 27 34 28 35
REMARK H PARENT 18 6 6 13 6 14
ROOT
ATOM     1   C14 UNL     1       2.344  -1.462  -1.230  1.00  0.00     0.127 A   
ATOM     2   C15 UNL     1       2.463  -1.051  -2.538  1.00  0.00     0.045 A   
ATOM     3   N2  UNL     1       1.460  -1.721  -3.180  1.00  0.00    -0.212 N   
ATOM     4   N3  UNL     1       0.830  -2.568  -2.344  1.00  0.00    -0.076 NA  
ATOM     5   N4  UNL     1       1.348  -2.401  -1.139  1.00  0.00    -0.132 NA  
ATOM     6   H20 UNL     1       3.064  -0.299  -3.030  1.00  0.00     0.083 HD  
ENDROOT
BRANCH   1   7
ATOM     7   C5  UNL     1       2.965  -0.916   0.017  1.00  0.00     0.120 C   
BRANCH   7   8
ATOM     8   C2  UNL     1       4.058  -1.834   0.660  1.00  0.00     0.010 C   
ATOM     9   C1  UNL     1       3.493  -3.165   1.194  1.00  0.00     0.017 C   
ATOM     10  C3  UNL     1       4.745  -1.099   1.833  1.00  0.00     0.017 C   
ATOM     11  C4  UNL     1       5.155  -2.152  -0.381  1.00  0.00     0.017 C   
ENDBRANCH   7   8
BRANCH   7  12
ATOM     12  N1  UNL     1       1.855  -0.631   1.001  1.00  0.00     0.250 N   
ATOM     13  H11 UNL     1       2.195  -0.512   1.958  1.00  0.00     0.199 HD  
ATOM     14  H12 UNL     1       1.249  -1.467   1.008  1.00  0.00     0.199 HD  
BRANCH  12  15
ATOM     15  C6  UNL     1       0.984   0.530   0.646  1.00  0.00     0.164 C   
BRANCH  15  16
ATOM     16  C7  UNL     1      -0.153   0.647   1.622  1.00  0.00    -0.002 A   
ATOM     17  C8  UNL     1      -0.019   1.432   2.792  1.00  0.00     0.012 A   
ATOM     18  C12 UNL     1      -1.339  -0.076   1.403  1.00  0.00     0.045 A   
ATOM     19  C9  UNL     1      -1.054   1.503   3.731  1.00  0.00     0.037 A   
ATOM     20  C11 UNL     1      -2.340   0.015   2.348  1.00  0.00     0.109 A   
ATOM     21  C10 UNL     1      -2.200   0.781   3.480  1.00  0.00     0.108 A   
ATOM     22  O1  UNL     1      -3.542  -0.616   2.293  1.00  0.00    -0.316 OA  
ATOM     23  O2  UNL     1      -3.297   0.727   4.280  1.00  0.00    -0.316 OA  
ATOM     24  C13 UNL     1      -4.147  -0.164   3.527  1.00  0.00     0.337 C   
ENDBRANCH  15  16
ENDBRANCH  12  15
ENDBRANCH   7  12
ENDBRANCH   1   7
BRANCH   3  25
ATOM     25  C16 UNL     1       0.953  -1.485  -4.516  1.00  0.00     0.142 C   
BRANCH  25  26
ATOM     26  C17 UNL     1      -0.532  -1.125  -4.553  1.00  0.00     0.102 C   
BRANCH  26  27
ATOM     27  C18 UNL     1      -0.853   0.142  -3.774  1.00  0.00     0.164 C   
ATOM     28  O3  UNL     1       0.006   0.768  -3.153  1.00  0.00    -0.294 OA  
BRANCH  27  29
ATOM     29  C19 UNL     1      -2.267   0.632  -3.753  1.00  0.00     0.018 A   
ATOM     30  C20 UNL     1      -3.313  -0.067  -4.373  1.00  0.00     0.015 A   
ATOM     31  C24 UNL     1      -2.545   1.835  -3.081  1.00  0.00     0.015 A   
ATOM     32  C21 UNL     1      -4.618   0.433  -4.318  1.00  0.00     0.040 A   
ATOM     33  C23 UNL     1      -3.850   2.330  -3.029  1.00  0.00     0.040 A   
ATOM     34  C22 UNL     1      -4.874   1.625  -3.647  1.00  0.00     0.123 A   
ATOM     35  F1  UNL     1      -6.125   2.097  -3.597  1.00  0.00    -0.207 F   
ENDBRANCH  27  29
ENDBRANCH  26  27
ENDBRANCH  25  26
ENDBRANCH   3  25
TORSDOF 9
