REMARK SMILES Cc1cc(C)cc([C@@H](CO)n2cc([C@@H]([NH2+]Cc3ccc4c(c3)OCO4)C3CCCC3)nn2)c1
REMARK SMILES IDX 11 1 12 2 13 3 31 4 32 5 8 7 7 8 2 9 3 10 33 11 4 12 6 13
REMARK SMILES IDX 1 14 5 15 9 16 10 17 14 19 15 20 16 23 17 24 18 25 22 26
REMARK SMILES IDX 19 27 21 28 20 29 23 30 25 31 24 32 26 33 27 34 30 35 28 36
REMARK SMILES IDX 29 37
REMARK H PARENT 12 6 10 18 15 21 15 22
ROOT
ATOM     1   N1  UNL     1       0.424  -0.368  -1.865  1.00  0.00    -0.202 N   
ATOM     2   C10 UNL     1       0.492   0.654  -0.957  1.00  0.00     0.046 A   
ATOM     3   C11 UNL     1       1.717   0.490  -0.355  1.00  0.00     0.127 A   
ATOM     4   N3  UNL     1       2.337  -0.614  -0.884  1.00  0.00    -0.132 NA  
ATOM     5   N4  UNL     1       1.539  -1.131  -1.804  1.00  0.00    -0.075 NA  
ATOM     6   H13 UNL     1      -0.302   1.379  -0.844  1.00  0.00     0.083 HD  
ENDROOT
BRANCH   1   7
ATOM     7   C8  UNL     1      -0.621  -0.673  -2.841  1.00  0.00     0.155 C   
BRANCH   7   8
ATOM     8   C7  UNL     1      -1.984  -0.807  -2.171  1.00  0.00    -0.023 A   
ATOM     9   C2  UNL     1      -3.615  -2.240  -1.044  1.00  0.00    -0.051 A   
ATOM     10  C3  UNL     1      -4.500  -1.162  -0.964  1.00  0.00     0.006 A   
ATOM     11  C26 UNL     1      -2.363  -2.054  -1.642  1.00  0.00     0.009 A   
ATOM     12  C4  UNL     1      -4.135   0.099  -1.446  1.00  0.00    -0.051 A   
ATOM     13  C6  UNL     1      -2.884   0.264  -2.056  1.00  0.00     0.009 A   
ATOM     14  C1  UNL     1      -4.032  -3.591  -0.539  1.00  0.00     0.044 C   
ATOM     15  C5  UNL     1      -5.104   1.242  -1.377  1.00  0.00     0.044 C   
ENDBRANCH   7   8
BRANCH   7  16
ATOM     16  C9  UNL     1      -0.539   0.256  -4.070  1.00  0.00     0.185 C   
BRANCH  16  17
ATOM     17  O1  UNL     1      -0.614   1.646  -3.742  1.00  0.00    -0.394 OA  
ATOM     18  H12 UNL     1      -0.618   2.131  -4.589  1.00  0.00     0.210 HD  
ENDBRANCH  16  17
ENDBRANCH   7  16
ENDBRANCH   1   7
BRANCH   3  19
ATOM     19  C12 UNL     1       2.391   1.249   0.739  1.00  0.00     0.117 C   
BRANCH  19  20
ATOM     20  N2  UNL     1       3.187   0.268   1.582  1.00  0.00     0.249 N   
ATOM     21  H15 UNL     1       4.141   0.605   1.741  1.00  0.00     0.199 HD  
ATOM     22  H16 UNL     1       3.297  -0.573   0.991  1.00  0.00     0.199 HD  
BRANCH  20  23
ATOM     23  C13 UNL     1       2.576  -0.142   2.875  1.00  0.00     0.164 C   
BRANCH  23  24
ATOM     24  C14 UNL     1       1.233  -0.802   2.734  1.00  0.00    -0.002 A   
ATOM     25  C15 UNL     1       1.123  -2.101   2.183  1.00  0.00     0.012 A   
ATOM     26  C19 UNL     1       0.069  -0.117   3.119  1.00  0.00     0.045 A   
ATOM     27  C16 UNL     1      -0.126  -2.710   2.014  1.00  0.00     0.037 A   
ATOM     28  C18 UNL     1      -1.146  -0.743   2.935  1.00  0.00     0.109 A   
ATOM     29  C17 UNL     1      -1.242  -2.004   2.401  1.00  0.00     0.108 A   
ATOM     30  O2  UNL     1      -2.358  -0.216   3.245  1.00  0.00    -0.316 OA  
ATOM     31  O3  UNL     1      -2.526  -2.435   2.316  1.00  0.00    -0.316 OA  
ATOM     32  C20 UNL     1      -3.234  -1.294   2.843  1.00  0.00     0.337 C   
ENDBRANCH  23  24
ENDBRANCH  20  23
ENDBRANCH  19  20
BRANCH  19  33
ATOM     33  C21 UNL     1       3.349   2.329   0.201  1.00  0.00     0.043 C   
ATOM     34  C22 UNL     1       2.649   3.402  -0.642  1.00  0.00     0.010 C   
ATOM     35  C25 UNL     1       4.000   3.180   1.297  1.00  0.00     0.010 C   
ATOM     36  C23 UNL     1       3.624   4.574  -0.666  1.00  0.00     0.001 C   
ATOM     37  C24 UNL     1       4.519   4.409   0.559  1.00  0.00     0.001 C   
ENDBRANCH  19  33
ENDBRANCH   3  19
TORSDOF 9
