REMARK SMILES Cc1cc(C)cc([C@H](CO)n2cc([C@@H]([NH2+]Cc3ccc4c(c3)OCO4)C3CCCC3)nn2)c1
REMARK SMILES IDX 11 1 12 2 13 3 31 4 32 5 8 7 7 8 2 9 3 10 33 11 4 12 6 13
REMARK SMILES IDX 1 14 5 15 9 16 10 17 14 19 15 20 16 23 17 24 18 25 22 26
REMARK SMILES IDX 19 27 21 28 20 29 23 30 25 31 24 32 26 33 27 34 30 35 28 36
REMARK SMILES IDX 29 37
REMARK H PARENT 12 6 10 18 15 21 15 22
ROOT
ATOM     1   N1  UNL     1       1.177   0.625  -2.504  1.00  0.00    -0.202 N   
ATOM     2   C10 UNL     1       1.035   0.966  -1.185  1.00  0.00     0.046 A   
ATOM     3   C11 UNL     1       0.158   0.031  -0.689  1.00  0.00     0.127 A   
ATOM     4   N3  UNL     1      -0.247  -0.793  -1.708  1.00  0.00    -0.132 NA  
ATOM     5   N4  UNL     1       0.370  -0.413  -2.815  1.00  0.00    -0.075 NA  
ATOM     6   H13 UNL     1       1.582   1.787  -0.743  1.00  0.00     0.083 HD  
ENDROOT
BRANCH   1   7
ATOM     7   C8  UNL     1       2.077   1.190  -3.511  1.00  0.00     0.155 C   
BRANCH   7   8
ATOM     8   C7  UNL     1       3.495   1.294  -2.958  1.00  0.00    -0.023 A   
ATOM     9   C2  UNL     1       5.386   2.553  -2.061  1.00  0.00    -0.051 A   
ATOM     10  C3  UNL     1       6.101   1.362  -1.897  1.00  0.00     0.006 A   
ATOM     11  C26 UNL     1       4.090   2.511  -2.596  1.00  0.00     0.009 A   
ATOM     12  C4  UNL     1       5.536   0.135  -2.259  1.00  0.00    -0.051 A   
ATOM     13  C6  UNL     1       4.236   0.109  -2.776  1.00  0.00     0.009 A   
ATOM     14  C1  UNL     1       6.009   3.874  -1.707  1.00  0.00     0.044 C   
ATOM     15  C5  UNL     1       6.298  -1.140  -2.042  1.00  0.00     0.044 C   
ENDBRANCH   7   8
BRANCH   7  16
ATOM     16  C9  UNL     1       1.464   2.451  -4.152  1.00  0.00     0.185 C   
BRANCH  16  17
ATOM     17  O1  UNL     1       1.134   3.463  -3.199  1.00  0.00    -0.394 OA  
ATOM     18  H12 UNL     1       0.851   4.247  -3.706  1.00  0.00     0.210 HD  
ENDBRANCH  16  17
ENDBRANCH   7  16
ENDBRANCH   1   7
BRANCH   3  19
ATOM     19  C12 UNL     1      -0.385  -0.172   0.688  1.00  0.00     0.117 C   
BRANCH  19  20
ATOM     20  N2  UNL     1      -1.772  -0.760   0.597  1.00  0.00     0.249 N   
ATOM     21  H15 UNL     1      -1.724  -1.513  -0.107  1.00  0.00     0.199 HD  
ATOM     22  H16 UNL     1      -2.061  -1.205   1.473  1.00  0.00     0.199 HD  
BRANCH  20  23
ATOM     23  C13 UNL     1      -2.837   0.185   0.164  1.00  0.00     0.164 C   
BRANCH  23  24
ATOM     24  C14 UNL     1      -4.126  -0.555  -0.054  1.00  0.00    -0.002 A   
ATOM     25  C15 UNL     1      -4.426  -1.087  -1.331  1.00  0.00     0.012 A   
ATOM     26  C19 UNL     1      -5.004  -0.789   1.019  1.00  0.00     0.045 A   
ATOM     27  C16 UNL     1      -5.593  -1.829  -1.544  1.00  0.00     0.037 A   
ATOM     28  C18 UNL     1      -6.142  -1.532   0.776  1.00  0.00     0.109 A   
ATOM     29  C17 UNL     1      -6.430  -2.034  -0.470  1.00  0.00     0.108 A   
ATOM     30  O2  UNL     1      -7.083  -1.864   1.700  1.00  0.00    -0.316 OA  
ATOM     31  O3  UNL     1      -7.591  -2.738  -0.489  1.00  0.00    -0.316 OA  
ATOM     32  C20 UNL     1      -8.002  -2.634   0.891  1.00  0.00     0.337 C   
ENDBRANCH  23  24
ENDBRANCH  20  23
ENDBRANCH  19  20
BRANCH  19  33
ATOM     33  C21 UNL     1       0.493  -1.128   1.521  1.00  0.00     0.043 C   
ATOM     34  C22 UNL     1       1.920  -0.615   1.747  1.00  0.00     0.010 C   
ATOM     35  C25 UNL     1      -0.009  -1.354   2.955  1.00  0.00     0.010 C   
ATOM     36  C23 UNL     1       2.429  -1.494   2.878  1.00  0.00     0.001 C   
ATOM     37  C24 UNL     1       1.226  -1.687   3.793  1.00  0.00     0.001 C   
ENDBRANCH  19  33
ENDBRANCH   3  19
TORSDOF 9
