REMARK SMILES Cc1cncc([C@@H](CO)n2cc([C@@H]([NH2+]Cc3ccc4c(c3)OCO4)C(C)(C)C)nn2)c1
REMARK SMILES IDX 10 1 11 2 12 3 29 4 30 5 7 7 6 8 2 9 3 10 31 11 4 12 5 13
REMARK SMILES IDX 1 14 8 15 9 16 13 18 14 19 15 22 16 23 17 24 21 25 18 26
REMARK SMILES IDX 20 27 19 28 22 29 24 30 23 31 25 32 26 33 27 34 28 35
REMARK H PARENT 11 6 9 17 14 20 14 21
ROOT
ATOM     1   N2  UNL     1      -0.073   3.482  -0.710  1.00  0.00    -0.202 N   
ATOM     2   C8  UNL     1      -0.376   2.592   0.287  1.00  0.00     0.046 A   
ATOM     3   C9  UNL     1       0.832   2.019   0.608  1.00  0.00     0.127 A   
ATOM     4   N4  UNL     1       1.817   2.591  -0.154  1.00  0.00    -0.132 NA  
ATOM     5   N5  UNL     1       1.256   3.484  -0.952  1.00  0.00    -0.075 NA  
ATOM     6   H10 UNL     1      -1.395   2.409   0.604  1.00  0.00     0.083 HD  
ENDROOT
BRANCH   1   7
ATOM     7   C6  UNL     1      -0.991   4.149  -1.637  1.00  0.00     0.157 C   
BRANCH   7   8
ATOM     8   C5  UNL     1      -1.750   3.088  -2.417  1.00  0.00    -0.005 A   
ATOM     9   C2  UNL     1      -3.695   1.735  -2.938  1.00  0.00    -0.032 A   
ATOM     10  C3  UNL     1      -2.890   1.002  -3.800  1.00  0.00     0.114 A   
ATOM     11  C23 UNL     1      -3.103   2.785  -2.230  1.00  0.00     0.012 A   
ATOM     12  N1  UNL     1      -1.579   1.254  -4.003  1.00  0.00    -0.264 NA  
ATOM     13  C4  UNL     1      -1.050   2.296  -3.331  1.00  0.00     0.116 A   
ATOM     14  C1  UNL     1      -5.134   1.368  -2.746  1.00  0.00     0.046 C   
ENDBRANCH   7   8
BRANCH   7  15
ATOM     15  C7  UNL     1      -1.802   5.255  -0.934  1.00  0.00     0.186 C   
BRANCH  15  16
ATOM     16  O1  UNL     1      -2.596   4.767   0.146  1.00  0.00    -0.394 OA  
ATOM     17  H9  UNL     1      -3.055   5.536   0.535  1.00  0.00     0.210 HD  
ENDBRANCH  15  16
ENDBRANCH   7  15
ENDBRANCH   1   7
BRANCH   3  18
ATOM     18  C10 UNL     1       1.142   0.847   1.483  1.00  0.00     0.120 C   
BRANCH  18  19
ATOM     19  N3  UNL     1       2.029  -0.119   0.717  1.00  0.00     0.250 N   
ATOM     20  H12 UNL     1       2.848   0.422   0.408  1.00  0.00     0.199 HD  
ATOM     21  H13 UNL     1       2.365  -0.866   1.327  1.00  0.00     0.199 HD  
BRANCH  19  22
ATOM     22  C11 UNL     1       1.434  -0.737  -0.512  1.00  0.00     0.164 C   
BRANCH  22  23
ATOM     23  C12 UNL     1       0.211  -1.567  -0.234  1.00  0.00    -0.002 A   
ATOM     24  C13 UNL     1       0.307  -2.765   0.514  1.00  0.00     0.012 A   
ATOM     25  C17 UNL     1      -1.046  -1.145  -0.705  1.00  0.00     0.045 A   
ATOM     26  C14 UNL     1      -0.831  -3.526   0.800  1.00  0.00     0.037 A   
ATOM     27  C16 UNL     1      -2.147  -1.919  -0.408  1.00  0.00     0.109 A   
ATOM     28  C15 UNL     1      -2.043  -3.075   0.326  1.00  0.00     0.108 A   
ATOM     29  O2  UNL     1      -3.427  -1.655  -0.781  1.00  0.00    -0.316 OA  
ATOM     30  O3  UNL     1      -3.244  -3.684   0.507  1.00  0.00    -0.316 OA  
ATOM     31  C18 UNL     1      -4.112  -2.807  -0.241  1.00  0.00     0.337 C   
ENDBRANCH  22  23
ENDBRANCH  19  22
ENDBRANCH  18  19
BRANCH  18  32
ATOM     32  C19 UNL     1       1.794   1.220   2.860  1.00  0.00     0.010 C   
ATOM     33  C20 UNL     1       3.185   1.867   2.719  1.00  0.00     0.017 C   
ATOM     34  C21 UNL     1       1.939  -0.041   3.744  1.00  0.00     0.017 C   
ATOM     35  C22 UNL     1       0.876   2.203   3.624  1.00  0.00     0.017 C   
ENDBRANCH  18  32
ENDBRANCH   3  18
TORSDOF 9
