REMARK SMILES Cc1cncc([C@H](CO)n2cc([C@@H]([NH2+]Cc3ccc4c(c3)OCO4)C(C)(C)C)nn2)c1
REMARK SMILES IDX 10 1 11 2 12 3 29 4 30 5 7 7 6 8 2 9 3 10 31 11 4 12 5 13
REMARK SMILES IDX 1 14 8 15 9 16 13 18 14 19 15 22 16 23 17 24 21 25 18 26
REMARK SMILES IDX 20 27 19 28 22 29 24 30 23 31 25 32 26 33 27 34 28 35
REMARK H PARENT 11 6 9 17 14 20 14 21
ROOT
ATOM     1   N2  UNL     1       0.924  -1.202   1.348  1.00  0.00    -0.202 N   
ATOM     2   C8  UNL     1       0.635  -0.139   0.535  1.00  0.00     0.046 A   
ATOM     3   C9  UNL     1      -0.701  -0.289   0.243  1.00  0.00     0.127 A   
ATOM     4   N4  UNL     1      -1.161  -1.442   0.828  1.00  0.00    -0.132 NA  
ATOM     5   N5  UNL     1      -0.159  -1.995   1.493  1.00  0.00    -0.075 NA  
ATOM     6   H10 UNL     1       1.376   0.600   0.261  1.00  0.00     0.083 HD  
ENDROOT
BRANCH   1   7
ATOM     7   C6  UNL     1       2.182  -1.545   2.013  1.00  0.00     0.157 C   
BRANCH   7   8
ATOM     8   C5  UNL     1       2.728  -0.351   2.772  1.00  0.00    -0.005 A   
ATOM     9   C2  UNL     1       2.719   1.056   4.758  1.00  0.00    -0.032 A   
ATOM     10  C3  UNL     1       3.663   1.853   4.127  1.00  0.00     0.114 A   
ATOM     11  C23 UNL     1       2.237  -0.050   4.054  1.00  0.00     0.012 A   
ATOM     12  N1  UNL     1       4.150   1.607   2.891  1.00  0.00    -0.264 NA  
ATOM     13  C4  UNL     1       3.683   0.515   2.249  1.00  0.00     0.116 A   
ATOM     14  C1  UNL     1       2.198   1.408   6.116  1.00  0.00     0.046 C   
ENDBRANCH   7   8
BRANCH   7  15
ATOM     15  C7  UNL     1       3.151  -2.258   1.047  1.00  0.00     0.186 C   
BRANCH  15  16
ATOM     16  O1  UNL     1       3.432  -1.492  -0.126  1.00  0.00    -0.394 OA  
ATOM     17  H9  UNL     1       4.132  -1.968  -0.613  1.00  0.00     0.210 HD  
ENDBRANCH  15  16
ENDBRANCH   7  15
ENDBRANCH   1   7
BRANCH   3  18
ATOM     18  C10 UNL     1      -1.616   0.523  -0.621  1.00  0.00     0.120 C   
BRANCH  18  19
ATOM     19  N3  UNL     1      -2.551  -0.419  -1.355  1.00  0.00     0.250 N   
ATOM     20  H12 UNL     1      -2.904  -1.077  -0.644  1.00  0.00     0.199 HD  
ATOM     21  H13 UNL     1      -3.359   0.076  -1.735  1.00  0.00     0.199 HD  
BRANCH  19  22
ATOM     22  C11 UNL     1      -1.935  -1.236  -2.442  1.00  0.00     0.164 C   
BRANCH  22  23
ATOM     23  C12 UNL     1      -1.559  -0.413  -3.643  1.00  0.00    -0.002 A   
ATOM     24  C13 UNL     1      -0.200  -0.129  -3.918  1.00  0.00     0.012 A   
ATOM     25  C17 UNL     1      -2.558   0.107  -4.485  1.00  0.00     0.045 A   
ATOM     26  C14 UNL     1       0.163   0.666  -5.010  1.00  0.00     0.037 A   
ATOM     27  C16 UNL     1      -2.166   0.888  -5.553  1.00  0.00     0.109 A   
ATOM     28  C15 UNL     1      -0.845   1.162  -5.807  1.00  0.00     0.108 A   
ATOM     29  O2  UNL     1      -3.000   1.469  -6.454  1.00  0.00    -0.316 OA  
ATOM     30  O3  UNL     1      -0.680   1.949  -6.901  1.00  0.00    -0.316 OA  
ATOM     31  C18 UNL     1      -2.049   2.116  -7.330  1.00  0.00     0.337 C   
ENDBRANCH  22  23
ENDBRANCH  19  22
ENDBRANCH  18  19
BRANCH  18  32
ATOM     32  C19 UNL     1      -2.438   1.610   0.158  1.00  0.00     0.010 C   
ATOM     33  C20 UNL     1      -3.235   2.492  -0.832  1.00  0.00     0.017 C   
ATOM     34  C21 UNL     1      -3.429   1.000   1.169  1.00  0.00     0.017 C   
ATOM     35  C22 UNL     1      -1.481   2.552   0.925  1.00  0.00     0.017 C   
ENDBRANCH  18  32
ENDBRANCH   3  18
TORSDOF 9
