REMARK SMILES COc1cc(O)ccc1CCn1cc([C@@H]([NH2+]Cc2ccc3c(c2)OCO3)C(C)(C)C)nn1
REMARK SMILES IDX 12 1 13 2 14 3 31 4 32 5 11 7 10 8 9 9 3 10 4 11 5 12 8 13
REMARK SMILES IDX 7 14 2 15 1 16 6 17 15 19 16 20 17 23 18 24 19 25 23 26
REMARK SMILES IDX 20 27 22 28 21 29 24 30 26 31 25 32 27 33 28 34 29 35 30 36
REMARK H PARENT 13 6 6 18 16 21 16 22
ROOT
ATOM     1   N1  UNL     1      -2.619  -1.202   1.032  1.00  0.00    -0.212 N   
ATOM     2   C10 UNL     1      -2.218  -1.417  -0.257  1.00  0.00     0.045 A   
ATOM     3   C11 UNL     1      -0.930  -1.884  -0.124  1.00  0.00     0.127 A   
ATOM     4   N3  UNL     1      -0.615  -1.970   1.209  1.00  0.00    -0.132 NA  
ATOM     5   N4  UNL     1      -1.662  -1.561   1.906  1.00  0.00    -0.076 NA  
ATOM     6   H12 UNL     1      -2.837  -1.166  -1.107  1.00  0.00     0.083 HD  
ENDROOT
BRANCH   1   7
ATOM     7   C9  UNL     1      -3.854  -0.605   1.493  1.00  0.00     0.139 C   
BRANCH   7   8
ATOM     8   C8  UNL     1      -3.719   0.893   1.779  1.00  0.00     0.059 C   
BRANCH   8   9
ATOM     9   C7  UNL     1      -3.451   1.713   0.535  1.00  0.00    -0.016 A   
ATOM     10  C2  UNL     1      -2.165   2.170   0.208  1.00  0.00     0.080 A   
ATOM     11  C3  UNL     1      -1.930   2.863  -0.980  1.00  0.00     0.066 A   
ATOM     12  C4  UNL     1      -2.992   3.140  -1.830  1.00  0.00     0.074 A   
ATOM     13  C6  UNL     1      -4.510   2.011  -0.340  1.00  0.00     0.009 A   
ATOM     14  C5  UNL     1      -4.282   2.726  -1.519  1.00  0.00     0.033 A   
BRANCH  10  15
ATOM     15  O1  UNL     1      -1.102   1.867   1.020  1.00  0.00    -0.349 OA  
ATOM     16  C1  UNL     1      -0.722   3.021   1.779  1.00  0.00     0.203 C   
ENDBRANCH  10  15
BRANCH  12  17
ATOM     17  O2  UNL     1      -2.721   3.824  -2.978  1.00  0.00    -0.361 OA  
ATOM     18  H5  UNL     1      -3.560   4.069  -3.405  1.00  0.00     0.218 HD  
ENDBRANCH  12  17
ENDBRANCH   8   9
ENDBRANCH   7   8
ENDBRANCH   1   7
BRANCH   3  19
ATOM     19  C12 UNL     1       0.132  -2.146  -1.146  1.00  0.00     0.120 C   
BRANCH  19  20
ATOM     20  N2  UNL     1       1.418  -1.539  -0.639  1.00  0.00     0.250 N   
ATOM     21  H14 UNL     1       2.252  -1.937  -1.078  1.00  0.00     0.199 HD  
ATOM     22  H15 UNL     1       1.475  -1.784   0.362  1.00  0.00     0.199 HD  
BRANCH  20  23
ATOM     23  C13 UNL     1       1.484  -0.052  -0.725  1.00  0.00     0.164 C   
BRANCH  23  24
ATOM     24  C14 UNL     1       2.697   0.463  -0.005  1.00  0.00    -0.002 A   
ATOM     25  C15 UNL     1       2.642   0.697   1.391  1.00  0.00     0.012 A   
ATOM     26  C19 UNL     1       3.903   0.666  -0.696  1.00  0.00     0.045 A   
ATOM     27  C16 UNL     1       3.769   1.143   2.089  1.00  0.00     0.037 A   
ATOM     28  C18 UNL     1       4.995   1.106   0.023  1.00  0.00     0.109 A   
ATOM     29  C17 UNL     1       4.930   1.339   1.375  1.00  0.00     0.108 A   
ATOM     30  O3  UNL     1       6.231   1.352  -0.487  1.00  0.00    -0.316 OA  
ATOM     31  O4  UNL     1       6.115   1.765   1.885  1.00  0.00    -0.316 OA  
ATOM     32  C20 UNL     1       6.933   1.795   0.695  1.00  0.00     0.337 C   
ENDBRANCH  23  24
ENDBRANCH  20  23
ENDBRANCH  19  20
BRANCH  19  33
ATOM     33  C21 UNL     1       0.334  -3.658  -1.500  1.00  0.00     0.010 C   
ATOM     34  C22 UNL     1      -1.002  -4.270  -1.984  1.00  0.00     0.017 C   
ATOM     35  C23 UNL     1       1.345  -3.805  -2.661  1.00  0.00     0.017 C   
ATOM     36  C24 UNL     1       0.846  -4.492  -0.308  1.00  0.00     0.017 C   
ENDBRANCH  19  33
ENDBRANCH   3  19
TORSDOF 10
