REMARK SMILES CC(C)(C)[C@H]([NH2+]Cc1ccc2c(c1)OCO2)c1cn(CCc2ccc(O)c(F)c2)nn1
REMARK SMILES IDX 17 1 18 2 19 3 30 4 31 5 5 7 2 8 1 9 3 10 4 11 6 12 7 15
REMARK SMILES IDX 8 16 9 17 13 18 10 19 12 20 11 21 14 22 16 23 15 24 20 25
REMARK SMILES IDX 21 26 22 27 23 28 29 29 24 30 27 31 25 32 28 33 26 34
REMARK H PARENT 18 6 6 13 6 14 26 35
ROOT
ATOM     1   C14 UNL     1      -1.600   0.949   0.480  1.00  0.00     0.127 A   
ATOM     2   C15 UNL     1      -1.734  -0.395   0.754  1.00  0.00     0.045 A   
ATOM     3   N2  UNL     1      -2.907  -0.740   0.147  1.00  0.00    -0.212 N   
ATOM     4   N3  UNL     1      -3.467   0.322  -0.461  1.00  0.00    -0.076 NA  
ATOM     5   N4  UNL     1      -2.669   1.361  -0.274  1.00  0.00    -0.132 NA  
ATOM     6   H20 UNL     1      -1.118  -1.111   1.281  1.00  0.00     0.083 HD  
ENDROOT
BRANCH   1   7
ATOM     7   C5  UNL     1      -0.488   1.907   0.778  1.00  0.00     0.120 C   
BRANCH   7   8
ATOM     8   C2  UNL     1      -0.747   2.826   2.026  1.00  0.00     0.010 C   
ATOM     9   C1  UNL     1      -1.919   3.806   1.819  1.00  0.00     0.017 C   
ATOM     10  C3  UNL     1      -1.052   1.958   3.269  1.00  0.00     0.017 C   
ATOM     11  C4  UNL     1       0.520   3.650   2.353  1.00  0.00     0.017 C   
ENDBRANCH   7   8
BRANCH   7  12
ATOM     12  N1  UNL     1      -0.228   2.751  -0.454  1.00  0.00     0.250 N   
ATOM     13  H11 UNL     1      -1.146   3.102  -0.761  1.00  0.00     0.199 HD  
ATOM     14  H12 UNL     1       0.347   3.565  -0.231  1.00  0.00     0.199 HD  
BRANCH  12  15
ATOM     15  C6  UNL     1       0.385   2.042  -1.619  1.00  0.00     0.164 C   
BRANCH  15  16
ATOM     16  C7  UNL     1       1.808   1.628  -1.365  1.00  0.00    -0.002 A   
ATOM     17  C8  UNL     1       2.125   0.268  -1.137  1.00  0.00     0.012 A   
ATOM     18  C12 UNL     1       2.831   2.591  -1.318  1.00  0.00     0.045 A   
ATOM     19  C9  UNL     1       3.438  -0.134  -0.870  1.00  0.00     0.037 A   
ATOM     20  C11 UNL     1       4.114   2.163  -1.045  1.00  0.00     0.109 A   
ATOM     21  C10 UNL     1       4.409   0.840  -0.827  1.00  0.00     0.108 A   
ATOM     22  O1  UNL     1       5.210   2.962  -0.954  1.00  0.00    -0.316 OA  
ATOM     23  O2  UNL     1       5.729   0.638  -0.575  1.00  0.00    -0.316 OA  
ATOM     24  C13 UNL     1       6.242   1.983  -0.692  1.00  0.00     0.337 C   
ENDBRANCH  15  16
ENDBRANCH  12  15
ENDBRANCH   7  12
ENDBRANCH   1   7
BRANCH   3  25
ATOM     25  C16 UNL     1      -3.509  -2.054   0.048  1.00  0.00     0.139 C   
BRANCH  25  26
ATOM     26  C17 UNL     1      -3.491  -2.620  -1.375  1.00  0.00     0.057 C   
BRANCH  26  27
ATOM     27  C18 UNL     1      -2.096  -2.719  -1.953  1.00  0.00    -0.043 A   
ATOM     28  C19 UNL     1      -1.211  -3.723  -1.529  1.00  0.00     0.006 A   
ATOM     29  C23 UNL     1      -1.658  -1.772  -2.891  1.00  0.00     0.045 A   
ATOM     30  C20 UNL     1       0.094  -3.775  -2.029  1.00  0.00     0.036 A   
ATOM     31  C22 UNL     1      -0.359  -1.833  -3.381  1.00  0.00     0.153 A   
ATOM     32  C21 UNL     1       0.513  -2.827  -2.952  1.00  0.00     0.107 A   
ATOM     33  F1  UNL     1       0.073  -0.896  -4.238  1.00  0.00    -0.204 F   
BRANCH  32  34
ATOM     34  O3  UNL     1       1.799  -2.882  -3.405  1.00  0.00    -0.358 OA  
ATOM     35  H27 UNL     1       1.877  -2.261  -4.154  1.00  0.00     0.218 HD  
ENDBRANCH  32  34
ENDBRANCH  26  27
ENDBRANCH  25  26
ENDBRANCH   3  25
TORSDOF 9
