REMARK SMILES CCOc1ccccc1Cn1cc([C@@H]([NH2+]Cc2ccc3c(c2)OCO3)C(C)C)nn1
REMARK SMILES IDX 11 1 12 2 13 3 29 4 30 5 10 7 9 8 4 9 5 10 6 11 8 12 7 13
REMARK SMILES IDX 3 14 2 15 1 16 14 17 15 18 16 21 17 22 18 23 22 24 19 25
REMARK SMILES IDX 21 26 20 27 23 28 25 29 24 30 26 31 27 32 28 33
REMARK H PARENT 12 6 15 19 15 20
ROOT
ATOM     1   N1  UNL     1       1.801  -1.231   1.615  1.00  0.00    -0.208 N   
ATOM     2   C10 UNL     1       0.616  -1.635   1.062  1.00  0.00     0.046 A   
ATOM     3   C11 UNL     1       0.891  -1.726  -0.283  1.00  0.00     0.127 A   
ATOM     4   N3  UNL     1       2.212  -1.430  -0.496  1.00  0.00    -0.132 NA  
ATOM     5   N4  UNL     1       2.762  -1.142   0.672  1.00  0.00    -0.076 NA  
ATOM     6   H12 UNL     1      -0.283  -1.753   1.651  1.00  0.00     0.083 HD  
ENDROOT
BRANCH   1   7
ATOM     7   C9  UNL     1       2.073  -0.877   2.997  1.00  0.00     0.172 C   
BRANCH   7   8
ATOM     8   C8  UNL     1       1.988   0.618   3.199  1.00  0.00     0.002 A   
ATOM     9   C3  UNL     1       0.749   1.271   3.341  1.00  0.00     0.080 A   
ATOM     10  C4  UNL     1       0.716   2.658   3.514  1.00  0.00     0.034 A   
ATOM     11  C5  UNL     1       1.901   3.395   3.543  1.00  0.00     0.003 A   
ATOM     12  C7  UNL     1       3.173   1.374   3.222  1.00  0.00     0.008 A   
ATOM     13  C6  UNL     1       3.127   2.755   3.396  1.00  0.00     0.001 A   
BRANCH   9  14
ATOM     14  O1  UNL     1      -0.359   0.467   3.280  1.00  0.00    -0.346 OA  
BRANCH  14  15
ATOM     15  C2  UNL     1      -1.627   1.065   3.560  1.00  0.00     0.164 C   
ATOM     16  C1  UNL     1      -2.678  -0.028   3.487  1.00  0.00     0.035 C   
ENDBRANCH  14  15
ENDBRANCH   9  14
ENDBRANCH   7   8
ENDBRANCH   1   7
BRANCH   3  17
ATOM     17  C12 UNL     1      -0.012  -1.952  -1.448  1.00  0.00     0.117 C   
BRANCH  17  18
ATOM     18  N2  UNL     1       0.337  -0.993  -2.567  1.00  0.00     0.249 N   
ATOM     19  H14 UNL     1       1.340  -1.121  -2.755  1.00  0.00     0.199 HD  
ATOM     20  H15 UNL     1      -0.173  -1.242  -3.418  1.00  0.00     0.199 HD  
BRANCH  18  21
ATOM     21  C13 UNL     1       0.143   0.462  -2.278  1.00  0.00     0.164 C   
BRANCH  21  22
ATOM     22  C14 UNL     1      -1.294   0.837  -2.046  1.00  0.00    -0.002 A   
ATOM     23  C15 UNL     1      -2.195   0.926  -3.133  1.00  0.00     0.012 A   
ATOM     24  C19 UNL     1      -1.758   1.076  -0.739  1.00  0.00     0.045 A   
ATOM     25  C16 UNL     1      -3.541   1.247  -2.924  1.00  0.00     0.037 A   
ATOM     26  C18 UNL     1      -3.090   1.387  -0.569  1.00  0.00     0.109 A   
ATOM     27  C17 UNL     1      -3.956   1.471  -1.631  1.00  0.00     0.108 A   
ATOM     28  O2  UNL     1      -3.700   1.640   0.619  1.00  0.00    -0.316 OA  
ATOM     29  O3  UNL     1      -5.218   1.792  -1.246  1.00  0.00    -0.316 OA  
ATOM     30  C20 UNL     1      -5.048   1.927   0.180  1.00  0.00     0.337 C   
ENDBRANCH  21  22
ENDBRANCH  18  21
ENDBRANCH  17  18
BRANCH  17  31
ATOM     31  C21 UNL     1       0.010  -3.399  -2.006  1.00  0.00     0.037 C   
ATOM     32  C22 UNL     1       1.379  -3.869  -2.512  1.00  0.00     0.014 C   
ATOM     33  C23 UNL     1      -0.531  -4.401  -0.980  1.00  0.00     0.014 C   
ENDBRANCH  17  31
ENDBRANCH   3  17
TORSDOF 9
