REMARK SMILES Cc1ccc([C@@H](CO)n2cc([C@@H]([NH2+]Cc3ccc4c(c3)OCO4)C(C)C)nn2)nc1
REMARK SMILES IDX 9 1 10 2 11 3 27 4 28 5 6 7 5 8 2 9 3 10 30 11 4 12 29 13
REMARK SMILES IDX 1 14 7 15 8 16 12 18 13 19 14 22 15 23 16 24 20 25 17 26
REMARK SMILES IDX 19 27 18 28 21 29 23 30 22 31 24 32 25 33 26 34
REMARK H PARENT 10 6 8 17 13 20 13 21
ROOT
ATOM     1   N1  UNL     1      -1.375   1.671   1.681  1.00  0.00    -0.201 N   
ATOM     2   C8  UNL     1      -1.411   0.457   1.051  1.00  0.00     0.046 A   
ATOM     3   C9  UNL     1      -0.741  -0.390   1.900  1.00  0.00     0.127 A   
ATOM     4   N3  UNL     1      -0.333   0.310   3.005  1.00  0.00    -0.132 NA  
ATOM     5   N4  UNL     1      -0.716   1.569   2.857  1.00  0.00    -0.075 NA  
ATOM     6   H10 UNL     1      -1.859   0.325   0.074  1.00  0.00     0.083 HD  
ENDROOT
BRANCH   1   7
ATOM     7   C6  UNL     1      -1.807   2.975   1.194  1.00  0.00     0.174 C   
BRANCH   7   8
ATOM     8   C5  UNL     1      -0.862   3.433   0.098  1.00  0.00     0.065 A   
ATOM     9   C2  UNL     1       0.880   4.166  -1.915  1.00  0.00    -0.033 A   
ATOM     10  C3  UNL     1       1.081   4.645  -0.621  1.00  0.00     0.007 A   
ATOM     11  C22 UNL     1      -0.196   3.312  -2.122  1.00  0.00     0.114 A   
ATOM     12  C4  UNL     1       0.206   4.278   0.397  1.00  0.00     0.026 A   
ATOM     13  N5  UNL     1      -1.064   2.938  -1.153  1.00  0.00    -0.259 NA  
ATOM     14  C1  UNL     1       1.816   4.509  -3.030  1.00  0.00     0.046 C   
ENDBRANCH   7   8
BRANCH   7  15
ATOM     15  C7  UNL     1      -3.285   3.002   0.767  1.00  0.00     0.187 C   
BRANCH  15  16
ATOM     16  O1  UNL     1      -3.586   2.157  -0.346  1.00  0.00    -0.394 OA  
ATOM     17  H9  UNL     1      -2.962   2.412  -1.061  1.00  0.00     0.210 HD  
ENDBRANCH  15  16
ENDBRANCH   7  15
ENDBRANCH   1   7
BRANCH   3  18
ATOM     18  C10 UNL     1      -0.343  -1.818   1.722  1.00  0.00     0.117 C   
BRANCH  18  19
ATOM     19  N2  UNL     1       1.134  -1.975   2.029  1.00  0.00     0.249 N   
ATOM     20  H12 UNL     1       1.410  -2.954   1.937  1.00  0.00     0.199 HD  
ATOM     21  H13 UNL     1       1.257  -1.705   3.014  1.00  0.00     0.199 HD  
BRANCH  19  22
ATOM     22  C11 UNL     1       2.083  -1.145   1.222  1.00  0.00     0.164 C   
BRANCH  22  23
ATOM     23  C12 UNL     1       2.018  -1.421  -0.255  1.00  0.00    -0.002 A   
ATOM     24  C13 UNL     1       2.487  -2.650  -0.779  1.00  0.00     0.012 A   
ATOM     25  C17 UNL     1       1.470  -0.462  -1.127  1.00  0.00     0.045 A   
ATOM     26  C14 UNL     1       2.400  -2.928  -2.147  1.00  0.00     0.037 A   
ATOM     27  C16 UNL     1       1.399  -0.767  -2.470  1.00  0.00     0.109 A   
ATOM     28  C15 UNL     1       1.848  -1.967  -2.966  1.00  0.00     0.108 A   
ATOM     29  O2  UNL     1       0.896   0.040  -3.441  1.00  0.00    -0.316 OA  
ATOM     30  O3  UNL     1       1.682  -2.069  -4.309  1.00  0.00    -0.316 OA  
ATOM     31  C18 UNL     1       1.084  -0.790  -4.611  1.00  0.00     0.337 C   
ENDBRANCH  22  23
ENDBRANCH  19  22
ENDBRANCH  18  19
BRANCH  18  32
ATOM     32  C19 UNL     1      -1.156  -2.775   2.639  1.00  0.00     0.037 C   
ATOM     33  C20 UNL     1      -2.660  -2.686   2.344  1.00  0.00     0.014 C   
ATOM     34  C21 UNL     1      -0.724  -4.241   2.496  1.00  0.00     0.014 C   
ENDBRANCH  18  32
ENDBRANCH   3  18
TORSDOF 9
