REMARK SMILES Cc1ccc([C@H](CO)n2cc([C@@H]([NH2+]Cc3ccc4c(c3)OCO4)C(C)C)nn2)nc1
REMARK SMILES IDX 9 1 10 2 11 3 27 4 28 5 6 7 5 8 2 9 3 10 30 11 4 12 29 13
REMARK SMILES IDX 1 14 7 15 8 16 12 18 13 19 14 22 15 23 16 24 20 25 17 26
REMARK SMILES IDX 19 27 18 28 21 29 23 30 22 31 24 32 25 33 26 34
REMARK H PARENT 10 6 8 17 13 20 13 21
ROOT
ATOM     1   N1  UNL     1      -1.713   0.816   1.153  1.00  0.00    -0.201 N   
ATOM     2   C8  UNL     1      -1.742   0.317  -0.122  1.00  0.00     0.046 A   
ATOM     3   C9  UNL     1      -0.432   0.365  -0.540  1.00  0.00     0.127 A   
ATOM     4   N3  UNL     1       0.338   0.872   0.477  1.00  0.00    -0.132 NA  
ATOM     5   N4  UNL     1      -0.453   1.162   1.494  1.00  0.00    -0.075 NA  
ATOM     6   H10 UNL     1      -2.658  -0.012  -0.590  1.00  0.00     0.083 HD  
ENDROOT
BRANCH   1   7
ATOM     7   C6  UNL     1      -2.796   0.977   2.117  1.00  0.00     0.174 C   
BRANCH   7   8
ATOM     8   C5  UNL     1      -3.167  -0.372   2.705  1.00  0.00     0.065 A   
ATOM     9   C2  UNL     1      -3.848  -2.842   3.741  1.00  0.00    -0.033 A   
ATOM     10  C3  UNL     1      -2.735  -2.171   4.241  1.00  0.00     0.007 A   
ATOM     11  C22 UNL     1      -4.566  -2.221   2.727  1.00  0.00     0.114 A   
ATOM     12  C4  UNL     1      -2.388  -0.927   3.720  1.00  0.00     0.026 A   
ATOM     13  N5  UNL     1      -4.248  -1.017   2.193  1.00  0.00    -0.259 NA  
ATOM     14  C1  UNL     1      -4.255  -4.171   4.294  1.00  0.00     0.046 C   
ENDBRANCH   7   8
BRANCH   7  15
ATOM     15  C7  UNL     1      -3.991   1.759   1.546  1.00  0.00     0.187 C   
BRANCH  15  16
ATOM     16  O1  UNL     1      -4.674   1.075   0.492  1.00  0.00    -0.394 OA  
ATOM     17  H9  UNL     1      -4.961   0.215   0.880  1.00  0.00     0.210 HD  
ENDBRANCH  15  16
ENDBRANCH   7  15
ENDBRANCH   1   7
BRANCH   3  18
ATOM     18  C10 UNL     1       0.212   0.015  -1.846  1.00  0.00     0.117 C   
BRANCH  18  19
ATOM     19  N2  UNL     1       1.591   0.627  -1.914  1.00  0.00     0.249 N   
ATOM     20  H12 UNL     1       2.188   0.154  -2.600  1.00  0.00     0.199 HD  
ATOM     21  H13 UNL     1       2.022   0.466  -0.993  1.00  0.00     0.199 HD  
BRANCH  19  22
ATOM     22  C11 UNL     1       1.632   2.098  -2.159  1.00  0.00     0.164 C   
BRANCH  22  23
ATOM     23  C12 UNL     1       3.003   2.645  -1.872  1.00  0.00    -0.002 A   
ATOM     24  C13 UNL     1       3.872   3.017  -2.925  1.00  0.00     0.012 A   
ATOM     25  C17 UNL     1       3.438   2.762  -0.540  1.00  0.00     0.045 A   
ATOM     26  C14 UNL     1       5.155   3.501  -2.657  1.00  0.00     0.037 A   
ATOM     27  C16 UNL     1       4.712   3.237  -0.311  1.00  0.00     0.109 A   
ATOM     28  C15 UNL     1       5.547   3.599  -1.339  1.00  0.00     0.108 A   
ATOM     29  O2  UNL     1       5.287   3.402   0.910  1.00  0.00    -0.316 OA  
ATOM     30  O3  UNL     1       6.748   4.052  -0.896  1.00  0.00    -0.316 OA  
ATOM     31  C18 UNL     1       6.587   3.904   0.533  1.00  0.00     0.337 C   
ENDBRANCH  22  23
ENDBRANCH  19  22
ENDBRANCH  18  19
BRANCH  18  32
ATOM     32  C19 UNL     1       0.353  -1.507  -2.105  1.00  0.00     0.037 C   
ATOM     33  C20 UNL     1      -1.006  -2.175  -2.348  1.00  0.00     0.014 C   
ATOM     34  C21 UNL     1       1.112  -2.259  -1.008  1.00  0.00     0.014 C   
ENDBRANCH  18  32
ENDBRANCH   3  18
TORSDOF 9
