REMARK SMILES Cc1cc(Cn2cc([C@@H]([NH2+]Cc3ccc4c(c3)OCO4)C3CCCC3)nn2)ccc1N([O-])[O-]
REMARK SMILES IDX 6 1 7 2 8 3 26 4 27 5 5 7 4 8 2 9 3 10 30 11 29 12 28 13
REMARK SMILES IDX 1 14 31 15 32 16 33 17 9 18 10 19 11 22 12 23 13 24 17 25
REMARK SMILES IDX 14 26 16 27 15 28 18 29 20 30 19 31 21 32 22 33 25 34 23 35
REMARK SMILES IDX 24 36
REMARK H PARENT 7 6 10 20 10 21
ROOT
ATOM     1   N1  UNL     1       0.720   2.442  -0.951  1.00  0.00    -0.208 N   
ATOM     2   C6  UNL     1       1.465   1.514  -0.276  1.00  0.00     0.046 A   
ATOM     3   C7  UNL     1       0.605   0.450  -0.114  1.00  0.00     0.127 A   
ATOM     4   N3  UNL     1      -0.617   0.776  -0.648  1.00  0.00    -0.132 NA  
ATOM     5   N4  UNL     1      -0.539   2.001  -1.140  1.00  0.00    -0.076 NA  
ATOM     6   H7  UNL     1       2.501   1.681  -0.016  1.00  0.00     0.083 HD  
ENDROOT
BRANCH   1   7
ATOM     7   C5  UNL     1       1.130   3.749  -1.437  1.00  0.00     0.169 C   
BRANCH   7   8
ATOM     8   C4  UNL     1       2.015   3.620  -2.654  1.00  0.00    -0.028 A   
ATOM     9   C2  UNL     1       2.267   3.085  -5.037  1.00  0.00    -0.022 A   
ATOM     10  C3  UNL     1       1.464   3.243  -3.894  1.00  0.00     0.011 A   
ATOM     11  C24 UNL     1       3.643   3.341  -4.910  1.00  0.00     0.121 A   
ATOM     12  C23 UNL     1       4.210   3.718  -3.684  1.00  0.00     0.032 A   
ATOM     13  C22 UNL     1       3.395   3.856  -2.560  1.00  0.00     0.007 A   
ATOM     14  C1  UNL     1       1.622   2.676  -6.333  1.00  0.00     0.046 C   
BRANCH  11  15
ATOM     15  N5  UNL     1       4.545   3.209  -6.049  1.00  0.00     0.092 N   
ATOM     16  O3  UNL     1       5.565   2.528  -5.876  1.00  0.00    -0.138 OA  
ATOM     17  O4  UNL     1       4.237   3.791  -7.096  1.00  0.00    -0.138 OA  
ENDBRANCH  11  15
ENDBRANCH   7   8
ENDBRANCH   1   7
BRANCH   3  18
ATOM     18  C8  UNL     1       0.798  -0.895   0.513  1.00  0.00     0.117 C   
BRANCH  18  19
ATOM     19  N2  UNL     1      -0.534  -1.498   0.869  1.00  0.00     0.249 N   
ATOM     20  H9  UNL     1      -1.177  -1.272   0.094  1.00  0.00     0.199 HD  
ATOM     21  H10 UNL     1      -0.500  -2.521   0.918  1.00  0.00     0.199 HD  
BRANCH  19  22
ATOM     22  C9  UNL     1      -1.158  -0.969   2.113  1.00  0.00     0.164 C   
BRANCH  22  23
ATOM     23  C10 UNL     1      -2.529  -1.554   2.300  1.00  0.00    -0.002 A   
ATOM     24  C11 UNL     1      -3.650  -0.942   1.690  1.00  0.00     0.012 A   
ATOM     25  C15 UNL     1      -2.699  -2.742   3.030  1.00  0.00     0.045 A   
ATOM     26  C12 UNL     1      -4.928  -1.497   1.817  1.00  0.00     0.037 A   
ATOM     27  C14 UNL     1      -3.973  -3.263   3.134  1.00  0.00     0.109 A   
ATOM     28  C13 UNL     1      -5.056  -2.658   2.546  1.00  0.00     0.108 A   
ATOM     29  O1  UNL     1      -4.309  -4.398   3.800  1.00  0.00    -0.316 OA  
ATOM     30  O2  UNL     1      -6.212  -3.335   2.770  1.00  0.00    -0.316 OA  
ATOM     31  C16 UNL     1      -5.739  -4.427   3.587  1.00  0.00     0.337 C   
ENDBRANCH  22  23
ENDBRANCH  19  22
ENDBRANCH  18  19
BRANCH  18  32
ATOM     32  C17 UNL     1       1.586  -1.847  -0.410  1.00  0.00     0.043 C   
ATOM     33  C18 UNL     1       2.009  -3.171   0.254  1.00  0.00     0.010 C   
ATOM     34  C21 UNL     1       0.876  -2.265  -1.705  1.00  0.00     0.010 C   
ATOM     35  C19 UNL     1       1.792  -4.263  -0.793  1.00  0.00     0.001 C   
ATOM     36  C20 UNL     1       1.619  -3.527  -2.112  1.00  0.00     0.001 C   
ENDBRANCH  18  32
ENDBRANCH   3  18
TORSDOF 8
