REMARK SMILES CC(C)C[C@H]([NH2+]Cc1ccc2c(c1)OCO2)c1cn(Cc2cc(C(C)(C)C)no2)nn1
REMARK SMILES IDX 17 1 18 2 19 3 30 4 31 5 5 7 4 8 2 9 1 10 3 11 6 12 7 15
REMARK SMILES IDX 8 16 9 17 13 18 10 19 12 20 11 21 14 22 16 23 15 24 20 25
REMARK SMILES IDX 21 26 22 27 29 28 23 29 28 30 24 31 25 32 26 33 27 34
REMARK H PARENT 18 6 6 13 6 14
ROOT
ATOM     1   C14 UNL     1      -1.287  -1.905   0.425  1.00  0.00     0.127 A   
ATOM     2   C15 UNL     1      -0.462  -1.534  -0.614  1.00  0.00     0.046 A   
ATOM     3   N2  UNL     1      -1.233  -1.710  -1.734  1.00  0.00    -0.206 N   
ATOM     4   N4  UNL     1      -2.446  -2.195  -1.398  1.00  0.00    -0.076 NA  
ATOM     5   N5  UNL     1      -2.489  -2.320  -0.082  1.00  0.00    -0.132 NA  
ATOM     6   H20 UNL     1       0.547  -1.141  -0.651  1.00  0.00     0.083 HD  
ENDROOT
BRANCH   1   7
ATOM     7   C5  UNL     1      -1.090  -1.861   1.903  1.00  0.00     0.114 C   
BRANCH   7   8
ATOM     8   C4  UNL     1      -0.727  -3.238   2.491  1.00  0.00     0.064 C   
BRANCH   8   9
ATOM     9   C2  UNL     1       0.623  -3.819   2.019  1.00  0.00    -0.012 C   
ATOM     10  C1  UNL     1       1.804  -2.921   2.392  1.00  0.00     0.007 C   
ATOM     11  C3  UNL     1       0.825  -5.212   2.625  1.00  0.00     0.007 C   
ENDBRANCH   8   9
ENDBRANCH   7   8
BRANCH   7  12
ATOM     12  N1  UNL     1      -2.379  -1.428   2.572  1.00  0.00     0.249 N   
ATOM     13  H11 UNL     1      -2.339  -1.619   3.577  1.00  0.00     0.199 HD  
ATOM     14  H12 UNL     1      -3.118  -2.023   2.174  1.00  0.00     0.199 HD  
BRANCH  12  15
ATOM     15  C6  UNL     1      -2.790  -0.008   2.365  1.00  0.00     0.164 C   
BRANCH  15  16
ATOM     16  C7  UNL     1      -1.944   0.956   3.146  1.00  0.00    -0.002 A   
ATOM     17  C8  UNL     1      -2.160   1.134   4.534  1.00  0.00     0.012 A   
ATOM     18  C12 UNL     1      -0.908   1.663   2.511  1.00  0.00     0.045 A   
ATOM     19  C9  UNL     1      -1.357   2.001   5.282  1.00  0.00     0.037 A   
ATOM     20  C11 UNL     1      -0.132   2.507   3.278  1.00  0.00     0.109 A   
ATOM     21  C10 UNL     1      -0.349   2.672   4.624  1.00  0.00     0.108 A   
ATOM     22  O1  UNL     1       0.910   3.252   2.825  1.00  0.00    -0.316 OA  
ATOM     23  O2  UNL     1       0.525   3.546   5.186  1.00  0.00    -0.316 OA  
ATOM     24  C13 UNL     1       1.304   3.937   4.035  1.00  0.00     0.337 C   
ENDBRANCH  15  16
ENDBRANCH  12  15
ENDBRANCH   7  12
ENDBRANCH   1   7
BRANCH   3  25
ATOM     25  C16 UNL     1      -0.926  -1.476  -3.140  1.00  0.00     0.198 C   
BRANCH  25  26
ATOM     26  C17 UNL     1       0.171  -0.507  -3.343  1.00  0.00     0.106 A   
ATOM     27  C18 UNL     1       1.360  -0.534  -4.030  1.00  0.00     0.060 A   
ATOM     28  O3  UNL     1       0.026   0.712  -2.760  1.00  0.00    -0.216 OA  
ATOM     29  C19 UNL     1       1.944   0.738  -3.789  1.00  0.00     0.076 A   
ATOM     30  N3  UNL     1       1.140   1.479  -3.013  1.00  0.00    -0.133 NA  
BRANCH  29  31
ATOM     31  C20 UNL     1       3.264   1.301  -4.286  1.00  0.00     0.007 C   
ATOM     32  C21 UNL     1       4.059   1.926  -3.121  1.00  0.00     0.017 C   
ATOM     33  C22 UNL     1       3.003   2.383  -5.353  1.00  0.00     0.017 C   
ATOM     34  C23 UNL     1       4.149   0.205  -4.919  1.00  0.00     0.017 C   
ENDBRANCH  29  31
ENDBRANCH  25  26
ENDBRANCH   3  25
TORSDOF 9
