REMARK SMILES COc1cc(CCn2cc([C@@H]([NH2+]Cc3ccc4c(c3)OCO4)C(C)(C)C)nn2)ccc1C
REMARK SMILES IDX 8 1 9 2 10 3 27 4 28 5 7 7 6 8 5 9 3 10 4 11 31 12 30 13
REMARK SMILES IDX 29 14 32 15 2 16 1 17 11 18 12 19 13 22 14 23 15 24 19 25
REMARK SMILES IDX 16 26 18 27 17 28 20 29 22 30 21 31 23 32 24 33 25 34 26 35
REMARK H PARENT 9 6 12 20 12 21
ROOT
ATOM     1   N1  UNL     1      -3.298   0.899  -0.647  1.00  0.00    -0.212 N   
ATOM     2   C7  UNL     1      -2.256   1.646  -0.171  1.00  0.00     0.045 A   
ATOM     3   C8  UNL     1      -1.177   1.222  -0.914  1.00  0.00     0.127 A   
ATOM     4   N3  UNL     1      -1.598   0.280  -1.820  1.00  0.00    -0.132 NA  
ATOM     5   N4  UNL     1      -2.897   0.093  -1.647  1.00  0.00    -0.076 NA  
ATOM     6   H9  UNL     1      -2.366   2.330   0.660  1.00  0.00     0.083 HD  
ENDROOT
BRANCH   1   7
ATOM     7   C6  UNL     1      -4.641   0.806  -0.110  1.00  0.00     0.139 C   
BRANCH   7   8
ATOM     8   C5  UNL     1      -4.862  -0.457   0.731  1.00  0.00     0.057 C   
BRANCH   8   9
ATOM     9   C4  UNL     1      -3.878  -0.580   1.872  1.00  0.00    -0.044 A   
ATOM     10  C2  UNL     1      -1.784  -1.441   2.749  1.00  0.00     0.078 A   
ATOM     11  C3  UNL     1      -2.747  -1.397   1.738  1.00  0.00     0.037 A   
ATOM     12  C24 UNL     1      -1.917  -0.663   3.904  1.00  0.00    -0.021 A   
ATOM     13  C23 UNL     1      -3.066   0.127   4.048  1.00  0.00     0.006 A   
ATOM     14  C22 UNL     1      -4.036   0.172   3.042  1.00  0.00     0.004 A   
ATOM     15  C25 UNL     1      -0.876  -0.691   4.984  1.00  0.00     0.047 C   
BRANCH  10  16
ATOM     16  O1  UNL     1      -0.646  -2.182   2.556  1.00  0.00    -0.349 OA  
ATOM     17  C1  UNL     1      -0.916  -3.568   2.797  1.00  0.00     0.203 C   
ENDBRANCH  10  16
ENDBRANCH   8   9
ENDBRANCH   7   8
ENDBRANCH   1   7
BRANCH   3  18
ATOM     18  C9  UNL     1       0.286   1.524  -0.783  1.00  0.00     0.120 C   
BRANCH  18  19
ATOM     19  N2  UNL     1       1.063   0.244  -0.982  1.00  0.00     0.250 N   
ATOM     20  H11 UNL     1       2.060   0.408  -1.140  1.00  0.00     0.199 HD  
ATOM     21  H12 UNL     1       0.698  -0.195  -1.839  1.00  0.00     0.199 HD  
BRANCH  19  22
ATOM     22  C10 UNL     1       0.917  -0.761   0.113  1.00  0.00     0.164 C   
BRANCH  22  23
ATOM     23  C11 UNL     1       1.639  -2.030  -0.244  1.00  0.00    -0.002 A   
ATOM     24  C12 UNL     1       0.981  -3.028  -1.001  1.00  0.00     0.012 A   
ATOM     25  C16 UNL     1       2.983  -2.210   0.123  1.00  0.00     0.045 A   
ATOM     26  C13 UNL     1       1.647  -4.198  -1.381  1.00  0.00     0.037 A   
ATOM     27  C15 UNL     1       3.612  -3.373  -0.271  1.00  0.00     0.109 A   
ATOM     28  C14 UNL     1       2.962  -4.340  -1.000  1.00  0.00     0.108 A   
ATOM     29  O2  UNL     1       4.904  -3.702  -0.006  1.00  0.00    -0.316 OA  
ATOM     30  O3  UNL     1       3.762  -5.401  -1.282  1.00  0.00    -0.316 OA  
ATOM     31  C17 UNL     1       4.993  -4.997  -0.644  1.00  0.00     0.337 C   
ENDBRANCH  22  23
ENDBRANCH  19  22
ENDBRANCH  18  19
BRANCH  18  32
ATOM     32  C18 UNL     1       0.801   2.638  -1.759  1.00  0.00     0.010 C   
ATOM     33  C19 UNL     1       2.281   2.974  -1.460  1.00  0.00     0.017 C   
ATOM     34  C20 UNL     1       0.690   2.231  -3.242  1.00  0.00     0.017 C   
ATOM     35  C21 UNL     1      -0.006   3.940  -1.551  1.00  0.00     0.017 C   
ENDBRANCH  18  32
ENDBRANCH   3  18
TORSDOF 9
