REMARK SMILES CC(C)(C)[C@H]([NH2+]Cc1ccc2c(c1)OCO2)c1cn(Cc2cc(F)c(F)cc2F)nn1
REMARK SMILES IDX 17 1 18 2 19 3 30 4 31 5 5 7 2 8 1 9 3 10 4 11 6 12 7 15
REMARK SMILES IDX 8 16 9 17 13 18 10 19 12 20 11 21 14 22 16 23 15 24 20 25
REMARK SMILES IDX 21 26 22 27 28 28 23 29 27 30 25 31 29 32 24 33 26 34
REMARK H PARENT 18 6 6 13 6 14
ROOT
ATOM     1   C14 UNL     1      -1.728  -0.204  -0.928  1.00  0.00     0.127 A   
ATOM     2   C15 UNL     1      -1.160  -1.433  -1.180  1.00  0.00     0.046 A   
ATOM     3   N2  UNL     1      -0.303  -1.194  -2.220  1.00  0.00    -0.208 N   
ATOM     4   N3  UNL     1      -0.336   0.103  -2.583  1.00  0.00    -0.076 NA  
ATOM     5   N4  UNL     1      -1.207   0.719  -1.802  1.00  0.00    -0.132 NA  
ATOM     6   H20 UNL     1      -1.267  -2.410  -0.730  1.00  0.00     0.083 HD  
ENDROOT
BRANCH   1   7
ATOM     7   C5  UNL     1      -2.688   0.255   0.128  1.00  0.00     0.120 C   
BRANCH   7   8
ATOM     8   C2  UNL     1      -4.197   0.165  -0.286  1.00  0.00     0.010 C   
ATOM     9   C1  UNL     1      -4.541   1.064  -1.490  1.00  0.00     0.017 C   
ATOM     10  C3  UNL     1      -5.100   0.566   0.903  1.00  0.00     0.017 C   
ATOM     11  C4  UNL     1      -4.561  -1.293  -0.653  1.00  0.00     0.017 C   
ENDBRANCH   7   8
BRANCH   7  12
ATOM     12  N1  UNL     1      -2.323   1.682   0.503  1.00  0.00     0.250 N   
ATOM     13  H11 UNL     1      -3.148   2.283   0.552  1.00  0.00     0.199 HD  
ATOM     14  H12 UNL     1      -1.775   2.047  -0.294  1.00  0.00     0.199 HD  
BRANCH  12  15
ATOM     15  C6  UNL     1      -1.518   1.859   1.743  1.00  0.00     0.164 C   
BRANCH  15  16
ATOM     16  C7  UNL     1      -0.179   1.177   1.720  1.00  0.00    -0.002 A   
ATOM     17  C8  UNL     1       0.835   1.608   0.829  1.00  0.00     0.012 A   
ATOM     18  C12 UNL     1       0.080   0.103   2.589  1.00  0.00     0.045 A   
ATOM     19  C9  UNL     1       2.084   0.978   0.800  1.00  0.00     0.037 A   
ATOM     20  C11 UNL     1       1.326  -0.488   2.542  1.00  0.00     0.109 A   
ATOM     21  C10 UNL     1       2.300  -0.063   1.674  1.00  0.00     0.108 A   
ATOM     22  O1  UNL     1       1.740  -1.522   3.321  1.00  0.00    -0.316 OA  
ATOM     23  O2  UNL     1       3.450  -0.774   1.798  1.00  0.00    -0.316 OA  
ATOM     24  C13 UNL     1       3.116  -1.651   2.894  1.00  0.00     0.337 C   
ENDBRANCH  15  16
ENDBRANCH  12  15
ENDBRANCH   7  12
ENDBRANCH   1   7
BRANCH   3  25
ATOM     25  C16 UNL     1       0.550  -2.138  -2.919  1.00  0.00     0.172 C   
BRANCH  25  26
ATOM     26  C17 UNL     1       1.820  -2.393  -2.153  1.00  0.00     0.010 A   
ATOM     27  C18 UNL     1       2.964  -1.606  -2.355  1.00  0.00     0.051 A   
ATOM     28  C22 UNL     1       1.871  -3.417  -1.198  1.00  0.00     0.131 A   
ATOM     29  C19 UNL     1       4.120  -1.864  -1.622  1.00  0.00     0.159 A   
ATOM     30  C21 UNL     1       3.026  -3.681  -0.471  1.00  0.00     0.082 A   
ATOM     31  C20 UNL     1       4.151  -2.897  -0.690  1.00  0.00     0.161 A   
ATOM     32  F3  UNL     1       0.777  -4.158  -0.972  1.00  0.00    -0.207 F   
ATOM     33  F1  UNL     1       5.204  -1.104  -1.822  1.00  0.00    -0.204 F   
ATOM     34  F2  UNL     1       5.263  -3.138   0.017  1.00  0.00    -0.204 F   
ENDBRANCH  25  26
ENDBRANCH   3  25
TORSDOF 7
