REMARK SMILES Cc1ccc([C@H](O)Cn2cc([C@@H]([NH2+]Cc3ccc4c(c3)OCO4)C(C)C)nn2)s1
REMARK SMILES IDX 9 1 10 2 11 3 27 4 28 5 8 7 6 8 5 9 2 10 3 11 29 12 4 13
REMARK SMILES IDX 1 14 7 15 12 17 13 18 14 21 15 22 16 23 20 24 17 25 19 26
REMARK SMILES IDX 18 27 21 28 23 29 22 30 24 31 25 32 26 33
REMARK H PARENT 10 6 7 16 13 19 13 20
ROOT
ATOM     1   N1  UNL     1       2.463  -0.188   1.318  1.00  0.00    -0.209 N   
ATOM     2   C8  UNL     1       1.394  -0.571   0.558  1.00  0.00     0.045 A   
ATOM     3   C9  UNL     1       0.421   0.352   0.868  1.00  0.00     0.127 A   
ATOM     4   N3  UNL     1       0.903   1.210   1.824  1.00  0.00    -0.132 NA  
ATOM     5   N4  UNL     1       2.147   0.858   2.103  1.00  0.00    -0.076 NA  
ATOM     6   H10 UNL     1       1.442  -1.399  -0.137  1.00  0.00     0.083 HD  
ENDROOT
BRANCH   1   7
ATOM     7   C7  UNL     1       3.800  -0.735   1.321  1.00  0.00     0.171 C   
BRANCH   7   8
ATOM     8   C6  UNL     1       4.793   0.131   0.544  1.00  0.00     0.170 C   
BRANCH   8   9
ATOM     9   C5  UNL     1       4.483   0.178  -0.930  1.00  0.00     0.020 A   
ATOM     10  C2  UNL     1       3.729   0.894  -3.174  1.00  0.00    -0.014 A   
ATOM     11  C3  UNL     1       4.247  -0.384  -3.181  1.00  0.00     0.011 A   
ATOM     12  S1  UNL     1       3.771   1.582  -1.610  1.00  0.00    -0.097 S   
ATOM     13  C4  UNL     1       4.682  -0.797  -1.889  1.00  0.00     0.014 A   
ATOM     14  C1  UNL     1       3.193   1.682  -4.321  1.00  0.00     0.052 C   
ENDBRANCH   8   9
BRANCH   8  15
ATOM     15  O1  UNL     1       6.093  -0.448   0.671  1.00  0.00    -0.386 OA  
ATOM     16  H7  UNL     1       6.710   0.128   0.182  1.00  0.00     0.211 HD  
ENDBRANCH   8  15
ENDBRANCH   7   8
ENDBRANCH   1   7
BRANCH   3  17
ATOM     17  C10 UNL     1      -0.968   0.533   0.343  1.00  0.00     0.117 C   
BRANCH  17  18
ATOM     18  N2  UNL     1      -1.793   1.355   1.305  1.00  0.00     0.249 N   
ATOM     19  H12 UNL     1      -2.602   1.770   0.838  1.00  0.00     0.199 HD  
ATOM     20  H13 UNL     1      -1.186   2.132   1.607  1.00  0.00     0.199 HD  
BRANCH  18  21
ATOM     21  C11 UNL     1      -2.250   0.654   2.541  1.00  0.00     0.164 C   
BRANCH  21  22
ATOM     22  C12 UNL     1      -3.284  -0.403   2.263  1.00  0.00    -0.002 A   
ATOM     23  C13 UNL     1      -2.966  -1.772   2.431  1.00  0.00     0.012 A   
ATOM     24  C17 UNL     1      -4.565  -0.041   1.810  1.00  0.00     0.045 A   
ATOM     25  C14 UNL     1      -3.905  -2.769   2.145  1.00  0.00     0.037 A   
ATOM     26  C16 UNL     1      -5.466  -1.049   1.534  1.00  0.00     0.109 A   
ATOM     27  C15 UNL     1      -5.146  -2.374   1.695  1.00  0.00     0.108 A   
ATOM     28  O2  UNL     1      -6.735  -0.872   1.084  1.00  0.00    -0.316 OA  
ATOM     29  O3  UNL     1      -6.174  -3.199   1.367  1.00  0.00    -0.316 OA  
ATOM     30  C18 UNL     1      -7.193  -2.241   1.008  1.00  0.00     0.337 C   
ENDBRANCH  21  22
ENDBRANCH  18  21
ENDBRANCH  17  18
BRANCH  17  31
ATOM     31  C19 UNL     1      -0.975   1.190  -1.065  1.00  0.00     0.037 C   
ATOM     32  C20 UNL     1      -0.510   2.651  -1.073  1.00  0.00     0.014 C   
ATOM     33  C21 UNL     1      -2.350   1.079  -1.734  1.00  0.00     0.014 C   
ENDBRANCH  17  31
ENDBRANCH   3  17
TORSDOF 9
