REMARK SMILES Cc1ccc([C@@H](O)Cn2cc([C@@H]([NH2+]Cc3ccc4c(c3)OCO4)C(C)C)nn2)s1
REMARK SMILES IDX 9 1 10 2 11 3 27 4 28 5 8 7 6 8 5 9 2 10 3 11 29 12 4 13
REMARK SMILES IDX 1 14 7 15 12 17 13 18 14 21 15 22 16 23 20 24 17 25 19 26
REMARK SMILES IDX 18 27 21 28 23 29 22 30 24 31 25 32 26 33
REMARK H PARENT 10 6 7 16 13 19 13 20
ROOT
ATOM     1   N1  UNL     1       1.360  -2.268   1.989  1.00  0.00    -0.209 N   
ATOM     2   C8  UNL     1       1.060  -0.935   1.979  1.00  0.00     0.045 A   
ATOM     3   C9  UNL     1      -0.315  -0.905   2.031  1.00  0.00     0.127 A   
ATOM     4   N3  UNL     1      -0.792  -2.191   2.069  1.00  0.00    -0.132 NA  
ATOM     5   N4  UNL     1       0.243  -3.014   2.040  1.00  0.00    -0.076 NA  
ATOM     6   H10 UNL     1       1.821  -0.169   1.917  1.00  0.00     0.083 HD  
ENDROOT
BRANCH   1   7
ATOM     7   C7  UNL     1       2.660  -2.895   1.915  1.00  0.00     0.171 C   
BRANCH   7   8
ATOM     8   C6  UNL     1       2.949  -3.494   0.538  1.00  0.00     0.170 C   
BRANCH   8   9
ATOM     9   C5  UNL     1       3.140  -2.439  -0.521  1.00  0.00     0.020 A   
ATOM     10  C2  UNL     1       2.814  -0.916  -2.445  1.00  0.00    -0.014 A   
ATOM     11  C3  UNL     1       4.057  -0.768  -1.867  1.00  0.00     0.011 A   
ATOM     12  S1  UNL     1       1.878  -2.095  -1.632  1.00  0.00    -0.097 S   
ATOM     13  C4  UNL     1       4.246  -1.646  -0.761  1.00  0.00     0.014 A   
ATOM     14  C1  UNL     1       2.265  -0.194  -3.629  1.00  0.00     0.052 C   
ENDBRANCH   8   9
BRANCH   8  15
ATOM     15  O1  UNL     1       4.176  -4.226   0.612  1.00  0.00    -0.386 OA  
ATOM     16  H7  UNL     1       4.330  -4.615  -0.270  1.00  0.00     0.211 HD  
ENDBRANCH   8  15
ENDBRANCH   7   8
ENDBRANCH   1   7
BRANCH   3  17
ATOM     17  C10 UNL     1      -1.283   0.232   1.975  1.00  0.00     0.117 C   
BRANCH  17  18
ATOM     18  N2  UNL     1      -2.531  -0.196   1.232  1.00  0.00     0.249 N   
ATOM     19  H12 UNL     1      -2.803  -1.105   1.634  1.00  0.00     0.199 HD  
ATOM     20  H13 UNL     1      -3.298   0.460   1.409  1.00  0.00     0.199 HD  
BRANCH  18  21
ATOM     21  C11 UNL     1      -2.385  -0.401  -0.240  1.00  0.00     0.164 C   
BRANCH  21  22
ATOM     22  C12 UNL     1      -2.241   0.892  -0.994  1.00  0.00    -0.002 A   
ATOM     23  C13 UNL     1      -3.369   1.717  -1.218  1.00  0.00     0.012 A   
ATOM     24  C17 UNL     1      -0.980   1.303  -1.459  1.00  0.00     0.045 A   
ATOM     25  C14 UNL     1      -3.245   2.935  -1.895  1.00  0.00     0.037 A   
ATOM     26  C16 UNL     1      -0.892   2.510  -2.119  1.00  0.00     0.109 A   
ATOM     27  C15 UNL     1      -1.992   3.303  -2.332  1.00  0.00     0.108 A   
ATOM     28  O2  UNL     1       0.245   3.053  -2.629  1.00  0.00    -0.316 OA  
ATOM     29  O3  UNL     1      -1.687   4.445  -3.002  1.00  0.00    -0.316 OA  
ATOM     30  C18 UNL     1      -0.271   4.264  -3.225  1.00  0.00     0.337 C   
ENDBRANCH  21  22
ENDBRANCH  18  21
ENDBRANCH  17  18
BRANCH  17  31
ATOM     31  C19 UNL     1      -1.705   0.779   3.364  1.00  0.00     0.037 C   
ATOM     32  C20 UNL     1      -2.389  -0.252   4.270  1.00  0.00     0.014 C   
ATOM     33  C21 UNL     1      -0.520   1.411   4.104  1.00  0.00     0.014 C   
ENDBRANCH  17  31
ENDBRANCH   3  17
TORSDOF 9
