REMARK SMILES Clc1ccc(CCn2cc([C@@H]([NH2+]Cc3ccc4c(c3)OCO4)C3CCCCC3)nn2)cn1
REMARK SMILES IDX 8 1 9 2 10 3 29 4 30 5 7 7 6 8 5 9 2 10 3 11 32 12 4 13
REMARK SMILES IDX 31 14 1 15 11 16 12 17 13 20 14 21 15 22 19 23 16 24 18 25
REMARK SMILES IDX 17 26 20 27 22 28 21 29 23 30 24 31 28 32 25 33 27 34 26 35
REMARK H PARENT 9 6 12 18 12 19
ROOT
ATOM     1   N1  UNL     1       2.325  -0.521   2.607  1.00  0.00    -0.212 N   
ATOM     2   C7  UNL     1       2.103   0.684   1.987  1.00  0.00     0.045 A   
ATOM     3   C8  UNL     1       0.749   0.676   1.732  1.00  0.00     0.127 A   
ATOM     4   N3  UNL     1       0.196  -0.459   2.271  1.00  0.00    -0.132 NA  
ATOM     5   N4  UNL     1       1.168  -1.177   2.811  1.00  0.00    -0.076 NA  
ATOM     6   H7  UNL     1       2.907   1.349   1.706  1.00  0.00     0.083 HD  
ENDROOT
BRANCH   1   7
ATOM     7   C6  UNL     1       3.589  -1.233   2.706  1.00  0.00     0.139 C   
BRANCH   7   8
ATOM     8   C5  UNL     1       3.757  -2.291   1.595  1.00  0.00     0.058 C   
BRANCH   8   9
ATOM     9   C4  UNL     1       3.577  -1.699   0.214  1.00  0.00    -0.028 A   
ATOM     10  C1  UNL     1       3.054  -0.357  -2.104  1.00  0.00     0.129 A   
ATOM     11  C2  UNL     1       4.355  -0.356  -1.629  1.00  0.00     0.041 A   
ATOM     12  N5  UNL     1       2.009  -0.970  -1.495  1.00  0.00    -0.244 NA  
ATOM     13  C3  UNL     1       4.614  -1.024  -0.433  1.00  0.00     0.008 A   
ATOM     14  C24 UNL     1       2.317  -1.685  -0.390  1.00  0.00     0.116 A   
ATOM     15  CL1 UNL     1       2.636   0.517  -3.522  1.00  0.00    -0.062 Cl  
ENDBRANCH   8   9
ENDBRANCH   7   8
ENDBRANCH   1   7
BRANCH   3  16
ATOM     16  C9  UNL     1      -0.107   1.582   0.892  1.00  0.00     0.117 C   
BRANCH  16  17
ATOM     17  N2  UNL     1      -0.861   0.689  -0.071  1.00  0.00     0.249 N   
ATOM     18  H9  UNL     1      -0.331  -0.200  -0.137  1.00  0.00     0.199 HD  
ATOM     19  H10 UNL     1      -1.758   0.402   0.343  1.00  0.00     0.199 HD  
BRANCH  17  20
ATOM     20  C10 UNL     1      -1.021   1.145  -1.473  1.00  0.00     0.164 C   
BRANCH  20  21
ATOM     21  C11 UNL     1      -1.851   0.175  -2.269  1.00  0.00    -0.002 A   
ATOM     22  C12 UNL     1      -3.235   0.015  -1.994  1.00  0.00     0.012 A   
ATOM     23  C16 UNL     1      -1.260  -0.583  -3.299  1.00  0.00     0.045 A   
ATOM     24  C13 UNL     1      -4.014  -0.884  -2.731  1.00  0.00     0.037 A   
ATOM     25  C15 UNL     1      -2.057  -1.453  -4.013  1.00  0.00     0.109 A   
ATOM     26  C14 UNL     1      -3.395  -1.599  -3.738  1.00  0.00     0.108 A   
ATOM     27  O1  UNL     1      -1.646  -2.237  -5.048  1.00  0.00    -0.316 OA  
ATOM     28  O2  UNL     1      -3.997  -2.494  -4.565  1.00  0.00    -0.316 OA  
ATOM     29  C17 UNL     1      -2.889  -2.879  -5.414  1.00  0.00     0.337 C   
ENDBRANCH  20  21
ENDBRANCH  17  20
ENDBRANCH  16  17
BRANCH  16  30
ATOM     30  C18 UNL     1      -1.094   2.400   1.780  1.00  0.00     0.043 C   
ATOM     31  C19 UNL     1      -2.133   3.233   1.007  1.00  0.00     0.010 C   
ATOM     32  C23 UNL     1      -0.355   3.340   2.764  1.00  0.00     0.010 C   
ATOM     33  C20 UNL     1      -1.521   4.444   0.301  1.00  0.00     0.001 C   
ATOM     34  C22 UNL     1       0.269   4.556   2.077  1.00  0.00     0.001 C   
ATOM     35  C21 UNL     1      -0.769   5.341   1.278  1.00  0.00     0.000 C   
ENDBRANCH  16  30
ENDBRANCH   3  16
TORSDOF 8
