REMARK SMILES Cc1cc([C@@H](CO)n2cc([C@@H]([NH2+]Cc3ccc4c(c3)OCO4)C(C)C)nn2)ccc1F
REMARK SMILES IDX 8 1 9 2 10 3 26 4 27 5 5 7 4 8 2 9 3 10 30 11 29 12 28 13
REMARK SMILES IDX 1 14 31 15 6 16 7 17 11 19 12 20 13 23 14 24 15 25 19 26
REMARK SMILES IDX 16 27 18 28 17 29 20 30 22 31 21 32 23 33 24 34 25 35
REMARK H PARENT 9 6 7 18 12 21 12 22
ROOT
ATOM     1   N1  UNL     1       1.949   1.077  -0.698  1.00  0.00    -0.202 N   
ATOM     2   C7  UNL     1       0.946   1.711  -0.013  1.00  0.00     0.046 A   
ATOM     3   C8  UNL     1       0.480   0.759   0.863  1.00  0.00     0.127 A   
ATOM     4   N3  UNL     1       1.194  -0.401   0.689  1.00  0.00    -0.132 NA  
ATOM     5   N4  UNL     1       2.079  -0.199  -0.273  1.00  0.00    -0.075 NA  
ATOM     6   H9  UNL     1       0.684   2.743  -0.203  1.00  0.00     0.083 HD  
ENDROOT
BRANCH   1   7
ATOM     7   C5  UNL     1       2.806   1.591  -1.768  1.00  0.00     0.155 C   
BRANCH   7   8
ATOM     8   C4  UNL     1       1.960   2.159  -2.905  1.00  0.00    -0.023 A   
ATOM     9   C2  UNL     1       0.925   4.016  -4.119  1.00  0.00    -0.015 A   
ATOM     10  C3  UNL     1       1.736   3.537  -3.079  1.00  0.00     0.012 A   
ATOM     11  C23 UNL     1       0.354   3.100  -5.003  1.00  0.00     0.126 A   
ATOM     12  C22 UNL     1       0.557   1.734  -4.854  1.00  0.00     0.040 A   
ATOM     13  C21 UNL     1       1.352   1.264  -3.808  1.00  0.00     0.009 A   
ATOM     14  C1  UNL     1       0.719   5.488  -4.320  1.00  0.00     0.047 C   
ATOM     15  F1  UNL     1      -0.411   3.532  -6.014  1.00  0.00    -0.207 F   
ENDBRANCH   7   8
BRANCH   7  16
ATOM     16  C6  UNL     1       3.932   2.481  -1.203  1.00  0.00     0.185 C   
BRANCH  16  17
ATOM     17  O1  UNL     1       3.446   3.588  -0.442  1.00  0.00    -0.394 OA  
ATOM     18  H8  UNL     1       4.228   4.095  -0.150  1.00  0.00     0.210 HD  
ENDBRANCH  16  17
ENDBRANCH   7  16
ENDBRANCH   1   7
BRANCH   3  19
ATOM     19  C9  UNL     1      -0.618   0.809   1.877  1.00  0.00     0.117 C   
BRANCH  19  20
ATOM     20  N2  UNL     1      -1.087  -0.583   2.209  1.00  0.00     0.249 N   
ATOM     21  H11 UNL     1      -0.239  -1.163   2.302  1.00  0.00     0.199 HD  
ATOM     22  H12 UNL     1      -1.566  -0.628   3.112  1.00  0.00     0.199 HD  
BRANCH  20  23
ATOM     23  C10 UNL     1      -1.942  -1.230   1.175  1.00  0.00     0.164 C   
BRANCH  23  24
ATOM     24  C11 UNL     1      -2.252  -2.647   1.568  1.00  0.00    -0.002 A   
ATOM     25  C12 UNL     1      -3.456  -2.961   2.240  1.00  0.00     0.012 A   
ATOM     26  C16 UNL     1      -1.313  -3.664   1.317  1.00  0.00     0.045 A   
ATOM     27  C13 UNL     1      -3.729  -4.270   2.650  1.00  0.00     0.037 A   
ATOM     28  C15 UNL     1      -1.612  -4.943   1.738  1.00  0.00     0.109 A   
ATOM     29  C14 UNL     1      -2.785  -5.238   2.386  1.00  0.00     0.108 A   
ATOM     30  O2  UNL     1      -0.817  -6.034   1.582  1.00  0.00    -0.316 OA  
ATOM     31  O3  UNL     1      -2.879  -6.552   2.716  1.00  0.00    -0.316 OA  
ATOM     32  C17 UNL     1      -1.634  -7.059   2.190  1.00  0.00     0.337 C   
ENDBRANCH  23  24
ENDBRANCH  20  23
ENDBRANCH  19  20
BRANCH  19  33
ATOM     33  C18 UNL     1      -0.190   1.554   3.169  1.00  0.00     0.037 C   
ATOM     34  C19 UNL     1      -1.393   1.879   4.063  1.00  0.00     0.014 C   
ATOM     35  C20 UNL     1       0.877   0.815   3.987  1.00  0.00     0.014 C   
ENDBRANCH  19  33
ENDBRANCH   3  19
TORSDOF 9
