REMARK SMILES Cc1cc([C@H](CO)n2cc([C@@H]([NH2+]Cc3ccc4c(c3)OCO4)C(C)C)nn2)ccc1F
REMARK SMILES IDX 8 1 9 2 10 3 26 4 27 5 5 7 4 8 2 9 3 10 30 11 29 12 28 13
REMARK SMILES IDX 1 14 31 15 6 16 7 17 11 19 12 20 13 23 14 24 15 25 19 26
REMARK SMILES IDX 16 27 18 28 17 29 20 30 22 31 21 32 23 33 24 34 25 35
REMARK H PARENT 9 6 7 18 12 21 12 22
ROOT
ATOM     1   N1  UNL     1      -0.070  -0.956   1.662  1.00  0.00    -0.202 N   
ATOM     2   C7  UNL     1      -0.543  -0.533   0.448  1.00  0.00     0.046 A   
ATOM     3   C8  UNL     1       0.583  -0.426  -0.335  1.00  0.00     0.127 A   
ATOM     4   N3  UNL     1       1.683  -0.760   0.412  1.00  0.00    -0.132 NA  
ATOM     5   N4  UNL     1       1.275  -1.069   1.632  1.00  0.00    -0.075 NA  
ATOM     6   H9  UNL     1      -1.595  -0.360   0.270  1.00  0.00     0.083 HD  
ENDROOT
BRANCH   1   7
ATOM     7   C5  UNL     1      -0.811  -1.274   2.883  1.00  0.00     0.155 C   
BRANCH   7   8
ATOM     8   C4  UNL     1      -1.898  -2.307   2.598  1.00  0.00    -0.023 A   
ATOM     9   C2  UNL     1      -4.215  -2.946   2.133  1.00  0.00    -0.015 A   
ATOM     10  C3  UNL     1      -3.248  -1.965   2.408  1.00  0.00     0.012 A   
ATOM     11  C23 UNL     1      -3.815  -4.279   2.043  1.00  0.00     0.126 A   
ATOM     12  C22 UNL     1      -2.486  -4.643   2.221  1.00  0.00     0.040 A   
ATOM     13  C21 UNL     1      -1.531  -3.663   2.494  1.00  0.00     0.009 A   
ATOM     14  C1  UNL     1      -5.649  -2.553   1.939  1.00  0.00     0.047 C   
ATOM     15  F1  UNL     1      -4.714  -5.237   1.774  1.00  0.00    -0.207 F   
ENDBRANCH   7   8
BRANCH   7  16
ATOM     16  C6  UNL     1      -1.233   0.005   3.637  1.00  0.00     0.185 C   
BRANCH  16  17
ATOM     17  O1  UNL     1      -2.001   0.905   2.836  1.00  0.00    -0.394 OA  
ATOM     18  H8  UNL     1      -2.289   1.631   3.422  1.00  0.00     0.210 HD  
ENDBRANCH  16  17
ENDBRANCH   7  16
ENDBRANCH   1   7
BRANCH   3  19
ATOM     19  C9  UNL     1       0.750  -0.004  -1.760  1.00  0.00     0.117 C   
BRANCH  19  20
ATOM     20  N2  UNL     1       2.161   0.480  -2.001  1.00  0.00     0.249 N   
ATOM     21  H11 UNL     1       2.776  -0.201  -1.534  1.00  0.00     0.199 HD  
ATOM     22  H12 UNL     1       2.392   0.466  -2.997  1.00  0.00     0.199 HD  
BRANCH  20  23
ATOM     23  C10 UNL     1       2.494   1.824  -1.443  1.00  0.00     0.164 C   
BRANCH  23  24
ATOM     24  C11 UNL     1       1.871   2.945  -2.228  1.00  0.00    -0.002 A   
ATOM     25  C12 UNL     1       2.393   3.311  -3.492  1.00  0.00     0.012 A   
ATOM     26  C16 UNL     1       0.746   3.620  -1.724  1.00  0.00     0.045 A   
ATOM     27  C13 UNL     1       1.803   4.331  -4.246  1.00  0.00     0.037 A   
ATOM     28  C15 UNL     1       0.188   4.620  -2.494  1.00  0.00     0.109 A   
ATOM     29  C14 UNL     1       0.701   4.966  -3.719  1.00  0.00     0.108 A   
ATOM     30  O2  UNL     1      -0.900   5.362  -2.158  1.00  0.00    -0.316 OA  
ATOM     31  O3  UNL     1       0.004   5.973  -4.307  1.00  0.00    -0.316 OA  
ATOM     32  C17 UNL     1      -0.998   6.241  -3.303  1.00  0.00     0.337 C   
ENDBRANCH  23  24
ENDBRANCH  20  23
ENDBRANCH  19  20
BRANCH  19  33
ATOM     33  C18 UNL     1       0.399  -1.143  -2.753  1.00  0.00     0.037 C   
ATOM     34  C19 UNL     1       1.377  -2.323  -2.721  1.00  0.00     0.014 C   
ATOM     35  C20 UNL     1       0.265  -0.621  -4.189  1.00  0.00     0.014 C   
ENDBRANCH  19  33
ENDBRANCH   3  19
TORSDOF 9
