REMARK SMILES Fc1cncc(F)c1Cn1cc([C@@H]([NH2+]Cc2ccc3c(c2)OCO3)C2CCCCC2)nn1
REMARK SMILES IDX 10 1 11 2 12 3 31 4 32 5 9 7 8 8 2 9 3 10 4 11 6 12 5 13
REMARK SMILES IDX 1 14 7 15 13 16 14 17 15 20 16 21 17 22 21 23 18 24 20 25
REMARK SMILES IDX 19 26 22 27 24 28 23 29 25 30 26 31 30 32 27 33 29 34 28 35
REMARK H PARENT 11 6 14 18 14 19
ROOT
ATOM     1   N2  UNL     1      -2.842   1.244   0.425  1.00  0.00    -0.208 N   
ATOM     2   C7  UNL     1      -2.087   0.631   1.388  1.00  0.00     0.046 A   
ATOM     3   C8  UNL     1      -1.437  -0.379   0.710  1.00  0.00     0.127 A   
ATOM     4   N4  UNL     1      -1.845  -0.374  -0.599  1.00  0.00    -0.132 NA  
ATOM     5   N5  UNL     1      -2.711   0.615  -0.758  1.00  0.00    -0.076 NA  
ATOM     6   H5  UNL     1      -2.060   0.982   2.411  1.00  0.00     0.083 HD  
ENDROOT
BRANCH   1   7
ATOM     7   C6  UNL     1      -3.692   2.418   0.555  1.00  0.00     0.175 C   
BRANCH   7   8
ATOM     8   C5  UNL     1      -2.952   3.662   0.164  1.00  0.00     0.046 A   
ATOM     9   C1  UNL     1      -2.061   4.282   1.036  1.00  0.00     0.149 A   
ATOM     10  C2  UNL     1      -1.372   5.415   0.625  1.00  0.00     0.150 A   
ATOM     11  N1  UNL     1      -1.510   5.966  -0.604  1.00  0.00    -0.259 NA  
ATOM     12  C4  UNL     1      -3.103   4.221  -1.103  1.00  0.00     0.149 A   
ATOM     13  C3  UNL     1      -2.380   5.356  -1.443  1.00  0.00     0.150 A   
ATOM     14  F1  UNL     1      -1.860   3.779   2.263  1.00  0.00    -0.205 F   
ATOM     15  F2  UNL     1      -3.943   3.670  -1.990  1.00  0.00    -0.205 F   
ENDBRANCH   7   8
ENDBRANCH   1   7
BRANCH   3  16
ATOM     16  C9  UNL     1      -0.425  -1.391   1.155  1.00  0.00     0.117 C   
BRANCH  16  17
ATOM     17  N3  UNL     1      -0.285  -2.464   0.106  1.00  0.00     0.249 N   
ATOM     18  H7  UNL     1       0.687  -2.765  -0.022  1.00  0.00     0.199 HD  
ATOM     19  H8  UNL     1      -0.552  -2.029  -0.794  1.00  0.00     0.199 HD  
BRANCH  17  20
ATOM     20  C10 UNL     1      -1.157  -3.652   0.295  1.00  0.00     0.164 C   
BRANCH  20  21
ATOM     21  C11 UNL     1      -0.925  -4.661  -0.795  1.00  0.00    -0.002 A   
ATOM     22  C12 UNL     1       0.091  -5.644  -0.653  1.00  0.00     0.012 A   
ATOM     23  C16 UNL     1      -1.675  -4.605  -1.981  1.00  0.00     0.045 A   
ATOM     24  C13 UNL     1       0.349  -6.569  -1.673  1.00  0.00     0.037 A   
ATOM     25  C15 UNL     1      -1.402  -5.535  -2.965  1.00  0.00     0.109 A   
ATOM     26  C14 UNL     1      -0.420  -6.486  -2.817  1.00  0.00     0.108 A   
ATOM     27  O1  UNL     1      -2.041  -5.627  -4.164  1.00  0.00    -0.316 OA  
ATOM     28  O2  UNL     1      -0.312  -7.296  -3.903  1.00  0.00    -0.316 OA  
ATOM     29  C17 UNL     1      -1.365  -6.764  -4.747  1.00  0.00     0.337 C   
ENDBRANCH  20  21
ENDBRANCH  17  20
ENDBRANCH  16  17
BRANCH  16  30
ATOM     30  C18 UNL     1       0.957  -0.756   1.472  1.00  0.00     0.043 C   
ATOM     31  C19 UNL     1       1.879  -1.750   2.208  1.00  0.00     0.010 C   
ATOM     32  C23 UNL     1       1.673  -0.162   0.241  1.00  0.00     0.010 C   
ATOM     33  C20 UNL     1       3.222  -1.115   2.574  1.00  0.00     0.001 C   
ATOM     34  C22 UNL     1       3.012   0.470   0.622  1.00  0.00     0.001 C   
ATOM     35  C21 UNL     1       3.914  -0.523   1.349  1.00  0.00     0.000 C   
ENDBRANCH  16  30
ENDBRANCH   3  16
TORSDOF 7
