REMARK SMILES Cc1ccc(C(=O)Cn2cc([C@@H]([NH2+]Cc3ccc4c(c3)OCO4)C(C)(C)C)nn2)cc1
REMARK SMILES IDX 9 1 10 2 11 3 28 4 29 5 8 7 6 8 7 9 5 10 2 11 3 12 31 13
REMARK SMILES IDX 4 14 30 15 1 16 12 17 13 18 14 21 15 22 16 23 20 24 17 25
REMARK SMILES IDX 19 26 18 27 21 28 23 29 22 30 24 31 25 32 26 33 27 34
REMARK H PARENT 10 6 13 19 13 20
ROOT
ATOM     1   N1  UNL     1       2.006   0.742   2.347  1.00  0.00    -0.204 N   
ATOM     2   C8  UNL     1       2.621   1.086   1.176  1.00  0.00     0.046 A   
ATOM     3   C9  UNL     1       1.672   1.826   0.507  1.00  0.00     0.127 A   
ATOM     4   N3  UNL     1       0.541   1.908   1.281  1.00  0.00    -0.132 NA  
ATOM     5   N4  UNL     1       0.759   1.244   2.404  1.00  0.00    -0.076 NA  
ATOM     6   H8  UNL     1       3.619   0.750   0.926  1.00  0.00     0.083 HD  
ENDROOT
BRANCH   1   7
ATOM     7   C7  UNL     1       2.506  -0.103   3.407  1.00  0.00     0.214 C   
BRANCH   7   8
ATOM     8   C6  UNL     1       2.165  -1.542   3.113  1.00  0.00     0.182 C   
ATOM     9   O1  UNL     1       2.644  -2.118   2.135  1.00  0.00    -0.292 OA  
BRANCH   8  10
ATOM     10  C5  UNL     1       1.239  -2.277   4.017  1.00  0.00     0.019 A   
ATOM     11  C2  UNL     1      -0.461  -3.757   5.694  1.00  0.00    -0.051 A   
ATOM     12  C3  UNL     1      -0.605  -2.369   5.585  1.00  0.00     0.004 A   
ATOM     13  C24 UNL     1       0.519  -4.404   4.933  1.00  0.00     0.004 A   
ATOM     14  C4  UNL     1       0.240  -1.629   4.751  1.00  0.00     0.012 A   
ATOM     15  C23 UNL     1       1.365  -3.669   4.099  1.00  0.00     0.012 A   
ATOM     16  C1  UNL     1      -1.392  -4.550   6.566  1.00  0.00     0.044 C   
ENDBRANCH   8  10
ENDBRANCH   7   8
ENDBRANCH   1   7
BRANCH   3  17
ATOM     17  C10 UNL     1       1.667   2.409  -0.874  1.00  0.00     0.120 C   
BRANCH  17  18
ATOM     18  N2  UNL     1       0.294   2.207  -1.472  1.00  0.00     0.250 N   
ATOM     19  H10 UNL     1      -0.388   2.464  -0.742  1.00  0.00     0.199 HD  
ATOM     20  H11 UNL     1       0.114   2.829  -2.263  1.00  0.00     0.199 HD  
BRANCH  18  21
ATOM     21  C11 UNL     1      -0.017   0.809  -1.886  1.00  0.00     0.164 C   
BRANCH  21  22
ATOM     22  C12 UNL     1      -1.422   0.721  -2.411  1.00  0.00    -0.002 A   
ATOM     23  C13 UNL     1      -2.497   0.478  -1.523  1.00  0.00     0.012 A   
ATOM     24  C17 UNL     1      -1.684   0.937  -3.775  1.00  0.00     0.045 A   
ATOM     25  C14 UNL     1      -3.816   0.436  -1.988  1.00  0.00     0.037 A   
ATOM     26  C16 UNL     1      -2.995   0.890  -4.199  1.00  0.00     0.109 A   
ATOM     27  C15 UNL     1      -4.032   0.646  -3.332  1.00  0.00     0.108 A   
ATOM     28  O2  UNL     1      -3.419   1.075  -5.476  1.00  0.00    -0.316 OA  
ATOM     29  O3  UNL     1      -5.239   0.644  -3.955  1.00  0.00    -0.316 OA  
ATOM     30  C18 UNL     1      -4.846   0.901  -5.320  1.00  0.00     0.337 C   
ENDBRANCH  21  22
ENDBRANCH  18  21
ENDBRANCH  17  18
BRANCH  17  31
ATOM     31  C19 UNL     1       2.076   3.922  -0.935  1.00  0.00     0.010 C   
ATOM     32  C20 UNL     1       1.081   4.839  -0.196  1.00  0.00     0.017 C   
ATOM     33  C21 UNL     1       2.171   4.395  -2.405  1.00  0.00     0.017 C   
ATOM     34  C22 UNL     1       3.476   4.118  -0.309  1.00  0.00     0.017 C   
ENDBRANCH  17  31
ENDBRANCH   3  17
TORSDOF 8
