REMARK SMILES COc1ccc(CCn2cc([C@@H]([NH2+]Cc3ccc4c(c3)OCO4)C(C)C)nn2)c(F)c1
REMARK SMILES IDX 9 1 10 2 11 3 27 4 28 5 8 7 7 8 6 9 3 10 4 11 31 12 5 13
REMARK SMILES IDX 29 14 30 15 2 16 1 17 12 18 13 19 14 22 15 23 16 24 20 25
REMARK SMILES IDX 17 26 19 27 18 28 21 29 23 30 22 31 24 32 25 33 26 34
REMARK H PARENT 10 6 13 20 13 21
ROOT
ATOM     1   N1  UNL     1       2.162   1.269  -1.974  1.00  0.00    -0.212 N   
ATOM     2   C8  UNL     1       1.951   0.366  -0.971  1.00  0.00     0.045 A   
ATOM     3   C9  UNL     1       1.067  -0.535  -1.521  1.00  0.00     0.127 A   
ATOM     4   N3  UNL     1       0.818  -0.186  -2.824  1.00  0.00    -0.132 NA  
ATOM     5   N4  UNL     1       1.487   0.924  -3.086  1.00  0.00    -0.076 NA  
ATOM     6   H10 UNL     1       2.395   0.472   0.009  1.00  0.00     0.083 HD  
ENDROOT
BRANCH   1   7
ATOM     7   C7  UNL     1       2.945   2.486  -1.938  1.00  0.00     0.139 C   
BRANCH   7   8
ATOM     8   C6  UNL     1       2.117   3.709  -1.540  1.00  0.00     0.060 C   
BRANCH   8   9
ATOM     9   C5  UNL     1       1.768   3.731  -0.071  1.00  0.00    -0.010 A   
ATOM     10  C2  UNL     1       1.128   3.729   2.674  1.00  0.00     0.077 A   
ATOM     11  C3  UNL     1       2.382   4.163   2.234  1.00  0.00     0.034 A   
ATOM     12  C23 UNL     1       0.193   3.291   1.740  1.00  0.00     0.073 A   
ATOM     13  C4  UNL     1       2.703   4.170   0.874  1.00  0.00     0.009 A   
ATOM     14  C22 UNL     1       0.521   3.291   0.385  1.00  0.00     0.129 A   
ATOM     15  F1  UNL     1      -0.379   2.819  -0.491  1.00  0.00    -0.207 F   
BRANCH  10  16
ATOM     16  O1  UNL     1       0.955   3.768   4.030  1.00  0.00    -0.349 OA  
ATOM     17  C1  UNL     1      -0.354   3.502   4.520  1.00  0.00     0.203 C   
ENDBRANCH  10  16
ENDBRANCH   8   9
ENDBRANCH   7   8
ENDBRANCH   1   7
BRANCH   3  18
ATOM     18  C10 UNL     1       0.360  -1.709  -0.926  1.00  0.00     0.117 C   
BRANCH  18  19
ATOM     19  N2  UNL     1      -0.940  -1.963  -1.653  1.00  0.00     0.249 N   
ATOM     20  H12 UNL     1      -0.716  -1.916  -2.658  1.00  0.00     0.199 HD  
ATOM     21  H13 UNL     1      -1.294  -2.902  -1.462  1.00  0.00     0.199 HD  
BRANCH  19  22
ATOM     22  C11 UNL     1      -2.031  -0.970  -1.413  1.00  0.00     0.164 C   
BRANCH  22  23
ATOM     23  C12 UNL     1      -2.564  -1.013  -0.007  1.00  0.00    -0.002 A   
ATOM     24  C13 UNL     1      -3.263  -2.148   0.468  1.00  0.00     0.012 A   
ATOM     25  C17 UNL     1      -2.353   0.079   0.854  1.00  0.00     0.045 A   
ATOM     26  C14 UNL     1      -3.729  -2.205   1.786  1.00  0.00     0.037 A   
ATOM     27  C16 UNL     1      -2.830  -0.005   2.145  1.00  0.00     0.109 A   
ATOM     28  C15 UNL     1      -3.496  -1.117   2.599  1.00  0.00     0.108 A   
ATOM     29  O2  UNL     1      -2.709   0.954   3.100  1.00  0.00    -0.316 OA  
ATOM     30  O3  UNL     1      -3.874  -1.001   3.898  1.00  0.00    -0.316 OA  
ATOM     31  C18 UNL     1      -3.414   0.333   4.201  1.00  0.00     0.337 C   
ENDBRANCH  22  23
ENDBRANCH  19  22
ENDBRANCH  18  19
BRANCH  18  32
ATOM     32  C19 UNL     1       1.237  -2.989  -0.932  1.00  0.00     0.037 C   
ATOM     33  C20 UNL     1       1.505  -3.554  -2.332  1.00  0.00     0.014 C   
ATOM     34  C21 UNL     1       0.643  -4.085  -0.038  1.00  0.00     0.014 C   
ENDBRANCH  18  32
ENDBRANCH   3  18
TORSDOF 9
