REMARK SMILES Cc1ccc(F)cc1[C@@H](CO)n1cc([C@H](CC(C)C)[NH2+]Cc2ccc3c(c2)OCO3)nn1
REMARK SMILES IDX 12 1 13 2 14 3 31 4 32 5 9 7 8 8 2 9 3 10 4 11 7 12 5 13
REMARK SMILES IDX 1 14 6 15 10 16 11 17 15 19 16 20 17 21 18 22 19 23 20 24
REMARK SMILES IDX 21 27 22 28 23 29 27 30 24 31 26 32 25 33 28 34 30 35 29 36
REMARK H PARENT 13 6 11 18 20 25 20 26
ROOT
ATOM     1   N1  UNL     1       1.119   2.650  -0.004  1.00  0.00    -0.202 N   
ATOM     2   C10 UNL     1       1.181   1.294  -0.187  1.00  0.00     0.046 A   
ATOM     3   C11 UNL     1       0.120   1.015  -1.017  1.00  0.00     0.127 A   
ATOM     4   N3  UNL     1      -0.559   2.175  -1.285  1.00  0.00    -0.132 NA  
ATOM     5   N4  UNL     1       0.059   3.167  -0.665  1.00  0.00    -0.075 NA  
ATOM     6   H11 UNL     1       1.956   0.687   0.260  1.00  0.00     0.083 HD  
ENDROOT
BRANCH   1   7
ATOM     7   C8  UNL     1       2.003   3.520   0.773  1.00  0.00     0.155 C   
BRANCH   7   8
ATOM     8   C7  UNL     1       2.102   3.038   2.224  1.00  0.00    -0.017 A   
ATOM     9   C2  UNL     1       1.124   3.396   3.190  1.00  0.00    -0.046 A   
ATOM     10  C3  UNL     1       1.238   2.922   4.512  1.00  0.00     0.007 A   
ATOM     11  C4  UNL     1       2.293   2.094   4.887  1.00  0.00     0.039 A   
ATOM     12  C6  UNL     1       3.156   2.197   2.632  1.00  0.00     0.045 A   
ATOM     13  C5  UNL     1       3.241   1.738   3.944  1.00  0.00     0.123 A   
ATOM     14  C1  UNL     1      -0.044   4.293   2.865  1.00  0.00     0.045 C   
ATOM     15  F1  UNL     1       4.252   0.933   4.293  1.00  0.00    -0.207 F   
ENDBRANCH   7   8
BRANCH   7  16
ATOM     16  C9  UNL     1       3.328   3.781   0.023  1.00  0.00     0.185 C   
BRANCH  16  17
ATOM     17  O1  UNL     1       4.024   2.587  -0.334  1.00  0.00    -0.394 OA  
ATOM     18  H10 UNL     1       4.859   2.861  -0.760  1.00  0.00     0.210 HD  
ENDBRANCH  16  17
ENDBRANCH   7  16
ENDBRANCH   1   7
BRANCH   3  19
ATOM     19  C12 UNL     1      -0.377  -0.281  -1.569  1.00  0.00     0.114 C   
BRANCH  19  20
ATOM     20  C13 UNL     1       0.062  -0.506  -3.027  1.00  0.00     0.064 C   
BRANCH  20  21
ATOM     21  C14 UNL     1       1.587  -0.622  -3.240  1.00  0.00    -0.012 C   
ATOM     22  C15 UNL     1       1.891  -0.758  -4.735  1.00  0.00     0.007 C   
ATOM     23  C16 UNL     1       2.191  -1.806  -2.482  1.00  0.00     0.007 C   
ENDBRANCH  20  21
ENDBRANCH  19  20
BRANCH  19  24
ATOM     24  N2  UNL     1      -1.890  -0.249  -1.504  1.00  0.00     0.249 N   
ATOM     25  H22 UNL     1      -2.208   0.508  -2.124  1.00  0.00     0.199 HD  
ATOM     26  H23 UNL     1      -2.131   0.087  -0.562  1.00  0.00     0.199 HD  
BRANCH  24  27
ATOM     27  C17 UNL     1      -2.647  -1.500  -1.765  1.00  0.00     0.164 C   
BRANCH  27  28
ATOM     28  C18 UNL     1      -2.294  -2.612  -0.817  1.00  0.00    -0.002 A   
ATOM     29  C19 UNL     1      -1.524  -3.714  -1.262  1.00  0.00     0.012 A   
ATOM     30  C23 UNL     1      -2.692  -2.546   0.530  1.00  0.00     0.045 A   
ATOM     31  C20 UNL     1      -1.145  -4.731  -0.379  1.00  0.00     0.037 A   
ATOM     32  C22 UNL     1      -2.302  -3.566   1.374  1.00  0.00     0.109 A   
ATOM     33  C21 UNL     1      -1.549  -4.625   0.934  1.00  0.00     0.108 A   
ATOM     34  O2  UNL     1      -2.591  -3.648   2.699  1.00  0.00    -0.316 OA  
ATOM     35  O3  UNL     1      -1.269  -5.509   1.926  1.00  0.00    -0.316 OA  
ATOM     36  C24 UNL     1      -1.964  -4.905   3.039  1.00  0.00     0.337 C   
ENDBRANCH  27  28
ENDBRANCH  24  27
ENDBRANCH  19  24
ENDBRANCH   3  19
TORSDOF 10
