REMARK SMILES Cc1ccc(F)cc1[C@H](CO)n1cc([C@H](CC(C)C)[NH2+]Cc2ccc3c(c2)OCO3)nn1
REMARK SMILES IDX 12 1 13 2 14 3 31 4 32 5 9 7 8 8 2 9 3 10 4 11 7 12 5 13
REMARK SMILES IDX 1 14 6 15 10 16 11 17 15 19 16 20 17 21 18 22 19 23 20 24
REMARK SMILES IDX 21 27 22 28 23 29 27 30 24 31 26 32 25 33 28 34 30 35 29 36
REMARK H PARENT 13 6 11 18 20 25 20 26
ROOT
ATOM     1   N1  UNL     1      -2.164   1.506  -0.211  1.00  0.00    -0.202 N   
ATOM     2   C10 UNL     1      -1.719   0.224  -0.412  1.00  0.00     0.046 A   
ATOM     3   C11 UNL     1      -1.148  -0.127   0.791  1.00  0.00     0.127 A   
ATOM     4   N3  UNL     1      -1.222   0.939   1.652  1.00  0.00    -0.132 NA  
ATOM     5   N4  UNL     1      -1.823   1.935   1.024  1.00  0.00    -0.075 NA  
ATOM     6   H11 UNL     1      -1.871  -0.299  -1.345  1.00  0.00     0.083 HD  
ENDROOT
BRANCH   1   7
ATOM     7   C8  UNL     1      -2.858   2.369  -1.171  1.00  0.00     0.155 C   
BRANCH   7   8
ATOM     8   C7  UNL     1      -1.855   3.247  -1.915  1.00  0.00    -0.017 A   
ATOM     9   C2  UNL     1      -1.616   3.105  -3.304  1.00  0.00    -0.046 A   
ATOM     10  C3  UNL     1      -0.666   3.933  -3.932  1.00  0.00     0.007 A   
ATOM     11  C4  UNL     1       0.032   4.900  -3.212  1.00  0.00     0.039 A   
ATOM     12  C6  UNL     1      -1.142   4.238  -1.210  1.00  0.00     0.045 A   
ATOM     13  C5  UNL     1      -0.215   5.046  -1.858  1.00  0.00     0.123 A   
ATOM     14  C1  UNL     1      -2.341   2.090  -4.152  1.00  0.00     0.045 C   
ATOM     15  F1  UNL     1       0.452   5.974  -1.159  1.00  0.00    -0.207 F   
ENDBRANCH   7   8
BRANCH   7  16
ATOM     16  C9  UNL     1      -4.004   3.176  -0.533  1.00  0.00     0.185 C   
BRANCH  16  17
ATOM     17  O1  UNL     1      -5.098   2.311  -0.222  1.00  0.00    -0.394 OA  
ATOM     18  H10 UNL     1      -5.788   2.862   0.191  1.00  0.00     0.210 HD  
ENDBRANCH  16  17
ENDBRANCH   7  16
ENDBRANCH   1   7
BRANCH   3  19
ATOM     19  C12 UNL     1      -0.476  -1.381   1.241  1.00  0.00     0.114 C   
BRANCH  19  20
ATOM     20  C13 UNL     1      -1.446  -2.364   1.927  1.00  0.00     0.064 C   
BRANCH  20  21
ATOM     21  C14 UNL     1      -2.564  -2.927   1.023  1.00  0.00    -0.012 C   
ATOM     22  C15 UNL     1      -3.487  -3.831   1.846  1.00  0.00     0.007 C   
ATOM     23  C16 UNL     1      -2.012  -3.707  -0.173  1.00  0.00     0.007 C   
ENDBRANCH  20  21
ENDBRANCH  19  20
BRANCH  19  24
ATOM     24  N2  UNL     1       0.595  -1.036   2.260  1.00  0.00     0.249 N   
ATOM     25  H22 UNL     1       0.837  -1.856   2.822  1.00  0.00     0.199 HD  
ATOM     26  H23 UNL     1       0.165  -0.348   2.896  1.00  0.00     0.199 HD  
BRANCH  24  27
ATOM     27  C17 UNL     1       1.843  -0.424   1.715  1.00  0.00     0.164 C   
BRANCH  27  28
ATOM     28  C18 UNL     1       2.720  -1.438   1.031  1.00  0.00    -0.002 A   
ATOM     29  C19 UNL     1       3.456  -2.377   1.794  1.00  0.00     0.012 A   
ATOM     30  C23 UNL     1       2.779  -1.488  -0.374  1.00  0.00     0.045 A   
ATOM     31  C20 UNL     1       4.241  -3.353   1.171  1.00  0.00     0.037 A   
ATOM     32  C22 UNL     1       3.556  -2.468  -0.957  1.00  0.00     0.109 A   
ATOM     33  C21 UNL     1       4.271  -3.369  -0.207  1.00  0.00     0.108 A   
ATOM     34  O2  UNL     1       3.709  -2.664  -2.293  1.00  0.00    -0.316 OA  
ATOM     35  O3  UNL     1       4.969  -4.244  -0.978  1.00  0.00    -0.316 OA  
ATOM     36  C24 UNL     1       4.620  -3.788  -2.302  1.00  0.00     0.337 C   
ENDBRANCH  27  28
ENDBRANCH  24  27
ENDBRANCH  19  24
ENDBRANCH   3  19
TORSDOF 10
