REMARK SMILES Cc1nccc(-n2cc([C@H](CC(C)C)[NH2+]Cc3ccc4c(c3)OCO4)nn2)c1Cl
REMARK SMILES IDX 10 1 9 2 7 3 8 4 27 5 26 6 6 7 2 8 3 9 28 10 4 11 5 12 1 13
REMARK SMILES IDX 29 14 11 15 12 16 13 17 14 18 15 19 16 22 17 23 18 24 22 25
REMARK SMILES IDX 19 26 21 27 20 28 23 29 25 30 24 31
REMARK H PARENT 15 20 15 21
ROOT
ATOM     1   C8  UNL     1      -1.175   0.796   0.252  1.00  0.00     0.114 C   
ENDROOT
BRANCH   1   2
ATOM     2   C7  UNL     1      -1.348  -0.392  -0.634  1.00  0.00     0.127 A   
ATOM     3   N2  UNL     1      -1.200  -2.263  -1.777  1.00  0.00    -0.179 N   
ATOM     4   C6  UNL     1      -0.585  -1.529  -0.781  1.00  0.00     0.135 A   
ATOM     5   N5  UNL     1      -2.321  -1.588  -2.161  1.00  0.00    -0.071 NA  
ATOM     6   N4  UNL     1      -2.399  -0.447  -1.498  1.00  0.00    -0.131 NA  
BRANCH   3   7
ATOM     7   C5  UNL     1      -0.869  -3.513  -2.365  1.00  0.00     0.080 A   
ATOM     8   C2  UNL     1       0.562  -5.375  -2.899  1.00  0.00     0.058 A   
ATOM     9   N1  UNL     1      -0.455  -6.037  -3.510  1.00  0.00    -0.260 NA  
ATOM     10  C21 UNL     1       0.406  -4.104  -2.320  1.00  0.00     0.085 A   
ATOM     11  C3  UNL     1      -1.654  -5.435  -3.576  1.00  0.00     0.113 A   
ATOM     12  C4  UNL     1      -1.906  -4.191  -3.032  1.00  0.00     0.047 A   
ATOM     13  C1  UNL     1       1.880  -6.099  -2.910  1.00  0.00     0.068 C   
ATOM     14  CL1 UNL     1       1.818  -3.302  -1.717  1.00  0.00    -0.080 Cl  
ENDBRANCH   3   7
ENDBRANCH   1   2
BRANCH   1  15
ATOM     15  C9  UNL     1      -2.095   0.751   1.488  1.00  0.00     0.064 C   
BRANCH  15  16
ATOM     16  C10 UNL     1      -1.833  -0.418   2.461  1.00  0.00    -0.012 C   
ATOM     17  C11 UNL     1      -2.858  -0.382   3.598  1.00  0.00     0.007 C   
ATOM     18  C12 UNL     1      -0.418  -0.388   3.042  1.00  0.00     0.007 C   
ENDBRANCH  15  16
ENDBRANCH   1  15
BRANCH   1  19
ATOM     19  N3  UNL     1      -1.518   2.069  -0.499  1.00  0.00     0.249 N   
ATOM     20  H17 UNL     1      -1.547   2.859   0.153  1.00  0.00     0.199 HD  
ATOM     21  H18 UNL     1      -2.470   1.945  -0.870  1.00  0.00     0.199 HD  
BRANCH  19  22
ATOM     22  C13 UNL     1      -0.634   2.426  -1.650  1.00  0.00     0.164 C   
BRANCH  22  23
ATOM     23  C14 UNL     1       0.786   2.695  -1.240  1.00  0.00    -0.002 A   
ATOM     24  C15 UNL     1       1.124   3.889  -0.558  1.00  0.00     0.012 A   
ATOM     25  C19 UNL     1       1.786   1.741  -1.499  1.00  0.00     0.045 A   
ATOM     26  C16 UNL     1       2.436   4.128  -0.135  1.00  0.00     0.037 A   
ATOM     27  C18 UNL     1       3.068   2.007  -1.065  1.00  0.00     0.109 A   
ATOM     28  C17 UNL     1       3.384   3.166  -0.401  1.00  0.00     0.108 A   
ATOM     29  O1  UNL     1       4.141   1.189  -1.224  1.00  0.00    -0.316 OA  
ATOM     30  O2  UNL     1       4.697   3.226  -0.062  1.00  0.00    -0.316 OA  
ATOM     31  C20 UNL     1       5.184   1.984  -0.615  1.00  0.00     0.337 C   
ENDBRANCH  22  23
ENDBRANCH  19  22
ENDBRANCH   1  19
TORSDOF 7
