REMARK SMILES COc1nccc(Cl)c1Cn1cc([C@@H]([NH2+]Cc2ccc3c(c2)OCO3)C(C)C)nn1
REMARK SMILES IDX 11 1 12 2 13 3 29 4 30 5 10 7 9 8 3 9 4 10 5 11 7 12 6 13
REMARK SMILES IDX 8 14 2 15 1 16 14 17 15 18 16 21 17 22 18 23 22 24 19 25
REMARK SMILES IDX 21 26 20 27 23 28 25 29 24 30 26 31 27 32 28 33
REMARK H PARENT 12 6 15 19 15 20
ROOT
ATOM     1   N2  UNL     1       1.261   1.730  -0.006  1.00  0.00    -0.208 N   
ATOM     2   C8  UNL     1       1.242   0.679  -0.882  1.00  0.00     0.046 A   
ATOM     3   C9  UNL     1       0.026   0.796  -1.517  1.00  0.00     0.127 A   
ATOM     4   N4  UNL     1      -0.637   1.890  -1.020  1.00  0.00    -0.132 NA  
ATOM     5   N5  UNL     1       0.131   2.457  -0.108  1.00  0.00    -0.076 NA  
ATOM     6   H8  UNL     1       2.056  -0.029  -0.956  1.00  0.00     0.083 HD  
ENDROOT
BRANCH   1   7
ATOM     7   C7  UNL     1       2.331   2.144   0.885  1.00  0.00     0.175 C   
BRANCH   7   8
ATOM     8   C6  UNL     1       2.292   1.398   2.188  1.00  0.00     0.040 A   
ATOM     9   C2  UNL     1       2.989   0.202   2.343  1.00  0.00     0.173 A   
ATOM     10  N1  UNL     1       3.016  -0.520   3.484  1.00  0.00    -0.232 NA  
ATOM     11  C3  UNL     1       2.326  -0.041   4.538  1.00  0.00     0.115 A   
ATOM     12  C5  UNL     1       1.568   1.839   3.302  1.00  0.00     0.051 A   
ATOM     13  C4  UNL     1       1.586   1.121   4.494  1.00  0.00     0.041 A   
ATOM     14  CL1 UNL     1       0.626   3.285   3.268  1.00  0.00    -0.084 Cl  
BRANCH   9  15
ATOM     15  O1  UNL     1       3.678  -0.274   1.243  1.00  0.00    -0.332 OA  
ATOM     16  C1  UNL     1       4.464  -1.431   1.525  1.00  0.00     0.205 C   
ENDBRANCH   9  15
ENDBRANCH   7   8
ENDBRANCH   1   7
BRANCH   3  17
ATOM     17  C10 UNL     1      -0.657  -0.059  -2.534  1.00  0.00     0.117 C   
BRANCH  17  18
ATOM     18  N3  UNL     1      -2.149  -0.062  -2.253  1.00  0.00     0.249 N   
ATOM     19  H10 UNL     1      -2.683   0.006  -3.125  1.00  0.00     0.199 HD  
ATOM     20  H11 UNL     1      -2.337   0.813  -1.738  1.00  0.00     0.199 HD  
BRANCH  18  21
ATOM     21  C11 UNL     1      -2.674  -1.202  -1.451  1.00  0.00     0.164 C   
BRANCH  21  22
ATOM     22  C12 UNL     1      -2.040  -1.360  -0.098  1.00  0.00    -0.002 A   
ATOM     23  C13 UNL     1      -2.292  -0.421   0.931  1.00  0.00     0.012 A   
ATOM     24  C17 UNL     1      -1.169  -2.435   0.150  1.00  0.00     0.045 A   
ATOM     25  C14 UNL     1      -1.688  -0.548   2.187  1.00  0.00     0.037 A   
ATOM     26  C16 UNL     1      -0.591  -2.531   1.398  1.00  0.00     0.109 A   
ATOM     27  C15 UNL     1      -0.845  -1.618   2.390  1.00  0.00     0.108 A   
ATOM     28  O2  UNL     1       0.269  -3.505   1.795  1.00  0.00    -0.316 OA  
ATOM     29  O3  UNL     1      -0.188  -1.908   3.543  1.00  0.00    -0.316 OA  
ATOM     30  C18 UNL     1       0.510  -3.115   3.166  1.00  0.00     0.337 C   
ENDBRANCH  21  22
ENDBRANCH  18  21
ENDBRANCH  17  18
BRANCH  17  31
ATOM     31  C19 UNL     1      -0.429   0.396  -3.998  1.00  0.00     0.037 C   
ATOM     32  C20 UNL     1       1.034   0.217  -4.421  1.00  0.00     0.014 C   
ATOM     33  C21 UNL     1      -0.878   1.833  -4.290  1.00  0.00     0.014 C   
ENDBRANCH  17  31
ENDBRANCH   3  17
TORSDOF 8
