REMARK SMILES CC(C)C[C@H]([NH2+]Cc1ccc2c(c1)OCO2)c1cn(Cc2cn(C)c3ccccc23)nn1
REMARK SMILES IDX 17 1 18 2 19 3 31 4 32 5 5 7 4 8 2 9 1 10 3 11 6 12 7 15
REMARK SMILES IDX 8 16 9 17 13 18 10 19 12 20 11 21 14 22 16 23 15 24 20 25
REMARK SMILES IDX 21 26 22 27 30 28 23 29 25 30 29 31 26 32 28 33 27 34 24 35
REMARK H PARENT 18 6 6 13 6 14
ROOT
ATOM     1   C14 UNL     1      -1.710  -0.209   0.904  1.00  0.00     0.127 A   
ATOM     2   C15 UNL     1      -0.989  -1.316   0.519  1.00  0.00     0.046 A   
ATOM     3   N2  UNL     1      -1.730  -1.849  -0.503  1.00  0.00    -0.208 N   
ATOM     4   N4  UNL     1      -2.884  -1.170  -0.661  1.00  0.00    -0.076 NA  
ATOM     5   N5  UNL     1      -2.880  -0.159   0.193  1.00  0.00    -0.132 NA  
ATOM     6   H20 UNL     1      -0.016  -1.703   0.789  1.00  0.00     0.083 HD  
ENDROOT
BRANCH   1   7
ATOM     7   C5  UNL     1      -1.346   0.915   1.814  1.00  0.00     0.114 C   
BRANCH   7   8
ATOM     8   C4  UNL     1      -2.123   0.824   3.142  1.00  0.00     0.064 C   
BRANCH   8   9
ATOM     9   C2  UNL     1      -1.787   1.891   4.206  1.00  0.00    -0.012 C   
ATOM     10  C1  UNL     1      -0.302   1.909   4.572  1.00  0.00     0.007 C   
ATOM     11  C3  UNL     1      -2.626   1.641   5.463  1.00  0.00     0.007 C   
ENDBRANCH   8   9
ENDBRANCH   7   8
BRANCH   7  12
ATOM     12  N1  UNL     1      -1.649   2.239   1.150  1.00  0.00     0.249 N   
ATOM     13  H11 UNL     1      -2.650   2.221   0.915  1.00  0.00     0.199 HD  
ATOM     14  H12 UNL     1      -1.497   3.010   1.803  1.00  0.00     0.199 HD  
BRANCH  12  15
ATOM     15  C6  UNL     1      -0.905   2.532  -0.117  1.00  0.00     0.164 C   
BRANCH  15  16
ATOM     16  C7  UNL     1       0.582   2.633   0.078  1.00  0.00    -0.002 A   
ATOM     17  C8  UNL     1       1.142   3.733   0.771  1.00  0.00     0.012 A   
ATOM     18  C12 UNL     1       1.426   1.618  -0.407  1.00  0.00     0.045 A   
ATOM     19  C9  UNL     1       2.521   3.818   0.986  1.00  0.00     0.037 A   
ATOM     20  C11 UNL     1       2.781   1.731  -0.177  1.00  0.00     0.109 A   
ATOM     21  C10 UNL     1       3.313   2.801   0.500  1.00  0.00     0.108 A   
ATOM     22  O1  UNL     1       3.730   0.838  -0.564  1.00  0.00    -0.316 OA  
ATOM     23  O2  UNL     1       4.663   2.720   0.619  1.00  0.00    -0.316 OA  
ATOM     24  C13 UNL     1       4.929   1.492  -0.091  1.00  0.00     0.337 C   
ENDBRANCH  15  16
ENDBRANCH  12  15
ENDBRANCH   7  12
ENDBRANCH   1   7
BRANCH   3  25
ATOM     25  C16 UNL     1      -1.325  -2.873  -1.457  1.00  0.00     0.171 C   
BRANCH  25  26
ATOM     26  C17 UNL     1      -0.073  -2.440  -2.154  1.00  0.00    -0.005 A   
ATOM     27  C18 UNL     1       1.179  -3.017  -2.037  1.00  0.00     0.081 A   
ATOM     28  C25 UNL     1       0.067  -1.323  -3.042  1.00  0.00     0.002 A   
ATOM     29  N3  UNL     1       2.062  -2.289  -2.789  1.00  0.00    -0.309 N   
ATOM     30  C20 UNL     1       1.415  -1.237  -3.401  1.00  0.00     0.040 A   
ATOM     31  C24 UNL     1      -0.832  -0.363  -3.555  1.00  0.00     0.010 A   
ATOM     32  C21 UNL     1       1.899  -0.224  -4.244  1.00  0.00     0.024 A   
ATOM     33  C23 UNL     1      -0.360   0.647  -4.400  1.00  0.00     0.001 A   
ATOM     34  C22 UNL     1       0.988   0.715  -4.735  1.00  0.00     0.002 A   
ATOM     35  C19 UNL     1       3.473  -2.581  -2.918  1.00  0.00     0.136 C   
ENDBRANCH  25  26
ENDBRANCH   3  25
TORSDOF 8
