REMARK SMILES CC(C)C[C@H]([NH2+]Cc1ccc2c(c1)OCO2)c1cn(CCc2ccc(O)cc2)nn1
REMARK SMILES IDX 17 1 18 2 19 3 29 4 30 5 5 7 4 8 2 9 1 10 3 11 6 12 7 15
REMARK SMILES IDX 8 16 9 17 13 18 10 19 12 20 11 21 14 22 16 23 15 24 20 25
REMARK SMILES IDX 21 26 22 27 23 28 28 29 24 30 27 31 25 32 26 33
REMARK H PARENT 18 6 6 13 6 14 26 34
ROOT
ATOM     1   C14 UNL     1       1.058  -1.911   0.594  1.00  0.00     0.127 A   
ATOM     2   C15 UNL     1       1.531  -2.890  -0.249  1.00  0.00     0.045 A   
ATOM     3   N2  UNL     1       0.531  -3.825  -0.252  1.00  0.00    -0.212 N   
ATOM     4   N3  UNL     1      -0.443  -3.493   0.614  1.00  0.00    -0.076 NA  
ATOM     5   N4  UNL     1      -0.139  -2.312   1.127  1.00  0.00    -0.132 NA  
ATOM     6   H20 UNL     1       2.390  -2.960  -0.901  1.00  0.00     0.083 HD  
ENDROOT
BRANCH   1   7
ATOM     7   C5  UNL     1       1.557  -0.528   0.847  1.00  0.00     0.114 C   
BRANCH   7   8
ATOM     8   C4  UNL     1       1.888  -0.272   2.328  1.00  0.00     0.064 C   
BRANCH   8   9
ATOM     9   C2  UNL     1       2.989  -1.183   2.913  1.00  0.00    -0.012 C   
ATOM     10  C1  UNL     1       3.174  -0.879   4.402  1.00  0.00     0.007 C   
ATOM     11  C3  UNL     1       4.324  -1.023   2.184  1.00  0.00     0.007 C   
ENDBRANCH   8   9
ENDBRANCH   7   8
BRANCH   7  12
ATOM     12  N1  UNL     1       0.470   0.417   0.403  1.00  0.00     0.249 N   
ATOM     13  H11 UNL     1       0.118   0.074  -0.503  1.00  0.00     0.199 HD  
ATOM     14  H12 UNL     1      -0.336   0.301   1.033  1.00  0.00     0.199 HD  
BRANCH  12  15
ATOM     15  C6  UNL     1       0.815   1.847   0.243  1.00  0.00     0.164 C   
BRANCH  15  16
ATOM     16  C7  UNL     1      -0.361   2.616  -0.288  1.00  0.00    -0.002 A   
ATOM     17  C8  UNL     1      -0.530   2.793  -1.682  1.00  0.00     0.012 A   
ATOM     18  C12 UNL     1      -1.336   3.112   0.594  1.00  0.00     0.045 A   
ATOM     19  C9  UNL     1      -1.648   3.460  -2.193  1.00  0.00     0.037 A   
ATOM     20  C11 UNL     1      -2.426   3.767   0.057  1.00  0.00     0.109 A   
ATOM     21  C10 UNL     1      -2.579   3.936  -1.297  1.00  0.00     0.108 A   
ATOM     22  O1  UNL     1      -3.453   4.302   0.767  1.00  0.00    -0.316 OA  
ATOM     23  O2  UNL     1      -3.721   4.600  -1.611  1.00  0.00    -0.316 OA  
ATOM     24  C13 UNL     1      -4.266   4.847  -0.297  1.00  0.00     0.337 C   
ENDBRANCH  15  16
ENDBRANCH  12  15
ENDBRANCH   7  12
ENDBRANCH   1   7
BRANCH   3  25
ATOM     25  C16 UNL     1       0.339  -4.896  -1.210  1.00  0.00     0.139 C   
BRANCH  25  26
ATOM     26  C17 UNL     1      -0.707  -4.551  -2.280  1.00  0.00     0.057 C   
BRANCH  26  27
ATOM     27  C18 UNL     1      -0.464  -3.206  -2.934  1.00  0.00    -0.046 A   
ATOM     28  C19 UNL     1       0.596  -3.024  -3.834  1.00  0.00     0.006 A   
ATOM     29  C23 UNL     1      -1.261  -2.104  -2.584  1.00  0.00     0.006 A   
ATOM     30  C20 UNL     1       0.873  -1.755  -4.349  1.00  0.00     0.033 A   
ATOM     31  C22 UNL     1      -0.984  -0.838  -3.099  1.00  0.00     0.033 A   
ATOM     32  C21 UNL     1       0.088  -0.673  -3.966  1.00  0.00     0.071 A   
BRANCH  32  33
ATOM     33  O3  UNL     1       0.351   0.585  -4.420  1.00  0.00    -0.361 OA  
ATOM     34  H27 UNL     1       0.854   0.507  -5.251  1.00  0.00     0.218 HD  
ENDBRANCH  32  33
ENDBRANCH  26  27
ENDBRANCH  25  26
ENDBRANCH   3  25
TORSDOF 10
