REMARK SMILES COc1cc(F)c(F)cc1Cn1cc([C@@H]([NH2+]Cc2ccc3c(c2)OCO3)C(C)(C)C)nn1
REMARK SMILES IDX 12 1 13 2 14 3 31 4 32 5 11 7 10 8 3 9 4 10 5 11 9 12 7 13
REMARK SMILES IDX 6 14 8 15 2 16 1 17 15 18 16 19 17 22 18 23 19 24 23 25
REMARK SMILES IDX 20 26 22 27 21 28 24 29 26 30 25 31 27 32 28 33 29 34 30 35
REMARK H PARENT 13 6 16 20 16 21
ROOT
ATOM     1   N1  UNL     1      -1.020  -2.333  -1.002  1.00  0.00    -0.208 N   
ATOM     2   C9  UNL     1      -1.438  -1.090  -0.613  1.00  0.00     0.046 A   
ATOM     3   C10 UNL     1      -1.104  -0.279  -1.674  1.00  0.00     0.127 A   
ATOM     4   N3  UNL     1      -0.501  -1.038  -2.647  1.00  0.00    -0.132 NA  
ATOM     5   N4  UNL     1      -0.459  -2.290  -2.227  1.00  0.00    -0.076 NA  
ATOM     6   H8  UNL     1      -1.897  -0.911   0.350  1.00  0.00     0.083 HD  
ENDROOT
BRANCH   1   7
ATOM     7   C8  UNL     1      -1.144  -3.591  -0.288  1.00  0.00     0.172 C   
BRANCH   7   8
ATOM     8   C7  UNL     1       0.004  -3.790   0.673  1.00  0.00     0.005 A   
ATOM     9   C2  UNL     1      -0.095  -3.404   2.026  1.00  0.00     0.083 A   
ATOM     10  C3  UNL     1       0.984  -3.619   2.889  1.00  0.00     0.076 A   
ATOM     11  C4  UNL     1       2.157  -4.193   2.405  1.00  0.00     0.161 A   
ATOM     12  C6  UNL     1       1.202  -4.360   0.203  1.00  0.00     0.050 A   
ATOM     13  C5  UNL     1       2.268  -4.555   1.072  1.00  0.00     0.159 A   
ATOM     14  F1  UNL     1       3.185  -4.381   3.244  1.00  0.00    -0.204 F   
ATOM     15  F2  UNL     1       3.404  -5.093   0.607  1.00  0.00    -0.204 F   
BRANCH   9  16
ATOM     16  O1  UNL     1      -1.278  -2.816   2.392  1.00  0.00    -0.349 OA  
ATOM     17  C1  UNL     1      -1.465  -2.536   3.777  1.00  0.00     0.203 C   
ENDBRANCH   9  16
ENDBRANCH   7   8
ENDBRANCH   1   7
BRANCH   3  18
ATOM     18  C11 UNL     1      -1.208   1.203  -1.871  1.00  0.00     0.120 C   
BRANCH  18  19
ATOM     19  N2  UNL     1       0.018   1.653  -2.649  1.00  0.00     0.250 N   
ATOM     20  H10 UNL     1      -0.231   2.282  -3.416  1.00  0.00     0.199 HD  
ATOM     21  H11 UNL     1       0.382   0.803  -3.110  1.00  0.00     0.199 HD  
BRANCH  19  22
ATOM     22  C12 UNL     1       1.121   2.263  -1.857  1.00  0.00     0.164 C   
BRANCH  22  23
ATOM     23  C13 UNL     1       1.689   1.369  -0.789  1.00  0.00    -0.002 A   
ATOM     24  C14 UNL     1       2.416   0.204  -1.133  1.00  0.00     0.012 A   
ATOM     25  C18 UNL     1       1.492   1.682   0.568  1.00  0.00     0.045 A   
ATOM     26  C15 UNL     1       2.937  -0.638  -0.144  1.00  0.00     0.037 A   
ATOM     27  C17 UNL     1       2.023   0.834   1.516  1.00  0.00     0.109 A   
ATOM     28  C16 UNL     1       2.727  -0.293   1.172  1.00  0.00     0.108 A   
ATOM     29  O2  UNL     1       1.927   0.995   2.862  1.00  0.00    -0.316 OA  
ATOM     30  O3  UNL     1       3.171  -0.977   2.257  1.00  0.00    -0.316 OA  
ATOM     31  C19 UNL     1       2.711  -0.126   3.328  1.00  0.00     0.337 C   
ENDBRANCH  22  23
ENDBRANCH  19  22
ENDBRANCH  18  19
BRANCH  18  32
ATOM     32  C20 UNL     1      -2.520   1.669  -2.591  1.00  0.00     0.010 C   
ATOM     33  C21 UNL     1      -2.571   3.213  -2.655  1.00  0.00     0.017 C   
ATOM     34  C22 UNL     1      -3.757   1.212  -1.784  1.00  0.00     0.017 C   
ATOM     35  C23 UNL     1      -2.648   1.114  -4.024  1.00  0.00     0.017 C   
ENDBRANCH  18  32
ENDBRANCH   3  18
TORSDOF 8
