REMARK SMILES Cc1occc1[C@@H](CO)n1cc([C@@H]([NH2+]Cc2ccc3c(c2)OCO3)C2CCCC2)nn1
REMARK SMILES IDX 10 1 11 2 12 3 30 4 31 5 7 7 6 8 2 9 3 10 4 11 5 12 1 13
REMARK SMILES IDX 8 14 9 15 13 17 14 18 15 21 16 22 17 23 21 24 18 25 20 26
REMARK SMILES IDX 19 27 22 28 24 29 23 30 25 31 26 32 29 33 27 34 28 35
REMARK H PARENT 11 6 9 16 14 19 14 20
ROOT
ATOM     1   N1  UNL     1      -0.193  -2.344   0.078  1.00  0.00    -0.202 N   
ATOM     2   C8  UNL     1       0.146  -1.693   1.237  1.00  0.00     0.046 A   
ATOM     3   C9  UNL     1      -0.183  -0.379   0.999  1.00  0.00     0.127 A   
ATOM     4   N3  UNL     1      -0.679  -0.269  -0.277  1.00  0.00    -0.132 NA  
ATOM     5   N4  UNL     1      -0.672  -1.470  -0.831  1.00  0.00    -0.075 NA  
ATOM     6   H10 UNL     1       0.536  -2.223   2.094  1.00  0.00     0.083 HD  
ENDROOT
BRANCH   1   7
ATOM     7   C6  UNL     1      -0.146  -3.774  -0.227  1.00  0.00     0.157 C   
BRANCH   7   8
ATOM     8   C5  UNL     1       1.200  -4.352   0.137  1.00  0.00     0.005 A   
ATOM     9   C2  UNL     1       2.357  -4.306  -0.629  1.00  0.00     0.061 A   
ATOM     10  O1  UNL     1       3.385  -4.917   0.021  1.00  0.00    -0.322 OA  
ATOM     11  C3  UNL     1       2.905  -5.366   1.205  1.00  0.00     0.136 A   
ATOM     12  C4  UNL     1       1.574  -5.048   1.329  1.00  0.00     0.034 A   
ATOM     13  C1  UNL     1       2.693  -3.741  -1.955  1.00  0.00     0.073 C   
ENDBRANCH   7   8
BRANCH   7  14
ATOM     14  C7  UNL     1      -1.365  -4.510   0.363  1.00  0.00     0.186 C   
BRANCH  14  15
ATOM     15  O2  UNL     1      -1.465  -4.370   1.785  1.00  0.00    -0.394 OA  
ATOM     16  H9  UNL     1      -2.221  -4.915   2.069  1.00  0.00     0.210 HD  
ENDBRANCH  14  15
ENDBRANCH   7  14
ENDBRANCH   1   7
BRANCH   3  17
ATOM     17  C10 UNL     1      -0.089   0.844   1.858  1.00  0.00     0.117 C   
BRANCH  17  18
ATOM     18  N2  UNL     1      -0.152   2.078   0.987  1.00  0.00     0.249 N   
ATOM     19  H12 UNL     1      -0.480   2.898   1.506  1.00  0.00     0.199 HD  
ATOM     20  H13 UNL     1      -0.864   1.887   0.265  1.00  0.00     0.199 HD  
BRANCH  18  21
ATOM     21  C11 UNL     1       1.112   2.417   0.277  1.00  0.00     0.164 C   
BRANCH  21  22
ATOM     22  C12 UNL     1       0.878   3.533  -0.700  1.00  0.00    -0.002 A   
ATOM     23  C13 UNL     1       1.061   4.882  -0.314  1.00  0.00     0.012 A   
ATOM     24  C17 UNL     1       0.423   3.239  -1.998  1.00  0.00     0.045 A   
ATOM     25  C14 UNL     1       0.813   5.925  -1.214  1.00  0.00     0.037 A   
ATOM     26  C16 UNL     1       0.187   4.292  -2.859  1.00  0.00     0.109 A   
ATOM     27  C15 UNL     1       0.379   5.596  -2.480  1.00  0.00     0.108 A   
ATOM     28  O3  UNL     1      -0.244   4.179  -4.142  1.00  0.00    -0.316 OA  
ATOM     29  O4  UNL     1       0.102   6.471  -3.484  1.00  0.00    -0.316 OA  
ATOM     30  C18 UNL     1      -0.256   5.564  -4.549  1.00  0.00     0.337 C   
ENDBRANCH  21  22
ENDBRANCH  18  21
ENDBRANCH  17  18
BRANCH  17  31
ATOM     31  C19 UNL     1      -1.204   0.969   2.918  1.00  0.00     0.043 C   
ATOM     32  C20 UNL     1      -1.169  -0.107   4.020  1.00  0.00     0.010 C   
ATOM     33  C23 UNL     1      -2.642   0.953   2.375  1.00  0.00     0.010 C   
ATOM     34  C21 UNL     1      -2.567  -0.711   4.067  1.00  0.00     0.001 C   
ATOM     35  C22 UNL     1      -3.465   0.384   3.520  1.00  0.00     0.001 C   
ENDBRANCH  17  31
ENDBRANCH   3  17
TORSDOF 9
