REMARK SMILES Cc1occc1[C@H](CO)n1cc([C@@H]([NH2+]Cc2ccc3c(c2)OCO3)C2CCCC2)nn1
REMARK SMILES IDX 10 1 11 2 12 3 30 4 31 5 7 7 6 8 2 9 3 10 4 11 5 12 1 13
REMARK SMILES IDX 8 14 9 15 13 17 14 18 15 21 16 22 17 23 21 24 18 25 20 26
REMARK SMILES IDX 19 27 22 28 24 29 23 30 25 31 26 32 29 33 27 34 28 35
REMARK H PARENT 11 6 9 16 14 19 14 20
ROOT
ATOM     1   N1  UNL     1       0.745   1.267  -0.503  1.00  0.00    -0.202 N   
ATOM     2   C8  UNL     1       0.647   0.040   0.097  1.00  0.00     0.046 A   
ATOM     3   C9  UNL     1       0.143  -0.777  -0.887  1.00  0.00     0.127 A   
ATOM     4   N3  UNL     1      -0.048  -0.043  -2.030  1.00  0.00    -0.132 NA  
ATOM     5   N4  UNL     1       0.321   1.203  -1.785  1.00  0.00    -0.075 NA  
ATOM     6   H10 UNL     1       0.913  -0.114   1.134  1.00  0.00     0.083 HD  
ENDROOT
BRANCH   1   7
ATOM     7   C6  UNL     1       1.192   2.540   0.061  1.00  0.00     0.157 C   
BRANCH   7   8
ATOM     8   C5  UNL     1       2.519   2.374   0.758  1.00  0.00     0.005 A   
ATOM     9   C2  UNL     1       3.758   2.257   0.144  1.00  0.00     0.061 A   
ATOM     10  O1  UNL     1       4.740   2.107   1.073  1.00  0.00    -0.322 OA  
ATOM     11  C3  UNL     1       4.148   2.138   2.291  1.00  0.00     0.136 A   
ATOM     12  C4  UNL     1       2.790   2.296   2.158  1.00  0.00     0.034 A   
ATOM     13  C1  UNL     1       4.199   2.252  -1.269  1.00  0.00     0.073 C   
ENDBRANCH   7   8
BRANCH   7  14
ATOM     14  C7  UNL     1       0.077   3.199   0.892  1.00  0.00     0.186 C   
BRANCH  14  15
ATOM     15  O2  UNL     1      -0.349   2.393   1.993  1.00  0.00    -0.394 OA  
ATOM     16  H9  UNL     1      -1.125   2.838   2.385  1.00  0.00     0.210 HD  
ENDBRANCH  14  15
ENDBRANCH   7  14
ENDBRANCH   1   7
BRANCH   3  17
ATOM     17  C10 UNL     1      -0.261  -2.213  -0.862  1.00  0.00     0.117 C   
BRANCH  17  18
ATOM     18  N2  UNL     1      -1.524  -2.397  -1.673  1.00  0.00     0.249 N   
ATOM     19  H12 UNL     1      -1.528  -1.625  -2.359  1.00  0.00     0.199 HD  
ATOM     20  H13 UNL     1      -1.487  -3.256  -2.227  1.00  0.00     0.199 HD  
BRANCH  18  21
ATOM     21  C11 UNL     1      -2.808  -2.356  -0.916  1.00  0.00     0.164 C   
BRANCH  21  22
ATOM     22  C12 UNL     1      -3.083  -1.038  -0.247  1.00  0.00    -0.002 A   
ATOM     23  C13 UNL     1      -2.946  -0.904   1.156  1.00  0.00     0.012 A   
ATOM     24  C17 UNL     1      -3.444   0.084  -1.014  1.00  0.00     0.045 A   
ATOM     25  C14 UNL     1      -3.147   0.329   1.785  1.00  0.00     0.037 A   
ATOM     26  C16 UNL     1      -3.640   1.283  -0.362  1.00  0.00     0.109 A   
ATOM     27  C15 UNL     1      -3.490   1.405   0.997  1.00  0.00     0.108 A   
ATOM     28  O3  UNL     1      -3.983   2.458  -0.953  1.00  0.00    -0.316 OA  
ATOM     29  O4  UNL     1      -3.702   2.676   1.431  1.00  0.00    -0.316 OA  
ATOM     30  C18 UNL     1      -4.092   3.322   0.199  1.00  0.00     0.337 C   
ENDBRANCH  21  22
ENDBRANCH  18  21
ENDBRANCH  17  18
BRANCH  17  31
ATOM     31  C19 UNL     1       0.863  -3.130  -1.381  1.00  0.00     0.043 C   
ATOM     32  C20 UNL     1       0.601  -4.626  -1.182  1.00  0.00     0.010 C   
ATOM     33  C23 UNL     1       1.214  -3.006  -2.874  1.00  0.00     0.010 C   
ATOM     34  C21 UNL     1       1.648  -5.271  -2.076  1.00  0.00     0.001 C   
ATOM     35  C22 UNL     1       1.642  -4.404  -3.328  1.00  0.00     0.001 C   
ENDBRANCH  17  31
ENDBRANCH   3  17
TORSDOF 9
