REMARK SMILES O=C(Cn1cc([C@@H]([NH2+]Cc2ccc3c(c2)OCO3)C2CCCCC2)nn1)c1ccccc1F
REMARK SMILES IDX 4 1 5 2 6 3 25 4 26 5 3 7 2 8 1 9 27 10 28 11 32 12 29 13
REMARK SMILES IDX 31 14 30 15 33 16 7 17 8 18 9 21 10 22 11 23 15 24 12 25
REMARK SMILES IDX 14 26 13 27 16 28 18 29 17 30 19 31 20 32 24 33 21 34 23 35
REMARK SMILES IDX 22 36
REMARK H PARENT 5 6 8 19 8 20
ROOT
ATOM     1   N1  UNL     1      -1.008  -1.608  -0.303  1.00  0.00    -0.204 N   
ATOM     2   C3  UNL     1       0.155  -1.668   0.416  1.00  0.00     0.046 A   
ATOM     3   C4  UNL     1       0.702  -0.413   0.270  1.00  0.00     0.127 A   
ATOM     4   N3  UNL     1      -0.145   0.360  -0.483  1.00  0.00    -0.132 NA  
ATOM     5   N4  UNL     1      -1.190  -0.379  -0.820  1.00  0.00    -0.076 NA  
ATOM     6   H3  UNL     1       0.486  -2.574   0.905  1.00  0.00     0.083 HD  
ENDROOT
BRANCH   1   7
ATOM     7   C2  UNL     1      -1.998  -2.654  -0.501  1.00  0.00     0.215 C   
BRANCH   7   8
ATOM     8   C1  UNL     1      -1.470  -3.777  -1.365  1.00  0.00     0.185 C   
ATOM     9   O1  UNL     1      -0.299  -3.819  -1.750  1.00  0.00    -0.292 OA  
BRANCH   8  10
ATOM     10  C20 UNL     1      -2.385  -4.891  -1.746  1.00  0.00     0.055 A   
ATOM     11  C21 UNL     1      -1.916  -5.874  -2.630  1.00  0.00     0.015 A   
ATOM     12  C25 UNL     1      -3.683  -5.008  -1.244  1.00  0.00     0.134 A   
ATOM     13  C22 UNL     1      -2.735  -6.946  -2.998  1.00  0.00     0.001 A   
ATOM     14  C24 UNL     1      -4.503  -6.075  -1.606  1.00  0.00     0.040 A   
ATOM     15  C23 UNL     1      -4.028  -7.048  -2.484  1.00  0.00     0.003 A   
ATOM     16  F1  UNL     1      -4.178  -4.100  -0.389  1.00  0.00    -0.206 F   
ENDBRANCH   8  10
ENDBRANCH   7   8
ENDBRANCH   1   7
BRANCH   3  17
ATOM     17  C5  UNL     1       2.016   0.142   0.710  1.00  0.00     0.117 C   
BRANCH  17  18
ATOM     18  N2  UNL     1       2.515   1.153  -0.296  1.00  0.00     0.249 N   
ATOM     19  H5  UNL     1       1.724   1.774  -0.519  1.00  0.00     0.199 HD  
ATOM     20  H6  UNL     1       3.250   1.746   0.100  1.00  0.00     0.199 HD  
BRANCH  18  21
ATOM     21  C6  UNL     1       2.990   0.583  -1.589  1.00  0.00     0.164 C   
BRANCH  21  22
ATOM     22  C7  UNL     1       3.522   1.676  -2.474  1.00  0.00    -0.002 A   
ATOM     23  C8  UNL     1       4.904   1.979  -2.483  1.00  0.00     0.012 A   
ATOM     24  C12 UNL     1       2.639   2.443  -3.252  1.00  0.00     0.045 A   
ATOM     25  C9  UNL     1       5.405   3.029  -3.261  1.00  0.00     0.037 A   
ATOM     26  C11 UNL     1       3.165   3.473  -4.005  1.00  0.00     0.109 A   
ATOM     27  C10 UNL     1       4.508   3.758  -4.010  1.00  0.00     0.108 A   
ATOM     28  O2  UNL     1       2.455   4.306  -4.809  1.00  0.00    -0.316 OA  
ATOM     29  O3  UNL     1       4.813   4.808  -4.815  1.00  0.00    -0.316 OA  
ATOM     30  C13 UNL     1       3.511   5.136  -5.344  1.00  0.00     0.337 C   
ENDBRANCH  21  22
ENDBRANCH  18  21
ENDBRANCH  17  18
BRANCH  17  31
ATOM     31  C14 UNL     1       1.996   0.812   2.109  1.00  0.00     0.043 C   
ATOM     32  C15 UNL     1       1.006   1.995   2.256  1.00  0.00     0.010 C   
ATOM     33  C19 UNL     1       1.828  -0.231   3.236  1.00  0.00     0.010 C   
ATOM     34  C16 UNL     1      -0.173   1.677   3.167  1.00  0.00     0.001 C   
ATOM     35  C18 UNL     1       1.573   0.450   4.576  1.00  0.00     0.001 C   
ATOM     36  C17 UNL     1       0.275   1.257   4.567  1.00  0.00     0.000 C   
ENDBRANCH  17  31
ENDBRANCH   3  17
TORSDOF 8
