REMARK SMILES CC(C)[C@H]([NH2+]Cc1ccc2c(c1)OCO2)c1cn(-c2cccc3c2OC(F)(F)O3)nn1
REMARK SMILES IDX 4 1 2 2 1 3 3 4 5 5 6 8 7 9 8 10 12 11 9 12 11 13 10 14
REMARK SMILES IDX 13 15 15 16 14 17 16 18 17 19 31 20 18 21 30 22 19 23 20 24
REMARK SMILES IDX 24 25 21 26 23 27 25 28 22 29 29 30 26 31 27 32 28 33
REMARK H PARENT 5 6 5 7
ROOT
ATOM     1   C4  UNL     1       0.753  -0.183   1.451  1.00  0.00     0.117 C   
ENDROOT
BRANCH   1   2
ATOM     2   C2  UNL     1       1.427  -0.703   2.747  1.00  0.00     0.037 C   
ATOM     3   C1  UNL     1       2.800  -1.323   2.463  1.00  0.00     0.014 C   
ATOM     4   C3  UNL     1       0.570  -1.689   3.549  1.00  0.00     0.014 C   
ENDBRANCH   1   2
BRANCH   1   5
ATOM     5   N1  UNL     1      -0.478   0.600   1.839  1.00  0.00     0.249 N   
ATOM     6   H9  UNL     1      -1.225  -0.085   2.031  1.00  0.00     0.199 HD  
ATOM     7   H10 UNL     1      -0.333   1.119   2.711  1.00  0.00     0.199 HD  
BRANCH   5   8
ATOM     8   C5  UNL     1      -0.997   1.534   0.801  1.00  0.00     0.164 C   
BRANCH   8   9
ATOM     9   C6  UNL     1      -2.257   2.198   1.278  1.00  0.00    -0.002 A   
ATOM     10  C7  UNL     1      -3.509   1.563   1.090  1.00  0.00     0.012 A   
ATOM     11  C11 UNL     1      -2.197   3.424   1.962  1.00  0.00     0.045 A   
ATOM     12  C8  UNL     1      -4.688   2.147   1.567  1.00  0.00     0.037 A   
ATOM     13  C10 UNL     1      -3.378   3.971   2.418  1.00  0.00     0.109 A   
ATOM     14  C9  UNL     1      -4.589   3.351   2.226  1.00  0.00     0.108 A   
ATOM     15  O1  UNL     1      -3.496   5.143   3.094  1.00  0.00    -0.316 OA  
ATOM     16  O2  UNL     1      -5.622   4.058   2.755  1.00  0.00    -0.316 OA  
ATOM     17  C12 UNL     1      -4.928   5.205   3.289  1.00  0.00     0.337 C   
ENDBRANCH   8   9
ENDBRANCH   5   8
ENDBRANCH   1   5
BRANCH   1  18
ATOM     18  C13 UNL     1       0.391  -1.257   0.474  1.00  0.00     0.127 A   
ATOM     19  C14 UNL     1       1.108  -1.835  -0.550  1.00  0.00     0.135 A   
ATOM     20  N4  UNL     1      -0.866  -1.789   0.491  1.00  0.00    -0.131 NA  
ATOM     21  N2  UNL     1       0.252  -2.755  -1.123  1.00  0.00    -0.178 N   
ATOM     22  N3  UNL     1      -0.946  -2.681  -0.481  1.00  0.00    -0.071 NA  
BRANCH  21  23
ATOM     23  C15 UNL     1       0.461  -3.652  -2.198  1.00  0.00     0.091 A   
ATOM     24  C16 UNL     1      -0.588  -4.498  -2.609  1.00  0.00     0.029 A   
ATOM     25  C20 UNL     1       1.665  -3.749  -2.880  1.00  0.00     0.138 A   
ATOM     26  C17 UNL     1      -0.413  -5.402  -3.672  1.00  0.00     0.005 A   
ATOM     27  C19 UNL     1       1.822  -4.644  -3.923  1.00  0.00     0.117 A   
ATOM     28  O3  UNL     1       2.808  -3.042  -2.664  1.00  0.00    -0.253 OA  
ATOM     29  C18 UNL     1       0.807  -5.479  -4.341  1.00  0.00     0.037 A   
ATOM     30  O4  UNL     1       3.064  -4.606  -4.477  1.00  0.00    -0.255 OA  
ATOM     31  C21 UNL     1       3.671  -3.601  -3.667  1.00  0.00     0.495 C   
ATOM     32  F1  UNL     1       4.753  -4.127  -3.046  1.00  0.00    -0.147 F   
ATOM     33  F2  UNL     1       4.098  -2.592  -4.463  1.00  0.00    -0.147 F   
ENDBRANCH  21  23
ENDBRANCH   1  18
TORSDOF 6
