REMARK SMILES COc1ccc([C@@H](O)Cn2cc([C@@H]([NH2+]Cc3ccc4c(c3)OCO4)C3CCCCC3)nn2)cc1
REMARK SMILES IDX 10 1 11 2 12 3 31 4 32 5 9 7 7 8 6 9 3 10 4 11 34 12 5 13
REMARK SMILES IDX 33 14 2 15 1 16 8 17 13 19 14 20 15 23 16 24 17 25 21 26
REMARK SMILES IDX 18 27 20 28 19 29 22 30 24 31 23 32 25 33 26 34 30 35 27 36
REMARK SMILES IDX 29 37 28 38
REMARK H PARENT 11 6 8 18 14 21 14 22
ROOT
ATOM     1   N1  UNL     1      -0.443   3.486   0.292  1.00  0.00    -0.209 N   
ATOM     2   C8  UNL     1      -0.602   2.300   0.954  1.00  0.00     0.045 A   
ATOM     3   C9  UNL     1       0.316   1.464   0.356  1.00  0.00     0.127 A   
ATOM     4   N3  UNL     1       1.036   2.176  -0.566  1.00  0.00    -0.132 NA  
ATOM     5   N4  UNL     1       0.596   3.424  -0.560  1.00  0.00    -0.076 NA  
ATOM     6   H10 UNL     1      -1.393   2.139   1.674  1.00  0.00     0.083 HD  
ENDROOT
BRANCH   1   7
ATOM     7   C7  UNL     1      -1.389   4.578   0.228  1.00  0.00     0.170 C   
BRANCH   7   8
ATOM     8   C6  UNL     1      -2.085   4.703  -1.142  1.00  0.00     0.164 C   
BRANCH   8   9
ATOM     9   C5  UNL     1      -2.447   3.368  -1.775  1.00  0.00    -0.018 A   
ATOM     10  C2  UNL     1      -2.885   0.806  -2.825  1.00  0.00     0.075 A   
ATOM     11  C3  UNL     1      -1.958   1.650  -3.430  1.00  0.00     0.034 A   
ATOM     12  C26 UNL     1      -3.603   1.234  -1.709  1.00  0.00     0.034 A   
ATOM     13  C4  UNL     1      -1.745   2.927  -2.910  1.00  0.00     0.009 A   
ATOM     14  C25 UNL     1      -3.399   2.516  -1.195  1.00  0.00     0.009 A   
BRANCH  10  15
ATOM     15  O1  UNL     1      -3.060  -0.490  -3.222  1.00  0.00    -0.349 OA  
ATOM     16  C1  UNL     1      -3.401  -0.592  -4.608  1.00  0.00     0.203 C   
ENDBRANCH  10  15
ENDBRANCH   8   9
BRANCH   8  17
ATOM     17  O2  UNL     1      -3.276   5.477  -0.984  1.00  0.00    -0.387 OA  
ATOM     18  H7  UNL     1      -3.771   5.426  -1.822  1.00  0.00     0.211 HD  
ENDBRANCH   8  17
ENDBRANCH   7   8
ENDBRANCH   1   7
BRANCH   3  19
ATOM     19  C10 UNL     1       0.460  -0.022   0.456  1.00  0.00     0.117 C   
BRANCH  19  20
ATOM     20  N2  UNL     1       0.027  -0.602  -0.870  1.00  0.00     0.249 N   
ATOM     21  H12 UNL     1       0.649  -0.221  -1.595  1.00  0.00     0.199 HD  
ATOM     22  H13 UNL     1      -0.889  -0.187  -1.095  1.00  0.00     0.199 HD  
BRANCH  20  23
ATOM     23  C11 UNL     1      -0.100  -2.075  -1.008  1.00  0.00     0.164 C   
BRANCH  23  24
ATOM     24  C12 UNL     1      -1.087  -2.687  -0.052  1.00  0.00    -0.002 A   
ATOM     25  C13 UNL     1      -0.640  -3.463   1.045  1.00  0.00     0.012 A   
ATOM     26  C17 UNL     1      -2.465  -2.477  -0.229  1.00  0.00     0.045 A   
ATOM     27  C14 UNL     1      -1.548  -4.013   1.957  1.00  0.00     0.037 A   
ATOM     28  C16 UNL     1      -3.334  -3.033   0.686  1.00  0.00     0.109 A   
ATOM     29  C15 UNL     1      -2.889  -3.780   1.749  1.00  0.00     0.108 A   
ATOM     30  O3  UNL     1      -4.688  -2.922   0.660  1.00  0.00    -0.316 OA  
ATOM     31  O4  UNL     1      -3.907  -4.235   2.524  1.00  0.00    -0.316 OA  
ATOM     32  C18 UNL     1      -5.051  -3.735   1.799  1.00  0.00     0.337 C   
ENDBRANCH  23  24
ENDBRANCH  20  23
ENDBRANCH  19  20
BRANCH  19  33
ATOM     33  C19 UNL     1       1.870  -0.518   0.874  1.00  0.00     0.043 C   
ATOM     34  C20 UNL     1       2.282   0.062   2.243  1.00  0.00     0.010 C   
ATOM     35  C24 UNL     1       2.988  -0.285  -0.161  1.00  0.00     0.010 C   
ATOM     36  C21 UNL     1       3.618  -0.507   2.718  1.00  0.00     0.001 C   
ATOM     37  C23 UNL     1       4.326  -0.846   0.323  1.00  0.00     0.001 C   
ATOM     38  C22 UNL     1       4.717  -0.282   1.684  1.00  0.00     0.000 C   
ENDBRANCH  19  33
ENDBRANCH   3  19
TORSDOF 10
