REMARK SMILES Cc1ncncc1CCn1cc([C@@H]([NH2+]Cc2ccc3c(c2)OCO3)C(C)(C)C)nn1
REMARK SMILES IDX 10 1 11 2 12 3 29 4 30 5 9 7 8 8 7 9 2 10 3 11 4 12 6 13
REMARK SMILES IDX 5 14 1 15 13 16 14 17 15 20 16 21 17 22 21 23 18 24 20 25
REMARK SMILES IDX 19 26 22 27 24 28 23 29 25 30 26 31 27 32 28 33
REMARK H PARENT 11 6 14 18 14 19
ROOT
ATOM     1   N3  UNL     1      -1.860  -2.230  -1.771  1.00  0.00    -0.212 N   
ATOM     2   C8  UNL     1      -1.859  -0.900  -1.456  1.00  0.00     0.045 A   
ATOM     3   C9  UNL     1      -0.738  -0.411  -2.090  1.00  0.00     0.127 A   
ATOM     4   N5  UNL     1      -0.117  -1.435  -2.758  1.00  0.00    -0.132 NA  
ATOM     5   N6  UNL     1      -0.822  -2.538  -2.568  1.00  0.00    -0.076 NA  
ATOM     6   H10 UNL     1      -2.594  -0.456  -0.799  1.00  0.00     0.083 HD  
ENDROOT
BRANCH   1   7
ATOM     7   C7  UNL     1      -2.711  -3.272  -1.233  1.00  0.00     0.139 C   
BRANCH   7   8
ATOM     8   C6  UNL     1      -1.964  -4.251  -0.316  1.00  0.00     0.060 C   
BRANCH   8   9
ATOM     9   C5  UNL     1      -1.241  -3.579   0.822  1.00  0.00    -0.007 A   
ATOM     10  C2  UNL     1      -1.830  -3.200   2.021  1.00  0.00     0.044 A   
ATOM     11  N1  UNL     1      -1.142  -2.537   2.977  1.00  0.00    -0.241 NA  
ATOM     12  C3  UNL     1       0.151  -2.279   2.740  1.00  0.00     0.221 A   
ATOM     13  C4  UNL     1       0.100  -3.245   0.691  1.00  0.00     0.118 A   
ATOM     14  N2  UNL     1       0.811  -2.568   1.611  1.00  0.00    -0.245 NA  
ATOM     15  C1  UNL     1      -3.265  -3.497   2.341  1.00  0.00     0.067 C   
ENDBRANCH   8   9
ENDBRANCH   7   8
ENDBRANCH   1   7
BRANCH   3  16
ATOM     16  C10 UNL     1      -0.093   0.942  -2.046  1.00  0.00     0.120 C   
BRANCH  16  17
ATOM     17  N4  UNL     1       1.399   0.756  -1.859  1.00  0.00     0.250 N   
ATOM     18  H12 UNL     1       1.916   1.603  -2.100  1.00  0.00     0.199 HD  
ATOM     19  H13 UNL     1       1.683   0.028  -2.530  1.00  0.00     0.199 HD  
BRANCH  17  20
ATOM     20  C11 UNL     1       1.836   0.301  -0.503  1.00  0.00     0.164 C   
BRANCH  20  21
ATOM     21  C12 UNL     1       1.716   1.387   0.531  1.00  0.00    -0.002 A   
ATOM     22  C13 UNL     1       0.680   1.347   1.495  1.00  0.00     0.012 A   
ATOM     23  C17 UNL     1       2.616   2.467   0.528  1.00  0.00     0.045 A   
ATOM     24  C14 UNL     1       0.538   2.366   2.442  1.00  0.00     0.037 A   
ATOM     25  C16 UNL     1       2.447   3.456   1.474  1.00  0.00     0.109 A   
ATOM     26  C15 UNL     1       1.438   3.408   2.404  1.00  0.00     0.108 A   
ATOM     27  O1  UNL     1       3.222   4.565   1.603  1.00  0.00    -0.316 OA  
ATOM     28  O2  UNL     1       1.452   4.479   3.238  1.00  0.00    -0.316 OA  
ATOM     29  C18 UNL     1       2.609   5.195   2.751  1.00  0.00     0.337 C   
ENDBRANCH  20  21
ENDBRANCH  17  20
ENDBRANCH  16  17
BRANCH  16  30
ATOM     30  C19 UNL     1      -0.383   1.837  -3.302  1.00  0.00     0.010 C   
ATOM     31  C20 UNL     1       0.180   3.260  -3.083  1.00  0.00     0.017 C   
ATOM     32  C21 UNL     1       0.228   1.271  -4.600  1.00  0.00     0.017 C   
ATOM     33  C22 UNL     1      -1.909   1.984  -3.507  1.00  0.00     0.017 C   
ENDBRANCH  16  30
ENDBRANCH   3  16
TORSDOF 8
