REMARK SMILES COc1cc(Cn2cc([C@@H]([NH2+]Cc3ccc4c(c3)OCO4)C3CCCC3)nn2)ccc1O
REMARK SMILES IDX 7 1 8 2 9 3 27 4 28 5 6 7 5 8 3 9 4 10 31 11 30 12 29 13
REMARK SMILES IDX 2 14 1 15 32 16 10 18 11 19 12 22 13 23 14 24 18 25 15 26
REMARK SMILES IDX 17 27 16 28 19 29 21 30 20 31 22 32 23 33 26 34 24 35 25 36
REMARK H PARENT 8 6 32 17 11 20 11 21
ROOT
ATOM     1   N1  UNL     1      -1.228  -0.984   2.805  1.00  0.00    -0.208 N   
ATOM     2   C6  UNL     1      -1.481  -1.476   1.553  1.00  0.00     0.046 A   
ATOM     3   C7  UNL     1      -1.045  -0.479   0.709  1.00  0.00     0.127 A   
ATOM     4   N3  UNL     1      -0.606   0.583   1.458  1.00  0.00    -0.132 NA  
ATOM     5   N4  UNL     1      -0.741   0.270   2.736  1.00  0.00    -0.076 NA  
ATOM     6   H7  UNL     1      -1.895  -2.462   1.391  1.00  0.00     0.083 HD  
ENDROOT
BRANCH   1   7
ATOM     7   C5  UNL     1      -1.435  -1.635   4.088  1.00  0.00     0.169 C   
BRANCH   7   8
ATOM     8   C4  UNL     1      -0.442  -2.752   4.292  1.00  0.00    -0.026 A   
ATOM     9   C2  UNL     1       1.825  -3.490   4.786  1.00  0.00     0.105 A   
ATOM     10  C3  UNL     1       0.897  -2.461   4.625  1.00  0.00     0.041 A   
ATOM     11  C24 UNL     1       1.404  -4.811   4.604  1.00  0.00     0.101 A   
ATOM     12  C23 UNL     1       0.090  -5.119   4.278  1.00  0.00     0.036 A   
ATOM     13  C22 UNL     1      -0.835  -4.090   4.123  1.00  0.00     0.008 A   
BRANCH   9  14
ATOM     14  O1  UNL     1       3.150  -3.344   5.103  1.00  0.00    -0.347 OA  
ATOM     15  C1  UNL     1       3.598  -2.027   5.403  1.00  0.00     0.203 C   
ENDBRANCH   9  14
BRANCH  11  16
ATOM     16  O4  UNL     1       2.289  -5.846   4.744  1.00  0.00    -0.358 OA  
ATOM     17  H29 UNL     1       3.133  -5.430   5.010  1.00  0.00     0.218 HD  
ENDBRANCH  11  16
ENDBRANCH   7   8
ENDBRANCH   1   7
BRANCH   3  18
ATOM     18  C8  UNL     1      -1.020  -0.388  -0.784  1.00  0.00     0.117 C   
BRANCH  18  19
ATOM     19  N2  UNL     1      -1.246   1.044  -1.202  1.00  0.00     0.249 N   
ATOM     20  H9  UNL     1      -0.972   1.210  -2.174  1.00  0.00     0.199 HD  
ATOM     21  H10 UNL     1      -0.619   1.622  -0.623  1.00  0.00     0.199 HD  
BRANCH  19  22
ATOM     22  C9  UNL     1      -2.630   1.558  -1.007  1.00  0.00     0.164 C   
BRANCH  22  23
ATOM     23  C10 UNL     1      -2.687   3.027  -1.314  1.00  0.00    -0.002 A   
ATOM     24  C11 UNL     1      -2.395   3.972  -0.301  1.00  0.00     0.012 A   
ATOM     25  C15 UNL     1      -2.965   3.470  -2.617  1.00  0.00     0.045 A   
ATOM     26  C12 UNL     1      -2.393   5.343  -0.579  1.00  0.00     0.037 A   
ATOM     27  C14 UNL     1      -2.951   4.829  -2.857  1.00  0.00     0.109 A   
ATOM     28  C13 UNL     1      -2.673   5.739  -1.868  1.00  0.00     0.108 A   
ATOM     29  O2  UNL     1      -3.193   5.422  -4.056  1.00  0.00    -0.316 OA  
ATOM     30  O3  UNL     1      -2.710   7.020  -2.318  1.00  0.00    -0.316 OA  
ATOM     31  C16 UNL     1      -3.057   6.817  -3.705  1.00  0.00     0.337 C   
ENDBRANCH  22  23
ENDBRANCH  19  22
ENDBRANCH  18  19
BRANCH  18  32
ATOM     32  C17 UNL     1       0.328  -0.859  -1.367  1.00  0.00     0.043 C   
ATOM     33  C18 UNL     1       0.400  -0.840  -2.897  1.00  0.00     0.010 C   
ATOM     34  C21 UNL     1       0.659  -2.324  -1.043  1.00  0.00     0.010 C   
ATOM     35  C19 UNL     1       1.623  -1.692  -3.197  1.00  0.00     0.001 C   
ATOM     36  C20 UNL     1       1.587  -2.807  -2.159  1.00  0.00     0.001 C   
ENDBRANCH  18  32
ENDBRANCH   3  18
TORSDOF 9
