REMARK SMILES CC(C)[C@H]([NH2+]Cc1ccc2c(c1)OCO2)c1cn(CCc2ccon2)nn1
REMARK SMILES IDX 16 1 17 2 18 3 26 4 27 5 4 7 2 8 1 9 3 10 5 11 6 14 7 15
REMARK SMILES IDX 8 16 12 17 9 18 11 19 10 20 13 21 15 22 14 23 19 24 20 25
REMARK SMILES IDX 21 26 22 27 25 28 23 29 24 30
REMARK H PARENT 17 6 5 12 5 13
ROOT
ATOM     1   C13 UNL     1       2.520  -0.553  -0.967  1.00  0.00     0.127 A   
ATOM     2   C14 UNL     1       2.133   0.300  -1.975  1.00  0.00     0.045 A   
ATOM     3   N2  UNL     1       2.364  -0.418  -3.112  1.00  0.00    -0.212 N   
ATOM     4   N4  UNL     1       2.955  -1.594  -2.832  1.00  0.00    -0.076 NA  
ATOM     5   N5  UNL     1       3.035  -1.698  -1.517  1.00  0.00    -0.132 NA  
ATOM     6   H18 UNL     1       1.640   1.262  -1.986  1.00  0.00     0.083 HD  
ENDROOT
BRANCH   1   7
ATOM     7   C4  UNL     1       2.320  -0.473   0.511  1.00  0.00     0.117 C   
BRANCH   7   8
ATOM     8   C2  UNL     1       3.594  -0.016   1.267  1.00  0.00     0.037 C   
ATOM     9   C1  UNL     1       3.269   0.392   2.710  1.00  0.00     0.014 C   
ATOM     10  C3  UNL     1       4.733  -1.041   1.271  1.00  0.00     0.014 C   
ENDBRANCH   7   8
BRANCH   7  11
ATOM     11  N1  UNL     1       1.847  -1.811   1.028  1.00  0.00     0.249 N   
ATOM     12  H9  UNL     1       1.951  -1.874   2.043  1.00  0.00     0.199 HD  
ATOM     13  H10 UNL     1       2.473  -2.511   0.607  1.00  0.00     0.199 HD  
BRANCH  11  14
ATOM     14  C5  UNL     1       0.451  -2.195   0.653  1.00  0.00     0.164 C   
BRANCH  14  15
ATOM     15  C6  UNL     1      -0.583  -1.436   1.438  1.00  0.00    -0.002 A   
ATOM     16  C7  UNL     1      -0.873  -1.797   2.776  1.00  0.00     0.012 A   
ATOM     17  C11 UNL     1      -1.243  -0.338   0.860  1.00  0.00     0.045 A   
ATOM     18  C8  UNL     1      -1.806  -1.077   3.528  1.00  0.00     0.037 A   
ATOM     19  C10 UNL     1      -2.155   0.353   1.628  1.00  0.00     0.109 A   
ATOM     20  C9  UNL     1      -2.430  -0.007   2.925  1.00  0.00     0.108 A   
ATOM     21  O1  UNL     1      -2.873   1.434   1.224  1.00  0.00    -0.316 OA  
ATOM     22  O2  UNL     1      -3.356   0.800   3.501  1.00  0.00    -0.316 OA  
ATOM     23  C12 UNL     1      -3.643   1.710   2.416  1.00  0.00     0.337 C   
ENDBRANCH  14  15
ENDBRANCH  11  14
ENDBRANCH   7  11
ENDBRANCH   1   7
BRANCH   3  24
ATOM     24  C15 UNL     1       1.951  -0.110  -4.466  1.00  0.00     0.140 C   
BRANCH  24  25
ATOM     25  C16 UNL     1       0.799  -0.993  -4.950  1.00  0.00     0.080 C   
BRANCH  25  26
ATOM     26  C17 UNL     1      -0.509  -0.688  -4.292  1.00  0.00     0.072 A   
ATOM     27  C18 UNL     1      -1.677  -0.154  -4.881  1.00  0.00     0.054 A   
ATOM     28  N3  UNL     1      -0.695  -0.934  -2.986  1.00  0.00    -0.134 NA  
ATOM     29  C19 UNL     1      -2.577  -0.090  -3.849  1.00  0.00     0.166 A   
ATOM     30  O3  UNL     1      -1.997  -0.551  -2.715  1.00  0.00    -0.222 OA  
ENDBRANCH  25  26
ENDBRANCH  24  25
ENDBRANCH   3  24
TORSDOF 8
