REMARK SMILES CC(C)[C@H]([NH2+]Cc1ccc2c(c1)OCO2)c1cn([C@@H](CO)c2cc(F)ccn2)nn1
REMARK SMILES IDX 16 1 17 2 18 3 29 4 30 5 4 7 2 8 1 9 3 10 5 11 6 14 7 15
REMARK SMILES IDX 8 16 12 17 9 18 11 19 10 20 13 21 15 22 14 23 19 24 20 25
REMARK SMILES IDX 21 26 22 28 23 29 28 30 24 31 27 32 26 33 25 34
REMARK H PARENT 17 6 5 12 5 13 21 27
ROOT
ATOM     1   C13 UNL     1      -0.110  -0.933   0.176  1.00  0.00     0.127 A   
ATOM     2   C14 UNL     1      -1.333  -1.418  -0.223  1.00  0.00     0.046 A   
ATOM     3   N2  UNL     1      -2.224  -0.458   0.180  1.00  0.00    -0.201 N   
ATOM     4   N4  UNL     1      -1.579   0.559   0.790  1.00  0.00    -0.075 NA  
ATOM     5   N5  UNL     1      -0.287   0.277   0.797  1.00  0.00    -0.132 NA  
ATOM     6   H18 UNL     1      -1.647  -2.306  -0.757  1.00  0.00     0.083 HD  
ENDROOT
BRANCH   1   7
ATOM     7   C4  UNL     1       1.271  -1.471  -0.021  1.00  0.00     0.117 C   
BRANCH   7   8
ATOM     8   C2  UNL     1       1.689  -2.445   1.111  1.00  0.00     0.037 C   
ATOM     9   C1  UNL     1       2.955  -3.229   0.744  1.00  0.00     0.014 C   
ATOM     10  C3  UNL     1       1.878  -1.774   2.476  1.00  0.00     0.014 C   
ENDBRANCH   7   8
BRANCH   7  11
ATOM     11  N1  UNL     1       2.257  -0.340  -0.135  1.00  0.00     0.249 N   
ATOM     12  H9  UNL     1       3.216  -0.641   0.056  1.00  0.00     0.199 HD  
ATOM     13  H10 UNL     1       2.014   0.341   0.601  1.00  0.00     0.199 HD  
BRANCH  11  14
ATOM     14  C5  UNL     1       2.227   0.389  -1.434  1.00  0.00     0.164 C   
BRANCH  14  15
ATOM     15  C6  UNL     1       3.166   1.561  -1.403  1.00  0.00    -0.002 A   
ATOM     16  C7  UNL     1       4.502   1.423  -1.846  1.00  0.00     0.012 A   
ATOM     17  C11 UNL     1       2.730   2.794  -0.886  1.00  0.00     0.045 A   
ATOM     18  C8  UNL     1       5.392   2.501  -1.789  1.00  0.00     0.037 A   
ATOM     19  C10 UNL     1       3.632   3.837  -0.847  1.00  0.00     0.109 A   
ATOM     20  C9  UNL     1       4.925   3.695  -1.286  1.00  0.00     0.108 A   
ATOM     21  O1  UNL     1       3.373   5.089  -0.388  1.00  0.00    -0.316 OA  
ATOM     22  O2  UNL     1       5.643   4.841  -1.160  1.00  0.00    -0.316 OA  
ATOM     23  C12 UNL     1       4.645   5.735  -0.623  1.00  0.00     0.337 C   
ENDBRANCH  14  15
ENDBRANCH  11  14
ENDBRANCH   7  11
ENDBRANCH   1   7
BRANCH   3  24
ATOM     24  C15 UNL     1      -3.670  -0.399  -0.011  1.00  0.00     0.174 C   
BRANCH  24  25
ATOM     25  C16 UNL     1      -4.029  -0.112  -1.480  1.00  0.00     0.187 C   
BRANCH  25  26
ATOM     26  O3  UNL     1      -3.595  -1.139  -2.376  1.00  0.00    -0.394 OA  
ATOM     27  H22 UNL     1      -4.075  -1.951  -2.100  1.00  0.00     0.210 HD  
ENDBRANCH  25  26
ENDBRANCH  24  25
BRANCH  24  28
ATOM     28  C17 UNL     1      -4.330  -1.646   0.552  1.00  0.00     0.068 A   
ATOM     29  C18 UNL     1      -4.582  -1.745   1.916  1.00  0.00     0.065 A   
ATOM     30  N3  UNL     1      -4.630  -2.657  -0.310  1.00  0.00    -0.259 NA  
ATOM     31  C19 UNL     1      -5.176  -2.905   2.388  1.00  0.00     0.126 A   
ATOM     32  C21 UNL     1      -5.220  -3.768   0.196  1.00  0.00     0.114 A   
ATOM     33  C20 UNL     1      -5.510  -3.938   1.533  1.00  0.00     0.059 A   
ATOM     34  F1  UNL     1      -5.430  -3.023   3.698  1.00  0.00    -0.207 F   
ENDBRANCH  24  28
ENDBRANCH   3  24
TORSDOF 9
