REMARK SMILES CC(C)[C@H]([NH2+]Cc1ccc2c(c1)OCO2)c1cn([C@H](CO)c2cc(F)ccn2)nn1
REMARK SMILES IDX 16 1 17 2 18 3 29 4 30 5 4 7 2 8 1 9 3 10 5 11 6 14 7 15
REMARK SMILES IDX 8 16 12 17 9 18 11 19 10 20 13 21 15 22 14 23 19 24 20 25
REMARK SMILES IDX 21 26 22 28 23 29 28 30 24 31 27 32 26 33 25 34
REMARK H PARENT 17 6 5 12 5 13 21 27
ROOT
ATOM     1   C13 UNL     1      -1.169   1.203   0.297  1.00  0.00     0.127 A   
ATOM     2   C14 UNL     1      -1.941   0.793   1.359  1.00  0.00     0.046 A   
ATOM     3   N2  UNL     1      -3.123   0.401   0.788  1.00  0.00    -0.201 N   
ATOM     4   N4  UNL     1      -3.054   0.508  -0.557  1.00  0.00    -0.075 NA  
ATOM     5   N5  UNL     1      -1.871   1.013  -0.867  1.00  0.00    -0.132 NA  
ATOM     6   H18 UNL     1      -1.782   0.769   2.429  1.00  0.00     0.083 HD  
ENDROOT
BRANCH   1   7
ATOM     7   C4  UNL     1       0.217   1.763   0.250  1.00  0.00     0.117 C   
BRANCH   7   8
ATOM     8   C2  UNL     1       0.252   3.269   0.625  1.00  0.00     0.037 C   
ATOM     9   C1  UNL     1       1.683   3.751   0.896  1.00  0.00     0.014 C   
ATOM     10  C3  UNL     1      -0.416   4.184  -0.408  1.00  0.00     0.014 C   
ENDBRANCH   7   8
BRANCH   7  11
ATOM     11  N1  UNL     1       0.824   1.553  -1.117  1.00  0.00     0.249 N   
ATOM     12  H9  UNL     1       0.089   1.799  -1.796  1.00  0.00     0.199 HD  
ATOM     13  H10 UNL     1       1.605   2.194  -1.275  1.00  0.00     0.199 HD  
BRANCH  11  14
ATOM     14  C5  UNL     1       1.264   0.162  -1.431  1.00  0.00     0.164 C   
BRANCH  14  15
ATOM     15  C6  UNL     1       2.481  -0.251  -0.650  1.00  0.00    -0.002 A   
ATOM     16  C7  UNL     1       2.375  -1.215   0.382  1.00  0.00     0.012 A   
ATOM     17  C11 UNL     1       3.730   0.336  -0.920  1.00  0.00     0.045 A   
ATOM     18  C8  UNL     1       3.491  -1.584   1.140  1.00  0.00     0.037 A   
ATOM     19  C10 UNL     1       4.809  -0.049  -0.152  1.00  0.00     0.109 A   
ATOM     20  C9  UNL     1       4.694  -0.981   0.849  1.00  0.00     0.108 A   
ATOM     21  O1  UNL     1       6.077   0.424  -0.279  1.00  0.00    -0.316 OA  
ATOM     22  O2  UNL     1       5.875  -1.213   1.479  1.00  0.00    -0.316 OA  
ATOM     23  C12 UNL     1       6.758  -0.339   0.743  1.00  0.00     0.337 C   
ENDBRANCH  14  15
ENDBRANCH  11  14
ENDBRANCH   7  11
ENDBRANCH   1   7
BRANCH   3  24
ATOM     24  C15 UNL     1      -4.338  -0.098   1.421  1.00  0.00     0.174 C   
BRANCH  24  25
ATOM     25  C16 UNL     1      -4.964   0.937   2.375  1.00  0.00     0.187 C   
BRANCH  25  26
ATOM     26  O3  UNL     1      -4.140   1.246   3.502  1.00  0.00    -0.394 OA  
ATOM     27  H22 UNL     1      -4.015   0.398   3.983  1.00  0.00     0.210 HD  
ENDBRANCH  25  26
ENDBRANCH  24  25
BRANCH  24  28
ATOM     28  C17 UNL     1      -4.073  -1.448   2.065  1.00  0.00     0.068 A   
ATOM     29  C18 UNL     1      -4.096  -2.604   1.293  1.00  0.00     0.065 A   
ATOM     30  N3  UNL     1      -3.782  -1.478   3.395  1.00  0.00    -0.259 NA  
ATOM     31  C19 UNL     1      -3.830  -3.813   1.919  1.00  0.00     0.126 A   
ATOM     32  C21 UNL     1      -3.540  -2.683   3.967  1.00  0.00     0.114 A   
ATOM     33  C20 UNL     1      -3.551  -3.874   3.271  1.00  0.00     0.059 A   
ATOM     34  F1  UNL     1      -3.841  -4.940   1.196  1.00  0.00    -0.207 F   
ENDBRANCH  24  28
ENDBRANCH   3  24
TORSDOF 9
