REMARK SMILES O=C(Cn1cc([C@@H]([NH2+]Cc2ccc3c(c2)OCO3)C2CCCCC2)nn1)c1ccc(O)cc1
REMARK SMILES IDX 4 1 5 2 6 3 25 4 26 5 3 7 2 8 1 9 27 10 28 11 33 12 29 13
REMARK SMILES IDX 32 14 30 15 31 16 7 18 8 19 9 22 10 23 11 24 15 25 12 26
REMARK SMILES IDX 14 27 13 28 16 29 18 30 17 31 19 32 20 33 24 34 21 35 23 36
REMARK SMILES IDX 22 37
REMARK H PARENT 5 6 31 17 8 20 8 21
ROOT
ATOM     1   N1  UNL     1       1.771   0.430  -1.948  1.00  0.00    -0.204 N   
ATOM     2   C3  UNL     1       1.747   1.110  -0.762  1.00  0.00     0.046 A   
ATOM     3   C4  UNL     1       0.497   0.842  -0.249  1.00  0.00     0.127 A   
ATOM     4   N3  UNL     1      -0.205   0.087  -1.157  1.00  0.00    -0.132 NA  
ATOM     5   N4  UNL     1       0.581  -0.149  -2.194  1.00  0.00    -0.076 NA  
ATOM     6   H3  UNL     1       2.606   1.656  -0.393  1.00  0.00     0.083 HD  
ENDROOT
BRANCH   1   7
ATOM     7   C2  UNL     1       2.870   0.279  -2.872  1.00  0.00     0.214 C   
BRANCH   7   8
ATOM     8   C1  UNL     1       3.810  -0.794  -2.385  1.00  0.00     0.182 C   
ATOM     9   O1  UNL     1       4.557  -0.583  -1.428  1.00  0.00    -0.292 OA  
BRANCH   8  10
ATOM     10  C20 UNL     1       3.833  -2.127  -3.052  1.00  0.00     0.019 A   
ATOM     11  C21 UNL     1       4.960  -2.942  -2.859  1.00  0.00     0.014 A   
ATOM     12  C25 UNL     1       2.771  -2.596  -3.837  1.00  0.00     0.014 A   
ATOM     13  C22 UNL     1       5.037  -4.203  -3.459  1.00  0.00     0.034 A   
ATOM     14  C24 UNL     1       2.852  -3.856  -4.436  1.00  0.00     0.034 A   
ATOM     15  C23 UNL     1       3.981  -4.647  -4.246  1.00  0.00     0.071 A   
BRANCH  15  16
ATOM     16  O4  UNL     1       4.007  -5.866  -4.851  1.00  0.00    -0.361 OA  
ATOM     17  H27 UNL     1       4.835  -6.323  -4.621  1.00  0.00     0.218 HD  
ENDBRANCH  15  16
ENDBRANCH   8  10
ENDBRANCH   7   8
ENDBRANCH   1   7
BRANCH   3  18
ATOM     18  C5  UNL     1      -0.163   1.266   1.027  1.00  0.00     0.117 C   
BRANCH  18  19
ATOM     19  N2  UNL     1      -1.658   1.236   0.816  1.00  0.00     0.249 N   
ATOM     20  H5  UNL     1      -1.833   1.616  -0.125  1.00  0.00     0.199 HD  
ATOM     21  H6  UNL     1      -1.967   0.259   0.718  1.00  0.00     0.199 HD  
BRANCH  19  22
ATOM     22  C6  UNL     1      -2.511   1.966   1.780  1.00  0.00     0.164 C   
BRANCH  22  23
ATOM     23  C7  UNL     1      -3.958   1.868   1.386  1.00  0.00    -0.002 A   
ATOM     24  C8  UNL     1      -4.781   0.860   1.943  1.00  0.00     0.012 A   
ATOM     25  C12 UNL     1      -4.491   2.743   0.423  1.00  0.00     0.045 A   
ATOM     26  C9  UNL     1      -6.119   0.727   1.557  1.00  0.00     0.037 A   
ATOM     27  C11 UNL     1      -5.813   2.584   0.063  1.00  0.00     0.109 A   
ATOM     28  C10 UNL     1      -6.604   1.605   0.613  1.00  0.00     0.108 A   
ATOM     29  O2  UNL     1      -6.479   3.342  -0.849  1.00  0.00    -0.316 OA  
ATOM     30  O3  UNL     1      -7.869   1.622   0.118  1.00  0.00    -0.316 OA  
ATOM     31  C13 UNL     1      -7.790   2.728  -0.809  1.00  0.00     0.337 C   
ENDBRANCH  22  23
ENDBRANCH  19  22
ENDBRANCH  18  19
BRANCH  18  32
ATOM     32  C14 UNL     1       0.229   0.415   2.266  1.00  0.00     0.043 C   
ATOM     33  C15 UNL     1      -0.116  -1.083   2.142  1.00  0.00     0.010 C   
ATOM     34  C19 UNL     1       1.719   0.587   2.629  1.00  0.00     0.010 C   
ATOM     35  C16 UNL     1       0.265  -1.857   3.406  1.00  0.00     0.001 C   
ATOM     36  C18 UNL     1       2.083  -0.179   3.900  1.00  0.00     0.001 C   
ATOM     37  C17 UNL     1       1.731  -1.657   3.778  1.00  0.00     0.000 C   
ENDBRANCH  18  32
ENDBRANCH   3  18
TORSDOF 9
