REMARK SMILES c1nc(Cn2cc([C@@H]([NH2+]Cc3ccc4c(c3)OCO4)C3CCCC3)nn2)c(C2CC2)o1
REMARK SMILES IDX 5 1 6 2 7 3 25 4 26 5 4 7 3 8 1 9 2 10 31 11 27 12 28 13
REMARK SMILES IDX 29 14 30 15 8 16 9 17 10 20 11 21 12 22 16 23 13 24 15 25
REMARK SMILES IDX 14 26 17 27 19 28 18 29 20 30 21 31 24 32 22 33 23 34
REMARK H PARENT 6 6 9 18 9 19
ROOT
ATOM     1   N2  UNL     1       2.110   1.669  -1.107  1.00  0.00    -0.206 N   
ATOM     2   C4  UNL     1       0.945   1.369  -1.762  1.00  0.00     0.046 A   
ATOM     3   C5  UNL     1      -0.017   1.438  -0.778  1.00  0.00     0.127 A   
ATOM     4   N4  UNL     1       0.575   1.782   0.409  1.00  0.00    -0.132 NA  
ATOM     5   N5  UNL     1       1.876   1.915   0.199  1.00  0.00    -0.076 NA  
ATOM     6   H4  UNL     1       0.927   1.112  -2.813  1.00  0.00     0.083 HD  
ENDROOT
BRANCH   1   7
ATOM     7   C3  UNL     1       3.460   1.688  -1.641  1.00  0.00     0.192 C   
BRANCH   7   8
ATOM     8   C2  UNL     1       3.970   0.301  -1.744  1.00  0.00     0.089 A   
ATOM     9   C1  UNL     1       4.313  -1.606  -2.600  1.00  0.00     0.247 A   
ATOM     10  N1  UNL     1       3.704  -0.472  -2.859  1.00  0.00    -0.232 NA  
ATOM     11  O3  UNL     1       4.931  -1.666  -1.390  1.00  0.00    -0.301 OA  
ATOM     12  C20 UNL     1       4.713  -0.435  -0.842  1.00  0.00     0.087 A   
BRANCH  12  13
ATOM     13  C21 UNL     1       5.216   0.027   0.548  1.00  0.00     0.045 C   
ATOM     14  C22 UNL     1       6.275  -0.778   1.256  1.00  0.00     0.011 C   
ATOM     15  C23 UNL     1       6.620   0.559   0.665  1.00  0.00     0.011 C   
ENDBRANCH  12  13
ENDBRANCH   7   8
ENDBRANCH   1   7
BRANCH   3  16
ATOM     16  C6  UNL     1      -1.475   1.120  -0.809  1.00  0.00     0.117 C   
BRANCH  16  17
ATOM     17  N3  UNL     1      -1.849   0.354   0.437  1.00  0.00     0.249 N   
ATOM     18  H6  UNL     1      -2.864   0.300   0.561  1.00  0.00     0.199 HD  
ATOM     19  H7  UNL     1      -1.483   0.891   1.238  1.00  0.00     0.199 HD  
BRANCH  17  20
ATOM     20  C7  UNL     1      -1.286  -1.023   0.528  1.00  0.00     0.164 C   
BRANCH  20  21
ATOM     21  C8  UNL     1      -1.698  -1.675   1.818  1.00  0.00    -0.002 A   
ATOM     22  C9  UNL     1      -2.839  -2.507   1.874  1.00  0.00     0.012 A   
ATOM     23  C13 UNL     1      -0.968  -1.418   2.992  1.00  0.00     0.045 A   
ATOM     24  C10 UNL     1      -3.244  -3.088   3.083  1.00  0.00     0.037 A   
ATOM     25  C12 UNL     1      -1.388  -2.015   4.163  1.00  0.00     0.109 A   
ATOM     26  C11 UNL     1      -2.495  -2.826   4.208  1.00  0.00     0.108 A   
ATOM     27  O1  UNL     1      -0.785  -1.893   5.373  1.00  0.00    -0.316 OA  
ATOM     28  O2  UNL     1      -2.733  -3.311   5.455  1.00  0.00    -0.316 OA  
ATOM     29  C14 UNL     1      -1.623  -2.744   6.186  1.00  0.00     0.337 C   
ENDBRANCH  20  21
ENDBRANCH  17  20
ENDBRANCH  16  17
BRANCH  16  30
ATOM     30  C15 UNL     1      -2.348   2.387  -0.886  1.00  0.00     0.043 C   
ATOM     31  C16 UNL     1      -3.854   2.106  -0.952  1.00  0.00     0.010 C   
ATOM     32  C19 UNL     1      -2.123   3.200  -2.166  1.00  0.00     0.010 C   
ATOM     33  C17 UNL     1      -4.476   3.352  -1.575  1.00  0.00     0.001 C   
ATOM     34  C18 UNL     1      -3.332   4.123  -2.228  1.00  0.00     0.001 C   
ENDBRANCH  16  30
ENDBRANCH   3  16
TORSDOF 8
