REMARK SMILES Cn1ccnc1Cn1cc([C@@H]([NH2+]Cc2ccc3c(c2)OCO3)C(C)(C)C)nn1
REMARK SMILES IDX 8 1 9 2 10 3 27 4 28 5 7 7 6 8 2 9 3 10 4 11 5 12 1 13 11 14
REMARK SMILES IDX 12 15 13 18 14 19 15 20 19 21 16 22 18 23 17 24 20 25 22 26
REMARK SMILES IDX 21 27 23 28 24 29 25 30 26 31
REMARK H PARENT 9 6 12 16 12 17
ROOT
ATOM     1   N3  UNL     1      -1.555  -0.348  -2.089  1.00  0.00    -0.205 N   
ATOM     2   C6  UNL     1      -0.335   0.055  -1.621  1.00  0.00     0.046 A   
ATOM     3   C7  UNL     1       0.163  -1.062  -0.990  1.00  0.00     0.127 A   
ATOM     4   N5  UNL     1      -0.723  -2.099  -1.141  1.00  0.00    -0.132 NA  
ATOM     5   N6  UNL     1      -1.766  -1.653  -1.823  1.00  0.00    -0.076 NA  
ATOM     6   H8  UNL     1       0.003   1.079  -1.702  1.00  0.00     0.083 HD  
ENDROOT
BRANCH   1   7
ATOM     7   C5  UNL     1      -2.593   0.471  -2.689  1.00  0.00     0.206 C   
BRANCH   7   8
ATOM     8   C4  UNL     1      -3.372   1.139  -1.604  1.00  0.00     0.120 A   
ATOM     9   N1  UNL     1      -4.721   0.960  -1.391  1.00  0.00    -0.296 N   
ATOM     10  C2  UNL     1      -5.082   1.738  -0.326  1.00  0.00     0.096 A   
ATOM     11  C3  UNL     1      -3.928   2.365   0.073  1.00  0.00     0.128 A   
ATOM     12  N2  UNL     1      -2.873   1.978  -0.710  1.00  0.00    -0.243 NA  
ATOM     13  C1  UNL     1      -5.615   0.111  -2.142  1.00  0.00     0.137 C   
ENDBRANCH   7   8
ENDBRANCH   1   7
BRANCH   3  14
ATOM     14  C8  UNL     1       1.360  -1.219  -0.106  1.00  0.00     0.120 C   
BRANCH  14  15
ATOM     15  N4  UNL     1       0.945  -1.933   1.167  1.00  0.00     0.250 N   
ATOM     16  H10 UNL     1       0.517  -2.822   0.878  1.00  0.00     0.199 HD  
ATOM     17  H11 UNL     1       1.760  -2.151   1.742  1.00  0.00     0.199 HD  
BRANCH  15  18
ATOM     18  C9  UNL     1      -0.066  -1.230   2.022  1.00  0.00     0.164 C   
BRANCH  18  19
ATOM     19  C10 UNL     1       0.407   0.102   2.532  1.00  0.00    -0.002 A   
ATOM     20  C11 UNL     1      -0.175   1.297   2.041  1.00  0.00     0.012 A   
ATOM     21  C15 UNL     1       1.445   0.176   3.476  1.00  0.00     0.045 A   
ATOM     22  C12 UNL     1       0.276   2.548   2.474  1.00  0.00     0.037 A   
ATOM     23  C14 UNL     1       1.865   1.427   3.882  1.00  0.00     0.109 A   
ATOM     24  C13 UNL     1       1.299   2.579   3.395  1.00  0.00     0.108 A   
ATOM     25  O1  UNL     1       2.857   1.673   4.777  1.00  0.00    -0.316 OA  
ATOM     26  O2  UNL     1       1.862   3.696   3.923  1.00  0.00    -0.316 OA  
ATOM     27  C16 UNL     1       2.833   3.118   4.822  1.00  0.00     0.337 C   
ENDBRANCH  18  19
ENDBRANCH  15  18
ENDBRANCH  14  15
BRANCH  14  28
ATOM     28  C17 UNL     1       2.572  -1.953  -0.780  1.00  0.00     0.010 C   
ATOM     29  C18 UNL     1       3.801  -1.930   0.158  1.00  0.00     0.017 C   
ATOM     30  C19 UNL     1       2.270  -3.421  -1.138  1.00  0.00     0.017 C   
ATOM     31  C20 UNL     1       2.979  -1.212  -2.075  1.00  0.00     0.017 C   
ENDBRANCH  14  28
ENDBRANCH   3  14
TORSDOF 7
