REMARK SMILES Cc1cc(F)cc(Cn2cc([C@@H]([NH2+]Cc3ccc4c(c3)OCO4)C3CCCCC3)nn2)c1
REMARK SMILES IDX 9 1 10 2 11 3 30 4 31 5 8 7 7 8 2 9 3 10 32 11 4 12 6 13
REMARK SMILES IDX 1 14 5 15 12 16 13 17 14 20 15 21 16 22 20 23 17 24 19 25
REMARK SMILES IDX 18 26 21 27 23 28 22 29 24 30 25 31 29 32 26 33 28 34 27 35
REMARK H PARENT 10 6 13 18 13 19
ROOT
ATOM     1   N1  UNL     1       0.762  -2.087  -1.550  1.00  0.00    -0.208 N   
ATOM     2   C8  UNL     1       0.121  -1.959  -0.348  1.00  0.00     0.046 A   
ATOM     3   C9  UNL     1       0.322  -0.641  -0.002  1.00  0.00     0.127 A   
ATOM     4   N3  UNL     1       1.115  -0.046  -0.952  1.00  0.00    -0.132 NA  
ATOM     5   N4  UNL     1       1.398  -0.946  -1.878  1.00  0.00    -0.076 NA  
ATOM     6   H8  UNL     1      -0.428  -2.773   0.106  1.00  0.00     0.083 HD  
ENDROOT
BRANCH   1   7
ATOM     7   C7  UNL     1       0.818  -3.250  -2.420  1.00  0.00     0.169 C   
BRANCH   7   8
ATOM     8   C6  UNL     1      -0.305  -3.224  -3.424  1.00  0.00    -0.025 A   
ATOM     9   C2  UNL     1      -1.156  -2.587  -5.627  1.00  0.00    -0.048 A   
ATOM     10  C3  UNL     1      -2.404  -3.118  -5.288  1.00  0.00     0.042 A   
ATOM     11  C25 UNL     1      -0.111  -2.650  -4.693  1.00  0.00     0.009 A   
ATOM     12  C4  UNL     1      -2.599  -3.680  -4.033  1.00  0.00     0.123 A   
ATOM     13  C5  UNL     1      -1.568  -3.739  -3.102  1.00  0.00     0.044 A   
ATOM     14  C1  UNL     1      -0.925  -2.013  -6.994  1.00  0.00     0.044 C   
ATOM     15  F1  UNL     1      -3.806  -4.161  -3.707  1.00  0.00    -0.207 F   
ENDBRANCH   7   8
ENDBRANCH   1   7
BRANCH   3  16
ATOM     16  C10 UNL     1      -0.126   0.158   1.180  1.00  0.00     0.117 C   
BRANCH  16  17
ATOM     17  N2  UNL     1       0.844   1.289   1.429  1.00  0.00     0.249 N   
ATOM     18  H10 UNL     1       0.421   2.038   1.985  1.00  0.00     0.199 HD  
ATOM     19  H11 UNL     1       1.061   1.699   0.507  1.00  0.00     0.199 HD  
BRANCH  17  20
ATOM     20  C11 UNL     1       2.139   0.891   2.047  1.00  0.00     0.164 C   
BRANCH  20  21
ATOM     21  C12 UNL     1       3.062   2.073   2.131  1.00  0.00    -0.002 A   
ATOM     22  C13 UNL     1       3.863   2.428   1.017  1.00  0.00     0.012 A   
ATOM     23  C17 UNL     1       3.098   2.865   3.291  1.00  0.00     0.045 A   
ATOM     24  C14 UNL     1       4.694   3.552   1.060  1.00  0.00     0.037 A   
ATOM     25  C16 UNL     1       3.929   3.965   3.299  1.00  0.00     0.109 A   
ATOM     26  C15 UNL     1       4.703   4.301   2.216  1.00  0.00     0.108 A   
ATOM     27  O1  UNL     1       4.082   4.831   4.335  1.00  0.00    -0.316 OA  
ATOM     28  O2  UNL     1       5.440   5.422   2.433  1.00  0.00    -0.316 OA  
ATOM     29  C18 UNL     1       5.063   5.742   3.789  1.00  0.00     0.337 C   
ENDBRANCH  20  21
ENDBRANCH  17  20
ENDBRANCH  16  17
BRANCH  16  30
ATOM     30  C19 UNL     1      -1.550   0.761   1.042  1.00  0.00     0.043 C   
ATOM     31  C20 UNL     1      -1.727   1.689  -0.177  1.00  0.00     0.010 C   
ATOM     32  C24 UNL     1      -2.636  -0.333   1.042  1.00  0.00     0.010 C   
ATOM     33  C21 UNL     1      -3.137   2.278  -0.237  1.00  0.00     0.001 C   
ATOM     34  C23 UNL     1      -4.040   0.264   0.981  1.00  0.00     0.001 C   
ATOM     35  C22 UNL     1      -4.205   1.191  -0.219  1.00  0.00     0.000 C   
ENDBRANCH  16  30
ENDBRANCH   3  16
TORSDOF 7
