REMARK SMILES Cc1cc(F)ccc1Cn1cc([C@@H]([NH2+]Cc2ccc3c(c2)OCO3)C2CCCC2)nn1
REMARK SMILES IDX 10 1 11 2 12 3 30 4 31 5 9 7 8 8 2 9 3 10 4 11 7 12 6 13
REMARK SMILES IDX 1 14 5 15 13 16 14 17 15 20 16 21 17 22 21 23 18 24 20 25
REMARK SMILES IDX 19 26 22 27 24 28 23 29 25 30 26 31 29 32 27 33 28 34
REMARK H PARENT 11 6 14 18 14 19
ROOT
ATOM     1   N1  UNL     1       1.520   1.594   0.621  1.00  0.00    -0.208 N   
ATOM     2   C9  UNL     1       0.956   0.806  -0.344  1.00  0.00     0.046 A   
ATOM     3   C10 UNL     1      -0.383   1.124  -0.292  1.00  0.00     0.127 A   
ATOM     4   N3  UNL     1      -0.577   2.115   0.633  1.00  0.00    -0.132 NA  
ATOM     5   N4  UNL     1       0.594   2.396   1.184  1.00  0.00    -0.076 NA  
ATOM     6   H9  UNL     1       1.523   0.077  -0.906  1.00  0.00     0.083 HD  
ENDROOT
BRANCH   1   7
ATOM     7   C8  UNL     1       2.883   1.556   1.128  1.00  0.00     0.169 C   
BRANCH   7   8
ATOM     8   C7  UNL     1       3.028   0.456   2.161  1.00  0.00    -0.025 A   
ATOM     9   C2  UNL     1       3.634  -0.789   1.876  1.00  0.00    -0.043 A   
ATOM     10  C3  UNL     1       3.676  -1.774   2.878  1.00  0.00     0.043 A   
ATOM     11  C4  UNL     1       3.139  -1.527   4.136  1.00  0.00     0.123 A   
ATOM     12  C6  UNL     1       2.500   0.681   3.451  1.00  0.00     0.009 A   
ATOM     13  C5  UNL     1       2.556  -0.306   4.433  1.00  0.00     0.039 A   
ATOM     14  C1  UNL     1       4.249  -1.105   0.540  1.00  0.00     0.045 C   
ATOM     15  F1  UNL     1       3.187  -2.482   5.073  1.00  0.00    -0.207 F   
ENDBRANCH   7   8
ENDBRANCH   1   7
BRANCH   3  16
ATOM     16  C11 UNL     1      -1.554   0.502  -0.973  1.00  0.00     0.117 C   
BRANCH  16  17
ATOM     17  N2  UNL     1      -2.658   0.213   0.028  1.00  0.00     0.249 N   
ATOM     18  H11 UNL     1      -3.467  -0.190  -0.451  1.00  0.00     0.199 HD  
ATOM     19  H12 UNL     1      -2.947   1.121   0.414  1.00  0.00     0.199 HD  
BRANCH  17  20
ATOM     20  C12 UNL     1      -2.305  -0.661   1.192  1.00  0.00     0.164 C   
BRANCH  20  21
ATOM     21  C13 UNL     1      -1.724  -1.992   0.799  1.00  0.00    -0.002 A   
ATOM     22  C14 UNL     1      -2.519  -2.964   0.147  1.00  0.00     0.012 A   
ATOM     23  C18 UNL     1      -0.369  -2.267   1.058  1.00  0.00     0.045 A   
ATOM     24  C15 UNL     1      -1.970  -4.186  -0.256  1.00  0.00     0.037 A   
ATOM     25  C17 UNL     1       0.142  -3.478   0.642  1.00  0.00     0.109 A   
ATOM     26  C16 UNL     1      -0.635  -4.411   0.003  1.00  0.00     0.108 A   
ATOM     27  O1  UNL     1       1.429  -3.889   0.794  1.00  0.00    -0.316 OA  
ATOM     28  O2  UNL     1       0.061  -5.531  -0.321  1.00  0.00    -0.316 OA  
ATOM     29  C19 UNL     1       1.358  -5.219   0.230  1.00  0.00     0.337 C   
ENDBRANCH  20  21
ENDBRANCH  17  20
ENDBRANCH  16  17
BRANCH  16  30
ATOM     30  C20 UNL     1      -2.129   1.409  -2.078  1.00  0.00     0.043 C   
ATOM     31  C21 UNL     1      -3.323   0.811  -2.829  1.00  0.00     0.010 C   
ATOM     32  C24 UNL     1      -1.142   1.672  -3.220  1.00  0.00     0.010 C   
ATOM     33  C22 UNL     1      -3.378   1.560  -4.160  1.00  0.00     0.001 C   
ATOM     34  C23 UNL     1      -2.018   2.229  -4.333  1.00  0.00     0.001 C   
ENDBRANCH  16  30
ENDBRANCH   3  16
TORSDOF 7
