REMARK SMILES CC(C)C[C@H]([NH2+]Cc1ccc2c(c1)OCO2)c1cn(Cc2cccnc2Cl)nn1
REMARK SMILES IDX 17 1 18 2 19 3 28 4 29 5 5 7 4 8 2 9 1 10 3 11 6 12 7 15
REMARK SMILES IDX 8 16 9 17 13 18 10 19 12 20 11 21 14 22 16 23 15 24 20 25
REMARK SMILES IDX 21 26 22 27 26 28 23 29 25 30 24 31 27 32
REMARK H PARENT 18 6 6 13 6 14
ROOT
ATOM     1   C14 UNL     1      -0.952  -2.214  -0.433  1.00  0.00     0.127 A   
ATOM     2   C15 UNL     1      -2.166  -1.773  -0.910  1.00  0.00     0.046 A   
ATOM     3   N2  UNL     1      -3.037  -2.038   0.111  1.00  0.00    -0.208 N   
ATOM     4   N4  UNL     1      -2.407  -2.653   1.131  1.00  0.00    -0.076 NA  
ATOM     5   N5  UNL     1      -1.127  -2.759   0.812  1.00  0.00    -0.132 NA  
ATOM     6   H20 UNL     1      -2.472  -1.282  -1.824  1.00  0.00     0.083 HD  
ENDROOT
BRANCH   1   7
ATOM     7   C5  UNL     1       0.423  -2.127  -1.013  1.00  0.00     0.114 C   
BRANCH   7   8
ATOM     8   C4  UNL     1       0.816  -3.459  -1.684  1.00  0.00     0.064 C   
BRANCH   8   9
ATOM     9   C2  UNL     1       2.187  -3.494  -2.391  1.00  0.00    -0.012 C   
ATOM     10  C1  UNL     1       2.325  -2.411  -3.462  1.00  0.00     0.007 C   
ATOM     11  C3  UNL     1       2.405  -4.873  -3.022  1.00  0.00     0.007 C   
ENDBRANCH   8   9
ENDBRANCH   7   8
BRANCH   7  12
ATOM     12  N1  UNL     1       1.424  -1.806   0.072  1.00  0.00     0.249 N   
ATOM     13  H11 UNL     1       1.271  -2.498   0.819  1.00  0.00     0.199 HD  
ATOM     14  H12 UNL     1       2.380  -1.928  -0.269  1.00  0.00     0.199 HD  
BRANCH  12  15
ATOM     15  C6  UNL     1       1.312  -0.450   0.692  1.00  0.00     0.164 C   
BRANCH  15  16
ATOM     16  C7  UNL     1       1.664   0.655  -0.265  1.00  0.00    -0.002 A   
ATOM     17  C8  UNL     1       3.012   0.881  -0.635  1.00  0.00     0.012 A   
ATOM     18  C12 UNL     1       0.649   1.447  -0.830  1.00  0.00     0.045 A   
ATOM     19  C9  UNL     1       3.345   1.877  -1.560  1.00  0.00     0.037 A   
ATOM     20  C11 UNL     1       1.012   2.417  -1.741  1.00  0.00     0.109 A   
ATOM     21  C10 UNL     1       2.322   2.626  -2.096  1.00  0.00     0.108 A   
ATOM     22  O1  UNL     1       0.159   3.254  -2.385  1.00  0.00    -0.316 OA  
ATOM     23  O2  UNL     1       2.458   3.625  -3.006  1.00  0.00    -0.316 OA  
ATOM     24  C13 UNL     1       1.086   4.049  -3.159  1.00  0.00     0.337 C   
ENDBRANCH  15  16
ENDBRANCH  12  15
ENDBRANCH   7  12
ENDBRANCH   1   7
BRANCH   3  25
ATOM     25  C16 UNL     1      -4.456  -1.726   0.191  1.00  0.00     0.172 C   
BRANCH  25  26
ATOM     26  C17 UNL     1      -4.739  -0.695   1.247  1.00  0.00     0.009 A   
ATOM     27  C18 UNL     1      -5.321  -1.072   2.465  1.00  0.00     0.010 A   
ATOM     28  C21 UNL     1      -4.425   0.653   1.098  1.00  0.00     0.133 A   
ATOM     29  C19 UNL     1      -5.561  -0.117   3.449  1.00  0.00     0.021 A   
ATOM     30  N3  UNL     1      -4.634   1.598   2.038  1.00  0.00    -0.244 NA  
ATOM     31  C20 UNL     1      -5.204   1.195   3.192  1.00  0.00     0.113 A   
ATOM     32  CL1 UNL     1      -3.705   1.294  -0.328  1.00  0.00    -0.062 Cl  
ENDBRANCH  25  26
ENDBRANCH   3  25
TORSDOF 8
