REMARK SMILES CC(=O)c1ccc(Cn2cc([C@H](CC(C)C)[NH2+]Cc3ccc4c(c3)OCO4)nn2)cc1
REMARK SMILES IDX 9 1 10 2 11 3 28 4 29 5 8 7 7 8 4 9 5 10 31 11 6 12 30 13
REMARK SMILES IDX 2 14 1 15 3 16 12 17 13 18 14 19 15 20 16 21 17 22 18 25
REMARK SMILES IDX 19 26 20 27 24 28 21 29 23 30 22 31 25 32 27 33 26 34
REMARK H PARENT 10 6 17 23 17 24
ROOT
ATOM     1   N1  UNL     1       1.337   0.171  -2.228  1.00  0.00    -0.208 N   
ATOM     2   C8  UNL     1       0.958  -0.627  -1.183  1.00  0.00     0.046 A   
ATOM     3   C9  UNL     1      -0.313  -1.036  -1.522  1.00  0.00     0.127 A   
ATOM     4   N3  UNL     1      -0.630  -0.542  -2.760  1.00  0.00    -0.132 NA  
ATOM     5   N4  UNL     1       0.382   0.202  -3.177  1.00  0.00    -0.076 NA  
ATOM     6   H8  UNL     1       1.571  -0.760  -0.302  1.00  0.00     0.083 HD  
ENDROOT
BRANCH   1   7
ATOM     7   C7  UNL     1       2.509   1.029  -2.320  1.00  0.00     0.169 C   
BRANCH   7   8
ATOM     8   C6  UNL     1       2.480   2.066  -1.221  1.00  0.00    -0.029 A   
ATOM     9   C3  UNL     1       2.284   3.882   0.919  1.00  0.00     0.017 A   
ATOM     10  C4  UNL     1       1.434   3.997  -0.187  1.00  0.00     0.012 A   
ATOM     11  C24 UNL     1       3.248   2.870   0.944  1.00  0.00     0.012 A   
ATOM     12  C5  UNL     1       1.536   3.102  -1.253  1.00  0.00     0.006 A   
ATOM     13  C23 UNL     1       3.344   1.968  -0.121  1.00  0.00     0.006 A   
BRANCH   9  14
ATOM     14  C2  UNL     1       2.103   4.832   2.052  1.00  0.00     0.159 C   
ATOM     15  C1  UNL     1       3.219   5.003   3.048  1.00  0.00     0.093 C   
ATOM     16  O1  UNL     1       1.041   5.437   2.169  1.00  0.00    -0.295 OA  
ENDBRANCH   9  14
ENDBRANCH   7   8
ENDBRANCH   1   7
BRANCH   3  17
ATOM     17  C10 UNL     1      -1.334  -1.781  -0.733  1.00  0.00     0.114 C   
BRANCH  17  18
ATOM     18  C11 UNL     1      -1.486  -3.246  -1.186  1.00  0.00     0.064 C   
BRANCH  18  19
ATOM     19  C12 UNL     1      -0.227  -4.121  -1.006  1.00  0.00    -0.012 C   
ATOM     20  C13 UNL     1       0.218  -4.213   0.455  1.00  0.00     0.007 C   
ATOM     21  C14 UNL     1      -0.496  -5.526  -1.552  1.00  0.00     0.007 C   
ENDBRANCH  18  19
ENDBRANCH  17  18
BRANCH  17  22
ATOM     22  N2  UNL     1      -2.699  -1.134  -0.882  1.00  0.00     0.249 N   
ATOM     23  H19 UNL     1      -3.401  -1.695  -0.393  1.00  0.00     0.199 HD  
ATOM     24  H20 UNL     1      -2.926  -1.159  -1.885  1.00  0.00     0.199 HD  
BRANCH  22  25
ATOM     25  C15 UNL     1      -2.820   0.293  -0.446  1.00  0.00     0.164 C   
BRANCH  25  26
ATOM     26  C16 UNL     1      -2.460   0.519   0.996  1.00  0.00    -0.002 A   
ATOM     27  C17 UNL     1      -3.317   0.079   2.032  1.00  0.00     0.012 A   
ATOM     28  C21 UNL     1      -1.253   1.162   1.324  1.00  0.00     0.045 A   
ATOM     29  C18 UNL     1      -2.978   0.275   3.376  1.00  0.00     0.037 A   
ATOM     30  C20 UNL     1      -0.948   1.338   2.657  1.00  0.00     0.109 A   
ATOM     31  C19 UNL     1      -1.788   0.910   3.654  1.00  0.00     0.108 A   
ATOM     32  O2  UNL     1       0.176   1.931   3.141  1.00  0.00    -0.316 OA  
ATOM     33  O3  UNL     1      -1.305   1.190   4.893  1.00  0.00    -0.316 OA  
ATOM     34  C22 UNL     1      -0.100   1.913   4.561  1.00  0.00     0.337 C   
ENDBRANCH  25  26
ENDBRANCH  22  25
ENDBRANCH  17  22
ENDBRANCH   3  17
TORSDOF 9
