REMARK SMILES COc1cc(C)ccc1CCn1cc([C@@H]([NH2+]Cc2ccc3c(c2)OCO3)C2CCCC2)nn1
REMARK SMILES IDX 12 1 13 2 14 3 32 4 33 5 11 7 10 8 9 9 3 10 4 11 5 12 8 13
REMARK SMILES IDX 7 14 6 15 2 16 1 17 15 18 16 19 17 22 18 23 19 24 23 25
REMARK SMILES IDX 20 26 22 27 21 28 24 29 26 30 25 31 27 32 28 33 31 34 29 35
REMARK SMILES IDX 30 36
REMARK H PARENT 13 6 16 20 16 21
ROOT
ATOM     1   N1  UNL     1      -2.286  -0.693  -0.421  1.00  0.00    -0.212 N   
ATOM     2   C11 UNL     1      -1.385  -0.646   0.604  1.00  0.00     0.045 A   
ATOM     3   C12 UNL     1      -0.173  -0.478  -0.026  1.00  0.00     0.127 A   
ATOM     4   N3  UNL     1      -0.368  -0.501  -1.385  1.00  0.00    -0.132 NA  
ATOM     5   N4  UNL     1      -1.664  -0.645  -1.613  1.00  0.00    -0.076 NA  
ATOM     6   H14 UNL     1      -1.689  -0.683   1.641  1.00  0.00     0.083 HD  
ENDROOT
BRANCH   1   7
ATOM     7   C10 UNL     1      -3.731  -0.763  -0.336  1.00  0.00     0.139 C   
BRANCH   7   8
ATOM     8   C9  UNL     1      -4.400   0.604  -0.489  1.00  0.00     0.059 C   
BRANCH   8   9
ATOM     9   C8  UNL     1      -3.957   1.619   0.545  1.00  0.00    -0.016 A   
ATOM     10  C2  UNL     1      -4.305   1.492   1.900  1.00  0.00     0.078 A   
ATOM     11  C3  UNL     1      -3.836   2.427   2.830  1.00  0.00     0.037 A   
ATOM     12  C4  UNL     1      -3.053   3.515   2.421  1.00  0.00    -0.049 A   
ATOM     13  C7  UNL     1      -3.169   2.708   0.141  1.00  0.00     0.007 A   
ATOM     14  C6  UNL     1      -2.722   3.647   1.071  1.00  0.00     0.004 A   
ATOM     15  C5  UNL     1      -2.537   4.496   3.433  1.00  0.00     0.044 C   
BRANCH  10  16
ATOM     16  O1  UNL     1      -5.064   0.401   2.232  1.00  0.00    -0.349 OA  
ATOM     17  C1  UNL     1      -5.892   0.549   3.383  1.00  0.00     0.203 C   
ENDBRANCH  10  16
ENDBRANCH   8   9
ENDBRANCH   7   8
ENDBRANCH   1   7
BRANCH   3  18
ATOM     18  C13 UNL     1       1.210  -0.329   0.516  1.00  0.00     0.117 C   
BRANCH  18  19
ATOM     19  N2  UNL     1       2.208  -0.900  -0.463  1.00  0.00     0.249 N   
ATOM     20  H16 UNL     1       3.159  -0.570  -0.265  1.00  0.00     0.199 HD  
ATOM     21  H17 UNL     1       1.957  -0.530  -1.392  1.00  0.00     0.199 HD  
BRANCH  19  22
ATOM     22  C14 UNL     1       2.219  -2.386  -0.568  1.00  0.00     0.164 C   
BRANCH  22  23
ATOM     23  C15 UNL     1       3.259  -2.837  -1.554  1.00  0.00    -0.002 A   
ATOM     24  C16 UNL     1       4.529  -3.272  -1.107  1.00  0.00     0.012 A   
ATOM     25  C20 UNL     1       2.987  -2.789  -2.933  1.00  0.00     0.045 A   
ATOM     26  C17 UNL     1       5.515  -3.663  -2.020  1.00  0.00     0.037 A   
ATOM     27  C19 UNL     1       3.982  -3.180  -3.804  1.00  0.00     0.109 A   
ATOM     28  C18 UNL     1       5.210  -3.606  -3.361  1.00  0.00     0.108 A   
ATOM     29  O2  UNL     1       3.885  -3.194  -5.159  1.00  0.00    -0.316 OA  
ATOM     30  O3  UNL     1       6.038  -3.947  -4.382  1.00  0.00    -0.316 OA  
ATOM     31  C21 UNL     1       5.180  -3.724  -5.521  1.00  0.00     0.337 C   
ENDBRANCH  22  23
ENDBRANCH  19  22
ENDBRANCH  18  19
BRANCH  18  32
ATOM     32  C22 UNL     1       1.632   1.122   0.817  1.00  0.00     0.043 C   
ATOM     33  C23 UNL     1       0.806   1.827   1.894  1.00  0.00     0.010 C   
ATOM     34  C26 UNL     1       1.550   2.110  -0.350  1.00  0.00     0.010 C   
ATOM     35  C24 UNL     1       1.199   3.295   1.758  1.00  0.00     0.001 C   
ATOM     36  C25 UNL     1       1.668   3.478   0.315  1.00  0.00     0.001 C   
ENDBRANCH  18  32
ENDBRANCH   3  18
TORSDOF 9
