REMARK SMILES CC(C)[C@H]([NH2+]Cc1ccc2c(c1)OCO2)c1cn(-c2cccc3cn[nH]c23)nn1
REMARK SMILES IDX 4 1 2 2 1 3 3 4 5 5 6 8 7 9 8 10 12 11 9 12 11 13 10 14
REMARK SMILES IDX 13 15 15 16 14 17 16 18 17 19 29 20 18 21 28 22 19 23 20 24
REMARK SMILES IDX 27 25 21 26 23 27 26 28 22 29 24 30 25 31
REMARK H PARENT 5 6 5 7 26 32
ROOT
ATOM     1   C4  UNL     1       0.164  -0.763  -1.960  1.00  0.00     0.117 C   
ENDROOT
BRANCH   1   2
ATOM     2   C2  UNL     1       1.250  -0.371  -2.995  1.00  0.00     0.037 C   
ATOM     3   C1  UNL     1       1.034   0.997  -3.654  1.00  0.00     0.014 C   
ATOM     4   C3  UNL     1       2.655  -0.434  -2.383  1.00  0.00     0.014 C   
ENDBRANCH   1   2
BRANCH   1   5
ATOM     5   N1  UNL     1      -1.174  -0.865  -2.671  1.00  0.00     0.249 N   
ATOM     6   H9  UNL     1      -1.617   0.063  -2.584  1.00  0.00     0.199 HD  
ATOM     7   H10 UNL     1      -1.035  -1.019  -3.675  1.00  0.00     0.199 HD  
BRANCH   5   8
ATOM     8   C5  UNL     1      -2.132  -1.894  -2.160  1.00  0.00     0.164 C   
BRANCH   8   9
ATOM     9   C6  UNL     1      -2.532  -1.709  -0.722  1.00  0.00    -0.002 A   
ATOM     10  C7  UNL     1      -2.065  -2.603   0.272  1.00  0.00     0.012 A   
ATOM     11  C11 UNL     1      -3.331  -0.615  -0.343  1.00  0.00     0.045 A   
ATOM     12  C8  UNL     1      -2.360  -2.396   1.624  1.00  0.00     0.037 A   
ATOM     13  C10 UNL     1      -3.594  -0.433   1.000  1.00  0.00     0.109 A   
ATOM     14  C9  UNL     1      -3.118  -1.295   1.956  1.00  0.00     0.108 A   
ATOM     15  O1  UNL     1      -4.306   0.593   1.533  1.00  0.00    -0.316 OA  
ATOM     16  O2  UNL     1      -3.475  -0.923   3.212  1.00  0.00    -0.316 OA  
ATOM     17  C12 UNL     1      -4.250   0.266   2.941  1.00  0.00     0.337 C   
ENDBRANCH   8   9
ENDBRANCH   5   8
ENDBRANCH   1   5
BRANCH   1  18
ATOM     18  C13 UNL     1       0.046   0.185  -0.809  1.00  0.00     0.127 A   
ATOM     19  C14 UNL     1       0.475   0.087   0.497  1.00  0.00     0.135 A   
ATOM     20  N6  UNL     1      -0.708   1.316  -0.950  1.00  0.00    -0.131 NA  
ATOM     21  N2  UNL     1      -0.113   1.156   1.143  1.00  0.00    -0.179 N   
ATOM     22  N5  UNL     1      -0.791   1.903   0.232  1.00  0.00    -0.071 NA  
BRANCH  21  23
ATOM     23  C15 UNL     1      -0.123   1.474   2.519  1.00  0.00     0.081 A   
ATOM     24  C16 UNL     1       0.618   0.732   3.455  1.00  0.00     0.028 A   
ATOM     25  C21 UNL     1      -0.902   2.533   3.022  1.00  0.00     0.080 A   
ATOM     26  C17 UNL     1       0.580   1.046   4.816  1.00  0.00     0.003 A   
ATOM     27  C19 UNL     1      -0.959   2.852   4.375  1.00  0.00     0.019 A   
ATOM     28  N4  UNL     1      -1.739   3.436   2.413  1.00  0.00    -0.236 N   
ATOM     29  C18 UNL     1      -0.204   2.103   5.292  1.00  0.00     0.012 A   
ATOM     30  C20 UNL     1      -1.853   3.943   4.450  1.00  0.00     0.141 A   
ATOM     31  N3  UNL     1      -2.344   4.287   3.257  1.00  0.00    -0.192 NA  
ATOM     32  H23 UNL     1      -1.943   3.507   1.420  1.00  0.00     0.176 HD  
ENDBRANCH  21  23
ENDBRANCH   1  18
TORSDOF 6
