REMARK SMILES CC(C)[C@H]([NH2+]Cc1ccc2c(c1)OCO2)c1cn(CCc2[nH]nc3c2COCC3)nn1
REMARK SMILES IDX 16 1 17 2 18 3 30 4 31 5 4 7 2 8 1 9 3 10 5 11 6 14 7 15
REMARK SMILES IDX 8 16 12 17 9 18 11 19 10 20 13 21 15 22 14 23 19 24 20 25
REMARK SMILES IDX 21 26 22 27 25 28 23 29 24 30 26 31 29 32 27 33 28 34
REMARK H PARENT 17 6 5 12 5 13 22 35
ROOT
ATOM     1   C13 UNL     1       1.224   0.995   0.225  1.00  0.00     0.127 A   
ATOM     2   C14 UNL     1       0.798   0.911   1.537  1.00  0.00     0.045 A   
ATOM     3   N2  UNL     1       1.784   0.184   2.156  1.00  0.00    -0.212 N   
ATOM     4   N5  UNL     1       2.812  -0.043   1.316  1.00  0.00    -0.076 NA  
ATOM     5   N6  UNL     1       2.474   0.436   0.129  1.00  0.00    -0.132 NA  
ATOM     6   H18 UNL     1      -0.134   1.151   2.034  1.00  0.00     0.083 HD  
ENDROOT
BRANCH   1   7
ATOM     7   C4  UNL     1       0.501   1.402  -1.024  1.00  0.00     0.117 C   
BRANCH   7   8
ATOM     8   C2  UNL     1       0.108   2.905  -1.095  1.00  0.00     0.037 C   
ATOM     9   C1  UNL     1      -0.968   3.353  -0.098  1.00  0.00     0.014 C   
ATOM     10  C3  UNL     1       1.340   3.813  -0.961  1.00  0.00     0.014 C   
ENDBRANCH   7   8
BRANCH   7  11
ATOM     11  N1  UNL     1      -0.702   0.513  -1.227  1.00  0.00     0.249 N   
ATOM     12  H9  UNL     1      -0.458  -0.463  -0.937  1.00  0.00     0.199 HD  
ATOM     13  H10 UNL     1      -1.434   0.751  -0.552  1.00  0.00     0.199 HD  
BRANCH  11  14
ATOM     14  C5  UNL     1      -1.271   0.415  -2.592  1.00  0.00     0.164 C   
BRANCH  14  15
ATOM     15  C6  UNL     1      -0.636  -0.661  -3.429  1.00  0.00    -0.002 A   
ATOM     16  C7  UNL     1      -1.156  -1.984  -3.383  1.00  0.00     0.012 A   
ATOM     17  C11 UNL     1       0.484  -0.383  -4.237  1.00  0.00     0.045 A   
ATOM     18  C8  UNL     1      -0.580  -3.010  -4.137  1.00  0.00     0.037 A   
ATOM     19  C10 UNL     1       1.029  -1.422  -4.966  1.00  0.00     0.109 A   
ATOM     20  C9  UNL     1       0.511  -2.698  -4.919  1.00  0.00     0.108 A   
ATOM     21  O1  UNL     1       2.105  -1.329  -5.791  1.00  0.00    -0.316 OA  
ATOM     22  O2  UNL     1       1.198  -3.565  -5.708  1.00  0.00    -0.316 OA  
ATOM     23  C12 UNL     1       2.206  -2.689  -6.273  1.00  0.00     0.337 C   
ENDBRANCH  14  15
ENDBRANCH  11  14
ENDBRANCH   7  11
ENDBRANCH   1   7
BRANCH   3  24
ATOM     24  C15 UNL     1       1.638  -0.621   3.358  1.00  0.00     0.140 C   
BRANCH  24  25
ATOM     25  C16 UNL     1       1.365  -2.104   3.033  1.00  0.00     0.075 C   
BRANCH  25  26
ATOM     26  C17 UNL     1       0.258  -2.270   2.038  1.00  0.00     0.034 A   
ATOM     27  N3  UNL     1       0.509  -2.265   0.685  1.00  0.00    -0.242 N   
ATOM     28  C19 UNL     1      -1.108  -2.390   2.152  1.00  0.00     0.020 A   
ATOM     29  N4  UNL     1      -0.613  -2.058  -0.055  1.00  0.00    -0.189 NA  
ATOM     30  C18 UNL     1      -1.587  -2.311   0.828  1.00  0.00     0.068 A   
ATOM     31  C20 UNL     1      -2.033  -2.528   3.306  1.00  0.00     0.199 C   
ATOM     32  C22 UNL     1      -3.038  -2.383   0.506  1.00  0.00     0.087 C   
ATOM     33  O3  UNL     1      -3.383  -2.187   2.928  1.00  0.00    -0.376 OA  
ATOM     34  C21 UNL     1      -3.804  -2.887   1.742  1.00  0.00     0.167 C   
ATOM     35  H23 UNL     1       1.420  -2.234   0.230  1.00  0.00     0.175 HD  
ENDBRANCH  25  26
ENDBRANCH  24  25
ENDBRANCH   3  24
TORSDOF 8
