REMARK SMILES Cc1cc(C)cc([C@H](CO)n2cc([C@@H]([NH2+]Cc3ccc4c(c3)OCO4)C(C)C)nn2)c1
REMARK SMILES IDX 11 1 12 2 13 3 29 4 30 5 8 7 7 8 2 9 3 10 31 11 4 12 6 13
REMARK SMILES IDX 1 14 5 15 9 16 10 17 14 19 15 20 16 23 17 24 18 25 22 26
REMARK SMILES IDX 19 27 21 28 20 29 23 30 25 31 24 32 26 33 27 34 28 35
REMARK H PARENT 12 6 10 18 15 21 15 22
ROOT
ATOM     1   N1  UNL     1       1.237   0.597   2.113  1.00  0.00    -0.202 N   
ATOM     2   C10 UNL     1       1.643   0.171   0.876  1.00  0.00     0.046 A   
ATOM     3   C11 UNL     1       0.540  -0.466   0.356  1.00  0.00     0.127 A   
ATOM     4   N3  UNL     1      -0.475  -0.428   1.279  1.00  0.00    -0.132 NA  
ATOM     5   N4  UNL     1      -0.034   0.205   2.354  1.00  0.00    -0.075 NA  
ATOM     6   H13 UNL     1       2.635   0.376   0.496  1.00  0.00     0.083 HD  
ENDROOT
BRANCH   1   7
ATOM     7   C8  UNL     1       1.959   1.411   3.089  1.00  0.00     0.155 C   
BRANCH   7   8
ATOM     8   C7  UNL     1       2.326   2.760   2.480  1.00  0.00    -0.023 A   
ATOM     9   C2  UNL     1       3.871   4.277   1.348  1.00  0.00    -0.051 A   
ATOM     10  C3  UNL     1       2.883   5.269   1.332  1.00  0.00     0.006 A   
ATOM     11  C24 UNL     1       3.590   3.034   1.935  1.00  0.00     0.009 A   
ATOM     12  C4  UNL     1       1.618   5.026   1.876  1.00  0.00    -0.051 A   
ATOM     13  C6  UNL     1       1.343   3.769   2.429  1.00  0.00     0.009 A   
ATOM     14  C1  UNL     1       5.238   4.560   0.793  1.00  0.00     0.044 C   
ATOM     15  C5  UNL     1       0.551   6.082   1.818  1.00  0.00     0.044 C   
ENDBRANCH   7   8
BRANCH   7  16
ATOM     16  C9  UNL     1       3.089   0.619   3.781  1.00  0.00     0.185 C   
BRANCH  16  17
ATOM     17  O1  UNL     1       4.031   0.050   2.868  1.00  0.00    -0.394 OA  
ATOM     18  H12 UNL     1       4.753  -0.326   3.408  1.00  0.00     0.210 HD  
ENDBRANCH  16  17
ENDBRANCH   7  16
ENDBRANCH   1   7
BRANCH   3  19
ATOM     19  C12 UNL     1       0.324  -1.127  -0.969  1.00  0.00     0.117 C   
BRANCH  19  20
ATOM     20  N2  UNL     1      -0.998  -1.849  -0.990  1.00  0.00     0.249 N   
ATOM     21  H15 UNL     1      -1.666  -1.252  -0.481  1.00  0.00     0.199 HD  
ATOM     22  H16 UNL     1      -1.370  -1.954  -1.937  1.00  0.00     0.199 HD  
BRANCH  20  23
ATOM     23  C13 UNL     1      -1.007  -3.178  -0.318  1.00  0.00     0.164 C   
BRANCH  23  24
ATOM     24  C14 UNL     1      -2.398  -3.746  -0.318  1.00  0.00    -0.002 A   
ATOM     25  C15 UNL     1      -3.286  -3.451   0.744  1.00  0.00     0.012 A   
ATOM     26  C19 UNL     1      -2.849  -4.514  -1.405  1.00  0.00     0.045 A   
ATOM     27  C16 UNL     1      -4.603  -3.923   0.733  1.00  0.00     0.037 A   
ATOM     28  C18 UNL     1      -4.154  -4.962  -1.387  1.00  0.00     0.109 A   
ATOM     29  C17 UNL     1      -5.007  -4.674  -0.349  1.00  0.00     0.108 A   
ATOM     30  O2  UNL     1      -4.747  -5.708  -2.355  1.00  0.00    -0.316 OA  
ATOM     31  O3  UNL     1      -6.244  -5.205  -0.533  1.00  0.00    -0.316 OA  
ATOM     32  C20 UNL     1      -6.073  -5.871  -1.802  1.00  0.00     0.337 C   
ENDBRANCH  23  24
ENDBRANCH  20  23
ENDBRANCH  19  20
BRANCH  19  33
ATOM     33  C21 UNL     1       0.400  -0.122  -2.149  1.00  0.00     0.037 C   
ATOM     34  C22 UNL     1      -0.743   0.900  -2.166  1.00  0.00     0.014 C   
ATOM     35  C23 UNL     1       0.479  -0.838  -3.503  1.00  0.00     0.014 C   
ENDBRANCH  19  33
ENDBRANCH   3  19
TORSDOF 9
