REMARK SMILES Cc1cc(C)cc([C@@H](CO)n2cc([C@@H]([NH2+]Cc3ccc4c(c3)OCO4)C(C)C)nn2)c1
REMARK SMILES IDX 11 1 12 2 13 3 29 4 30 5 8 7 7 8 2 9 3 10 31 11 4 12 6 13
REMARK SMILES IDX 1 14 5 15 9 16 10 17 14 19 15 20 16 23 17 24 18 25 22 26
REMARK SMILES IDX 19 27 21 28 20 29 23 30 25 31 24 32 26 33 27 34 28 35
REMARK H PARENT 12 6 10 18 15 21 15 22
ROOT
ATOM     1   N1  UNL     1       0.846  -1.394   1.927  1.00  0.00    -0.202 N   
ATOM     2   C10 UNL     1      -0.066  -1.442   0.906  1.00  0.00     0.046 A   
ATOM     3   C11 UNL     1       0.700  -1.413  -0.235  1.00  0.00     0.127 A   
ATOM     4   N3  UNL     1       2.025  -1.346   0.115  1.00  0.00    -0.132 NA  
ATOM     5   N4  UNL     1       2.103  -1.329   1.435  1.00  0.00    -0.075 NA  
ATOM     6   H13 UNL     1      -1.131  -1.495   1.090  1.00  0.00     0.083 HD  
ENDROOT
BRANCH   1   7
ATOM     7   C8  UNL     1       0.616  -1.388   3.372  1.00  0.00     0.155 C   
BRANCH   7   8
ATOM     8   C7  UNL     1      -0.311  -0.243   3.762  1.00  0.00    -0.023 A   
ATOM     9   C2  UNL     1      -0.571   2.139   4.269  1.00  0.00    -0.051 A   
ATOM     10  C3  UNL     1      -1.942   1.940   4.466  1.00  0.00     0.006 A   
ATOM     11  C24 UNL     1       0.233   1.046   3.924  1.00  0.00     0.009 A   
ATOM     12  C4  UNL     1      -2.513   0.675   4.290  1.00  0.00    -0.051 A   
ATOM     13  C6  UNL     1      -1.692  -0.409   3.948  1.00  0.00     0.009 A   
ATOM     14  C1  UNL     1       0.035   3.492   4.496  1.00  0.00     0.044 C   
ATOM     15  C5  UNL     1      -3.982   0.472   4.532  1.00  0.00     0.044 C   
ENDBRANCH   7   8
BRANCH   7  16
ATOM     16  C9  UNL     1       0.261  -2.796   3.897  1.00  0.00     0.185 C   
BRANCH  16  17
ATOM     17  O1  UNL     1      -0.880  -3.370   3.255  1.00  0.00    -0.394 OA  
ATOM     18  H12 UNL     1      -1.037  -4.235   3.682  1.00  0.00     0.210 HD  
ENDBRANCH  16  17
ENDBRANCH   7  16
ENDBRANCH   1   7
BRANCH   3  19
ATOM     19  C12 UNL     1       0.312  -1.417  -1.678  1.00  0.00     0.117 C   
BRANCH  19  20
ATOM     20  N2  UNL     1       1.408  -0.798  -2.513  1.00  0.00     0.249 N   
ATOM     21  H15 UNL     1       2.290  -1.187  -2.150  1.00  0.00     0.199 HD  
ATOM     22  H16 UNL     1       1.332  -1.079  -3.492  1.00  0.00     0.199 HD  
BRANCH  20  23
ATOM     23  C13 UNL     1       1.523   0.689  -2.438  1.00  0.00     0.164 C   
BRANCH  23  24
ATOM     24  C14 UNL     1       0.425   1.389  -3.191  1.00  0.00    -0.002 A   
ATOM     25  C15 UNL     1       0.420   1.395  -4.608  1.00  0.00     0.012 A   
ATOM     26  C19 UNL     1      -0.621   2.018  -2.494  1.00  0.00     0.045 A   
ATOM     27  C16 UNL     1      -0.613   2.013  -5.321  1.00  0.00     0.037 A   
ATOM     28  C18 UNL     1      -1.624   2.617  -3.227  1.00  0.00     0.109 A   
ATOM     29  C17 UNL     1      -1.621   2.613  -4.600  1.00  0.00     0.108 A   
ATOM     30  O2  UNL     1      -2.704   3.259  -2.712  1.00  0.00    -0.316 OA  
ATOM     31  O3  UNL     1      -2.698   3.254  -5.122  1.00  0.00    -0.316 OA  
ATOM     32  C20 UNL     1      -3.371   3.687  -3.921  1.00  0.00     0.337 C   
ENDBRANCH  23  24
ENDBRANCH  20  23
ENDBRANCH  19  20
BRANCH  19  33
ATOM     33  C21 UNL     1      -0.013  -2.845  -2.193  1.00  0.00     0.037 C   
ATOM     34  C22 UNL     1       1.205  -3.775  -2.266  1.00  0.00     0.014 C   
ATOM     35  C23 UNL     1      -0.718  -2.808  -3.555  1.00  0.00     0.014 C   
ENDBRANCH  19  33
ENDBRANCH   3  19
TORSDOF 9
