REMARK SMILES Cc1occc1[C@H](CO)n1cc([C@@H]([NH2+]Cc2ccc3c(c2)OCO3)C(C)C)nn1
REMARK SMILES IDX 10 1 11 2 12 3 28 4 29 5 7 7 6 8 2 9 3 10 4 11 5 12 1 13
REMARK SMILES IDX 8 14 9 15 13 17 14 18 15 21 16 22 17 23 21 24 18 25 20 26
REMARK SMILES IDX 19 27 22 28 24 29 23 30 25 31 26 32 27 33
REMARK H PARENT 11 6 9 16 14 19 14 20
ROOT
ATOM     1   N1  UNL     1      -1.060  -0.326   2.564  1.00  0.00    -0.202 N   
ATOM     2   C8  UNL     1      -1.202   0.092   1.267  1.00  0.00     0.046 A   
ATOM     3   C9  UNL     1      -0.400  -0.761   0.545  1.00  0.00     0.127 A   
ATOM     4   N3  UNL     1       0.214  -1.636   1.405  1.00  0.00    -0.132 NA  
ATOM     5   N4  UNL     1      -0.186  -1.354   2.635  1.00  0.00    -0.075 NA  
ATOM     6   H10 UNL     1      -1.835   0.927   0.998  1.00  0.00     0.083 HD  
ENDROOT
BRANCH   1   7
ATOM     7   C6  UNL     1      -1.683   0.196   3.780  1.00  0.00     0.157 C   
BRANCH   7   8
ATOM     8   C5  UNL     1      -3.165   0.396   3.576  1.00  0.00     0.005 A   
ATOM     9   C2  UNL     1      -4.135  -0.598   3.580  1.00  0.00     0.061 A   
ATOM     10  O1  UNL     1      -5.366  -0.064   3.363  1.00  0.00    -0.322 OA  
ATOM     11  C3  UNL     1      -5.206   1.274   3.224  1.00  0.00     0.136 A   
ATOM     12  C4  UNL     1      -3.880   1.611   3.342  1.00  0.00     0.034 A   
ATOM     13  C1  UNL     1      -4.088  -2.067   3.761  1.00  0.00     0.073 C   
ENDBRANCH   7   8
BRANCH   7  14
ATOM     14  C7  UNL     1      -0.918   1.418   4.318  1.00  0.00     0.186 C   
BRANCH  14  15
ATOM     15  O2  UNL     1      -0.832   2.485   3.369  1.00  0.00    -0.394 OA  
ATOM     16  H9  UNL     1      -0.481   3.262   3.846  1.00  0.00     0.210 HD  
ENDBRANCH  14  15
ENDBRANCH   7  14
ENDBRANCH   1   7
BRANCH   3  17
ATOM     17  C10 UNL     1      -0.098  -0.812  -0.917  1.00  0.00     0.117 C   
BRANCH  17  18
ATOM     18  N2  UNL     1       1.315  -1.294  -1.155  1.00  0.00     0.249 N   
ATOM     19  H12 UNL     1       1.419  -2.164  -0.616  1.00  0.00     0.199 HD  
ATOM     20  H13 UNL     1       1.456  -1.522  -2.141  1.00  0.00     0.199 HD  
BRANCH  18  21
ATOM     21  C11 UNL     1       2.408  -0.375  -0.710  1.00  0.00     0.164 C   
BRANCH  21  22
ATOM     22  C12 UNL     1       2.426   0.926  -1.465  1.00  0.00    -0.002 A   
ATOM     23  C13 UNL     1       2.008   2.121  -0.830  1.00  0.00     0.012 A   
ATOM     24  C17 UNL     1       2.822   0.961  -2.814  1.00  0.00     0.045 A   
ATOM     25  C14 UNL     1       1.974   3.333  -1.528  1.00  0.00     0.037 A   
ATOM     26  C16 UNL     1       2.776   2.173  -3.473  1.00  0.00     0.109 A   
ATOM     27  C15 UNL     1       2.361   3.325  -2.850  1.00  0.00     0.108 A   
ATOM     28  O3  UNL     1       3.116   2.378  -4.772  1.00  0.00    -0.316 OA  
ATOM     29  O4  UNL     1       2.388   4.400  -3.679  1.00  0.00    -0.316 OA  
ATOM     30  C18 UNL     1       2.897   3.803  -4.891  1.00  0.00     0.337 C   
ENDBRANCH  21  22
ENDBRANCH  18  21
ENDBRANCH  17  18
BRANCH  17  31
ATOM     31  C19 UNL     1      -1.107  -1.701  -1.694  1.00  0.00     0.037 C   
ATOM     32  C20 UNL     1      -0.994  -3.198  -1.385  1.00  0.00     0.014 C   
ATOM     33  C21 UNL     1      -1.007  -1.478  -3.208  1.00  0.00     0.014 C   
ENDBRANCH  17  31
ENDBRANCH   3  17
TORSDOF 9
