REMARK SMILES Cc1occc1[C@@H](CO)n1cc([C@@H]([NH2+]Cc2ccc3c(c2)OCO3)C(C)C)nn1
REMARK SMILES IDX 10 1 11 2 12 3 28 4 29 5 7 7 6 8 2 9 3 10 4 11 5 12 1 13
REMARK SMILES IDX 8 14 9 15 13 17 14 18 15 21 16 22 17 23 21 24 18 25 20 26
REMARK SMILES IDX 19 27 22 28 24 29 23 30 25 31 26 32 27 33
REMARK H PARENT 11 6 9 16 14 19 14 20
ROOT
ATOM     1   N1  UNL     1       0.617   2.407   0.465  1.00  0.00    -0.202 N   
ATOM     2   C8  UNL     1       1.100   1.532  -0.472  1.00  0.00     0.046 A   
ATOM     3   C9  UNL     1       0.077   0.632  -0.657  1.00  0.00     0.127 A   
ATOM     4   N3  UNL     1      -0.976   0.977   0.153  1.00  0.00    -0.132 NA  
ATOM     5   N4  UNL     1      -0.635   2.058   0.834  1.00  0.00    -0.075 NA  
ATOM     6   H10 UNL     1       2.092   1.634  -0.893  1.00  0.00     0.083 HD  
ENDROOT
BRANCH   1   7
ATOM     7   C6  UNL     1       1.279   3.551   1.090  1.00  0.00     0.157 C   
BRANCH   7   8
ATOM     8   C5  UNL     1       2.559   3.107   1.752  1.00  0.00     0.005 A   
ATOM     9   C2  UNL     1       2.678   2.494   2.993  1.00  0.00     0.061 A   
ATOM     10  O1  UNL     1       3.981   2.214   3.265  1.00  0.00    -0.322 OA  
ATOM     11  C3  UNL     1       4.715   2.654   2.216  1.00  0.00     0.136 A   
ATOM     12  C4  UNL     1       3.897   3.204   1.260  1.00  0.00     0.034 A   
ATOM     13  C1  UNL     1       1.714   2.092   4.042  1.00  0.00     0.073 C   
ENDBRANCH   7   8
BRANCH   7  14
ATOM     14  C7  UNL     1       1.408   4.739   0.119  1.00  0.00     0.186 C   
BRANCH  14  15
ATOM     15  O2  UNL     1       2.157   4.425  -1.057  1.00  0.00    -0.394 OA  
ATOM     16  H9  UNL     1       2.234   5.250  -1.572  1.00  0.00     0.210 HD  
ENDBRANCH  14  15
ENDBRANCH   7  14
ENDBRANCH   1   7
BRANCH   3  17
ATOM     17  C10 UNL     1      -0.014  -0.590  -1.513  1.00  0.00     0.117 C   
BRANCH  17  18
ATOM     18  N2  UNL     1      -0.978  -1.576  -0.911  1.00  0.00     0.249 N   
ATOM     19  H12 UNL     1      -1.804  -1.036  -0.613  1.00  0.00     0.199 HD  
ATOM     20  H13 UNL     1      -1.312  -2.260  -1.596  1.00  0.00     0.199 HD  
BRANCH  18  21
ATOM     21  C11 UNL     1      -0.473  -2.300   0.290  1.00  0.00     0.164 C   
BRANCH  21  22
ATOM     22  C12 UNL     1      -1.547  -3.182   0.860  1.00  0.00    -0.002 A   
ATOM     23  C13 UNL     1      -1.628  -4.546   0.494  1.00  0.00     0.012 A   
ATOM     24  C17 UNL     1      -2.514  -2.636   1.724  1.00  0.00     0.045 A   
ATOM     25  C14 UNL     1      -2.650  -5.362   0.991  1.00  0.00     0.037 A   
ATOM     26  C16 UNL     1      -3.509  -3.469   2.193  1.00  0.00     0.109 A   
ATOM     27  C15 UNL     1      -3.575  -4.793   1.838  1.00  0.00     0.108 A   
ATOM     28  O3  UNL     1      -4.514  -3.104   3.030  1.00  0.00    -0.316 OA  
ATOM     29  O4  UNL     1      -4.629  -5.431   2.409  1.00  0.00    -0.316 OA  
ATOM     30  C18 UNL     1      -5.215  -4.360   3.181  1.00  0.00     0.337 C   
ENDBRANCH  21  22
ENDBRANCH  18  21
ENDBRANCH  17  18
BRANCH  17  31
ATOM     31  C19 UNL     1      -0.423  -0.255  -2.971  1.00  0.00     0.037 C   
ATOM     32  C20 UNL     1      -0.197  -1.447  -3.910  1.00  0.00     0.014 C   
ATOM     33  C21 UNL     1      -1.864   0.249  -3.115  1.00  0.00     0.014 C   
ENDBRANCH  17  31
ENDBRANCH   3  17
TORSDOF 9
