REMARK SMILES CC(C)[C@H]([NH2+]Cc1ccc2c(c1)OCO2)c1cn(-c2ccc3c(c2)C(=O)c2ccccc2C3=O)nn1
REMARK SMILES IDX 4 1 2 2 1 3 3 4 5 5 6 8 7 9 8 10 12 11 9 12 11 13 10 14
REMARK SMILES IDX 13 15 15 16 14 17 16 18 17 19 36 20 18 21 35 22 19 23 20 24
REMARK SMILES IDX 24 25 21 26 23 27 22 28 25 29 33 30 27 31 32 32 28 33 31 34
REMARK SMILES IDX 29 35 30 36 26 37 34 38
REMARK H PARENT 5 6 5 7
ROOT
ATOM     1   C4  UNL     1      -2.057   1.436  -0.775  1.00  0.00     0.117 C   
ENDROOT
BRANCH   1   2
ATOM     2   C2  UNL     1      -3.351   0.578  -0.835  1.00  0.00     0.037 C   
ATOM     3   C1  UNL     1      -4.614   1.446  -0.752  1.00  0.00     0.014 C   
ATOM     4   C3  UNL     1      -3.430  -0.340  -2.063  1.00  0.00     0.014 C   
ENDBRANCH   1   2
BRANCH   1   5
ATOM     5   N1  UNL     1      -1.911   2.240  -2.038  1.00  0.00     0.249 N   
ATOM     6   H9  UNL     1      -1.486   1.617  -2.744  1.00  0.00     0.199 HD  
ATOM     7   H10 UNL     1      -2.817   2.526  -2.422  1.00  0.00     0.199 HD  
BRANCH   5   8
ATOM     8   C5  UNL     1      -1.042   3.447  -1.937  1.00  0.00     0.164 C   
BRANCH   8   9
ATOM     9   C6  UNL     1      -0.912   4.103  -3.282  1.00  0.00    -0.002 A   
ATOM     10  C7  UNL     1      -1.857   5.068  -3.704  1.00  0.00     0.012 A   
ATOM     11  C11 UNL     1       0.115   3.703  -4.159  1.00  0.00     0.045 A   
ATOM     12  C8  UNL     1      -1.780   5.636  -4.980  1.00  0.00     0.037 A   
ATOM     13  C10 UNL     1       0.160   4.285  -5.410  1.00  0.00     0.109 A   
ATOM     14  C9  UNL     1      -0.762   5.222  -5.810  1.00  0.00     0.108 A   
ATOM     15  O1  UNL     1       1.072   4.010  -6.377  1.00  0.00    -0.316 OA  
ATOM     16  O2  UNL     1      -0.544   5.652  -7.079  1.00  0.00    -0.316 OA  
ATOM     17  C12 UNL     1       0.639   4.902  -7.428  1.00  0.00     0.337 C   
ENDBRANCH   8   9
ENDBRANCH   5   8
ENDBRANCH   1   5
BRANCH   1  18
ATOM     18  C13 UNL     1      -0.839   0.593  -0.542  1.00  0.00     0.127 A   
ATOM     19  C14 UNL     1      -0.373  -0.037   0.590  1.00  0.00     0.135 A   
ATOM     20  N4  UNL     1       0.021   0.346  -1.574  1.00  0.00    -0.131 NA  
ATOM     21  N2  UNL     1       0.775  -0.695   0.189  1.00  0.00    -0.181 N   
ATOM     22  N3  UNL     1       0.999  -0.419  -1.121  1.00  0.00    -0.071 NA  
BRANCH  21  23
ATOM     23  C15 UNL     1       1.631  -1.543   0.937  1.00  0.00     0.058 A   
ATOM     24  C16 UNL     1       2.750  -2.123   0.319  1.00  0.00     0.027 A   
ATOM     25  C20 UNL     1       1.368  -1.823   2.284  1.00  0.00     0.039 A   
ATOM     26  C17 UNL     1       3.592  -2.977   1.040  1.00  0.00     0.015 A   
ATOM     27  C19 UNL     1       2.216  -2.686   3.002  1.00  0.00     0.036 A   
ATOM     28  C18 UNL     1       3.322  -3.261   2.383  1.00  0.00     0.034 A   
ATOM     29  C21 UNL     1       1.915  -2.978   4.417  1.00  0.00     0.194 C   
ATOM     30  C28 UNL     1       4.211  -4.172   3.134  1.00  0.00     0.194 C   
ATOM     31  C22 UNL     1       2.776  -3.923   5.157  1.00  0.00     0.034 A   
ATOM     32  C27 UNL     1       3.885  -4.501   4.536  1.00  0.00     0.034 A   
ATOM     33  C23 UNL     1       2.475  -4.239   6.487  1.00  0.00     0.013 A   
ATOM     34  C26 UNL     1       4.694  -5.399   5.244  1.00  0.00     0.013 A   
ATOM     35  C24 UNL     1       3.283  -5.135   7.191  1.00  0.00     0.001 A   
ATOM     36  C25 UNL     1       4.391  -5.715   6.569  1.00  0.00     0.001 A   
ATOM     37  O3  UNL     1       0.954  -2.438   4.956  1.00  0.00    -0.289 OA  
ATOM     38  O4  UNL     1       5.204  -4.643   2.594  1.00  0.00    -0.289 OA  
ENDBRANCH  21  23
ENDBRANCH   1  18
TORSDOF 6
