REMARK SMILES c1cc2c(cc1C[NH2+][C@H](c1cn(Cc3cnoc3C3CC3)nn1)C1CCCCC1)OCO2
REMARK SMILES IDX 10 1 11 2 12 3 22 4 23 5 9 7 8 8 7 11 6 12 1 13 2 14 3 15
REMARK SMILES IDX 5 16 4 17 32 18 30 19 31 20 24 21 25 22 29 23 26 24 28 25
REMARK SMILES IDX 27 26 13 27 14 28 15 29 18 30 16 31 17 32 19 33 20 34 21 35
REMARK H PARENT 11 6 8 9 8 10
ROOT
ATOM     1   C9  UNL     1       0.403   0.329   1.873  1.00  0.00     0.127 A   
ATOM     2   C10 UNL     1      -0.249   1.492   2.223  1.00  0.00     0.046 A   
ATOM     3   N2  UNL     1       0.394   1.908   3.357  1.00  0.00    -0.208 N   
ATOM     4   N4  UNL     1       1.395   1.065   3.672  1.00  0.00    -0.076 NA  
ATOM     5   N5  UNL     1       1.418   0.104   2.765  1.00  0.00    -0.132 NA  
ATOM     6   H9  UNL     1      -1.077   2.038   1.794  1.00  0.00     0.083 HD  
ENDROOT
BRANCH   1   7
ATOM     7   C8  UNL     1       0.211  -0.634   0.739  1.00  0.00     0.117 C   
BRANCH   7   8
ATOM     8   N1  UNL     1       1.482  -1.437   0.545  1.00  0.00     0.249 N   
ATOM     9   H6  UNL     1       1.849  -1.621   1.491  1.00  0.00     0.199 HD  
ATOM     10  H7  UNL     1       1.287  -2.347   0.117  1.00  0.00     0.199 HD  
BRANCH   8  11
ATOM     11  C7  UNL     1       2.564  -0.751  -0.224  1.00  0.00     0.164 C   
BRANCH  11  12
ATOM     12  C6  UNL     1       2.349  -0.858  -1.709  1.00  0.00    -0.002 A   
ATOM     13  C1  UNL     1       1.875   0.248  -2.451  1.00  0.00     0.012 A   
ATOM     14  C2  UNL     1       1.642   0.145  -3.828  1.00  0.00     0.037 A   
ATOM     15  C3  UNL     1       1.893  -1.066  -4.436  1.00  0.00     0.108 A   
ATOM     16  C5  UNL     1       2.601  -2.076  -2.368  1.00  0.00     0.045 A   
ATOM     17  C4  UNL     1       2.362  -2.144  -3.726  1.00  0.00     0.109 A   
ATOM     18  O3  UNL     1       1.731  -1.346  -5.755  1.00  0.00    -0.316 OA  
ATOM     19  O2  UNL     1       2.553  -3.238  -4.509  1.00  0.00    -0.316 OA  
ATOM     20  C24 UNL     1       2.159  -2.724  -5.802  1.00  0.00     0.337 C   
ENDBRANCH  11  12
ENDBRANCH   8  11
ENDBRANCH   7   8
BRANCH   7  21
ATOM     21  C18 UNL     1      -0.964  -1.627   0.936  1.00  0.00     0.043 C   
ATOM     22  C19 UNL     1      -0.883  -2.446   2.240  1.00  0.00     0.010 C   
ATOM     23  C23 UNL     1      -2.327  -0.918   0.834  1.00  0.00     0.010 C   
ATOM     24  C20 UNL     1      -2.055  -3.417   2.373  1.00  0.00     0.001 C   
ATOM     25  C22 UNL     1      -3.487  -1.901   0.957  1.00  0.00     0.001 C   
ATOM     26  C21 UNL     1      -3.399  -2.706   2.248  1.00  0.00     0.000 C   
ENDBRANCH   7  21
ENDBRANCH   1   7
BRANCH   3  27
ATOM     27  C11 UNL     1       0.095   3.050   4.207  1.00  0.00     0.173 C   
BRANCH  27  28
ATOM     28  C12 UNL     1       1.128   4.097   4.047  1.00  0.00     0.021 A   
ATOM     29  C13 UNL     1       2.368   4.159   4.728  1.00  0.00     0.149 A   
ATOM     30  C14 UNL     1       1.162   5.207   3.229  1.00  0.00     0.094 A   
ATOM     31  N3  UNL     1       3.112   5.196   4.344  1.00  0.00    -0.137 NA  
ATOM     32  O1  UNL     1       2.345   5.863   3.407  1.00  0.00    -0.218 OA  
BRANCH  30  33
ATOM     33  C15 UNL     1       0.061   5.662   2.229  1.00  0.00     0.046 C   
ATOM     34  C16 UNL     1       0.408   5.716   0.763  1.00  0.00     0.011 C   
ATOM     35  C17 UNL     1       0.216   6.990   1.533  1.00  0.00     0.011 C   
ENDBRANCH  30  33
ENDBRANCH  27  28
ENDBRANCH   3  27
TORSDOF 8
