REMARK SMILES CC(C)[C@H]([NH2+]Cc1ccc2c(c1)OCO2)c1cn(Cc2ccc3c(c2)C[C@H](C)O3)nn1
REMARK SMILES IDX 16 1 17 2 18 3 30 4 31 5 4 7 2 8 1 9 3 10 5 11 6 14 7 15
REMARK SMILES IDX 8 16 12 17 9 18 11 19 10 20 13 21 15 22 14 23 19 24 20 25
REMARK SMILES IDX 21 26 25 27 22 28 24 29 23 30 26 31 29 32 27 33 28 34
REMARK H PARENT 17 6 5 12 5 13
ROOT
ATOM     1   C13 UNL     1       1.369   1.964  -1.121  1.00  0.00     0.127 A   
ATOM     2   C14 UNL     1       1.341   1.962   0.256  1.00  0.00     0.046 A   
ATOM     3   N2  UNL     1       0.666   3.110   0.571  1.00  0.00    -0.208 N   
ATOM     4   N3  UNL     1       0.355   3.804  -0.540  1.00  0.00    -0.076 NA  
ATOM     5   N4  UNL     1       0.774   3.108  -1.584  1.00  0.00    -0.132 NA  
ATOM     6   H18 UNL     1       1.656   1.249   1.005  1.00  0.00     0.083 HD  
ENDROOT
BRANCH   1   7
ATOM     7   C4  UNL     1       1.791   0.907  -2.086  1.00  0.00     0.117 C   
BRANCH   7   8
ATOM     8   C2  UNL     1       3.161   1.162  -2.764  1.00  0.00     0.037 C   
ATOM     9   C1  UNL     1       3.237   2.448  -3.596  1.00  0.00     0.014 C   
ATOM     10  C3  UNL     1       4.301   1.145  -1.739  1.00  0.00     0.014 C   
ENDBRANCH   7   8
BRANCH   7  11
ATOM     11  N1  UNL     1       0.738   0.731  -3.162  1.00  0.00     0.249 N   
ATOM     12  H9  UNL     1       0.607   1.654  -3.597  1.00  0.00     0.199 HD  
ATOM     13  H10 UNL     1       1.082   0.093  -3.885  1.00  0.00     0.199 HD  
BRANCH  11  14
ATOM     14  C5  UNL     1      -0.617   0.283  -2.706  1.00  0.00     0.164 C   
BRANCH  14  15
ATOM     15  C6  UNL     1      -0.603  -1.036  -1.985  1.00  0.00    -0.002 A   
ATOM     16  C7  UNL     1      -0.349  -2.238  -2.688  1.00  0.00     0.012 A   
ATOM     17  C11 UNL     1      -0.808  -1.078  -0.593  1.00  0.00     0.045 A   
ATOM     18  C8  UNL     1      -0.288  -3.463  -2.015  1.00  0.00     0.037 A   
ATOM     19  C10 UNL     1      -0.733  -2.301   0.040  1.00  0.00     0.109 A   
ATOM     20  C9  UNL     1      -0.480  -3.460  -0.651  1.00  0.00     0.108 A   
ATOM     21  O1  UNL     1      -0.883  -2.514   1.374  1.00  0.00    -0.316 OA  
ATOM     22  O2  UNL     1      -0.448  -4.549   0.158  1.00  0.00    -0.316 OA  
ATOM     23  C12 UNL     1      -0.743  -3.951   1.438  1.00  0.00     0.337 C   
ENDBRANCH  14  15
ENDBRANCH  11  14
ENDBRANCH   7  11
ENDBRANCH   1   7
BRANCH   3  24
ATOM     24  C15 UNL     1       0.167   3.520   1.873  1.00  0.00     0.169 C   
BRANCH  24  25
ATOM     25  C16 UNL     1      -1.112   2.779   2.187  1.00  0.00    -0.028 A   
ATOM     26  C17 UNL     1      -2.338   3.233   1.647  1.00  0.00     0.008 A   
ATOM     27  C21 UNL     1      -1.088   1.610   2.968  1.00  0.00     0.012 A   
ATOM     28  C18 UNL     1      -3.525   2.535   1.876  1.00  0.00     0.034 A   
ATOM     29  C20 UNL     1      -2.275   0.927   3.174  1.00  0.00    -0.015 A   
ATOM     30  C19 UNL     1      -3.464   1.386   2.635  1.00  0.00     0.079 A   
ATOM     31  C22 UNL     1      -2.539  -0.282   3.987  1.00  0.00     0.070 C   
ATOM     32  O3  UNL     1      -4.549   0.608   2.932  1.00  0.00    -0.343 OA  
ATOM     33  C23 UNL     1      -3.994  -0.568   3.578  1.00  0.00     0.126 C   
ATOM     34  C24 UNL     1      -4.117  -1.746   2.615  1.00  0.00     0.039 C   
ENDBRANCH  24  25
ENDBRANCH   3  24
TORSDOF 7
