REMARK SMILES CC(C)[C@H]([NH2+]Cc1ccc2c(c1)OCO2)c1cn(Cc2ccc3c(c2)C[C@@H](C)O3)nn1
REMARK SMILES IDX 16 1 17 2 18 3 30 4 31 5 4 7 2 8 1 9 3 10 5 11 6 14 7 15
REMARK SMILES IDX 8 16 12 17 9 18 11 19 10 20 13 21 15 22 14 23 19 24 20 25
REMARK SMILES IDX 21 26 25 27 22 28 24 29 23 30 26 31 29 32 27 33 28 34
REMARK H PARENT 17 6 5 12 5 13
ROOT
ATOM     1   C13 UNL     1       0.438   1.392  -1.846  1.00  0.00     0.127 A   
ATOM     2   C14 UNL     1      -0.936   1.463  -1.778  1.00  0.00     0.046 A   
ATOM     3   N2  UNL     1      -1.358   0.686  -2.822  1.00  0.00    -0.208 N   
ATOM     4   N3  UNL     1      -0.308   0.203  -3.515  1.00  0.00    -0.076 NA  
ATOM     5   N4  UNL     1       0.797   0.629  -2.926  1.00  0.00    -0.132 NA  
ATOM     6   H18 UNL     1      -1.624   1.923  -1.084  1.00  0.00     0.083 HD  
ENDROOT
BRANCH   1   7
ATOM     7   C4  UNL     1       1.487   1.900  -0.912  1.00  0.00     0.117 C   
BRANCH   7   8
ATOM     8   C2  UNL     1       2.069   3.268  -1.359  1.00  0.00     0.037 C   
ATOM     9   C1  UNL     1       2.921   3.208  -2.633  1.00  0.00     0.014 C   
ATOM     10  C3  UNL     1       2.875   3.932  -0.235  1.00  0.00     0.014 C   
ENDBRANCH   7   8
BRANCH   7  11
ATOM     11  N1  UNL     1       2.594   0.884  -0.746  1.00  0.00     0.249 N   
ATOM     12  H9  UNL     1       3.365   1.280  -0.205  1.00  0.00     0.199 HD  
ATOM     13  H10 UNL     1       2.947   0.679  -1.690  1.00  0.00     0.199 HD  
BRANCH  11  14
ATOM     14  C5  UNL     1       2.205  -0.430  -0.143  1.00  0.00     0.164 C   
BRANCH  14  15
ATOM     15  C6  UNL     1       1.671  -0.308   1.256  1.00  0.00    -0.002 A   
ATOM     16  C7  UNL     1       2.539  -0.009   2.334  1.00  0.00     0.012 A   
ATOM     17  C11 UNL     1       0.293  -0.456   1.497  1.00  0.00     0.045 A   
ATOM     18  C8  UNL     1       2.043   0.147   3.633  1.00  0.00     0.037 A   
ATOM     19  C10 UNL     1      -0.163  -0.290   2.788  1.00  0.00     0.109 A   
ATOM     20  C9  UNL     1       0.687   0.003   3.826  1.00  0.00     0.108 A   
ATOM     21  O1  UNL     1      -1.458  -0.382   3.187  1.00  0.00    -0.316 OA  
ATOM     22  O2  UNL     1       0.034   0.126   5.011  1.00  0.00    -0.316 OA  
ATOM     23  C12 UNL     1      -1.325  -0.150   4.608  1.00  0.00     0.337 C   
ENDBRANCH  14  15
ENDBRANCH  11  14
ENDBRANCH   7  11
ENDBRANCH   1   7
BRANCH   3  24
ATOM     24  C15 UNL     1      -2.716   0.290  -3.151  1.00  0.00     0.169 C   
BRANCH  24  25
ATOM     25  C16 UNL     1      -3.178  -0.807  -2.221  1.00  0.00    -0.028 A   
ATOM     26  C17 UNL     1      -3.933  -0.494  -1.067  1.00  0.00     0.008 A   
ATOM     27  C21 UNL     1      -2.810  -2.142  -2.470  1.00  0.00     0.012 A   
ATOM     28  C18 UNL     1      -4.313  -1.492  -0.166  1.00  0.00     0.034 A   
ATOM     29  C20 UNL     1      -3.211  -3.117  -1.573  1.00  0.00    -0.015 A   
ATOM     30  C19 UNL     1      -3.944  -2.789  -0.445  1.00  0.00     0.079 A   
ATOM     31  C22 UNL     1      -2.922  -4.569  -1.560  1.00  0.00     0.070 C   
ATOM     32  O3  UNL     1      -4.235  -3.861   0.354  1.00  0.00    -0.343 OA  
ATOM     33  C23 UNL     1      -3.926  -5.008  -0.482  1.00  0.00     0.126 C   
ATOM     34  C24 UNL     1      -3.389  -6.130   0.391  1.00  0.00     0.039 C   
ENDBRANCH  24  25
ENDBRANCH   3  24
TORSDOF 7
