REMARK SMILES CC(C)[C@H]([NH2+]Cc1ccc2c(c1)OCO2)c1cn(Cc2ccccc2O)nn1
REMARK SMILES IDX 16 1 17 2 18 3 27 4 28 5 4 7 2 8 1 9 3 10 5 11 6 14 7 15
REMARK SMILES IDX 8 16 12 17 9 18 11 19 10 20 13 21 15 22 14 23 19 24 20 25
REMARK SMILES IDX 21 26 25 27 22 28 24 29 23 30 26 31
REMARK H PARENT 17 6 5 12 5 13 26 32
ROOT
ATOM     1   C13 UNL     1      -2.088   0.401   0.277  1.00  0.00     0.127 A   
ATOM     2   C14 UNL     1      -1.454   0.890   1.396  1.00  0.00     0.046 A   
ATOM     3   N2  UNL     1      -1.946   0.124   2.417  1.00  0.00    -0.208 N   
ATOM     4   N3  UNL     1      -2.889  -0.727   1.963  1.00  0.00    -0.076 NA  
ATOM     5   N4  UNL     1      -2.977  -0.572   0.651  1.00  0.00    -0.132 NA  
ATOM     6   H18 UNL     1      -0.674   1.623   1.552  1.00  0.00     0.083 HD  
ENDROOT
BRANCH   1   7
ATOM     7   C4  UNL     1      -1.847   0.681  -1.166  1.00  0.00     0.117 C   
BRANCH   7   8
ATOM     8   C2  UNL     1      -2.858   1.668  -1.807  1.00  0.00     0.037 C   
ATOM     9   C1  UNL     1      -2.741   3.066  -1.185  1.00  0.00     0.014 C   
ATOM     10  C3  UNL     1      -4.319   1.207  -1.763  1.00  0.00     0.014 C   
ENDBRANCH   7   8
BRANCH   7  11
ATOM     11  N1  UNL     1      -1.845  -0.603  -1.975  1.00  0.00     0.249 N   
ATOM     12  H9  UNL     1      -1.743  -0.384  -2.969  1.00  0.00     0.199 HD  
ATOM     13  H10 UNL     1      -2.769  -1.034  -1.843  1.00  0.00     0.199 HD  
BRANCH  11  14
ATOM     14  C5  UNL     1      -0.843  -1.647  -1.587  1.00  0.00     0.164 C   
BRANCH  14  15
ATOM     15  C6  UNL     1       0.577  -1.154  -1.537  1.00  0.00    -0.002 A   
ATOM     16  C7  UNL     1       1.267  -0.802  -2.720  1.00  0.00     0.012 A   
ATOM     17  C11 UNL     1       1.221  -1.013  -0.293  1.00  0.00     0.045 A   
ATOM     18  C8  UNL     1       2.574  -0.305  -2.665  1.00  0.00     0.037 A   
ATOM     19  C10 UNL     1       2.506  -0.514  -0.272  1.00  0.00     0.109 A   
ATOM     20  C9  UNL     1       3.164  -0.170  -1.427  1.00  0.00     0.108 A   
ATOM     21  O1  UNL     1       3.257  -0.295   0.842  1.00  0.00    -0.316 OA  
ATOM     22  O2  UNL     1       4.415   0.300  -1.190  1.00  0.00    -0.316 OA  
ATOM     23  C12 UNL     1       4.488   0.183   0.246  1.00  0.00     0.337 C   
ENDBRANCH  14  15
ENDBRANCH  11  14
ENDBRANCH   7  11
ENDBRANCH   1   7
BRANCH   3  24
ATOM     24  C15 UNL     1      -1.528   0.114   3.809  1.00  0.00     0.172 C   
BRANCH  24  25
ATOM     25  C16 UNL     1      -0.541  -0.996   4.069  1.00  0.00     0.001 A   
ATOM     26  C17 UNL     1      -0.960  -2.169   4.717  1.00  0.00     0.008 A   
ATOM     27  C21 UNL     1       0.794  -0.905   3.656  1.00  0.00     0.076 A   
ATOM     28  C18 UNL     1      -0.061  -3.212   4.950  1.00  0.00     0.001 A   
ATOM     29  C20 UNL     1       1.696  -1.943   3.885  1.00  0.00     0.033 A   
ATOM     30  C19 UNL     1       1.265  -3.098   4.537  1.00  0.00     0.003 A   
BRANCH  27  31
ATOM     31  O3  UNL     1       1.206   0.223   3.001  1.00  0.00    -0.361 OA  
ATOM     32  H25 UNL     1       2.129   0.091   2.710  1.00  0.00     0.218 HD  
ENDBRANCH  27  31
ENDBRANCH  24  25
ENDBRANCH   3  24
TORSDOF 8
