REMARK SMILES CC(C)(C)[C@H]([NH2+]Cc1ccc2c(c1)OCO2)c1cn(-c2ccc(S(N)(=O)=O)cc2)nn1
REMARK SMILES IDX 17 1 18 2 19 3 30 4 31 5 5 6 2 7 1 8 3 9 4 10 6 11 7 14 8 15
REMARK SMILES IDX 9 16 13 17 10 18 12 19 11 20 14 21 16 22 15 23 20 24 21 25
REMARK SMILES IDX 29 26 22 27 28 28 23 29 24 30 26 31 27 32 25 33
REMARK H PARENT 6 12 6 13 25 34 25 35
ROOT
ATOM     1   C14 UNL     1      -0.591  -0.029  -0.826  1.00  0.00     0.128 A   
ATOM     2   C15 UNL     1       0.210   0.819  -1.560  1.00  0.00     0.135 A   
ATOM     3   N2  UNL     1       0.074   2.055  -0.955  1.00  0.00    -0.181 N   
ATOM     4   N4  UNL     1      -0.743   1.924   0.121  1.00  0.00    -0.071 NA  
ATOM     5   N5  UNL     1      -1.157   0.671   0.201  1.00  0.00    -0.131 NA  
ENDROOT
BRANCH   1   6
ATOM     6   C5  UNL     1      -0.849  -1.504  -0.941  1.00  0.00     0.120 C   
BRANCH   6   7
ATOM     7   C2  UNL     1      -2.067  -1.873  -1.859  1.00  0.00     0.010 C   
ATOM     8   C1  UNL     1      -3.410  -1.365  -1.298  1.00  0.00     0.017 C   
ATOM     9   C3  UNL     1      -1.875  -1.274  -3.272  1.00  0.00     0.017 C   
ATOM     10  C4  UNL     1      -2.163  -3.407  -2.034  1.00  0.00     0.017 C   
ENDBRANCH   6   7
BRANCH   6  11
ATOM     11  N1  UNL     1      -1.050  -2.071   0.446  1.00  0.00     0.250 N   
ATOM     12  H11 UNL     1      -1.679  -1.422   0.945  1.00  0.00     0.199 HD  
ATOM     13  H12 UNL     1      -1.528  -2.975   0.438  1.00  0.00     0.199 HD  
BRANCH  11  14
ATOM     14  C6  UNL     1       0.185  -2.200   1.272  1.00  0.00     0.164 C   
BRANCH  14  15
ATOM     15  C7  UNL     1      -0.155  -2.708   2.644  1.00  0.00    -0.002 A   
ATOM     16  C8  UNL     1      -0.093  -4.091   2.934  1.00  0.00     0.012 A   
ATOM     17  C12 UNL     1      -0.592  -1.810   3.635  1.00  0.00     0.045 A   
ATOM     18  C9  UNL     1      -0.450  -4.576   4.197  1.00  0.00     0.037 A   
ATOM     19  C11 UNL     1      -0.937  -2.322   4.868  1.00  0.00     0.109 A   
ATOM     20  C10 UNL     1      -0.868  -3.666   5.142  1.00  0.00     0.108 A   
ATOM     21  O1  UNL     1      -1.376  -1.597   5.930  1.00  0.00    -0.316 OA  
ATOM     22  O2  UNL     1      -1.254  -3.956   6.412  1.00  0.00    -0.316 OA  
ATOM     23  C13 UNL     1      -1.554  -2.638   6.918  1.00  0.00     0.337 C   
ENDBRANCH  14  15
ENDBRANCH  11  14
ENDBRANCH   6  11
ENDBRANCH   1   6
BRANCH   3  24
ATOM     24  C16 UNL     1       0.665   3.295  -1.306  1.00  0.00     0.058 A   
ATOM     25  C17 UNL     1       0.408   4.429  -0.517  1.00  0.00     0.038 A   
ATOM     26  C21 UNL     1       1.508   3.404  -2.423  1.00  0.00     0.038 A   
ATOM     27  C18 UNL     1       0.990   5.659  -0.838  1.00  0.00     0.140 A   
ATOM     28  C20 UNL     1       2.089   4.635  -2.744  1.00  0.00     0.140 A   
ATOM     29  C19 UNL     1       1.822   5.757  -1.955  1.00  0.00     0.338 A   
BRANCH  29  30
ATOM     30  S1  UNL     1       2.601   7.304  -2.330  1.00  0.00    -0.114 S   
ATOM     31  O3  UNL     1       2.745   8.059  -1.109  1.00  0.00    -0.479 OA  
ATOM     32  O4  UNL     1       3.700   7.063  -3.234  1.00  0.00    -0.479 OA  
BRANCH  30  33
ATOM     33  N3  UNL     1       1.416   8.079  -3.230  1.00  0.00    -0.094 NA  
ATOM     34  H23 UNL     1       1.762   8.261  -4.174  1.00  0.00     0.263 HD  
ATOM     35  H24 UNL     1       1.113   8.925  -2.746  1.00  0.00     0.263 HD  
ENDBRANCH  30  33
ENDBRANCH  29  30
ENDBRANCH   3  24
TORSDOF 8
