REMARK SMILES CC(C)(C)[C@H]([NH2+]Cc1ccc2c(c1)OCO2)c1cn(CCc2ccsc2)nn1
REMARK SMILES IDX 17 1 18 2 19 3 27 4 28 5 5 7 2 8 1 9 3 10 4 11 6 12 7 15
REMARK SMILES IDX 8 16 9 17 13 18 10 19 12 20 11 21 14 22 16 23 15 24 20 25
REMARK SMILES IDX 21 26 22 27 23 28 26 29 24 30 25 31
REMARK H PARENT 18 6 6 13 6 14
ROOT
ATOM     1   C14 UNL     1       0.684  -0.084  -1.471  1.00  0.00     0.127 A   
ATOM     2   C15 UNL     1       1.486  -1.203  -1.511  1.00  0.00     0.045 A   
ATOM     3   N2  UNL     1       2.631  -0.767  -2.115  1.00  0.00    -0.212 N   
ATOM     4   N3  UNL     1       2.548   0.540  -2.422  1.00  0.00    -0.076 NA  
ATOM     5   N4  UNL     1       1.357   0.969  -2.036  1.00  0.00    -0.132 NA  
ATOM     6   H20 UNL     1       1.364  -2.222  -1.165  1.00  0.00     0.083 HD  
ENDROOT
BRANCH   1   7
ATOM     7   C5  UNL     1      -0.665   0.148  -0.856  1.00  0.00     0.120 C   
BRANCH   7   8
ATOM     8   C2  UNL     1      -1.870  -0.080  -1.834  1.00  0.00     0.010 C   
ATOM     9   C1  UNL     1      -1.875   0.910  -3.016  1.00  0.00     0.017 C   
ATOM     10  C3  UNL     1      -1.825  -1.517  -2.404  1.00  0.00     0.017 C   
ATOM     11  C4  UNL     1      -3.210   0.059  -1.074  1.00  0.00     0.017 C   
ENDBRANCH   7   8
BRANCH   7  12
ATOM     12  N1  UNL     1      -0.696   1.556  -0.294  1.00  0.00     0.250 N   
ATOM     13  H11 UNL     1      -0.284   2.158  -1.023  1.00  0.00     0.199 HD  
ATOM     14  H12 UNL     1      -1.651   1.883  -0.139  1.00  0.00     0.199 HD  
BRANCH  12  15
ATOM     15  C6  UNL     1       0.092   1.774   0.955  1.00  0.00     0.164 C   
BRANCH  15  16
ATOM     16  C7  UNL     1      -0.574   1.177   2.164  1.00  0.00    -0.002 A   
ATOM     17  C8  UNL     1      -0.057   0.001   2.756  1.00  0.00     0.012 A   
ATOM     18  C12 UNL     1      -1.733   1.769   2.699  1.00  0.00     0.045 A   
ATOM     19  C9  UNL     1      -0.680  -0.583   3.865  1.00  0.00     0.037 A   
ATOM     20  C11 UNL     1      -2.323   1.168   3.792  1.00  0.00     0.109 A   
ATOM     21  C10 UNL     1      -1.814   0.027   4.359  1.00  0.00     0.108 A   
ATOM     22  O1  UNL     1      -3.443   1.606   4.424  1.00  0.00    -0.316 OA  
ATOM     23  O2  UNL     1      -2.549  -0.400   5.418  1.00  0.00    -0.316 OA  
ATOM     24  C13 UNL     1      -3.552   0.636   5.492  1.00  0.00     0.337 C   
ENDBRANCH  15  16
ENDBRANCH  12  15
ENDBRANCH   7  12
ENDBRANCH   1   7
BRANCH   3  25
ATOM     25  C16 UNL     1       3.835  -1.518  -2.407  1.00  0.00     0.139 C   
BRANCH  25  26
ATOM     26  C17 UNL     1       4.919  -1.339  -1.342  1.00  0.00     0.057 C   
BRANCH  26  27
ATOM     27  C18 UNL     1       4.510  -1.861   0.010  1.00  0.00    -0.039 A   
ATOM     28  C19 UNL     1       4.426  -3.249   0.356  1.00  0.00     0.011 A   
ATOM     29  C21 UNL     1       4.165  -1.066   1.089  1.00  0.00     0.049 A   
ATOM     30  C20 UNL     1       3.995  -3.449   1.650  1.00  0.00     0.046 A   
ATOM     31  S1  UNL     1       3.708  -1.974   2.464  1.00  0.00    -0.106 S   
ENDBRANCH  26  27
ENDBRANCH  25  26
ENDBRANCH   3  25
TORSDOF 8
