REMARK SMILES Fc1cc(F)c(F)c(OCCCn2cc([C@@H]([NH2+]Cc3ccc4c(c3)OCO4)C3CCCCC3)nn2)c1F
REMARK SMILES IDX 12 1 11 2 10 3 9 4 8 5 2 6 3 7 36 8 4 9 6 10 1 11 37 12 5 13
REMARK SMILES IDX 7 14 13 15 14 16 35 17 15 18 34 19 16 21 17 22 18 25 19 26
REMARK SMILES IDX 20 27 24 28 21 29 23 30 22 31 25 32 27 33 26 34 28 35 29 36
REMARK SMILES IDX 33 37 30 38 32 39 31 40
REMARK H PARENT 14 20 17 23 17 24
ROOT
ATOM     1   C8  UNL     1       2.349  -3.278   0.568  1.00  0.00     0.136 C   
ENDROOT
BRANCH   1   2
ATOM     2   C7  UNL     1       3.601  -3.227  -0.308  1.00  0.00     0.050 C   
BRANCH   2   3
ATOM     3   C6  UNL     1       3.384  -2.568  -1.669  1.00  0.00     0.170 C   
BRANCH   3   4
ATOM     4   O1  UNL     1       2.249  -3.172  -2.302  1.00  0.00    -0.340 OA  
BRANCH   4   5
ATOM     5   C5  UNL     1       1.979  -2.601  -3.518  1.00  0.00     0.153 A   
ATOM     6   C1  UNL     1       2.490  -2.169  -5.840  1.00  0.00     0.164 A   
ATOM     7   C2  UNL     1       1.302  -1.461  -5.993  1.00  0.00     0.085 A   
ATOM     8   C26 UNL     1       2.828  -2.742  -4.616  1.00  0.00     0.192 A   
ATOM     9   C3  UNL     1       0.448  -1.344  -4.903  1.00  0.00     0.164 A   
ATOM     10  C4  UNL     1       0.774  -1.920  -3.678  1.00  0.00     0.192 A   
ATOM     11  F1  UNL     1       3.313  -2.298  -6.889  1.00  0.00    -0.204 F   
ATOM     12  F4  UNL     1       3.972  -3.432  -4.502  1.00  0.00    -0.201 F   
ATOM     13  F2  UNL     1      -0.697  -0.660  -5.033  1.00  0.00    -0.204 F   
ATOM     14  F3  UNL     1      -0.069  -1.791  -2.641  1.00  0.00    -0.201 F   
ENDBRANCH   4   5
ENDBRANCH   3   4
ENDBRANCH   2   3
ENDBRANCH   1   2
BRANCH   1  15
ATOM     15  N1  UNL     1       1.771  -1.980   0.840  1.00  0.00    -0.212 N   
ATOM     16  C9  UNL     1       0.560  -1.496   0.440  1.00  0.00     0.045 A   
ATOM     17  N4  UNL     1       2.425  -1.078   1.593  1.00  0.00    -0.076 NA  
ATOM     18  C10 UNL     1       0.529  -0.215   0.943  1.00  0.00     0.127 A   
ATOM     19  N3  UNL     1       1.678   0.012   1.658  1.00  0.00    -0.132 NA  
ATOM     20  H8  UNL     1      -0.131  -2.079  -0.154  1.00  0.00     0.083 HD  
BRANCH  18  21
ATOM     21  C11 UNL     1      -0.531   0.835   0.885  1.00  0.00     0.117 C   
BRANCH  21  22
ATOM     22  N2  UNL     1      -0.624   1.556   2.214  1.00  0.00     0.249 N   
ATOM     23  H10 UNL     1       0.334   1.849   2.451  1.00  0.00     0.199 HD  
ATOM     24  H11 UNL     1      -1.191   2.402   2.116  1.00  0.00     0.199 HD  
BRANCH  22  25
ATOM     25  C12 UNL     1      -1.127   0.755   3.370  1.00  0.00     0.164 C   
BRANCH  25  26
ATOM     26  C13 UNL     1      -2.559   0.327   3.214  1.00  0.00    -0.002 A   
ATOM     27  C14 UNL     1      -3.608   1.271   3.331  1.00  0.00     0.012 A   
ATOM     28  C18 UNL     1      -2.864  -1.013   2.918  1.00  0.00     0.045 A   
ATOM     29  C15 UNL     1      -4.941   0.887   3.150  1.00  0.00     0.037 A   
ATOM     30  C17 UNL     1      -4.188  -1.356   2.744  1.00  0.00     0.109 A   
ATOM     31  C16 UNL     1      -5.198  -0.433   2.856  1.00  0.00     0.108 A   
ATOM     32  O2  UNL     1      -4.650  -2.599   2.447  1.00  0.00    -0.316 OA  
ATOM     33  O3  UNL     1      -6.423  -0.979   2.645  1.00  0.00    -0.316 OA  
ATOM     34  C19 UNL     1      -6.075  -2.361   2.415  1.00  0.00     0.337 C   
ENDBRANCH  25  26
ENDBRANCH  22  25
ENDBRANCH  21  22
BRANCH  21  35
ATOM     35  C20 UNL     1      -0.326   1.895  -0.233  1.00  0.00     0.043 C   
ATOM     36  C21 UNL     1       0.964   2.729  -0.101  1.00  0.00     0.010 C   
ATOM     37  C25 UNL     1      -0.399   1.258  -1.634  1.00  0.00     0.010 C   
ATOM     38  C22 UNL     1       1.077   3.771  -1.214  1.00  0.00     0.001 C   
ATOM     39  C24 UNL     1      -0.291   2.305  -2.740  1.00  0.00     0.001 C   
ATOM     40  C23 UNL     1       0.978   3.136  -2.597  1.00  0.00     0.000 C   
ENDBRANCH  21  35
ENDBRANCH  18  21
ENDBRANCH   1  15
TORSDOF 10
