REMARK SMILES CC(C)[C@H]([NH2+]Cc1ccc2c(c1)OCO2)c1cn(C[C@H](O)c2ccc(F)cc2F)nn1
REMARK SMILES IDX 16 1 17 2 18 3 30 4 31 5 4 7 2 8 1 9 3 10 5 11 6 14 7 15
REMARK SMILES IDX 8 16 12 17 9 18 11 19 10 20 13 21 15 22 14 23 19 24 20 25
REMARK SMILES IDX 21 26 22 28 23 29 28 30 24 31 27 32 25 33 29 34 26 35
REMARK H PARENT 17 6 5 12 5 13 21 27
ROOT
ATOM     1   C13 UNL     1       0.611  -0.067   2.605  1.00  0.00     0.127 A   
ATOM     2   C14 UNL     1       1.581  -1.041   2.683  1.00  0.00     0.045 A   
ATOM     3   N2  UNL     1       1.060  -2.082   1.965  1.00  0.00    -0.209 N   
ATOM     4   N3  UNL     1      -0.160  -1.776   1.488  1.00  0.00    -0.076 NA  
ATOM     5   N4  UNL     1      -0.442  -0.541   1.863  1.00  0.00    -0.132 NA  
ATOM     6   H18 UNL     1       2.565  -1.086   3.130  1.00  0.00     0.083 HD  
ENDROOT
BRANCH   1   7
ATOM     7   C4  UNL     1       0.582   1.353   3.071  1.00  0.00     0.117 C   
BRANCH   7   8
ATOM     8   C2  UNL     1      -0.147   1.574   4.419  1.00  0.00     0.037 C   
ATOM     9   C1  UNL     1      -1.618   1.142   4.423  1.00  0.00     0.014 C   
ATOM     10  C3  UNL     1       0.595   0.892   5.574  1.00  0.00     0.014 C   
ENDBRANCH   7   8
BRANCH   7  11
ATOM     11  N1  UNL     1      -0.093   2.190   2.009  1.00  0.00     0.249 N   
ATOM     12  H9  UNL     1      -0.893   1.627   1.676  1.00  0.00     0.199 HD  
ATOM     13  H10 UNL     1      -0.494   3.054   2.387  1.00  0.00     0.199 HD  
BRANCH  11  14
ATOM     14  C5  UNL     1       0.752   2.498   0.824  1.00  0.00     0.164 C   
BRANCH  14  15
ATOM     15  C6  UNL     1      -0.090   2.734  -0.396  1.00  0.00    -0.002 A   
ATOM     16  C7  UNL     1      -0.508   4.037  -0.751  1.00  0.00     0.012 A   
ATOM     17  C11 UNL     1      -0.503   1.635  -1.172  1.00  0.00     0.045 A   
ATOM     18  C8  UNL     1      -1.312   4.247  -1.878  1.00  0.00     0.037 A   
ATOM     19  C10 UNL     1      -1.288   1.877  -2.279  1.00  0.00     0.109 A   
ATOM     20  C9  UNL     1      -1.682   3.147  -2.622  1.00  0.00     0.108 A   
ATOM     21  O1  UNL     1      -1.756   0.935  -3.138  1.00  0.00    -0.316 OA  
ATOM     22  O2  UNL     1      -2.451   3.164  -3.742  1.00  0.00    -0.316 OA  
ATOM     23  C12 UNL     1      -2.492   1.757  -4.071  1.00  0.00     0.337 C   
ENDBRANCH  14  15
ENDBRANCH  11  14
ENDBRANCH   7  11
ENDBRANCH   1   7
BRANCH   3  24
ATOM     24  C15 UNL     1       1.646  -3.381   1.704  1.00  0.00     0.170 C   
BRANCH  24  25
ATOM     25  C16 UNL     1       2.563  -3.402   0.473  1.00  0.00     0.167 C   
BRANCH  25  26
ATOM     26  O3  UNL     1       3.720  -2.590   0.717  1.00  0.00    -0.387 OA  
ATOM     27  H22 UNL     1       4.339  -2.772  -0.016  1.00  0.00     0.211 HD  
ENDBRANCH  25  26
BRANCH  25  28
ATOM     28  C17 UNL     1       1.885  -3.012  -0.823  1.00  0.00     0.018 A   
ATOM     29  C18 UNL     1       2.107  -1.778  -1.456  1.00  0.00     0.012 A   
ATOM     30  C22 UNL     1       0.982  -3.908  -1.412  1.00  0.00     0.131 A   
ATOM     31  C19 UNL     1       1.448  -1.471  -2.649  1.00  0.00     0.040 A   
ATOM     32  C21 UNL     1       0.318  -3.608  -2.594  1.00  0.00     0.078 A   
ATOM     33  C20 UNL     1       0.559  -2.387  -3.203  1.00  0.00     0.126 A   
ATOM     34  F2  UNL     1       0.757  -5.091  -0.823  1.00  0.00    -0.207 F   
ATOM     35  F1  UNL     1      -0.066  -2.084  -4.348  1.00  0.00    -0.207 F   
ENDBRANCH  25  28
ENDBRANCH  24  25
ENDBRANCH   3  24
TORSDOF 9
