REMARK SMILES CC(C)[C@H]([NH2+]Cc1ccc2c(c1)OCO2)c1cn(C[C@@H](O)c2ccc(F)cc2F)nn1
REMARK SMILES IDX 16 1 17 2 18 3 30 4 31 5 4 7 2 8 1 9 3 10 5 11 6 14 7 15
REMARK SMILES IDX 8 16 12 17 9 18 11 19 10 20 13 21 15 22 14 23 19 24 20 25
REMARK SMILES IDX 21 26 22 28 23 29 28 30 24 31 27 32 25 33 29 34 26 35
REMARK H PARENT 17 6 5 12 5 13 21 27
ROOT
ATOM     1   C13 UNL     1       0.959   0.608  -0.990  1.00  0.00     0.127 A   
ATOM     2   C14 UNL     1      -0.231   0.961  -0.394  1.00  0.00     0.045 A   
ATOM     3   N2  UNL     1      -1.083  -0.048  -0.744  1.00  0.00    -0.209 N   
ATOM     4   N3  UNL     1      -0.467  -0.955  -1.526  1.00  0.00    -0.076 NA  
ATOM     5   N4  UNL     1       0.786  -0.566  -1.682  1.00  0.00    -0.132 NA  
ATOM     6   H18 UNL     1      -0.531   1.773   0.255  1.00  0.00     0.083 HD  
ENDROOT
BRANCH   1   7
ATOM     7   C4  UNL     1       2.324   1.214  -0.921  1.00  0.00     0.117 C   
BRANCH   7   8
ATOM     8   C2  UNL     1       2.587   2.220  -2.073  1.00  0.00     0.037 C   
ATOM     9   C1  UNL     1       3.873   3.021  -1.832  1.00  0.00     0.014 C   
ATOM     10  C3  UNL     1       2.624   1.588  -3.470  1.00  0.00     0.014 C   
ENDBRANCH   7   8
BRANCH   7  11
ATOM     11  N1  UNL     1       3.360   0.109  -0.927  1.00  0.00     0.249 N   
ATOM     12  H9  UNL     1       2.897  -0.699  -1.373  1.00  0.00     0.199 HD  
ATOM     13  H10 UNL     1       4.149   0.343  -1.536  1.00  0.00     0.199 HD  
BRANCH  11  14
ATOM     14  C5  UNL     1       3.883  -0.323   0.401  1.00  0.00     0.164 C   
BRANCH  14  15
ATOM     15  C6  UNL     1       2.826  -0.777   1.369  1.00  0.00    -0.002 A   
ATOM     16  C7  UNL     1       2.106  -1.975   1.147  1.00  0.00     0.012 A   
ATOM     17  C11 UNL     1       2.521   0.009   2.493  1.00  0.00     0.045 A   
ATOM     18  C8  UNL     1       1.080  -2.372   2.013  1.00  0.00     0.037 A   
ATOM     19  C10 UNL     1       1.508  -0.411   3.329  1.00  0.00     0.109 A   
ATOM     20  C9  UNL     1       0.801  -1.565   3.093  1.00  0.00     0.108 A   
ATOM     21  O1  UNL     1       1.086   0.240   4.445  1.00  0.00    -0.316 OA  
ATOM     22  O2  UNL     1      -0.171  -1.774   4.021  1.00  0.00    -0.316 OA  
ATOM     23  C12 UNL     1       0.053  -0.656   4.910  1.00  0.00     0.337 C   
ENDBRANCH  14  15
ENDBRANCH  11  14
ENDBRANCH   7  11
ENDBRANCH   1   7
BRANCH   3  24
ATOM     24  C15 UNL     1      -2.471  -0.229  -0.362  1.00  0.00     0.170 C   
BRANCH  24  25
ATOM     25  C16 UNL     1      -2.588  -1.107   0.886  1.00  0.00     0.167 C   
BRANCH  25  26
ATOM     26  O3  UNL     1      -2.157  -0.363   2.033  1.00  0.00    -0.387 OA  
ATOM     27  H22 UNL     1      -2.076  -1.011   2.759  1.00  0.00     0.211 HD  
ENDBRANCH  25  26
BRANCH  25  28
ATOM     28  C17 UNL     1      -4.014  -1.556   1.104  1.00  0.00     0.018 A   
ATOM     29  C18 UNL     1      -4.964  -0.737   1.737  1.00  0.00     0.012 A   
ATOM     30  C22 UNL     1      -4.424  -2.809   0.628  1.00  0.00     0.131 A   
ATOM     31  C19 UNL     1      -6.279  -1.180   1.895  1.00  0.00     0.040 A   
ATOM     32  C21 UNL     1      -5.729  -3.259   0.784  1.00  0.00     0.078 A   
ATOM     33  C20 UNL     1      -6.647  -2.435   1.420  1.00  0.00     0.126 A   
ATOM     34  F2  UNL     1      -3.540  -3.595  -0.004  1.00  0.00    -0.207 F   
ATOM     35  F1  UNL     1      -7.910  -2.854   1.577  1.00  0.00    -0.207 F   
ENDBRANCH  25  28
ENDBRANCH  24  25
ENDBRANCH   3  24
TORSDOF 9
