REMARK SMILES Cc1cc(CCn2cc([C@@H]([NH2+]Cc3ccc4c(c3)OCO4)C3CCCC3)nn2)cc(C)c1O
REMARK SMILES IDX 7 1 8 2 9 3 27 4 28 5 6 7 5 8 4 9 2 10 3 11 32 12 30 13
REMARK SMILES IDX 29 14 1 15 31 16 33 17 10 19 11 20 12 23 13 24 14 25 18 26
REMARK SMILES IDX 15 27 17 28 16 29 19 30 21 31 20 32 22 33 23 34 26 35 24 36
REMARK SMILES IDX 25 37
REMARK H PARENT 8 6 33 18 11 21 11 22
ROOT
ATOM     1   N1  UNL     1       2.311   0.970   2.499  1.00  0.00    -0.212 N   
ATOM     2   C7  UNL     1       1.740   1.950   1.735  1.00  0.00     0.045 A   
ATOM     3   C8  UNL     1       0.391   1.690   1.827  1.00  0.00     0.127 A   
ATOM     4   N3  UNL     1       0.190   0.646   2.694  1.00  0.00    -0.132 NA  
ATOM     5   N4  UNL     1       1.374   0.223   3.108  1.00  0.00    -0.076 NA  
ATOM     6   H9  UNL     1       2.325   2.642   1.145  1.00  0.00     0.083 HD  
ENDROOT
BRANCH   1   7
ATOM     7   C6  UNL     1       3.709   0.592   2.541  1.00  0.00     0.139 C   
BRANCH   7   8
ATOM     8   C5  UNL     1       3.998  -0.740   1.831  1.00  0.00     0.057 C   
BRANCH   8   9
ATOM     9   C4  UNL     1       3.398  -0.870   0.445  1.00  0.00    -0.046 A   
ATOM     10  C2  UNL     1       1.998  -2.123  -1.122  1.00  0.00    -0.021 A   
ATOM     11  C3  UNL     1       2.620  -1.995   0.128  1.00  0.00     0.010 A   
ATOM     12  C26 UNL     1       2.173  -1.099  -2.060  1.00  0.00     0.077 A   
ATOM     13  C24 UNL     1       2.960   0.024  -1.780  1.00  0.00    -0.021 A   
ATOM     14  C23 UNL     1       3.593   0.114  -0.533  1.00  0.00     0.010 A   
ATOM     15  C1  UNL     1       1.201  -3.361  -1.425  1.00  0.00     0.047 C   
ATOM     16  C25 UNL     1       3.166   1.097  -2.812  1.00  0.00     0.047 C   
BRANCH  12  17
ATOM     17  O3  UNL     1       1.556  -1.154  -3.279  1.00  0.00    -0.360 OA  
ATOM     18  H33 UNL     1       1.565  -2.081  -3.576  1.00  0.00     0.218 HD  
ENDBRANCH  12  17
ENDBRANCH   8   9
ENDBRANCH   7   8
ENDBRANCH   1   7
BRANCH   3  19
ATOM     19  C9  UNL     1      -0.760   2.241   1.052  1.00  0.00     0.117 C   
BRANCH  19  20
ATOM     20  N2  UNL     1      -1.618   1.106   0.565  1.00  0.00     0.249 N   
ATOM     21  H11 UNL     1      -1.790   0.499   1.379  1.00  0.00     0.199 HD  
ATOM     22  H12 UNL     1      -2.534   1.419   0.235  1.00  0.00     0.199 HD  
BRANCH  20  23
ATOM     23  C10 UNL     1      -0.990   0.250  -0.487  1.00  0.00     0.164 C   
BRANCH  23  24
ATOM     24  C11 UNL     1      -1.862  -0.935  -0.787  1.00  0.00    -0.002 A   
ATOM     25  C12 UNL     1      -2.708  -0.941  -1.920  1.00  0.00     0.012 A   
ATOM     26  C16 UNL     1      -1.866  -2.036   0.089  1.00  0.00     0.045 A   
ATOM     27  C13 UNL     1      -3.542  -2.033  -2.185  1.00  0.00     0.037 A   
ATOM     28  C15 UNL     1      -2.699  -3.095  -0.202  1.00  0.00     0.109 A   
ATOM     29  C14 UNL     1      -3.516  -3.094  -1.306  1.00  0.00     0.108 A   
ATOM     30  O1  UNL     1      -2.818  -4.232   0.531  1.00  0.00    -0.316 OA  
ATOM     31  O2  UNL     1      -4.254  -4.229  -1.406  1.00  0.00    -0.316 OA  
ATOM     32  C17 UNL     1      -3.806  -4.953  -0.240  1.00  0.00     0.337 C   
ENDBRANCH  23  24
ENDBRANCH  20  23
ENDBRANCH  19  20
BRANCH  19  33
ATOM     33  C18 UNL     1      -1.582   3.249   1.875  1.00  0.00     0.043 C   
ATOM     34  C19 UNL     1      -2.436   2.679   3.010  1.00  0.00     0.010 C   
ATOM     35  C22 UNL     1      -2.608   4.046   1.062  1.00  0.00     0.010 C   
ATOM     36  C20 UNL     1      -3.322   3.857   3.396  1.00  0.00     0.001 C   
ATOM     37  C21 UNL     1      -3.581   4.615   2.095  1.00  0.00     0.001 C   
ENDBRANCH  19  33
ENDBRANCH   3  19
TORSDOF 9
