REMARK SMILES Cc1ccccc1-n1cc([C@@H]([NH2+]Cc2ccc3c(c2)OCO3)C2CCCC2)nn1
REMARK SMILES IDX 11 1 10 2 8 3 9 4 29 5 28 6 7 7 2 8 3 9 4 10 6 11 5 12 1 13
REMARK SMILES IDX 12 14 13 17 14 18 15 19 19 20 16 21 18 22 17 23 20 24 22 25
REMARK SMILES IDX 21 26 23 27 24 28 27 29 25 30 26 31
REMARK H PARENT 12 15 12 16
ROOT
ATOM     1   C10 UNL     1       1.681  -0.302   0.064  1.00  0.00     0.117 C   
ENDROOT
BRANCH   1   2
ATOM     2   C9  UNL     1       0.747  -0.655  -1.048  1.00  0.00     0.127 A   
ATOM     3   N1  UNL     1      -0.285  -1.129  -2.935  1.00  0.00    -0.180 N   
ATOM     4   C8  UNL     1       0.968  -0.889  -2.387  1.00  0.00     0.135 A   
ATOM     5   N4  UNL     1      -1.202  -0.993  -1.944  1.00  0.00    -0.071 NA  
ATOM     6   N3  UNL     1      -0.592  -0.719  -0.804  1.00  0.00    -0.131 NA  
BRANCH   3   7
ATOM     7   C7  UNL     1      -0.623  -1.442  -4.287  1.00  0.00     0.060 A   
ATOM     8   C2  UNL     1      -1.958  -1.636  -4.719  1.00  0.00    -0.028 A   
ATOM     9   C3  UNL     1      -2.193  -1.936  -6.077  1.00  0.00     0.005 A   
ATOM     10  C4  UNL     1      -1.149  -2.047  -6.991  1.00  0.00     0.000 A   
ATOM     11  C6  UNL     1       0.422  -1.562  -5.228  1.00  0.00     0.026 A   
ATOM     12  C5  UNL     1       0.158  -1.861  -6.567  1.00  0.00     0.002 A   
ATOM     13  C1  UNL     1      -3.174  -1.549  -3.833  1.00  0.00     0.046 C   
ENDBRANCH   3   7
ENDBRANCH   1   2
BRANCH   1  14
ATOM     14  N2  UNL     1       0.978   0.586   1.064  1.00  0.00     0.249 N   
ATOM     15  H10 UNL     1       1.475   0.609   1.961  1.00  0.00     0.199 HD  
ATOM     16  H11 UNL     1       0.060   0.155   1.254  1.00  0.00     0.199 HD  
BRANCH  14  17
ATOM     17  C11 UNL     1       0.724   1.983   0.614  1.00  0.00     0.164 C   
BRANCH  17  18
ATOM     18  C12 UNL     1      -0.004   2.754   1.679  1.00  0.00    -0.002 A   
ATOM     19  C13 UNL     1       0.710   3.561   2.596  1.00  0.00     0.012 A   
ATOM     20  C17 UNL     1      -1.400   2.636   1.798  1.00  0.00     0.045 A   
ATOM     21  C14 UNL     1       0.044   4.253   3.612  1.00  0.00     0.037 A   
ATOM     22  C16 UNL     1      -2.025   3.331   2.813  1.00  0.00     0.109 A   
ATOM     23  C15 UNL     1      -1.325   4.117   3.694  1.00  0.00     0.108 A   
ATOM     24  O1  UNL     1      -3.360   3.328   3.068  1.00  0.00    -0.316 OA  
ATOM     25  O2  UNL     1      -2.130   4.712   4.612  1.00  0.00    -0.316 OA  
ATOM     26  C18 UNL     1      -3.425   4.225   4.200  1.00  0.00     0.337 C   
ENDBRANCH  17  18
ENDBRANCH  14  17
ENDBRANCH   1  14
BRANCH   1  27
ATOM     27  C19 UNL     1       2.255  -1.506   0.833  1.00  0.00     0.043 C   
ATOM     28  C20 UNL     1       3.077  -2.484  -0.009  1.00  0.00     0.010 C   
ATOM     29  C23 UNL     1       1.239  -2.436   1.502  1.00  0.00     0.010 C   
ATOM     30  C21 UNL     1       3.219  -3.719   0.879  1.00  0.00     0.001 C   
ATOM     31  C22 UNL     1       2.069  -3.657   1.885  1.00  0.00     0.001 C   
ENDBRANCH   1  27
TORSDOF 6
