REMARK SMILES CCCc1nc(C)c(Cn2cc([C@@H]([NH2+]Cc3ccc4c(c3)OCO4)C(C)(C)C)nn2)o1
REMARK SMILES IDX 10 1 11 2 12 3 29 4 30 5 9 7 8 8 4 9 5 10 31 11 6 12 7 13
REMARK SMILES IDX 3 14 2 15 1 16 13 17 14 18 15 21 16 22 17 23 21 24 18 25
REMARK SMILES IDX 20 26 19 27 22 28 24 29 23 30 25 31 26 32 27 33 28 34
REMARK H PARENT 11 6 14 19 14 20
ROOT
ATOM     1   N2  UNL     1       2.042   1.852  -0.017  1.00  0.00    -0.206 N   
ATOM     2   C9  UNL     1       1.467   0.809   0.660  1.00  0.00     0.046 A   
ATOM     3   C10 UNL     1       2.395  -0.205   0.567  1.00  0.00     0.127 A   
ATOM     4   N4  UNL     1       3.475   0.237  -0.154  1.00  0.00    -0.132 NA  
ATOM     5   N5  UNL     1       3.259   1.499  -0.488  1.00  0.00    -0.076 NA  
ATOM     6   H13 UNL     1       0.486   0.878   1.113  1.00  0.00     0.083 HD  
ENDROOT
BRANCH   1   7
ATOM     7   C8  UNL     1       1.576   3.223  -0.174  1.00  0.00     0.197 C   
BRANCH   7   8
ATOM     8   C7  UNL     1       0.126   3.291  -0.447  1.00  0.00     0.102 A   
ATOM     9   C4  UNL     1      -1.969   3.292   0.085  1.00  0.00     0.148 A   
ATOM     10  N1  UNL     1      -1.979   3.434  -1.224  1.00  0.00    -0.231 NA  
ATOM     11  O3  UNL     1      -0.717   3.192   0.629  1.00  0.00    -0.296 OA  
ATOM     12  C5  UNL     1      -0.648   3.452  -1.577  1.00  0.00     0.068 A   
ATOM     13  C6  UNL     1      -0.238   3.630  -2.986  1.00  0.00     0.069 C   
BRANCH   9  14
ATOM     14  C3  UNL     1      -3.115   3.198   1.026  1.00  0.00     0.083 C   
BRANCH  14  15
ATOM     15  C2  UNL     1      -3.827   1.848   0.934  1.00  0.00     0.005 C   
ATOM     16  C1  UNL     1      -2.982   0.695   1.460  1.00  0.00     0.004 C   
ENDBRANCH  14  15
ENDBRANCH   9  14
ENDBRANCH   7   8
ENDBRANCH   1   7
BRANCH   3  17
ATOM     17  C11 UNL     1       2.353  -1.632   1.024  1.00  0.00     0.120 C   
BRANCH  17  18
ATOM     18  N3  UNL     1       2.922  -2.496  -0.087  1.00  0.00     0.250 N   
ATOM     19  H15 UNL     1       3.529  -1.873  -0.644  1.00  0.00     0.199 HD  
ATOM     20  H16 UNL     1       3.545  -3.220   0.279  1.00  0.00     0.199 HD  
BRANCH  18  21
ATOM     21  C12 UNL     1       1.936  -3.127  -1.007  1.00  0.00     0.164 C   
BRANCH  21  22
ATOM     22  C13 UNL     1       1.067  -2.147  -1.747  1.00  0.00    -0.002 A   
ATOM     23  C14 UNL     1       1.605  -1.360  -2.793  1.00  0.00     0.012 A   
ATOM     24  C18 UNL     1      -0.281  -1.981  -1.383  1.00  0.00     0.045 A   
ATOM     25  C15 UNL     1       0.816  -0.416  -3.459  1.00  0.00     0.037 A   
ATOM     26  C17 UNL     1      -1.031  -1.042  -2.061  1.00  0.00     0.109 A   
ATOM     27  C16 UNL     1      -0.497  -0.282  -3.069  1.00  0.00     0.108 A   
ATOM     28  O1  UNL     1      -2.336  -0.752  -1.829  1.00  0.00    -0.316 OA  
ATOM     29  O2  UNL     1      -1.398   0.582  -3.602  1.00  0.00    -0.316 OA  
ATOM     30  C19 UNL     1      -2.569   0.279  -2.815  1.00  0.00     0.337 C   
ENDBRANCH  21  22
ENDBRANCH  18  21
ENDBRANCH  17  18
BRANCH  17  31
ATOM     31  C20 UNL     1       3.102  -1.898   2.375  1.00  0.00     0.010 C   
ATOM     32  C21 UNL     1       2.901  -3.367   2.816  1.00  0.00     0.017 C   
ATOM     33  C22 UNL     1       2.507  -1.009   3.492  1.00  0.00     0.017 C   
ATOM     34  C23 UNL     1       4.616  -1.618   2.292  1.00  0.00     0.017 C   
ENDBRANCH  17  31
ENDBRANCH   3  17
TORSDOF 9
