REMARK SMILES c1csc(Cn2cc([C@@H]([NH2+]Cc3ccc4c(c3)OCO4)C3CCCCC3)nn2)c1
REMARK SMILES IDX 9 1 8 2 6 3 7 4 28 5 27 6 5 8 4 9 1 10 2 11 29 12 3 13 10 14
REMARK SMILES IDX 11 17 12 18 13 19 17 20 14 21 16 22 15 23 18 24 20 25 19 26
REMARK SMILES IDX 21 27 22 28 26 29 23 30 25 31 24 32
REMARK H PARENT 7 7 10 15 10 16
ROOT
ATOM     1   C7  UNL     1      -0.170  -0.086  -0.576  1.00  0.00     0.117 C   
ENDROOT
BRANCH   1   2
ATOM     2   C6  UNL     1       1.161   0.101   0.079  1.00  0.00     0.127 A   
ATOM     3   N1  UNL     1       3.239   0.199   0.676  1.00  0.00    -0.207 N   
ATOM     4   C5  UNL     1       2.441  -0.036  -0.411  1.00  0.00     0.046 A   
ATOM     5   N4  UNL     1       2.495   0.480   1.764  1.00  0.00    -0.076 NA  
ATOM     6   N3  UNL     1       1.222   0.426   1.411  1.00  0.00    -0.132 NA  
ATOM     7   H5  UNL     1       2.845  -0.288  -1.382  1.00  0.00     0.083 HD  
BRANCH   3   8
ATOM     8   C4  UNL     1       4.691   0.169   0.751  1.00  0.00     0.176 C   
BRANCH   8   9
ATOM     9   C3  UNL     1       5.172  -1.234   0.951  1.00  0.00     0.009 A   
ATOM     10  C1  UNL     1       5.832  -3.242   1.935  1.00  0.00     0.008 A   
ATOM     11  C2  UNL     1       6.014  -3.526   0.600  1.00  0.00     0.046 A   
ATOM     12  C22 UNL     1       5.346  -1.919   2.139  1.00  0.00     0.013 A   
ATOM     13  S1  UNL     1       5.598  -2.204  -0.399  1.00  0.00    -0.101 S   
ENDBRANCH   8   9
ENDBRANCH   3   8
ENDBRANCH   1   2
BRANCH   1  14
ATOM     14  N2  UNL     1      -1.203  -0.498   0.447  1.00  0.00     0.249 N   
ATOM     15  H7  UNL     1      -1.072   0.131   1.253  1.00  0.00     0.199 HD  
ATOM     16  H8  UNL     1      -2.151  -0.347   0.096  1.00  0.00     0.199 HD  
BRANCH  14  17
ATOM     17  C8  UNL     1      -1.091  -1.895   0.965  1.00  0.00     0.164 C   
BRANCH  17  18
ATOM     18  C9  UNL     1      -1.403  -2.930  -0.079  1.00  0.00    -0.002 A   
ATOM     19  C10 UNL     1      -0.372  -3.749  -0.600  1.00  0.00     0.012 A   
ATOM     20  C14 UNL     1      -2.713  -3.074  -0.568  1.00  0.00     0.045 A   
ATOM     21  C11 UNL     1      -0.637  -4.693  -1.598  1.00  0.00     0.037 A   
ATOM     22  C13 UNL     1      -2.940  -4.013  -1.553  1.00  0.00     0.109 A   
ATOM     23  C12 UNL     1      -1.932  -4.798  -2.055  1.00  0.00     0.108 A   
ATOM     24  O1  UNL     1      -4.140  -4.271  -2.135  1.00  0.00    -0.316 OA  
ATOM     25  O2  UNL     1      -2.371  -5.652  -3.016  1.00  0.00    -0.316 OA  
ATOM     26  C15 UNL     1      -3.779  -5.336  -3.046  1.00  0.00     0.337 C   
ENDBRANCH  17  18
ENDBRANCH  14  17
ENDBRANCH   1  14
BRANCH   1  27
ATOM     27  C16 UNL     1      -0.635   1.187  -1.334  1.00  0.00     0.043 C   
ATOM     28  C17 UNL     1      -1.803   0.881  -2.292  1.00  0.00     0.010 C   
ATOM     29  C21 UNL     1      -0.996   2.371  -0.415  1.00  0.00     0.010 C   
ATOM     30  C18 UNL     1      -2.212   2.116  -3.094  1.00  0.00     0.001 C   
ATOM     31  C20 UNL     1      -1.409   3.602  -1.222  1.00  0.00     0.001 C   
ATOM     32  C19 UNL     1      -2.551   3.291  -2.183  1.00  0.00     0.000 C   
ENDBRANCH   1  27
TORSDOF 7
