REMARK SMILES CC(C)(C)[C@H]([NH2+]Cc1ccc2c(c1)OCO2)c1cn(Cc2cc(N([O-])[O-])ccc2F)nn1
REMARK SMILES IDX 17 1 18 2 19 3 31 4 32 5 5 7 2 8 1 9 3 10 4 11 6 12 7 15
REMARK SMILES IDX 8 16 9 17 13 18 10 19 12 20 11 21 14 22 16 23 15 24 20 25
REMARK SMILES IDX 21 26 22 27 29 28 23 29 28 30 27 31 30 32 24 33 25 34 26 35
REMARK H PARENT 18 6 6 13 6 14
ROOT
ATOM     1   C14 UNL     1      -0.444  -1.011   0.993  1.00  0.00     0.127 A   
ATOM     2   C15 UNL     1      -0.732   0.249   1.467  1.00  0.00     0.046 A   
ATOM     3   N2  UNL     1       0.479   0.731   1.881  1.00  0.00    -0.208 N   
ATOM     4   N4  UNL     1       1.456  -0.170   1.659  1.00  0.00    -0.076 NA  
ATOM     5   N5  UNL     1       0.904  -1.240   1.114  1.00  0.00    -0.132 NA  
ATOM     6   H20 UNL     1      -1.641   0.830   1.540  1.00  0.00     0.083 HD  
ENDROOT
BRANCH   1   7
ATOM     7   C5  UNL     1      -1.303  -2.057   0.349  1.00  0.00     0.120 C   
BRANCH   7   8
ATOM     8   C2  UNL     1      -1.941  -3.078   1.353  1.00  0.00     0.010 C   
ATOM     9   C1  UNL     1      -2.820  -2.332   2.384  1.00  0.00     0.017 C   
ATOM     10  C3  UNL     1      -0.886  -3.897   2.124  1.00  0.00     0.017 C   
ATOM     11  C4  UNL     1      -2.871  -4.057   0.598  1.00  0.00     0.017 C   
ENDBRANCH   7   8
BRANCH   7  12
ATOM     12  N1  UNL     1      -0.462  -2.783  -0.688  1.00  0.00     0.250 N   
ATOM     13  H11 UNL     1      -0.532  -3.798  -0.586  1.00  0.00     0.199 HD  
ATOM     14  H12 UNL     1       0.521  -2.564  -0.455  1.00  0.00     0.199 HD  
BRANCH  12  15
ATOM     15  C6  UNL     1      -0.701  -2.413  -2.108  1.00  0.00     0.164 C   
BRANCH  15  16
ATOM     16  C7  UNL     1      -0.311  -1.000  -2.447  1.00  0.00    -0.002 A   
ATOM     17  C8  UNL     1      -1.304  -0.015  -2.676  1.00  0.00     0.012 A   
ATOM     18  C12 UNL     1       1.047  -0.643  -2.539  1.00  0.00     0.045 A   
ATOM     19  C9  UNL     1      -0.954   1.301  -3.002  1.00  0.00     0.037 A   
ATOM     20  C11 UNL     1       1.357   0.658  -2.879  1.00  0.00     0.109 A   
ATOM     21  C10 UNL     1       0.386   1.603  -3.105  1.00  0.00     0.108 A   
ATOM     22  O1  UNL     1       2.612   1.154  -3.041  1.00  0.00    -0.316 OA  
ATOM     23  O2  UNL     1       0.910   2.812  -3.434  1.00  0.00    -0.316 OA  
ATOM     24  C13 UNL     1       2.318   2.490  -3.505  1.00  0.00     0.337 C   
ENDBRANCH  15  16
ENDBRANCH  12  15
ENDBRANCH   7  12
ENDBRANCH   1   7
BRANCH   3  25
ATOM     25  C16 UNL     1       0.779   2.012   2.495  1.00  0.00     0.172 C   
BRANCH  25  26
ATOM     26  C17 UNL     1       1.174   3.026   1.458  1.00  0.00     0.009 A   
ATOM     27  C18 UNL     1       2.522   3.242   1.133  1.00  0.00     0.039 A   
ATOM     28  C22 UNL     1       0.191   3.745   0.768  1.00  0.00     0.128 A   
ATOM     29  C19 UNL     1       2.858   4.176   0.140  1.00  0.00     0.118 A   
ATOM     30  C21 UNL     1       0.523   4.678  -0.212  1.00  0.00     0.042 A   
ATOM     31  C20 UNL     1       1.863   4.900  -0.531  1.00  0.00     0.034 A   
ATOM     32  F1  UNL     1      -1.102   3.527   1.042  1.00  0.00    -0.207 F   
BRANCH  29  33
ATOM     33  N3  UNL     1       4.265   4.366  -0.228  1.00  0.00     0.092 N   
ATOM     34  O3  UNL     1       5.126   3.955   0.564  1.00  0.00    -0.138 OA  
ATOM     35  O4  UNL     1       4.501   4.902  -1.320  1.00  0.00    -0.138 OA  
ENDBRANCH  29  33
ENDBRANCH  25  26
ENDBRANCH   3  25
TORSDOF 8
