REMARK SMILES Cc1c(N([O-])[O-])cccc1-n1cc([C@H](CC(C)C)[NH2+]Cc2ccc3c(c2)OCO3)nn1
REMARK SMILES IDX 11 1 12 2 13 3 30 4 31 5 10 6 2 7 3 8 9 9 7 10 8 11 1 12
REMARK SMILES IDX 4 13 5 14 6 15 14 16 15 17 16 18 17 19 18 20 19 21 20 24
REMARK SMILES IDX 21 25 22 26 26 27 23 28 25 29 24 30 27 31 29 32 28 33
REMARK H PARENT 19 22 19 23
ROOT
ATOM     1   N1  UNL     1       0.613   1.449   1.935  1.00  0.00    -0.180 N   
ATOM     2   C4  UNL     1       1.021   0.125   1.849  1.00  0.00     0.135 A   
ATOM     3   C5  UNL     1       0.809  -0.240   0.538  1.00  0.00     0.127 A   
ATOM     4   N3  UNL     1       0.282   0.820  -0.136  1.00  0.00    -0.131 NA  
ATOM     5   N4  UNL     1       0.148   1.820   0.717  1.00  0.00    -0.071 NA  
ENDROOT
BRANCH   1   6
ATOM     6   C3  UNL     1       0.593   2.310   3.079  1.00  0.00     0.063 A   
ATOM     7   C2  UNL     1       0.278   3.695   2.996  1.00  0.00     0.001 A   
ATOM     8   C22 UNL     1       0.181   4.409   4.218  1.00  0.00     0.122 A   
ATOM     9   C19 UNL     1       0.876   1.738   4.341  1.00  0.00     0.026 A   
ATOM     10  C21 UNL     1       0.457   3.828   5.462  1.00  0.00     0.031 A   
ATOM     11  C20 UNL     1       0.818   2.491   5.516  1.00  0.00     0.004 A   
ATOM     12  C1  UNL     1       0.069   4.420   1.687  1.00  0.00     0.049 C   
BRANCH   8  13
ATOM     13  N5  UNL     1      -0.243   5.803   4.245  1.00  0.00     0.092 N   
ATOM     14  O3  UNL     1      -1.377   6.053   3.817  1.00  0.00    -0.138 OA  
ATOM     15  O4  UNL     1       0.559   6.624   4.707  1.00  0.00    -0.138 OA  
ENDBRANCH   8  13
ENDBRANCH   1   6
BRANCH   3  16
ATOM     16  C6  UNL     1       1.045  -1.532  -0.182  1.00  0.00     0.114 C   
BRANCH  16  17
ATOM     17  C7  UNL     1       2.509  -1.626  -0.660  1.00  0.00     0.064 C   
BRANCH  17  18
ATOM     18  C8  UNL     1       2.923  -2.936  -1.365  1.00  0.00    -0.012 C   
ATOM     19  C9  UNL     1       2.655  -4.174  -0.510  1.00  0.00     0.007 C   
ATOM     20  C10 UNL     1       4.409  -2.873  -1.731  1.00  0.00     0.007 C   
ENDBRANCH  17  18
ENDBRANCH  16  17
BRANCH  16  21
ATOM     21  N2  UNL     1       0.129  -1.648  -1.369  1.00  0.00     0.249 N   
ATOM     22  H15 UNL     1       0.174  -0.752  -1.877  1.00  0.00     0.199 HD  
ATOM     23  H16 UNL     1       0.442  -2.366  -2.029  1.00  0.00     0.199 HD  
BRANCH  21  24
ATOM     24  C11 UNL     1      -1.305  -1.904  -1.050  1.00  0.00     0.164 C   
BRANCH  24  25
ATOM     25  C12 UNL     1      -2.115  -1.970  -2.313  1.00  0.00    -0.002 A   
ATOM     26  C13 UNL     1      -2.661  -0.788  -2.869  1.00  0.00     0.012 A   
ATOM     27  C17 UNL     1      -2.288  -3.194  -2.981  1.00  0.00     0.045 A   
ATOM     28  C14 UNL     1      -3.379  -0.824  -4.069  1.00  0.00     0.037 A   
ATOM     29  C16 UNL     1      -3.001  -3.193  -4.162  1.00  0.00     0.109 A   
ATOM     30  C15 UNL     1      -3.531  -2.043  -4.691  1.00  0.00     0.108 A   
ATOM     31  O1  UNL     1      -3.256  -4.285  -4.931  1.00  0.00    -0.316 OA  
ATOM     32  O2  UNL     1      -4.190  -2.265  -5.858  1.00  0.00    -0.316 OA  
ATOM     33  C18 UNL     1      -4.032  -3.693  -5.998  1.00  0.00     0.337 C   
ENDBRANCH  24  25
ENDBRANCH  21  24
ENDBRANCH  16  21
ENDBRANCH   3  16
TORSDOF 8
