REMARK SMILES CC(C)(C)[C@H]([NH2+]Cc1ccc2c(c1)OCO2)c1cn(Cc2ccccc2O)nn1
REMARK SMILES IDX 17 1 18 2 19 3 28 4 29 5 5 7 2 8 1 9 3 10 4 11 6 12 7 15
REMARK SMILES IDX 8 16 9 17 13 18 10 19 12 20 11 21 14 22 16 23 15 24 20 25
REMARK SMILES IDX 21 26 22 27 26 28 23 29 25 30 24 31 27 32
REMARK H PARENT 18 6 6 13 6 14 27 33
ROOT
ATOM     1   C14 UNL     1      -0.430   1.903   0.108  1.00  0.00     0.127 A   
ATOM     2   C15 UNL     1      -1.274   0.938   0.609  1.00  0.00     0.046 A   
ATOM     3   N2  UNL     1      -2.473   1.202   0.010  1.00  0.00    -0.208 N   
ATOM     4   N3  UNL     1      -2.384   2.289  -0.783  1.00  0.00    -0.076 NA  
ATOM     5   N4  UNL     1      -1.137   2.730  -0.726  1.00  0.00    -0.132 NA  
ATOM     6   H20 UNL     1      -1.131   0.087   1.262  1.00  0.00     0.083 HD  
ENDROOT
BRANCH   1   7
ATOM     7   C5  UNL     1       1.051   2.063   0.245  1.00  0.00     0.120 C   
BRANCH   7   8
ATOM     8   C2  UNL     1       1.487   3.120   1.322  1.00  0.00     0.010 C   
ATOM     9   C1  UNL     1       3.026   3.126   1.478  1.00  0.00     0.017 C   
ATOM     10  C3  UNL     1       1.035   4.553   0.980  1.00  0.00     0.017 C   
ATOM     11  C4  UNL     1       0.895   2.741   2.699  1.00  0.00     0.017 C   
ENDBRANCH   7   8
BRANCH   7  12
ATOM     12  N1  UNL     1       1.657   2.402  -1.106  1.00  0.00     0.250 N   
ATOM     13  H11 UNL     1       1.224   3.284  -1.410  1.00  0.00     0.199 HD  
ATOM     14  H12 UNL     1       2.662   2.562  -1.018  1.00  0.00     0.199 HD  
BRANCH  12  15
ATOM     15  C6  UNL     1       1.429   1.420  -2.215  1.00  0.00     0.164 C   
BRANCH  15  16
ATOM     16  C7  UNL     1       1.886   0.024  -1.897  1.00  0.00    -0.002 A   
ATOM     17  C8  UNL     1       0.933  -1.014  -1.744  1.00  0.00     0.012 A   
ATOM     18  C12 UNL     1       3.251  -0.261  -1.727  1.00  0.00     0.045 A   
ATOM     19  C9  UNL     1       1.330  -2.314  -1.414  1.00  0.00     0.037 A   
ATOM     20  C11 UNL     1       3.608  -1.554  -1.401  1.00  0.00     0.109 A   
ATOM     21  C10 UNL     1       2.676  -2.550  -1.248  1.00  0.00     0.108 A   
ATOM     22  O1  UNL     1       4.877  -1.993  -1.194  1.00  0.00    -0.316 OA  
ATOM     23  O2  UNL     1       3.241  -3.743  -0.926  1.00  0.00    -0.316 OA  
ATOM     24  C13 UNL     1       4.642  -3.394  -0.924  1.00  0.00     0.337 C   
ENDBRANCH  15  16
ENDBRANCH  12  15
ENDBRANCH   7  12
ENDBRANCH   1   7
BRANCH   3  25
ATOM     25  C16 UNL     1      -3.700   0.428   0.081  1.00  0.00     0.172 C   
BRANCH  25  26
ATOM     26  C17 UNL     1      -3.617  -0.774  -0.827  1.00  0.00     0.001 A   
ATOM     27  C18 UNL     1      -3.984  -0.660  -2.178  1.00  0.00     0.008 A   
ATOM     28  C22 UNL     1      -3.147  -2.009  -0.366  1.00  0.00     0.076 A   
ATOM     29  C19 UNL     1      -3.893  -1.759  -3.034  1.00  0.00     0.001 A   
ATOM     30  C21 UNL     1      -3.054  -3.110  -1.216  1.00  0.00     0.033 A   
ATOM     31  C20 UNL     1      -3.429  -2.982  -2.553  1.00  0.00     0.003 A   
BRANCH  28  32
ATOM     32  O3  UNL     1      -2.766  -2.122   0.941  1.00  0.00    -0.361 OA  
ATOM     33  H27 UNL     1      -2.686  -3.069   1.157  1.00  0.00     0.218 HD  
ENDBRANCH  28  32
ENDBRANCH  25  26
ENDBRANCH   3  25
TORSDOF 8
