REMARK SMILES CC(C)[C@H]([NH2+]Cc1ccc2c(c1)OCO2)c1cn(CCc2cnc(Cl)s2)nn1
REMARK SMILES IDX 16 1 17 2 18 3 27 4 28 5 4 7 2 8 1 9 3 10 5 11 6 14 7 15
REMARK SMILES IDX 8 16 12 17 9 18 11 19 10 20 13 21 15 22 14 23 19 24 20 25
REMARK SMILES IDX 21 26 22 27 26 28 23 29 24 30 25 31
REMARK H PARENT 17 6 5 12 5 13
ROOT
ATOM     1   C13 UNL     1      -0.599   0.952  -1.092  1.00  0.00     0.127 A   
ATOM     2   C14 UNL     1      -0.926   0.492  -2.351  1.00  0.00     0.045 A   
ATOM     3   N2  UNL     1       0.260   0.561  -3.038  1.00  0.00    -0.212 N   
ATOM     4   N4  UNL     1       1.197   1.196  -2.310  1.00  0.00    -0.076 NA  
ATOM     5   N5  UNL     1       0.692   1.413  -1.106  1.00  0.00    -0.132 NA  
ATOM     6   H18 UNL     1      -1.799  -0.002  -2.754  1.00  0.00     0.083 HD  
ENDROOT
BRANCH   1   7
ATOM     7   C4  UNL     1      -1.339   0.830   0.205  1.00  0.00     0.117 C   
BRANCH   7   8
ATOM     8   C2  UNL     1      -1.855   2.176   0.772  1.00  0.00     0.037 C   
ATOM     9   C1  UNL     1      -0.758   3.164   1.185  1.00  0.00     0.014 C   
ATOM     10  C3  UNL     1      -2.821   2.859  -0.206  1.00  0.00     0.014 C   
ENDBRANCH   7   8
BRANCH   7  11
ATOM     11  N1  UNL     1      -0.436   0.117   1.178  1.00  0.00     0.249 N   
ATOM     12  H9  UNL     1       0.417   0.677   1.306  1.00  0.00     0.199 HD  
ATOM     13  H10 UNL     1      -0.086  -0.742   0.714  1.00  0.00     0.199 HD  
BRANCH  11  14
ATOM     14  C5  UNL     1      -0.990  -0.302   2.485  1.00  0.00     0.164 C   
BRANCH  14  15
ATOM     15  C6  UNL     1       0.073  -0.947   3.330  1.00  0.00    -0.002 A   
ATOM     16  C7  UNL     1       0.291  -2.343   3.268  1.00  0.00     0.012 A   
ATOM     17  C11 UNL     1       0.897  -0.155   4.149  1.00  0.00     0.045 A   
ATOM     18  C8  UNL     1       1.307  -2.947   4.017  1.00  0.00     0.037 A   
ATOM     19  C10 UNL     1       1.889  -0.781   4.874  1.00  0.00     0.109 A   
ATOM     20  C9  UNL     1       2.089  -2.138   4.811  1.00  0.00     0.108 A   
ATOM     21  O1  UNL     1       2.767  -0.165   5.708  1.00  0.00    -0.316 OA  
ATOM     22  O2  UNL     1       3.116  -2.548   5.599  1.00  0.00    -0.316 OA  
ATOM     23  C12 UNL     1       3.534  -1.295   6.182  1.00  0.00     0.337 C   
ENDBRANCH  14  15
ENDBRANCH  11  14
ENDBRANCH   7  11
ENDBRANCH   1   7
BRANCH   3  24
ATOM     24  C15 UNL     1       0.654  -0.278  -4.158  1.00  0.00     0.139 C   
BRANCH  24  25
ATOM     25  C16 UNL     1       1.513  -1.486  -3.724  1.00  0.00     0.066 C   
BRANCH  25  26
ATOM     26  C17 UNL     1       0.962  -2.166  -2.501  1.00  0.00     0.012 A   
ATOM     27  C18 UNL     1       1.296  -1.943  -1.175  1.00  0.00     0.124 A   
ATOM     28  S1  UNL     1      -0.330  -3.293  -2.574  1.00  0.00    -0.061 S   
ATOM     29  N3  UNL     1       0.399  -2.441  -0.242  1.00  0.00    -0.237 NA  
ATOM     30  C19 UNL     1      -0.429  -3.242  -0.878  1.00  0.00     0.167 A   
ATOM     31  CL1 UNL     1      -1.667  -4.100  -0.059  1.00  0.00    -0.054 Cl  
ENDBRANCH  25  26
ENDBRANCH  24  25
ENDBRANCH   3  24
TORSDOF 8
