REMARK SMILES FC(F)(F)c1nccc(-n2cc([C@@H]([NH2+]Cc3ccc4c(c3)OCO4)C3CCCC3)nn2)n1
REMARK SMILES IDX 10 1 11 2 12 3 30 4 31 5 9 6 5 7 6 8 32 9 7 10 8 11 2 12
REMARK SMILES IDX 1 13 3 14 4 15 13 16 14 17 15 20 16 21 17 22 21 23 18 24
REMARK SMILES IDX 20 25 19 26 22 27 24 28 23 29 25 30 26 31 29 32 27 33 28 34
REMARK H PARENT 14 18 14 19
ROOT
ATOM     1   N2  UNL     1       2.187   1.430   1.156  1.00  0.00    -0.162 N   
ATOM     2   C6  UNL     1       1.842   0.095   1.070  1.00  0.00     0.137 A   
ATOM     3   C7  UNL     1       0.772   0.058   0.206  1.00  0.00     0.128 A   
ATOM     4   N4  UNL     1       0.479   1.335  -0.194  1.00  0.00    -0.131 NA  
ATOM     5   N5  UNL     1       1.334   2.160   0.392  1.00  0.00    -0.070 NA  
ENDROOT
BRANCH   1   6
ATOM     6   C5  UNL     1       3.245   1.994   1.915  1.00  0.00     0.150 A   
ATOM     7   C2  UNL     1       5.021   1.687   3.372  1.00  0.00     0.236 A   
ATOM     8   N1  UNL     1       5.278   3.016   3.393  1.00  0.00    -0.233 NA  
ATOM     9   N6  UNL     1       4.005   1.147   2.651  1.00  0.00    -0.207 NA  
ATOM     10  C3  UNL     1       4.496   3.817   2.647  1.00  0.00     0.117 A   
ATOM     11  C4  UNL     1       3.454   3.358   1.880  1.00  0.00     0.067 A   
BRANCH   7  12
ATOM     12  C1  UNL     1       5.882   0.754   4.240  1.00  0.00     0.451 C   
ATOM     13  F1  UNL     1       5.387   0.608   5.505  1.00  0.00    -0.163 F   
ATOM     14  F2  UNL     1       5.964  -0.515   3.733  1.00  0.00    -0.163 F   
ATOM     15  F3  UNL     1       7.173   1.169   4.386  1.00  0.00    -0.163 F   
ENDBRANCH   7  12
ENDBRANCH   1   6
BRANCH   3  16
ATOM     16  C8  UNL     1      -0.050  -1.088  -0.296  1.00  0.00     0.117 C   
BRANCH  16  17
ATOM     17  N3  UNL     1      -1.401  -0.605  -0.750  1.00  0.00     0.249 N   
ATOM     18  H5  UNL     1      -1.831  -1.242  -1.428  1.00  0.00     0.199 HD  
ATOM     19  H6  UNL     1      -1.252   0.283  -1.253  1.00  0.00     0.199 HD  
BRANCH  17  20
ATOM     20  C9  UNL     1      -2.378  -0.331   0.340  1.00  0.00     0.164 C   
BRANCH  20  21
ATOM     21  C10 UNL     1      -3.648   0.235  -0.229  1.00  0.00    -0.002 A   
ATOM     22  C11 UNL     1      -3.774   1.630  -0.435  1.00  0.00     0.012 A   
ATOM     23  C15 UNL     1      -4.693  -0.620  -0.617  1.00  0.00     0.045 A   
ATOM     24  C12 UNL     1      -4.931   2.170  -1.007  1.00  0.00     0.037 A   
ATOM     25  C14 UNL     1      -5.819  -0.055  -1.179  1.00  0.00     0.109 A   
ATOM     26  C13 UNL     1      -5.936   1.300  -1.368  1.00  0.00     0.108 A   
ATOM     27  O1  UNL     1      -6.914  -0.736  -1.607  1.00  0.00    -0.316 OA  
ATOM     28  O2  UNL     1      -7.120   1.643  -1.937  1.00  0.00    -0.316 OA  
ATOM     29  C16 UNL     1      -7.750   0.350  -2.067  1.00  0.00     0.337 C   
ENDBRANCH  20  21
ENDBRANCH  17  20
ENDBRANCH  16  17
BRANCH  16  30
ATOM     30  C17 UNL     1       0.659  -1.843  -1.438  1.00  0.00     0.043 C   
ATOM     31  C18 UNL     1       0.836  -1.064  -2.749  1.00  0.00     0.010 C   
ATOM     32  C21 UNL     1      -0.027  -3.162  -1.849  1.00  0.00     0.010 C   
ATOM     33  C19 UNL     1       1.030  -2.162  -3.783  1.00  0.00     0.001 C   
ATOM     34  C20 UNL     1      -0.004  -3.199  -3.376  1.00  0.00     0.001 C   
ENDBRANCH  16  30
ENDBRANCH   3  16
TORSDOF 7
