REMARK SMILES CCOc1cccc(Cn2cc([C@@H]([NH2+]Cc3ccc4c(c3)OCO4)C(C)(C)C)nn2)c1O
REMARK SMILES IDX 10 1 11 2 12 3 29 4 30 5 9 7 8 8 4 9 5 10 31 11 6 12 7 13
REMARK SMILES IDX 3 14 2 15 1 16 32 17 13 19 14 20 15 23 16 24 17 25 21 26
REMARK SMILES IDX 18 27 20 28 19 29 22 30 24 31 23 32 25 33 26 34 27 35 28 36
REMARK H PARENT 11 6 32 18 14 21 14 22
ROOT
ATOM     1   N1  UNL     1      -0.846  -1.463   2.101  1.00  0.00    -0.208 N   
ATOM     2   C9  UNL     1      -0.547  -0.145   1.898  1.00  0.00     0.046 A   
ATOM     3   C10 UNL     1      -1.747   0.417   1.532  1.00  0.00     0.127 A   
ATOM     4   N3  UNL     1      -2.725  -0.542   1.569  1.00  0.00    -0.132 NA  
ATOM     5   N4  UNL     1      -2.163  -1.689   1.918  1.00  0.00    -0.076 NA  
ATOM     6   H11 UNL     1       0.464   0.234   1.969  1.00  0.00     0.083 HD  
ENDROOT
BRANCH   1   7
ATOM     7   C8  UNL     1       0.068  -2.553   2.394  1.00  0.00     0.172 C   
BRANCH   7   8
ATOM     8   C7  UNL     1       0.532  -3.210   1.121  1.00  0.00     0.004 A   
ATOM     9   C3  UNL     1       2.028  -3.278  -0.817  1.00  0.00     0.105 A   
ATOM     10  C4  UNL     1       1.377  -4.419  -1.280  1.00  0.00     0.036 A   
ATOM     11  C24 UNL     1       1.586  -2.680   0.372  1.00  0.00     0.106 A   
ATOM     12  C5  UNL     1       0.310  -4.956  -0.555  1.00  0.00     0.003 A   
ATOM     13  C6  UNL     1      -0.108  -4.359   0.637  1.00  0.00     0.008 A   
BRANCH   9  14
ATOM     14  O1  UNL     1       3.073  -2.632  -1.421  1.00  0.00    -0.344 OA  
BRANCH  14  15
ATOM     15  C2  UNL     1       3.788  -3.318  -2.456  1.00  0.00     0.164 C   
ATOM     16  C1  UNL     1       3.253  -2.926  -3.819  1.00  0.00     0.035 C   
ENDBRANCH  14  15
ENDBRANCH   9  14
BRANCH  11  17
ATOM     17  O4  UNL     1       2.206  -1.538   0.809  1.00  0.00    -0.358 OA  
ATOM     18  H31 UNL     1       2.926  -1.384   0.158  1.00  0.00     0.218 HD  
ENDBRANCH  11  17
ENDBRANCH   7   8
ENDBRANCH   1   7
BRANCH   3  19
ATOM     19  C11 UNL     1      -2.055   1.787   1.021  1.00  0.00     0.120 C   
BRANCH  19  20
ATOM     20  N2  UNL     1      -2.990   1.687  -0.173  1.00  0.00     0.250 N   
ATOM     21  H13 UNL     1      -3.830   1.193   0.155  1.00  0.00     0.199 HD  
ATOM     22  H14 UNL     1      -3.275   2.615  -0.483  1.00  0.00     0.199 HD  
BRANCH  20  23
ATOM     23  C12 UNL     1      -2.483   0.921  -1.357  1.00  0.00     0.164 C   
BRANCH  23  24
ATOM     24  C13 UNL     1      -1.243   1.516  -1.969  1.00  0.00    -0.002 A   
ATOM     25  C14 UNL     1      -1.319   2.733  -2.692  1.00  0.00     0.012 A   
ATOM     26  C18 UNL     1       0.008   0.888  -1.802  1.00  0.00     0.045 A   
ATOM     27  C15 UNL     1      -0.168   3.325  -3.229  1.00  0.00     0.037 A   
ATOM     28  C17 UNL     1       1.123   1.500  -2.341  1.00  0.00     0.109 A   
ATOM     29  C16 UNL     1       1.038   2.685  -3.034  1.00  0.00     0.108 A   
ATOM     30  O2  UNL     1       2.400   1.042  -2.256  1.00  0.00    -0.316 OA  
ATOM     31  O3  UNL     1       2.246   3.112  -3.483  1.00  0.00    -0.316 OA  
ATOM     32  C19 UNL     1       3.103   2.038  -3.036  1.00  0.00     0.337 C   
ENDBRANCH  23  24
ENDBRANCH  20  23
ENDBRANCH  19  20
BRANCH  19  33
ATOM     33  C20 UNL     1      -2.647   2.762   2.105  1.00  0.00     0.010 C   
ATOM     34  C21 UNL     1      -1.699   2.840   3.325  1.00  0.00     0.017 C   
ATOM     35  C22 UNL     1      -2.765   4.188   1.523  1.00  0.00     0.017 C   
ATOM     36  C23 UNL     1      -4.042   2.330   2.604  1.00  0.00     0.017 C   
ENDBRANCH  19  33
ENDBRANCH   3  19
TORSDOF 10
