REMARK SMILES CC(C)[C@H]([NH2+]Cc1ccc2c(c1)OCO2)c1cn(Cc2cnn[nH]2)nn1
REMARK SMILES IDX 16 1 17 2 18 3 25 4 26 5 4 7 2 8 1 9 3 10 5 11 6 14 7 15
REMARK SMILES IDX 8 16 12 17 9 18 11 19 10 20 13 21 15 22 14 23 19 24 20 25
REMARK SMILES IDX 21 26 24 27 22 28 23 29
REMARK H PARENT 17 6 5 12 5 13 24 30
ROOT
ATOM     1   C13 UNL     1       0.338   0.097   1.460  1.00  0.00     0.127 A   
ATOM     2   C14 UNL     1      -0.553   1.142   1.564  1.00  0.00     0.046 A   
ATOM     3   N2  UNL     1       0.239   2.227   1.815  1.00  0.00    -0.206 N   
ATOM     4   N6  UNL     1       1.540   1.875   1.861  1.00  0.00    -0.076 NA  
ATOM     5   N7  UNL     1       1.612   0.571   1.651  1.00  0.00    -0.132 NA  
ATOM     6   H18 UNL     1      -1.627   1.218   1.462  1.00  0.00     0.083 HD  
ENDROOT
BRANCH   1   7
ATOM     7   C4  UNL     1       0.126  -1.348   1.132  1.00  0.00     0.117 C   
BRANCH   7   8
ATOM     8   C2  UNL     1      -0.171  -2.199   2.396  1.00  0.00     0.037 C   
ATOM     9   C1  UNL     1      -0.718  -3.584   2.029  1.00  0.00     0.014 C   
ATOM     10  C3  UNL     1       1.024  -2.352   3.345  1.00  0.00     0.014 C   
ENDBRANCH   7   8
BRANCH   7  11
ATOM     11  N1  UNL     1       1.321  -1.906   0.394  1.00  0.00     0.249 N   
ATOM     12  H9  UNL     1       1.304  -2.929   0.395  1.00  0.00     0.199 HD  
ATOM     13  H10 UNL     1       2.152  -1.614   0.927  1.00  0.00     0.199 HD  
BRANCH  11  14
ATOM     14  C5  UNL     1       1.511  -1.429  -1.010  1.00  0.00     0.164 C   
BRANCH  14  15
ATOM     15  C6  UNL     1       0.443  -1.927  -1.943  1.00  0.00    -0.002 A   
ATOM     16  C7  UNL     1       0.412  -3.287  -2.339  1.00  0.00     0.012 A   
ATOM     17  C11 UNL     1      -0.554  -1.050  -2.404  1.00  0.00     0.045 A   
ATOM     18  C8  UNL     1      -0.601  -3.768  -3.176  1.00  0.00     0.037 A   
ATOM     19  C10 UNL     1      -1.539  -1.558  -3.225  1.00  0.00     0.109 A   
ATOM     20  C9  UNL     1      -1.562  -2.878  -3.600  1.00  0.00     0.108 A   
ATOM     21  O1  UNL     1      -2.576  -0.851  -3.746  1.00  0.00    -0.316 OA  
ATOM     22  O2  UNL     1      -2.615  -3.168  -4.408  1.00  0.00    -0.316 OA  
ATOM     23  C12 UNL     1      -3.234  -1.870  -4.532  1.00  0.00     0.337 C   
ENDBRANCH  14  15
ENDBRANCH  11  14
ENDBRANCH   7  11
ENDBRANCH   1   7
BRANCH   3  24
ATOM     24  C15 UNL     1      -0.149   3.627   1.915  1.00  0.00     0.188 C   
BRANCH  24  25
ATOM     25  C16 UNL     1      -0.005   4.280   0.596  1.00  0.00     0.066 A   
ATOM     26  C17 UNL     1      -0.909   4.765  -0.320  1.00  0.00     0.159 A   
ATOM     27  N5  UNL     1       1.209   4.515   0.006  1.00  0.00    -0.221 N   
ATOM     28  N3  UNL     1      -0.241   5.217  -1.420  1.00  0.00    -0.141 NA  
ATOM     29  N4  UNL     1       1.057   5.045  -1.214  1.00  0.00    -0.079 NA  
ATOM     30  H22 UNL     1       2.148   4.318   0.340  1.00  0.00     0.177 HD  
ENDBRANCH  24  25
ENDBRANCH   3  24
TORSDOF 7
