REMARK SMILES CC(C)C[C@H]([NH2+]Cc1ccc2c(c1)OCO2)c1cn(Cc2ccc(N)cc2)nn1
REMARK SMILES IDX 17 1 18 2 19 3 28 4 29 5 5 7 4 8 2 9 1 10 3 11 6 12 7 15
REMARK SMILES IDX 8 16 9 17 13 18 10 19 12 20 11 21 14 22 16 23 15 24 20 25
REMARK SMILES IDX 21 26 22 27 27 28 23 29 26 30 24 31 25 32
REMARK H PARENT 18 6 6 13 6 14 25 33 25 34
ROOT
ATOM     1   C14 UNL     1      -1.214   0.882   1.964  1.00  0.00     0.127 A   
ATOM     2   C15 UNL     1      -0.858   0.406   3.207  1.00  0.00     0.046 A   
ATOM     3   N2  UNL     1      -1.752  -0.606   3.440  1.00  0.00    -0.208 N   
ATOM     4   N4  UNL     1      -2.621  -0.724   2.416  1.00  0.00    -0.076 NA  
ATOM     5   N5  UNL     1      -2.301   0.182   1.506  1.00  0.00    -0.132 NA  
ATOM     6   H20 UNL     1      -0.065   0.647   3.902  1.00  0.00     0.083 HD  
ENDROOT
BRANCH   1   7
ATOM     7   C5  UNL     1      -0.581   1.909   1.082  1.00  0.00     0.114 C   
BRANCH   7   8
ATOM     8   C4  UNL     1      -1.343   3.246   1.165  1.00  0.00     0.064 C   
BRANCH   8   9
ATOM     9   C2  UNL     1      -0.729   4.429   0.385  1.00  0.00    -0.012 C   
ATOM     10  C1  UNL     1      -1.614   5.669   0.555  1.00  0.00     0.007 C   
ATOM     11  C3  UNL     1       0.696   4.749   0.838  1.00  0.00     0.007 C   
ENDBRANCH   8   9
ENDBRANCH   7   8
BRANCH   7  12
ATOM     12  N1  UNL     1      -0.583   1.423  -0.343  1.00  0.00     0.249 N   
ATOM     13  H11 UNL     1      -0.388   2.176  -1.009  1.00  0.00     0.199 HD  
ATOM     14  H12 UNL     1      -1.540   1.097  -0.545  1.00  0.00     0.199 HD  
BRANCH  12  15
ATOM     15  C6  UNL     1       0.341   0.286  -0.625  1.00  0.00     0.164 C   
BRANCH  15  16
ATOM     16  C7  UNL     1       0.221  -0.149  -2.058  1.00  0.00    -0.002 A   
ATOM     17  C8  UNL     1       1.099   0.365  -3.042  1.00  0.00     0.012 A   
ATOM     18  C12 UNL     1      -0.799  -1.038  -2.436  1.00  0.00     0.045 A   
ATOM     19  C9  UNL     1       0.974  -0.013  -4.383  1.00  0.00     0.037 A   
ATOM     20  C11 UNL     1      -0.894  -1.391  -3.766  1.00  0.00     0.109 A   
ATOM     21  C10 UNL     1      -0.033  -0.893  -4.713  1.00  0.00     0.108 A   
ATOM     22  O1  UNL     1      -1.813  -2.241  -4.296  1.00  0.00    -0.316 OA  
ATOM     23  O2  UNL     1      -0.301  -1.368  -5.957  1.00  0.00    -0.316 OA  
ATOM     24  C13 UNL     1      -1.415  -2.245  -5.685  1.00  0.00     0.337 C   
ENDBRANCH  15  16
ENDBRANCH  12  15
ENDBRANCH   7  12
ENDBRANCH   1   7
BRANCH   3  25
ATOM     25  C16 UNL     1      -1.789  -1.536   4.557  1.00  0.00     0.169 C   
BRANCH  25  26
ATOM     26  C17 UNL     1      -0.694  -2.565   4.424  1.00  0.00    -0.028 A   
ATOM     27  C18 UNL     1      -0.790  -3.581   3.463  1.00  0.00     0.007 A   
ATOM     28  C22 UNL     1       0.457  -2.497   5.218  1.00  0.00     0.007 A   
ATOM     29  C19 UNL     1       0.245  -4.506   3.304  1.00  0.00     0.023 A   
ATOM     30  C21 UNL     1       1.487  -3.429   5.053  1.00  0.00     0.023 A   
ATOM     31  C20 UNL     1       1.371  -4.468   4.128  1.00  0.00     0.023 A   
BRANCH  31  32
ATOM     32  N3  UNL     1       2.458  -5.312   3.874  1.00  0.00    -0.358 N   
ATOM     33  H25 UNL     1       3.068  -5.450   4.675  1.00  0.00     0.143 HD  
ATOM     34  H26 UNL     1       2.197  -6.197   3.447  1.00  0.00     0.143 HD  
ENDBRANCH  31  32
ENDBRANCH  25  26
ENDBRANCH   3  25
TORSDOF 9
