REMARK SMILES CC(C)[C@H]([NH2+]Cc1ccc2c(c1)OCO2)c1cn(CCn2cnc3ccccc32)nn1
REMARK SMILES IDX 16 1 17 2 18 3 30 4 31 5 4 7 2 8 1 9 3 10 5 11 6 14 7 15
REMARK SMILES IDX 8 16 12 17 9 18 11 19 10 20 13 21 15 22 14 23 19 24 20 25
REMARK SMILES IDX 21 26 22 27 29 28 23 29 24 30 28 31 25 32 27 33 26 34
REMARK H PARENT 17 6 5 12 5 13
ROOT
ATOM     1   C13 UNL     1       0.047  -1.469   2.083  1.00  0.00     0.127 A   
ATOM     2   C14 UNL     1      -0.704  -0.626   2.875  1.00  0.00     0.045 A   
ATOM     3   N2  UNL     1       0.212  -0.106   3.752  1.00  0.00    -0.211 N   
ATOM     4   N5  UNL     1       1.395  -0.737   3.639  1.00  0.00    -0.076 NA  
ATOM     5   N6  UNL     1       1.317  -1.547   2.594  1.00  0.00    -0.132 NA  
ATOM     6   H18 UNL     1      -1.708  -0.234   2.786  1.00  0.00     0.083 HD  
ENDROOT
BRANCH   1   7
ATOM     7   C4  UNL     1      -0.274  -2.062   0.742  1.00  0.00     0.117 C   
BRANCH   7   8
ATOM     8   C2  UNL     1      -0.271  -3.611   0.722  1.00  0.00     0.037 C   
ATOM     9   C1  UNL     1      -1.343  -4.176   1.664  1.00  0.00     0.014 C   
ATOM     10  C3  UNL     1       1.077  -4.270   1.032  1.00  0.00     0.014 C   
ENDBRANCH   7   8
BRANCH   7  11
ATOM     11  N1  UNL     1       0.680  -1.470  -0.266  1.00  0.00     0.249 N   
ATOM     12  H9  UNL     1       1.616  -1.866  -0.140  1.00  0.00     0.199 HD  
ATOM     13  H10 UNL     1       0.811  -0.473   0.005  1.00  0.00     0.199 HD  
BRANCH  11  14
ATOM     14  C5  UNL     1       0.286  -1.403  -1.693  1.00  0.00     0.164 C   
BRANCH  14  15
ATOM     15  C6  UNL     1       0.461  -2.687  -2.452  1.00  0.00    -0.002 A   
ATOM     16  C7  UNL     1      -0.661  -3.341  -3.019  1.00  0.00     0.012 A   
ATOM     17  C11 UNL     1       1.740  -3.247  -2.617  1.00  0.00     0.045 A   
ATOM     18  C8  UNL     1      -0.517  -4.545  -3.716  1.00  0.00     0.037 A   
ATOM     19  C10 UNL     1       1.846  -4.438  -3.304  1.00  0.00     0.109 A   
ATOM     20  C9  UNL     1       0.750  -5.070  -3.837  1.00  0.00     0.108 A   
ATOM     21  O1  UNL     1       3.000  -5.119  -3.531  1.00  0.00    -0.316 OA  
ATOM     22  O2  UNL     1       1.075  -6.226  -4.471  1.00  0.00    -0.316 OA  
ATOM     23  C12 UNL     1       2.506  -6.254  -4.278  1.00  0.00     0.337 C   
ENDBRANCH  14  15
ENDBRANCH  11  14
ENDBRANCH   7  11
ENDBRANCH   1   7
BRANCH   3  24
ATOM     24  C15 UNL     1       0.154   1.204   4.376  1.00  0.00     0.153 C   
BRANCH  24  25
ATOM     25  C16 UNL     1       0.978   2.250   3.606  1.00  0.00     0.133 C   
BRANCH  25  26
ATOM     26  N3  UNL     1       0.756   2.200   2.168  1.00  0.00    -0.288 N   
ATOM     27  C17 UNL     1       1.570   1.548   1.277  1.00  0.00     0.189 A   
ATOM     28  C23 UNL     1      -0.376   2.590   1.496  1.00  0.00     0.060 A   
ATOM     29  N4  UNL     1       0.955   1.318   0.134  1.00  0.00    -0.239 NA  
ATOM     30  C18 UNL     1      -0.218   2.042   0.223  1.00  0.00     0.086 A   
ATOM     31  C22 UNL     1      -1.507   3.323   1.870  1.00  0.00     0.026 A   
ATOM     32  C19 UNL     1      -1.218   2.240  -0.741  1.00  0.00     0.030 A   
ATOM     33  C21 UNL     1      -2.493   3.510   0.894  1.00  0.00     0.002 A   
ATOM     34  C20 UNL     1      -2.352   2.982  -0.390  1.00  0.00     0.002 A   
ENDBRANCH  25  26
ENDBRANCH  24  25
ENDBRANCH   3  24
TORSDOF 8
