REMARK SMILES O=c1oc2ccccc2cc1-n1cc([C@@H]([NH2+]Cc2ccc3c(c2)OCO3)C2CCCCC2)nn1
REMARK SMILES IDX 15 1 14 2 12 3 13 4 34 5 33 6 11 7 2 8 3 9 4 10 10 11 5 12
REMARK SMILES IDX 9 13 6 14 8 15 7 16 1 17 16 18 17 21 18 22 19 23 23 24 20 25
REMARK SMILES IDX 22 26 21 27 24 28 26 29 25 30 27 31 28 32 32 33 29 34 31 35
REMARK SMILES IDX 30 36
REMARK H PARENT 16 19 16 20
ROOT
ATOM     1   C12 UNL     1       1.533   1.123   1.640  1.00  0.00     0.117 C   
ENDROOT
BRANCH   1   2
ATOM     2   C11 UNL     1       0.269   0.662   0.981  1.00  0.00     0.127 A   
ATOM     3   N1  UNL     1      -1.282  -0.312  -0.276  1.00  0.00    -0.174 N   
ATOM     4   C10 UNL     1      -0.017  -0.488   0.287  1.00  0.00     0.135 A   
ATOM     5   N4  UNL     1      -1.735   0.905   0.192  1.00  0.00    -0.071 NA  
ATOM     6   N3  UNL     1      -0.798   1.499   0.910  1.00  0.00    -0.131 NA  
BRANCH   3   7
ATOM     7   C9  UNL     1      -1.993  -1.157  -1.157  1.00  0.00     0.131 A   
ATOM     8   C1  UNL     1      -1.375  -2.392  -1.723  1.00  0.00     0.314 A   
ATOM     9   O2  UNL     1      -2.147  -3.191  -2.559  1.00  0.00    -0.273 OA  
ATOM     10  C2  UNL     1      -3.454  -2.838  -2.923  1.00  0.00     0.093 A   
ATOM     11  C8  UNL     1      -3.251  -0.843  -1.530  1.00  0.00     0.043 A   
ATOM     12  C3  UNL     1      -4.139  -3.689  -3.787  1.00  0.00     0.035 A   
ATOM     13  C7  UNL     1      -4.027  -1.675  -2.434  1.00  0.00     0.008 A   
ATOM     14  C4  UNL     1      -5.438  -3.360  -4.169  1.00  0.00     0.003 A   
ATOM     15  C6  UNL     1      -5.329  -1.349  -2.819  1.00  0.00     0.011 A   
ATOM     16  C5  UNL     1      -6.032  -2.192  -3.687  1.00  0.00     0.001 A   
ATOM     17  O1  UNL     1      -0.215  -2.713  -1.485  1.00  0.00    -0.259 OA  
ENDBRANCH   3   7
ENDBRANCH   1   2
BRANCH   1  18
ATOM     18  N2  UNL     1       1.838   2.522   1.119  1.00  0.00     0.249 N   
ATOM     19  H8  UNL     1       2.200   3.127   1.861  1.00  0.00     0.199 HD  
ATOM     20  H9  UNL     1       0.926   2.933   0.863  1.00  0.00     0.199 HD  
BRANCH  18  21
ATOM     21  C13 UNL     1       2.744   2.608  -0.066  1.00  0.00     0.164 C   
BRANCH  21  22
ATOM     22  C14 UNL     1       2.232   1.877  -1.275  1.00  0.00    -0.002 A   
ATOM     23  C15 UNL     1       1.109   2.363  -1.989  1.00  0.00     0.012 A   
ATOM     24  C19 UNL     1       2.822   0.661  -1.663  1.00  0.00     0.045 A   
ATOM     25  C16 UNL     1       0.556   1.630  -3.046  1.00  0.00     0.037 A   
ATOM     26  C18 UNL     1       2.249  -0.037  -2.706  1.00  0.00     0.109 A   
ATOM     27  C17 UNL     1       1.142   0.428  -3.371  1.00  0.00     0.108 A   
ATOM     28  O3  UNL     1       2.671  -1.240  -3.174  1.00  0.00    -0.316 OA  
ATOM     29  O4  UNL     1       0.717  -0.431  -4.333  1.00  0.00    -0.316 OA  
ATOM     30  C20 UNL     1       1.699  -1.486  -4.214  1.00  0.00     0.337 C   
ENDBRANCH  21  22
ENDBRANCH  18  21
ENDBRANCH   1  18
BRANCH   1  31
ATOM     31  C21 UNL     1       1.431   1.169   3.194  1.00  0.00     0.043 C   
ATOM     32  C22 UNL     1       2.763   1.554   3.880  1.00  0.00     0.010 C   
ATOM     33  C26 UNL     1       0.952  -0.168   3.805  1.00  0.00     0.010 C   
ATOM     34  C23 UNL     1       3.827   0.461   3.780  1.00  0.00     0.001 C   
ATOM     35  C25 UNL     1       1.992  -1.280   3.683  1.00  0.00     0.001 C   
ATOM     36  C24 UNL     1       3.319  -0.874   4.316  1.00  0.00     0.000 C   
ENDBRANCH   1  31
TORSDOF 6
