REMARK SMILES CC(C)(C)[C@H]([NH2+]Cc1ccc2c(c1)OCO2)c1cn(Cc2ccccc2F)nn1
REMARK SMILES IDX 17 1 18 2 19 3 28 4 29 5 5 7 2 8 1 9 3 10 4 11 6 12 7 15
REMARK SMILES IDX 8 16 9 17 13 18 10 19 12 20 11 21 14 22 16 23 15 24 20 25
REMARK SMILES IDX 21 26 22 27 26 28 23 29 25 30 24 31 27 32
REMARK H PARENT 18 6 6 13 6 14
ROOT
ATOM     1   C14 UNL     1       0.500   1.012   1.595  1.00  0.00     0.127 A   
ATOM     2   C15 UNL     1       0.159  -0.189   2.174  1.00  0.00     0.046 A   
ATOM     3   N2  UNL     1      -1.208  -0.162   2.209  1.00  0.00    -0.208 N   
ATOM     4   N3  UNL     1      -1.681   0.986   1.684  1.00  0.00    -0.076 NA  
ATOM     5   N4  UNL     1      -0.644   1.709   1.295  1.00  0.00    -0.132 NA  
ATOM     6   H20 UNL     1       0.730  -1.038   2.527  1.00  0.00     0.083 HD  
ENDROOT
BRANCH   1   7
ATOM     7   C5  UNL     1       1.823   1.581   1.178  1.00  0.00     0.120 C   
BRANCH   7   8
ATOM     8   C2  UNL     1       2.477   2.541   2.229  1.00  0.00     0.010 C   
ATOM     9   C1  UNL     1       1.620   3.788   2.523  1.00  0.00     0.017 C   
ATOM     10  C3  UNL     1       2.703   1.787   3.560  1.00  0.00     0.017 C   
ATOM     11  C4  UNL     1       3.866   3.004   1.731  1.00  0.00     0.017 C   
ENDBRANCH   7   8
BRANCH   7  12
ATOM     12  N1  UNL     1       1.615   2.296  -0.148  1.00  0.00     0.250 N   
ATOM     13  H11 UNL     1       1.995   3.245  -0.128  1.00  0.00     0.199 HD  
ATOM     14  H12 UNL     1       0.593   2.427  -0.235  1.00  0.00     0.199 HD  
BRANCH  12  15
ATOM     15  C6  UNL     1       2.102   1.596  -1.368  1.00  0.00     0.164 C   
BRANCH  15  16
ATOM     16  C7  UNL     1       1.542   0.214  -1.562  1.00  0.00    -0.002 A   
ATOM     17  C8  UNL     1       0.160   0.014  -1.795  1.00  0.00     0.012 A   
ATOM     18  C12 UNL     1       2.397  -0.901  -1.502  1.00  0.00     0.045 A   
ATOM     19  C9  UNL     1      -0.365  -1.273  -1.956  1.00  0.00     0.037 A   
ATOM     20  C11 UNL     1       1.848  -2.155  -1.668  1.00  0.00     0.109 A   
ATOM     21  C10 UNL     1       0.507  -2.337  -1.890  1.00  0.00     0.108 A   
ATOM     22  O1  UNL     1       2.535  -3.326  -1.633  1.00  0.00    -0.316 OA  
ATOM     23  O2  UNL     1       0.180  -3.648  -2.032  1.00  0.00    -0.316 OA  
ATOM     24  C13 UNL     1       1.472  -4.273  -1.883  1.00  0.00     0.337 C   
ENDBRANCH  15  16
ENDBRANCH  12  15
ENDBRANCH   7  12
ENDBRANCH   1   7
BRANCH   3  25
ATOM     25  C16 UNL     1      -2.115  -1.167   2.733  1.00  0.00     0.172 C   
BRANCH  25  26
ATOM     26  C17 UNL     1      -2.569  -2.104   1.651  1.00  0.00     0.007 A   
ATOM     27  C18 UNL     1      -3.760  -1.879   0.947  1.00  0.00     0.008 A   
ATOM     28  C22 UNL     1      -1.790  -3.213   1.309  1.00  0.00     0.128 A   
ATOM     29  C19 UNL     1      -4.160  -2.760  -0.061  1.00  0.00     0.001 A   
ATOM     30  C21 UNL     1      -2.186  -4.096   0.311  1.00  0.00     0.039 A   
ATOM     31  C20 UNL     1      -3.375  -3.869  -0.377  1.00  0.00     0.003 A   
ATOM     32  F1  UNL     1      -0.632  -3.430   1.950  1.00  0.00    -0.207 F   
ENDBRANCH  25  26
ENDBRANCH   3  25
TORSDOF 7
