REMARK SMILES Cc1cc([C@H](CO)n2cc([C@@H]([NH2+]Cc3ccc4c(c3)OCO4)C(C)C)nn2)c(C)o1
REMARK SMILES IDX 8 1 9 2 10 3 26 4 27 5 5 7 4 8 2 9 3 10 30 11 28 12 1 13
REMARK SMILES IDX 29 14 6 15 7 16 11 18 12 19 13 22 14 23 15 24 19 25 16 26
REMARK SMILES IDX 18 27 17 28 20 29 22 30 21 31 23 32 24 33 25 34
REMARK H PARENT 9 6 7 17 12 20 12 21
ROOT
ATOM     1   N1  UNL     1      -0.887  -0.025  -0.684  1.00  0.00    -0.202 N   
ATOM     2   C7  UNL     1      -0.375  -0.078   0.585  1.00  0.00     0.046 A   
ATOM     3   C8  UNL     1      -1.482  -0.019   1.398  1.00  0.00     0.127 A   
ATOM     4   N3  UNL     1      -2.608   0.069   0.622  1.00  0.00    -0.132 NA  
ATOM     5   N4  UNL     1      -2.235   0.064  -0.648  1.00  0.00    -0.075 NA  
ATOM     6   H9  UNL     1       0.689  -0.123   0.774  1.00  0.00     0.083 HD  
ENDROOT
BRANCH   1   7
ATOM     7   C5  UNL     1      -0.185  -0.016  -1.967  1.00  0.00     0.157 C   
BRANCH   7   8
ATOM     8   C4  UNL     1       0.844  -1.116  -2.020  1.00  0.00     0.005 A   
ATOM     9   C2  UNL     1       2.757  -2.304  -1.951  1.00  0.00     0.056 A   
ATOM     10  C3  UNL     1       2.251  -1.035  -1.791  1.00  0.00     0.037 A   
ATOM     11  O4  UNL     1       1.754  -3.168  -2.258  1.00  0.00    -0.319 OA  
ATOM     12  C21 UNL     1       0.601  -2.452  -2.304  1.00  0.00     0.061 A   
ATOM     13  C1  UNL     1       4.112  -2.881  -1.858  1.00  0.00     0.073 C   
ATOM     14  C22 UNL     1      -0.623  -3.216  -2.636  1.00  0.00     0.073 C   
ENDBRANCH   7   8
BRANCH   7  15
ATOM     15  C6  UNL     1       0.328   1.393  -2.308  1.00  0.00     0.186 C   
BRANCH  15  16
ATOM     16  O1  UNL     1       1.240   1.909  -1.335  1.00  0.00    -0.394 OA  
ATOM     17  H8  UNL     1       1.425   2.835  -1.586  1.00  0.00     0.210 HD  
ENDBRANCH  15  16
ENDBRANCH   7  15
ENDBRANCH   1   7
BRANCH   3  18
ATOM     18  C9  UNL     1      -1.607   0.039   2.885  1.00  0.00     0.117 C   
BRANCH  18  19
ATOM     19  N2  UNL     1      -2.743   0.963   3.266  1.00  0.00     0.249 N   
ATOM     20  H11 UNL     1      -3.269   0.592   4.061  1.00  0.00     0.199 HD  
ATOM     21  H12 UNL     1      -3.395   0.947   2.465  1.00  0.00     0.199 HD  
BRANCH  19  22
ATOM     22  C10 UNL     1      -2.376   2.381   3.545  1.00  0.00     0.164 C   
BRANCH  22  23
ATOM     23  C11 UNL     1      -1.793   3.111   2.368  1.00  0.00    -0.002 A   
ATOM     24  C12 UNL     1      -0.406   3.391   2.313  1.00  0.00     0.012 A   
ATOM     25  C16 UNL     1      -2.614   3.488   1.291  1.00  0.00     0.045 A   
ATOM     26  C13 UNL     1       0.159   4.021   1.199  1.00  0.00     0.037 A   
ATOM     27  C15 UNL     1      -2.026   4.111   0.210  1.00  0.00     0.109 A   
ATOM     28  C14 UNL     1      -0.678   4.365   0.161  1.00  0.00     0.108 A   
ATOM     29  O2  UNL     1      -2.673   4.530  -0.909  1.00  0.00    -0.316 OA  
ATOM     30  O3  UNL     1      -0.303   4.960  -1.002  1.00  0.00    -0.316 OA  
ATOM     31  C17 UNL     1      -1.586   5.128  -1.647  1.00  0.00     0.337 C   
ENDBRANCH  22  23
ENDBRANCH  19  22
ENDBRANCH  18  19
BRANCH  18  32
ATOM     32  C18 UNL     1      -1.807  -1.364   3.516  1.00  0.00     0.037 C   
ATOM     33  C19 UNL     1      -3.142  -2.031   3.163  1.00  0.00     0.014 C   
ATOM     34  C20 UNL     1      -1.635  -1.323   5.040  1.00  0.00     0.014 C   
ENDBRANCH  18  32
ENDBRANCH   3  18
TORSDOF 9
