REMARK SMILES Cc1cc([C@@H](CO)n2cc([C@@H]([NH2+]Cc3ccc4c(c3)OCO4)C(C)C)nn2)c(C)o1
REMARK SMILES IDX 8 1 9 2 10 3 26 4 27 5 5 7 4 8 2 9 3 10 30 11 28 12 1 13
REMARK SMILES IDX 29 14 6 15 7 16 11 18 12 19 13 22 14 23 15 24 19 25 16 26
REMARK SMILES IDX 18 27 17 28 20 29 22 30 21 31 23 32 24 33 25 34
REMARK H PARENT 9 6 7 17 12 20 12 21
ROOT
ATOM     1   N1  UNL     1       1.412  -1.108  -1.317  1.00  0.00    -0.202 N   
ATOM     2   C7  UNL     1       0.696  -1.720  -0.324  1.00  0.00     0.046 A   
ATOM     3   C8  UNL     1      -0.603  -1.324  -0.550  1.00  0.00     0.127 A   
ATOM     4   N3  UNL     1      -0.635  -0.480  -1.627  1.00  0.00    -0.132 NA  
ATOM     5   N4  UNL     1       0.596  -0.367  -2.099  1.00  0.00    -0.075 NA  
ATOM     6   H9  UNL     1       1.171  -2.336   0.427  1.00  0.00     0.083 HD  
ENDROOT
BRANCH   1   7
ATOM     7   C5  UNL     1       2.858  -1.067  -1.522  1.00  0.00     0.157 C   
BRANCH   7   8
ATOM     8   C4  UNL     1       3.495  -0.273  -0.407  1.00  0.00     0.005 A   
ATOM     9   C2  UNL     1       4.521   0.358   1.502  1.00  0.00     0.056 A   
ATOM     10  C3  UNL     1       4.127  -0.751   0.782  1.00  0.00     0.037 A   
ATOM     11  O4  UNL     1       4.176   1.490   0.838  1.00  0.00    -0.319 OA  
ATOM     12  C21 UNL     1       3.563   1.112  -0.319  1.00  0.00     0.061 A   
ATOM     13  C1  UNL     1       5.215   0.542   2.792  1.00  0.00     0.073 C   
ATOM     14  C22 UNL     1       3.097   2.214  -1.194  1.00  0.00     0.073 C   
ENDBRANCH   7   8
BRANCH   7  15
ATOM     15  C6  UNL     1       3.467  -2.463  -1.783  1.00  0.00     0.186 C   
BRANCH  15  16
ATOM     16  O1  UNL     1       3.273  -3.379  -0.704  1.00  0.00    -0.394 OA  
ATOM     17  H8  UNL     1       3.789  -4.183  -0.921  1.00  0.00     0.210 HD  
ENDBRANCH  15  16
ENDBRANCH   7  15
ENDBRANCH   1   7
BRANCH   3  18
ATOM     18  C9  UNL     1      -1.850  -1.577   0.226  1.00  0.00     0.117 C   
BRANCH  18  19
ATOM     19  N2  UNL     1      -2.589  -0.272   0.424  1.00  0.00     0.249 N   
ATOM     20  H11 UNL     1      -2.529   0.240  -0.472  1.00  0.00     0.199 HD  
ATOM     21  H12 UNL     1      -3.581  -0.436   0.597  1.00  0.00     0.199 HD  
BRANCH  19  22
ATOM     22  C10 UNL     1      -2.036   0.607   1.488  1.00  0.00     0.164 C   
BRANCH  22  23
ATOM     23  C11 UNL     1      -2.817   1.884   1.620  1.00  0.00    -0.002 A   
ATOM     24  C12 UNL     1      -4.169   1.860   2.058  1.00  0.00     0.012 A   
ATOM     25  C16 UNL     1      -2.199   3.117   1.332  1.00  0.00     0.045 A   
ATOM     26  C13 UNL     1      -4.898   3.047   2.179  1.00  0.00     0.037 A   
ATOM     27  C15 UNL     1      -2.943   4.269   1.482  1.00  0.00     0.109 A   
ATOM     28  C14 UNL     1      -4.254   4.236   1.888  1.00  0.00     0.108 A   
ATOM     29  O2  UNL     1      -2.494   5.530   1.270  1.00  0.00    -0.316 OA  
ATOM     30  O3  UNL     1      -4.803   5.476   1.976  1.00  0.00    -0.316 OA  
ATOM     31  C17 UNL     1      -3.668   6.298   1.628  1.00  0.00     0.337 C   
ENDBRANCH  22  23
ENDBRANCH  19  22
ENDBRANCH  18  19
BRANCH  18  32
ATOM     32  C18 UNL     1      -2.815  -2.607  -0.419  1.00  0.00     0.037 C   
ATOM     33  C19 UNL     1      -3.378  -2.190  -1.785  1.00  0.00     0.014 C   
ATOM     34  C20 UNL     1      -2.167  -3.991  -0.535  1.00  0.00     0.014 C   
ENDBRANCH  18  32
ENDBRANCH   3  18
TORSDOF 9
