REMARK SMILES Cn1cnc2cc(Cn3cc([C@@H]([NH2+]Cc4ccc5c(c4)OCO5)C(C)(C)C)nn3)ccc21
REMARK SMILES IDX 9 1 10 2 11 3 28 4 29 5 8 7 7 8 2 9 3 10 32 11 4 12 5 13
REMARK SMILES IDX 31 14 6 15 30 16 1 17 12 18 13 19 14 22 15 23 16 24 20 25
REMARK SMILES IDX 17 26 19 27 18 28 21 29 23 30 22 31 24 32 25 33 26 34 27 35
REMARK H PARENT 10 6 13 20 13 21
ROOT
ATOM     1   N3  UNL     1       0.754  -2.868   1.308  1.00  0.00    -0.208 N   
ATOM     2   C7  UNL     1       1.753  -2.035   0.877  1.00  0.00     0.046 A   
ATOM     3   C8  UNL     1       1.321  -0.780   1.244  1.00  0.00     0.127 A   
ATOM     4   N5  UNL     1       0.123  -0.892   1.904  1.00  0.00    -0.132 NA  
ATOM     5   N6  UNL     1      -0.210  -2.171   1.939  1.00  0.00    -0.076 NA  
ATOM     6   H8  UNL     1       2.606  -2.398   0.319  1.00  0.00     0.083 HD  
ENDROOT
BRANCH   1   7
ATOM     7   C6  UNL     1       0.592  -4.291   1.044  1.00  0.00     0.169 C   
BRANCH   7   8
ATOM     8   C5  UNL     1       0.488  -4.564  -0.440  1.00  0.00    -0.026 A   
ATOM     9   N1  UNL     1       0.005  -5.038  -4.503  1.00  0.00    -0.293 N   
ATOM     10  C2  UNL     1      -0.962  -4.090  -4.688  1.00  0.00     0.189 A   
ATOM     11  C24 UNL     1       0.338  -5.054  -3.171  1.00  0.00     0.059 A   
ATOM     12  N2  UNL     1      -1.280  -3.494  -3.560  1.00  0.00    -0.239 NA  
ATOM     13  C3  UNL     1      -0.499  -4.097  -2.608  1.00  0.00     0.086 A   
ATOM     14  C23 UNL     1       1.252  -5.795  -2.418  1.00  0.00     0.026 A   
ATOM     15  C4  UNL     1      -0.447  -3.863  -1.227  1.00  0.00     0.035 A   
ATOM     16  C22 UNL     1       1.312  -5.528  -1.042  1.00  0.00     0.007 A   
ATOM     17  C1  UNL     1       0.565  -5.876  -5.534  1.00  0.00     0.137 C   
ENDBRANCH   7   8
ENDBRANCH   1   7
BRANCH   3  18
ATOM     18  C9  UNL     1       1.862   0.582   0.932  1.00  0.00     0.120 C   
BRANCH  18  19
ATOM     19  N4  UNL     1       0.698   1.490   0.610  1.00  0.00     0.250 N   
ATOM     20  H10 UNL     1       0.938   2.482   0.682  1.00  0.00     0.199 HD  
ATOM     21  H11 UNL     1      -0.019   1.315   1.331  1.00  0.00     0.199 HD  
BRANCH  19  22
ATOM     22  C10 UNL     1       0.048   1.250  -0.712  1.00  0.00     0.164 C   
BRANCH  22  23
ATOM     23  C11 UNL     1      -1.157   2.133  -0.865  1.00  0.00    -0.002 A   
ATOM     24  C12 UNL     1      -2.421   1.693  -0.404  1.00  0.00     0.012 A   
ATOM     25  C16 UNL     1      -1.028   3.422  -1.409  1.00  0.00     0.045 A   
ATOM     26  C13 UNL     1      -3.546   2.519  -0.494  1.00  0.00     0.037 A   
ATOM     27  C15 UNL     1      -2.158   4.211  -1.482  1.00  0.00     0.109 A   
ATOM     28  C14 UNL     1      -3.381   3.773  -1.038  1.00  0.00     0.108 A   
ATOM     29  O1  UNL     1      -2.207   5.476  -1.977  1.00  0.00    -0.316 OA  
ATOM     30  O2  UNL     1      -4.355   4.706  -1.200  1.00  0.00    -0.316 OA  
ATOM     31  C17 UNL     1      -3.612   5.777  -1.821  1.00  0.00     0.337 C   
ENDBRANCH  22  23
ENDBRANCH  19  22
ENDBRANCH  18  19
BRANCH  18  32
ATOM     32  C18 UNL     1       2.745   1.202   2.069  1.00  0.00     0.010 C   
ATOM     33  C19 UNL     1       3.910   0.247   2.418  1.00  0.00     0.017 C   
ATOM     34  C20 UNL     1       3.380   2.528   1.591  1.00  0.00     0.017 C   
ATOM     35  C21 UNL     1       1.948   1.485   3.358  1.00  0.00     0.017 C   
ENDBRANCH  18  32
ENDBRANCH   3  18
TORSDOF 7
