REMARK SMILES [O-]N([O-])c1ccc(F)c(-n2cc([C@@H]([NH2+]Cc3ccc4c(c3)OCO4)C3CCCCC3)nn2)c1
REMARK SMILES IDX 10 1 11 2 12 3 31 4 32 5 9 6 4 7 5 8 33 9 6 10 7 11 8 12
REMARK SMILES IDX 2 13 1 14 3 15 13 16 14 17 15 20 16 21 17 22 21 23 18 24
REMARK SMILES IDX 20 25 19 26 22 27 24 28 23 29 25 30 26 31 30 32 27 33 29 34
REMARK SMILES IDX 28 35
REMARK H PARENT 14 18 14 19
ROOT
ATOM     1   N2  UNL     1       1.539  -0.060  -2.183  1.00  0.00    -0.178 N   
ATOM     2   C6  UNL     1       0.524  -0.582  -1.403  1.00  0.00     0.135 A   
ATOM     3   C7  UNL     1       1.017  -0.598  -0.116  1.00  0.00     0.127 A   
ATOM     4   N4  UNL     1       2.271  -0.064  -0.127  1.00  0.00    -0.131 NA  
ATOM     5   N5  UNL     1       2.577   0.260  -1.371  1.00  0.00    -0.071 NA  
ENDROOT
BRANCH   1   6
ATOM     6   C5  UNL     1       1.597   0.175  -3.578  1.00  0.00     0.095 A   
ATOM     7   C1  UNL     1       2.850   0.919  -5.529  1.00  0.00     0.120 A   
ATOM     8   C2  UNL     1       1.743   0.664  -6.349  1.00  0.00     0.034 A   
ATOM     9   C23 UNL     1       2.784   0.678  -4.146  1.00  0.00     0.060 A   
ATOM     10  C3  UNL     1       0.568   0.167  -5.781  1.00  0.00     0.043 A   
ATOM     11  C4  UNL     1       0.499  -0.074  -4.408  1.00  0.00     0.146 A   
ATOM     12  F1  UNL     1      -0.661  -0.535  -3.922  1.00  0.00    -0.205 F   
BRANCH   7  13
ATOM     13  N1  UNL     1       4.089   1.445  -6.122  1.00  0.00     0.092 N   
ATOM     14  O1  UNL     1       4.103   1.632  -7.346  1.00  0.00    -0.138 OA  
ATOM     15  O2  UNL     1       5.038   1.668  -5.359  1.00  0.00    -0.138 OA  
ENDBRANCH   7  13
ENDBRANCH   1   6
BRANCH   3  16
ATOM     16  C8  UNL     1       0.423  -1.015   1.197  1.00  0.00     0.117 C   
BRANCH  16  17
ATOM     17  N3  UNL     1      -0.324   0.110   1.860  1.00  0.00     0.249 N   
ATOM     18  H5  UNL     1      -1.047   0.467   1.226  1.00  0.00     0.199 HD  
ATOM     19  H6  UNL     1      -0.819  -0.235   2.688  1.00  0.00     0.199 HD  
BRANCH  17  20
ATOM     20  C9  UNL     1       0.522   1.264   2.292  1.00  0.00     0.164 C   
BRANCH  20  21
ATOM     21  C10 UNL     1      -0.329   2.308   2.960  1.00  0.00    -0.002 A   
ATOM     22  C11 UNL     1      -0.659   2.195   4.333  1.00  0.00     0.012 A   
ATOM     23  C15 UNL     1      -0.845   3.379   2.210  1.00  0.00     0.045 A   
ATOM     24  C12 UNL     1      -1.486   3.139   4.953  1.00  0.00     0.037 A   
ATOM     25  C14 UNL     1      -1.653   4.294   2.854  1.00  0.00     0.109 A   
ATOM     26  C13 UNL     1      -1.969   4.176   4.185  1.00  0.00     0.108 A   
ATOM     27  O3  UNL     1      -2.225   5.385   2.281  1.00  0.00    -0.316 OA  
ATOM     28  O4  UNL     1      -2.781   5.175   4.616  1.00  0.00    -0.316 OA  
ATOM     29  C16 UNL     1      -2.920   5.958   3.410  1.00  0.00     0.337 C   
ENDBRANCH  20  21
ENDBRANCH  17  20
ENDBRANCH  16  17
BRANCH  16  30
ATOM     30  C17 UNL     1      -0.459  -2.293   1.125  1.00  0.00     0.043 C   
ATOM     31  C18 UNL     1      -0.502  -3.011   2.491  1.00  0.00     0.010 C   
ATOM     32  C22 UNL     1      -1.901  -2.066   0.629  1.00  0.00     0.010 C   
ATOM     33  C19 UNL     1      -1.281  -4.323   2.414  1.00  0.00     0.001 C   
ATOM     34  C21 UNL     1      -2.671  -3.383   0.533  1.00  0.00     0.001 C   
ATOM     35  C20 UNL     1      -2.689  -4.119   1.868  1.00  0.00     0.000 C   
ENDBRANCH  16  30
ENDBRANCH   3  16
TORSDOF 7
