REMARK SMILES CC(C)[C@H]([NH2+]Cc1ccc2c(c1)OCO2)c1cn(-c2ccccc2N(C)C)nn1
REMARK SMILES IDX 16 1 17 2 18 3 28 4 29 5 4 6 2 7 1 8 3 9 5 10 6 13 7 14 8 15
REMARK SMILES IDX 12 16 9 17 11 18 10 19 13 20 15 21 14 22 19 23 20 24 24 25
REMARK SMILES IDX 21 26 23 27 22 28 25 29 26 30 27 31
REMARK H PARENT 5 11 5 12
ROOT
ATOM     1   C13 UNL     1       0.583   0.249  -0.936  1.00  0.00     0.127 A   
ATOM     2   C14 UNL     1       0.999  -0.882  -1.597  1.00  0.00     0.135 A   
ATOM     3   N2  UNL     1       1.731  -1.610  -0.676  1.00  0.00    -0.179 N   
ATOM     4   N4  UNL     1       1.679  -0.939   0.514  1.00  0.00    -0.071 NA  
ATOM     5   N5  UNL     1       1.010   0.190   0.358  1.00  0.00    -0.131 NA  
ENDROOT
BRANCH   1   6
ATOM     6   C4  UNL     1      -0.255   1.400  -1.385  1.00  0.00     0.117 C   
BRANCH   6   7
ATOM     7   C2  UNL     1       0.550   2.558  -2.030  1.00  0.00     0.037 C   
ATOM     8   C1  UNL     1       1.203   2.128  -3.349  1.00  0.00     0.014 C   
ATOM     9   C3  UNL     1       1.605   3.180  -1.109  1.00  0.00     0.014 C   
ENDBRANCH   6   7
BRANCH   6  10
ATOM     10  N1  UNL     1      -1.033   1.957  -0.217  1.00  0.00     0.249 N   
ATOM     11  H9  UNL     1      -1.353   2.913  -0.397  1.00  0.00     0.199 HD  
ATOM     12  H10 UNL     1      -0.378   2.013   0.578  1.00  0.00     0.199 HD  
BRANCH  10  13
ATOM     13  C5  UNL     1      -2.189   1.129   0.230  1.00  0.00     0.164 C   
BRANCH  13  14
ATOM     14  C6  UNL     1      -2.838   1.745   1.437  1.00  0.00    -0.002 A   
ATOM     15  C7  UNL     1      -3.935   2.627   1.292  1.00  0.00     0.012 A   
ATOM     16  C11 UNL     1      -2.319   1.488   2.718  1.00  0.00     0.045 A   
ATOM     17  C8  UNL     1      -4.517   3.237   2.409  1.00  0.00     0.037 A   
ATOM     18  C10 UNL     1      -2.916   2.106   3.797  1.00  0.00     0.109 A   
ATOM     19  C9  UNL     1      -3.984   2.955   3.647  1.00  0.00     0.108 A   
ATOM     20  O1  UNL     1      -2.541   1.967   5.095  1.00  0.00    -0.316 OA  
ATOM     21  O2  UNL     1      -4.418   3.457   4.833  1.00  0.00    -0.316 OA  
ATOM     22  C12 UNL     1      -3.513   2.811   5.754  1.00  0.00     0.337 C   
ENDBRANCH  13  14
ENDBRANCH  10  13
ENDBRANCH   6  10
ENDBRANCH   1   6
BRANCH   3  23
ATOM     23  C15 UNL     1       2.425  -2.849  -0.793  1.00  0.00     0.079 A   
ATOM     24  C16 UNL     1       2.959  -3.400   0.395  1.00  0.00     0.028 A   
ATOM     25  C20 UNL     1       2.592  -3.539  -2.016  1.00  0.00     0.052 A   
ATOM     26  C17 UNL     1       3.635  -4.619   0.386  1.00  0.00     0.002 A   
ATOM     27  C19 UNL     1       3.285  -4.771  -1.989  1.00  0.00     0.025 A   
ATOM     28  C18 UNL     1       3.795  -5.307  -0.806  1.00  0.00     0.002 A   
BRANCH  25  29
ATOM     29  N3  UNL     1       2.143  -3.010  -3.252  1.00  0.00    -0.335 N   
ATOM     30  C21 UNL     1       3.277  -2.492  -4.038  1.00  0.00     0.129 C   
ATOM     31  C22 UNL     1       1.295  -3.945  -4.008  1.00  0.00     0.129 C   
ENDBRANCH  25  29
ENDBRANCH   3  23
TORSDOF 7
