REMARK SMILES Cc1cc(-n2cc([C@@H]([NH2+]Cc3ccc4c(c3)OCO4)C3CCCCC3)nn2)cnc1Cl
REMARK SMILES IDX 8 1 7 2 5 3 6 4 27 5 26 6 4 7 2 8 3 9 30 10 29 11 28 12 1 13
REMARK SMILES IDX 31 14 9 15 10 18 11 19 12 20 16 21 13 22 15 23 14 24 17 25
REMARK SMILES IDX 19 26 18 27 20 28 21 29 25 30 22 31 24 32 23 33
REMARK H PARENT 9 16 9 17
ROOT
ATOM     1   C7  UNL     1      -0.091  -0.601  -0.973  1.00  0.00     0.117 C   
ENDROOT
BRANCH   1   2
ATOM     2   C6  UNL     1       0.521  -0.342   0.372  1.00  0.00     0.127 A   
ATOM     3   N1  UNL     1       1.649  -0.296   2.250  1.00  0.00    -0.179 N   
ATOM     4   C5  UNL     1       1.470  -1.033   1.094  1.00  0.00     0.135 A   
ATOM     5   N4  UNL     1       0.811   0.770   2.220  1.00  0.00    -0.071 NA  
ATOM     6   N3  UNL     1       0.136   0.759   1.084  1.00  0.00    -0.131 NA  
BRANCH   3   7
ATOM     7   C4  UNL     1       2.529  -0.526   3.328  1.00  0.00     0.076 A   
ATOM     8   C2  UNL     1       4.247  -1.804   4.463  1.00  0.00    -0.012 A   
ATOM     9   C3  UNL     1       3.388  -1.629   3.366  1.00  0.00     0.034 A   
ATOM     10  C23 UNL     1       4.202  -0.841   5.470  1.00  0.00     0.132 A   
ATOM     11  N5  UNL     1       3.382   0.232   5.456  1.00  0.00    -0.242 NA  
ATOM     12  C22 UNL     1       2.564   0.369   4.391  1.00  0.00     0.138 A   
ATOM     13  C1  UNL     1       5.186  -2.972   4.514  1.00  0.00     0.048 C   
ATOM     14  CL1 UNL     1       5.209  -0.905   6.859  1.00  0.00    -0.062 Cl  
ENDBRANCH   3   7
ENDBRANCH   1   2
BRANCH   1  15
ATOM     15  N2  UNL     1      -1.335   0.228  -1.149  1.00  0.00     0.249 N   
ATOM     16  H7  UNL     1      -1.143   1.149  -0.724  1.00  0.00     0.199 HD  
ATOM     17  H8  UNL     1      -1.547   0.414  -2.134  1.00  0.00     0.199 HD  
BRANCH  15  18
ATOM     18  C8  UNL     1      -2.558  -0.308  -0.489  1.00  0.00     0.164 C   
BRANCH  18  19
ATOM     19  C9  UNL     1      -3.685   0.679  -0.595  1.00  0.00    -0.002 A   
ATOM     20  C10 UNL     1      -3.886   1.636   0.428  1.00  0.00     0.012 A   
ATOM     21  C14 UNL     1      -4.511   0.696  -1.732  1.00  0.00     0.045 A   
ATOM     22  C11 UNL     1      -4.906   2.589   0.331  1.00  0.00     0.037 A   
ATOM     23  C13 UNL     1      -5.504   1.651  -1.798  1.00  0.00     0.109 A   
ATOM     24  C12 UNL     1      -5.698   2.569  -0.796  1.00  0.00     0.108 A   
ATOM     25  O1  UNL     1      -6.384   1.804  -2.822  1.00  0.00    -0.316 OA  
ATOM     26  O2  UNL     1      -6.727   3.414  -1.060  1.00  0.00    -0.316 OA  
ATOM     27  C15 UNL     1      -7.172   2.917  -2.340  1.00  0.00     0.337 C   
ENDBRANCH  18  19
ENDBRANCH  15  18
ENDBRANCH   1  15
BRANCH   1  28
ATOM     28  C16 UNL     1       0.908  -0.330  -2.129  1.00  0.00     0.043 C   
ATOM     29  C17 UNL     1       0.400  -0.895  -3.471  1.00  0.00     0.010 C   
ATOM     30  C21 UNL     1       1.292   1.154  -2.288  1.00  0.00     0.010 C   
ATOM     31  C18 UNL     1       1.423  -0.695  -4.588  1.00  0.00     0.001 C   
ATOM     32  C20 UNL     1       2.313   1.350  -3.408  1.00  0.00     0.001 C   
ATOM     33  C19 UNL     1       1.820   0.771  -4.730  1.00  0.00     0.000 C   
ENDBRANCH   1  28
TORSDOF 6
