REMARK SMILES NS(=O)(=O)c1ccc(-n2cc([C@@H]([NH2+]Cc3ccc4c(c3)OCO4)C3CCCC3)nn2)cc1
REMARK SMILES IDX 9 1 10 2 11 3 29 4 30 5 8 6 5 7 6 8 32 9 7 10 31 11 2 12
REMARK SMILES IDX 3 13 4 14 1 15 12 18 13 19 14 22 15 23 16 24 20 25 17 26
REMARK SMILES IDX 19 27 18 28 21 29 23 30 22 31 24 32 25 33 28 34 26 35 27 36
REMARK H PARENT 1 16 1 17 13 20 13 21
ROOT
ATOM     1   N2  UNL     1      -1.813  -0.570   0.810  1.00  0.00    -0.181 N   
ATOM     2   C5  UNL     1      -1.862   0.619   0.105  1.00  0.00     0.135 A   
ATOM     3   C6  UNL     1      -0.905   0.492  -0.878  1.00  0.00     0.127 A   
ATOM     4   N4  UNL     1      -0.297  -0.724  -0.754  1.00  0.00    -0.131 NA  
ATOM     5   N5  UNL     1      -0.839  -1.350   0.277  1.00  0.00    -0.071 NA  
ENDROOT
BRANCH   1   6
ATOM     6   C4  UNL     1      -2.585  -0.986   1.923  1.00  0.00     0.058 A   
ATOM     7   C1  UNL     1      -4.076  -1.839   4.131  1.00  0.00     0.338 A   
ATOM     8   C2  UNL     1      -4.328  -0.587   3.565  1.00  0.00     0.140 A   
ATOM     9   C22 UNL     1      -3.080  -2.666   3.610  1.00  0.00     0.140 A   
ATOM     10  C3  UNL     1      -3.586  -0.160   2.457  1.00  0.00     0.038 A   
ATOM     11  C21 UNL     1      -2.338  -2.242   2.504  1.00  0.00     0.038 A   
BRANCH   7  12
ATOM     12  S1  UNL     1      -4.978  -2.347   5.569  1.00  0.00    -0.114 S   
ATOM     13  O1  UNL     1      -5.438  -1.168   6.265  1.00  0.00    -0.479 OA  
ATOM     14  O2  UNL     1      -4.253  -3.409   6.226  1.00  0.00    -0.479 OA  
BRANCH  12  15
ATOM     15  N1  UNL     1      -6.340  -3.056   4.891  1.00  0.00    -0.094 NA  
ATOM     16  H1  UNL     1      -7.177  -2.549   5.185  1.00  0.00     0.263 HD  
ATOM     17  H2  UNL     1      -6.367  -4.049   5.132  1.00  0.00     0.263 HD  
ENDBRANCH  12  15
ENDBRANCH   7  12
ENDBRANCH   1   6
BRANCH   3  18
ATOM     18  C7  UNL     1      -0.448   1.434  -1.948  1.00  0.00     0.117 C   
BRANCH  18  19
ATOM     19  N3  UNL     1       1.018   1.206  -2.227  1.00  0.00     0.249 N   
ATOM     20  H7  UNL     1       1.151   0.187  -2.315  1.00  0.00     0.199 HD  
ATOM     21  H8  UNL     1       1.307   1.607  -3.124  1.00  0.00     0.199 HD  
BRANCH  19  22
ATOM     22  C8  UNL     1       1.957   1.687  -1.175  1.00  0.00     0.164 C   
BRANCH  22  23
ATOM     23  C9  UNL     1       3.365   1.288  -1.513  1.00  0.00    -0.002 A   
ATOM     24  C10 UNL     1       3.875   0.043  -1.070  1.00  0.00     0.012 A   
ATOM     25  C14 UNL     1       4.162   2.114  -2.324  1.00  0.00     0.045 A   
ATOM     26  C11 UNL     1       5.166  -0.370  -1.418  1.00  0.00     0.037 A   
ATOM     27  C13 UNL     1       5.430   1.675  -2.650  1.00  0.00     0.109 A   
ATOM     28  C12 UNL     1       5.918   0.470  -2.209  1.00  0.00     0.108 A   
ATOM     29  O3  UNL     1       6.323   2.347  -3.423  1.00  0.00    -0.316 OA  
ATOM     30  O4  UNL     1       7.182   0.233  -2.646  1.00  0.00    -0.316 OA  
ATOM     31  C15 UNL     1       7.446   1.436  -3.399  1.00  0.00     0.337 C   
ENDBRANCH  22  23
ENDBRANCH  19  22
ENDBRANCH  18  19
BRANCH  18  32
ATOM     32  C16 UNL     1      -1.229   1.239  -3.264  1.00  0.00     0.043 C   
ATOM     33  C17 UNL     1      -2.727   1.532  -3.136  1.00  0.00     0.010 C   
ATOM     34  C20 UNL     1      -0.818   2.198  -4.388  1.00  0.00     0.010 C   
ATOM     35  C18 UNL     1      -3.194   1.656  -4.579  1.00  0.00     0.001 C   
ATOM     36  C19 UNL     1      -2.012   2.247  -5.340  1.00  0.00     0.001 C   
ENDBRANCH  18  32
ENDBRANCH   3  18
TORSDOF 8
