REMARK SMILES c1nc(CCn2cc([C@@H]([NH2+]Cc3ccc4c(c3)OCO4)C3CCCCC3)nn2)n[nH]1
REMARK SMILES IDX 6 1 7 2 8 3 27 4 28 5 5 7 4 8 3 9 1 10 2 11 30 12 29 13 9 15
REMARK SMILES IDX 10 16 11 19 12 20 13 21 17 22 14 23 16 24 15 25 18 26 20 27
REMARK SMILES IDX 19 28 21 29 22 30 26 31 23 32 25 33 24 34
REMARK H PARENT 7 6 30 14 10 17 10 18
ROOT
ATOM     1   N2  UNL     1      -2.369  -1.075  -1.489  1.00  0.00    -0.212 N   
ATOM     2   C5  UNL     1      -1.123  -0.523  -1.576  1.00  0.00     0.045 A   
ATOM     3   C6  UNL     1      -0.410  -1.182  -0.600  1.00  0.00     0.127 A   
ATOM     4   N4  UNL     1      -1.197  -2.157  -0.043  1.00  0.00    -0.132 NA  
ATOM     5   N5  UNL     1      -2.390  -2.091  -0.608  1.00  0.00    -0.076 NA  
ATOM     6   H6  UNL     1      -0.914   0.336  -2.199  1.00  0.00     0.083 HD  
ENDROOT
BRANCH   1   7
ATOM     7   C4  UNL     1      -3.606  -0.556  -2.037  1.00  0.00     0.142 C   
BRANCH   7   8
ATOM     8   C3  UNL     1      -4.324   0.343  -1.035  1.00  0.00     0.100 C   
BRANCH   8   9
ATOM     9   C2  UNL     1      -3.598   1.620  -0.797  1.00  0.00     0.149 A   
ATOM     10  C1  UNL     1      -2.962   3.598  -1.114  1.00  0.00     0.205 A   
ATOM     11  N1  UNL     1      -3.653   2.649  -1.697  1.00  0.00    -0.223 NA  
ATOM     12  N7  UNL     1      -2.483   3.144   0.073  1.00  0.00    -0.226 N   
ATOM     13  N6  UNL     1      -2.816   1.850   0.270  1.00  0.00    -0.168 NA  
ATOM     14  H28 UNL     1      -1.929   3.639   0.767  1.00  0.00     0.177 HD  
ENDBRANCH   8   9
ENDBRANCH   7   8
ENDBRANCH   1   7
BRANCH   3  15
ATOM     15  C7  UNL     1       0.897  -0.839   0.033  1.00  0.00     0.117 C   
BRANCH  15  16
ATOM     16  N3  UNL     1       0.648  -0.777   1.523  1.00  0.00     0.249 N   
ATOM     17  H8  UNL     1      -0.281  -0.345   1.635  1.00  0.00     0.199 HD  
ATOM     18  H9  UNL     1       0.495  -1.733   1.866  1.00  0.00     0.199 HD  
BRANCH  16  19
ATOM     19  C8  UNL     1       1.612  -0.041   2.374  1.00  0.00     0.164 C   
BRANCH  19  20
ATOM     20  C9  UNL     1       1.746   1.413   2.004  1.00  0.00    -0.002 A   
ATOM     21  C10 UNL     1       3.004   1.932   1.615  1.00  0.00     0.012 A   
ATOM     22  C14 UNL     1       0.625   2.265   2.026  1.00  0.00     0.045 A   
ATOM     23  C11 UNL     1       3.146   3.273   1.242  1.00  0.00     0.037 A   
ATOM     24  C13 UNL     1       0.797   3.579   1.642  1.00  0.00     0.109 A   
ATOM     25  C12 UNL     1       2.023   4.070   1.265  1.00  0.00     0.108 A   
ATOM     26  O1  UNL     1      -0.184   4.521   1.569  1.00  0.00    -0.316 OA  
ATOM     27  O2  UNL     1       1.975   5.385   0.931  1.00  0.00    -0.316 OA  
ATOM     28  C15 UNL     1       0.595   5.691   1.210  1.00  0.00     0.337 C   
ENDBRANCH  19  20
ENDBRANCH  16  19
ENDBRANCH  15  16
BRANCH  15  29
ATOM     29  C16 UNL     1       2.071  -1.789  -0.305  1.00  0.00     0.043 C   
ATOM     30  C17 UNL     1       1.870  -3.254   0.128  1.00  0.00     0.010 C   
ATOM     31  C21 UNL     1       2.413  -1.723  -1.809  1.00  0.00     0.010 C   
ATOM     32  C18 UNL     1       3.080  -4.119  -0.227  1.00  0.00     0.001 C   
ATOM     33  C20 UNL     1       3.621  -2.590  -2.155  1.00  0.00     0.001 C   
ATOM     34  C19 UNL     1       3.421  -4.034  -1.711  1.00  0.00     0.000 C   
ENDBRANCH  15  29
ENDBRANCH   3  15
TORSDOF 8
