REMARK SMILES CCCC[C@H](CC)Cn1cc([C@@H]([NH2+]Cc2ccc3c(c2)OCO3)C2CCCC2)nn1
REMARK SMILES IDX 8 1 5 2 4 3 3 4 2 5 1 6 6 7 7 8 9 9 10 10 30 11 11 12 29 13
REMARK SMILES IDX 12 15 13 16 14 19 15 20 16 21 20 22 17 23 19 24 18 25 21 26
REMARK SMILES IDX 23 27 22 28 24 29 25 30 28 31 26 32 27 33
REMARK H PARENT 10 14 13 17 13 18
ROOT
ATOM     1   C8  UNL     1      -3.264   1.338   1.024  1.00  0.00     0.137 C   
ENDROOT
BRANCH   1   2
ATOM     2   C5  UNL     1      -3.849   0.261   1.968  1.00  0.00     0.008 C   
BRANCH   2   3
ATOM     3   C4  UNL     1      -3.022   0.049   3.256  1.00  0.00     0.005 C   
BRANCH   3   4
ATOM     4   C3  UNL     1      -2.913   1.301   4.134  1.00  0.00     0.000 C   
BRANCH   4   5
ATOM     5   C2  UNL     1      -2.130   1.007   5.416  1.00  0.00    -0.003 C   
ATOM     6   C1  UNL     1      -2.049   2.233   6.311  1.00  0.00     0.004 C   
ENDBRANCH   4   5
ENDBRANCH   3   4
ENDBRANCH   2   3
BRANCH   2   7
ATOM     7   C6  UNL     1      -4.059  -1.068   1.205  1.00  0.00     0.002 C   
ATOM     8   C7  UNL     1      -4.924  -2.075   1.953  1.00  0.00     0.004 C   
ENDBRANCH   2   7
ENDBRANCH   1   2
BRANCH   1   9
ATOM     9   N1  UNL     1      -1.920   1.078   0.550  1.00  0.00    -0.212 N   
ATOM     10  C9  UNL     1      -1.529   0.412  -0.577  1.00  0.00     0.045 A   
ATOM     11  N4  UNL     1      -0.853   1.552   1.218  1.00  0.00    -0.076 NA  
ATOM     12  C10 UNL     1      -0.152   0.415  -0.506  1.00  0.00     0.127 A   
ATOM     13  N3  UNL     1       0.235   1.131   0.598  1.00  0.00    -0.132 NA  
ATOM     14  H18 UNL     1      -2.238  -0.013  -1.273  1.00  0.00     0.083 HD  
BRANCH  12  15
ATOM     15  C11 UNL     1       0.899  -0.158  -1.403  1.00  0.00     0.117 C   
BRANCH  15  16
ATOM     16  N2  UNL     1       2.202   0.587  -1.182  1.00  0.00     0.249 N   
ATOM     17  H20 UNL     1       3.005   0.000  -1.426  1.00  0.00     0.199 HD  
ATOM     18  H21 UNL     1       2.257   0.761  -0.167  1.00  0.00     0.199 HD  
BRANCH  16  19
ATOM     19  C12 UNL     1       2.326   1.905  -1.866  1.00  0.00     0.164 C   
BRANCH  19  20
ATOM     20  C13 UNL     1       2.523   1.769  -3.352  1.00  0.00    -0.002 A   
ATOM     21  C14 UNL     1       1.560   2.287  -4.250  1.00  0.00     0.012 A   
ATOM     22  C18 UNL     1       3.665   1.124  -3.861  1.00  0.00     0.045 A   
ATOM     23  C15 UNL     1       1.717   2.145  -5.635  1.00  0.00     0.037 A   
ATOM     24  C17 UNL     1       3.787   1.000  -5.230  1.00  0.00     0.109 A   
ATOM     25  C16 UNL     1       2.841   1.494  -6.092  1.00  0.00     0.108 A   
ATOM     26  O1  UNL     1       4.816   0.393  -5.877  1.00  0.00    -0.316 OA  
ATOM     27  O2  UNL     1       3.158   1.263  -7.393  1.00  0.00    -0.316 OA  
ATOM     28  C19 UNL     1       4.430   0.594  -7.255  1.00  0.00     0.337 C   
ENDBRANCH  19  20
ENDBRANCH  16  19
ENDBRANCH  15  16
BRANCH  15  29
ATOM     29  C20 UNL     1       1.189  -1.655  -1.190  1.00  0.00     0.043 C   
ATOM     30  C21 UNL     1       0.013  -2.598  -1.451  1.00  0.00     0.010 C   
ATOM     31  C24 UNL     1       1.638  -2.072   0.214  1.00  0.00     0.010 C   
ATOM     32  C22 UNL     1       0.534  -3.933  -0.932  1.00  0.00     0.001 C   
ATOM     33  C23 UNL     1       1.416  -3.586   0.264  1.00  0.00     0.001 C   
ENDBRANCH  15  29
ENDBRANCH  12  15
ENDBRANCH   1   9
TORSDOF 11
