REMARK SMILES COc1ccc(Cn2cc([C@H](CC(C)C)[NH2+]Cc3ccc4c(c3)OCO4)nn2)cc1C
REMARK SMILES IDX 8 1 9 2 10 3 27 4 28 5 7 7 6 8 3 9 4 10 30 11 5 12 29 13
REMARK SMILES IDX 31 14 2 15 1 16 11 17 12 18 13 19 14 20 15 21 16 22 17 25
REMARK SMILES IDX 18 26 19 27 23 28 20 29 22 30 21 31 24 32 26 33 25 34
REMARK H PARENT 9 6 16 23 16 24
ROOT
ATOM     1   N1  UNL     1       1.780  -0.248  -1.067  1.00  0.00    -0.208 N   
ATOM     2   C7  UNL     1       0.578  -0.231  -0.413  1.00  0.00     0.046 A   
ATOM     3   C8  UNL     1       0.921  -0.047   0.908  1.00  0.00     0.127 A   
ATOM     4   N3  UNL     1       2.288  -0.034   1.020  1.00  0.00    -0.132 NA  
ATOM     5   N4  UNL     1       2.801  -0.181  -0.191  1.00  0.00    -0.076 NA  
ATOM     6   H8  UNL     1      -0.366  -0.295  -0.936  1.00  0.00     0.083 HD  
ENDROOT
BRANCH   1   7
ATOM     7   C6  UNL     1       2.027  -0.314  -2.498  1.00  0.00     0.169 C   
BRANCH   7   8
ATOM     8   C5  UNL     1       1.544   0.938  -3.187  1.00  0.00    -0.028 A   
ATOM     9   C2  UNL     1       0.617   3.296  -4.429  1.00  0.00     0.077 A   
ATOM     10  C3  UNL     1      -0.026   2.075  -4.653  1.00  0.00     0.034 A   
ATOM     11  C23 UNL     1       1.739   3.341  -3.583  1.00  0.00    -0.020 A   
ATOM     12  C4  UNL     1       0.434   0.906  -4.039  1.00  0.00     0.008 A   
ATOM     13  C22 UNL     1       2.194   2.162  -2.971  1.00  0.00     0.011 A   
ATOM     14  C24 UNL     1       2.453   4.640  -3.324  1.00  0.00     0.047 C   
BRANCH   9  15
ATOM     15  O1  UNL     1       0.237   4.494  -4.973  1.00  0.00    -0.349 OA  
ATOM     16  C1  UNL     1      -0.852   4.487  -5.887  1.00  0.00     0.203 C   
ENDBRANCH   9  15
ENDBRANCH   7   8
ENDBRANCH   1   7
BRANCH   3  17
ATOM     17  C9  UNL     1       0.083   0.103   2.133  1.00  0.00     0.114 C   
BRANCH  17  18
ATOM     18  C10 UNL     1      -0.189   1.581   2.484  1.00  0.00     0.064 C   
BRANCH  18  19
ATOM     19  C11 UNL     1      -1.004   2.372   1.437  1.00  0.00    -0.012 C   
ATOM     20  C12 UNL     1      -1.153   3.827   1.892  1.00  0.00     0.007 C   
ATOM     21  C13 UNL     1      -2.387   1.766   1.194  1.00  0.00     0.007 C   
ENDBRANCH  18  19
ENDBRANCH  17  18
BRANCH  17  22
ATOM     22  N2  UNL     1       0.799  -0.499   3.328  1.00  0.00     0.249 N   
ATOM     23  H19 UNL     1       1.753  -0.109   3.313  1.00  0.00     0.199 HD  
ATOM     24  H20 UNL     1       0.357  -0.192   4.198  1.00  0.00     0.199 HD  
BRANCH  22  25
ATOM     25  C14 UNL     1       0.931  -1.986   3.341  1.00  0.00     0.164 C   
BRANCH  25  26
ATOM     26  C15 UNL     1      -0.388  -2.687   3.512  1.00  0.00    -0.002 A   
ATOM     27  C16 UNL     1      -1.043  -2.688   4.767  1.00  0.00     0.012 A   
ATOM     28  C20 UNL     1      -0.996  -3.319   2.413  1.00  0.00     0.045 A   
ATOM     29  C17 UNL     1      -2.289  -3.305   4.926  1.00  0.00     0.037 A   
ATOM     30  C19 UNL     1      -2.225  -3.917   2.604  1.00  0.00     0.109 A   
ATOM     31  C18 UNL     1      -2.854  -3.909   3.824  1.00  0.00     0.108 A   
ATOM     32  O2  UNL     1      -2.948  -4.560   1.651  1.00  0.00    -0.316 OA  
ATOM     33  O3  UNL     1      -4.051  -4.549   3.794  1.00  0.00    -0.316 OA  
ATOM     34  C21 UNL     1      -4.093  -4.992   2.420  1.00  0.00     0.337 C   
ENDBRANCH  25  26
ENDBRANCH  22  25
ENDBRANCH  17  22
ENDBRANCH   3  17
TORSDOF 9
