REMARK SMILES CC(C)C[C@H]([NH2+]Cc1ccc2c(c1)OCO2)c1cn(Cc2c3ccccc3nn2C)nn1
REMARK SMILES IDX 17 1 18 2 19 3 31 4 32 5 5 7 4 8 2 9 1 10 3 11 6 12 7 15
REMARK SMILES IDX 8 16 9 17 13 18 10 19 12 20 11 21 14 22 16 23 15 24 20 25
REMARK SMILES IDX 21 26 22 27 29 28 23 29 27 30 28 31 24 32 26 33 25 34 30 35
REMARK H PARENT 18 6 6 13 6 14
ROOT
ATOM     1   C14 UNL     1      -2.220  -0.507   0.308  1.00  0.00     0.127 A   
ATOM     2   C15 UNL     1      -2.025   0.830   0.043  1.00  0.00     0.046 A   
ATOM     3   N2  UNL     1      -2.330   1.447   1.225  1.00  0.00    -0.206 N   
ATOM     4   N5  UNL     1      -2.703   0.546   2.156  1.00  0.00    -0.076 NA  
ATOM     5   N6  UNL     1      -2.629  -0.655   1.609  1.00  0.00    -0.132 NA  
ATOM     6   H20 UNL     1      -1.677   1.376  -0.823  1.00  0.00     0.083 HD  
ENDROOT
BRANCH   1   7
ATOM     7   C5  UNL     1      -1.980  -1.730  -0.517  1.00  0.00     0.114 C   
BRANCH   7   8
ATOM     8   C4  UNL     1      -3.298  -2.291  -1.081  1.00  0.00     0.064 C   
BRANCH   8   9
ATOM     9   C2  UNL     1      -3.156  -3.489  -2.045  1.00  0.00    -0.012 C   
ATOM     10  C1  UNL     1      -2.345  -3.140  -3.293  1.00  0.00     0.007 C   
ATOM     11  C3  UNL     1      -4.547  -3.982  -2.457  1.00  0.00     0.007 C   
ENDBRANCH   8   9
ENDBRANCH   7   8
BRANCH   7  12
ATOM     12  N1  UNL     1      -1.321  -2.777   0.357  1.00  0.00     0.249 N   
ATOM     13  H11 UNL     1      -1.453  -2.454   1.330  1.00  0.00     0.199 HD  
ATOM     14  H12 UNL     1      -1.827  -3.666   0.313  1.00  0.00     0.199 HD  
BRANCH  12  15
ATOM     15  C6  UNL     1       0.131  -3.013   0.135  1.00  0.00     0.164 C   
BRANCH  15  16
ATOM     16  C7  UNL     1       0.981  -1.778   0.242  1.00  0.00    -0.002 A   
ATOM     17  C8  UNL     1       1.139  -1.110   1.481  1.00  0.00     0.012 A   
ATOM     18  C12 UNL     1       1.615  -1.264  -0.903  1.00  0.00     0.045 A   
ATOM     19  C9  UNL     1       1.914   0.052   1.578  1.00  0.00     0.037 A   
ATOM     20  C11 UNL     1       2.370  -0.117  -0.772  1.00  0.00     0.109 A   
ATOM     21  C10 UNL     1       2.520   0.520   0.434  1.00  0.00     0.108 A   
ATOM     22  O1  UNL     1       3.038   0.507  -1.778  1.00  0.00    -0.316 OA  
ATOM     23  O2  UNL     1       3.316   1.615   0.343  1.00  0.00    -0.316 OA  
ATOM     24  C13 UNL     1       3.648   1.604  -1.059  1.00  0.00     0.337 C   
ENDBRANCH  15  16
ENDBRANCH  12  15
ENDBRANCH   7  12
ENDBRANCH   1   7
BRANCH   3  25
ATOM     25  C16 UNL     1      -2.265   2.864   1.549  1.00  0.00     0.187 C   
BRANCH  25  26
ATOM     26  C17 UNL     1      -0.887   3.242   1.959  1.00  0.00     0.057 A   
ATOM     27  C18 UNL     1       0.127   3.892   1.293  1.00  0.00     0.022 A   
ATOM     28  N4  UNL     1      -0.354   2.979   3.202  1.00  0.00    -0.230 N   
ATOM     29  C19 UNL     1       0.069   4.400  -0.004  1.00  0.00     0.012 A   
ATOM     30  C23 UNL     1       1.256   3.952   2.187  1.00  0.00     0.090 A   
ATOM     31  N3  UNL     1       0.935   3.345   3.338  1.00  0.00    -0.181 NA  
ATOM     32  C20 UNL     1       1.282   5.021  -0.366  1.00  0.00     0.001 A   
ATOM     33  C22 UNL     1       2.454   4.572   1.798  1.00  0.00     0.031 A   
ATOM     34  C21 UNL     1       2.422   5.106   0.492  1.00  0.00     0.002 A   
ATOM     35  C24 UNL     1      -0.993   2.346   4.335  1.00  0.00     0.159 C   
ENDBRANCH  25  26
ENDBRANCH   3  25
TORSDOF 8
