REMARK SMILES Cc1ccc(Cn2cc([C@@H]([NH2+]Cc3ccc4c(c3)OCO4)C(C)C)nn2)nc1
REMARK SMILES IDX 7 1 8 2 9 3 25 4 26 5 6 7 5 8 2 9 3 10 28 11 4 12 27 13 1 14
REMARK SMILES IDX 10 15 11 16 12 19 13 20 14 21 18 22 15 23 17 24 16 25 19 26
REMARK SMILES IDX 21 27 20 28 22 29 23 30 24 31
REMARK H PARENT 8 6 11 17 11 18
ROOT
ATOM     1   N1  UNL     1       0.915  -2.899  -0.038  1.00  0.00    -0.206 N   
ATOM     2   C7  UNL     1       1.824  -2.030   0.504  1.00  0.00     0.046 A   
ATOM     3   C8  UNL     1       1.049  -1.029   1.043  1.00  0.00     0.127 A   
ATOM     4   N3  UNL     1      -0.275  -1.316   0.820  1.00  0.00    -0.132 NA  
ATOM     5   N4  UNL     1      -0.344  -2.461   0.160  1.00  0.00    -0.076 NA  
ATOM     6   H8  UNL     1       2.890  -2.196   0.428  1.00  0.00     0.083 HD  
ENDROOT
BRANCH   1   7
ATOM     7   C6  UNL     1       1.172  -4.140  -0.741  1.00  0.00     0.190 C   
BRANCH   7   8
ATOM     8   C5  UNL     1       1.518  -3.857  -2.177  1.00  0.00     0.060 A   
ATOM     9   C2  UNL     1       2.224  -3.312  -4.788  1.00  0.00    -0.033 A   
ATOM     10  C3  UNL     1       0.909  -3.667  -4.489  1.00  0.00     0.007 A   
ATOM     11  C21 UNL     1       3.127  -3.261  -3.734  1.00  0.00     0.114 A   
ATOM     12  C4  UNL     1       0.547  -3.938  -3.172  1.00  0.00     0.026 A   
ATOM     13  N5  UNL     1       2.803  -3.507  -2.442  1.00  0.00    -0.259 NA  
ATOM     14  C1  UNL     1       2.663  -3.064  -6.196  1.00  0.00     0.046 C   
ENDBRANCH   7   8
ENDBRANCH   1   7
BRANCH   3  15
ATOM     15  C9  UNL     1       1.422   0.257   1.706  1.00  0.00     0.117 C   
BRANCH  15  16
ATOM     16  N2  UNL     1       0.403   1.317   1.368  1.00  0.00     0.249 N   
ATOM     17  H10 UNL     1       0.443   2.103   2.025  1.00  0.00     0.199 HD  
ATOM     18  H11 UNL     1      -0.526   0.884   1.485  1.00  0.00     0.199 HD  
BRANCH  16  19
ATOM     19  C10 UNL     1       0.468   1.838  -0.026  1.00  0.00     0.164 C   
BRANCH  19  20
ATOM     20  C11 UNL     1      -0.655   2.805  -0.275  1.00  0.00    -0.002 A   
ATOM     21  C12 UNL     1      -1.922   2.328  -0.688  1.00  0.00     0.012 A   
ATOM     22  C16 UNL     1      -0.472   4.179  -0.045  1.00  0.00     0.045 A   
ATOM     23  C13 UNL     1      -2.992   3.208  -0.881  1.00  0.00     0.037 A   
ATOM     24  C15 UNL     1      -1.549   5.018  -0.245  1.00  0.00     0.109 A   
ATOM     25  C14 UNL     1      -2.773   4.547  -0.651  1.00  0.00     0.108 A   
ATOM     26  O1  UNL     1      -1.543   6.366  -0.069  1.00  0.00    -0.316 OA  
ATOM     27  O2  UNL     1      -3.692   5.539  -0.783  1.00  0.00    -0.316 OA  
ATOM     28  C17 UNL     1      -2.902   6.696  -0.435  1.00  0.00     0.337 C   
ENDBRANCH  19  20
ENDBRANCH  16  19
ENDBRANCH  15  16
BRANCH  15  29
ATOM     29  C18 UNL     1       1.542   0.167   3.249  1.00  0.00     0.037 C   
ATOM     30  C19 UNL     1       2.703  -0.741   3.673  1.00  0.00     0.014 C   
ATOM     31  C20 UNL     1       0.256  -0.274   3.957  1.00  0.00     0.014 C   
ENDBRANCH  15  29
ENDBRANCH   3  15
TORSDOF 7
