REMARK SMILES Cc1nc(CCn2cc([C@H](CC(C)C)[NH2+]Cc3ccc4c(c3)OCO4)nn2)oc1C
REMARK SMILES IDX 7 1 8 2 9 3 26 4 27 5 6 7 5 8 4 9 2 10 3 11 29 12 28 13 1 14
REMARK SMILES IDX 30 15 10 16 11 17 12 18 13 19 14 20 15 21 16 24 17 25 18 26
REMARK SMILES IDX 22 27 19 28 21 29 20 30 23 31 25 32 24 33
REMARK H PARENT 8 6 15 22 15 23
ROOT
ATOM     1   N2  UNL     1      -1.333  -1.243  -3.138  1.00  0.00    -0.212 N   
ATOM     2   C6  UNL     1      -1.958  -0.936  -1.962  1.00  0.00     0.045 A   
ATOM     3   C7  UNL     1      -1.320  -1.755  -1.053  1.00  0.00     0.127 A   
ATOM     4   N4  UNL     1      -0.553  -2.666  -1.726  1.00  0.00    -0.132 NA  
ATOM     5   N5  UNL     1      -0.578  -2.348  -3.010  1.00  0.00    -0.076 NA  
ATOM     6   H8  UNL     1      -2.579  -0.057  -1.855  1.00  0.00     0.083 HD  
ENDROOT
BRANCH   1   7
ATOM     7   C5  UNL     1      -1.100  -0.334  -4.242  1.00  0.00     0.142 C   
BRANCH   7   8
ATOM     8   C4  UNL     1       0.210   0.431  -4.059  1.00  0.00     0.105 C   
BRANCH   8   9
ATOM     9   C3  UNL     1       0.153   1.458  -2.974  1.00  0.00     0.149 A   
ATOM     10  C2  UNL     1       0.067   2.631  -1.195  1.00  0.00     0.066 A   
ATOM     11  N1  UNL     1       0.016   1.321  -1.659  1.00  0.00    -0.231 NA  
ATOM     12  C21 UNL     1       0.274   3.493  -2.252  1.00  0.00     0.079 A   
ATOM     13  O3  UNL     1       0.314   2.751  -3.393  1.00  0.00    -0.298 OA  
ATOM     14  C1  UNL     1      -0.068   2.956   0.243  1.00  0.00     0.069 C   
ATOM     15  C22 UNL     1       0.444   4.953  -2.390  1.00  0.00     0.075 C   
ENDBRANCH   8   9
ENDBRANCH   7   8
ENDBRANCH   1   7
BRANCH   3  16
ATOM     16  C8  UNL     1      -1.139  -1.583   0.419  1.00  0.00     0.114 C   
BRANCH  16  17
ATOM     17  C9  UNL     1      -2.390  -1.022   1.121  1.00  0.00     0.064 C   
BRANCH  17  18
ATOM     18  C10 UNL     1      -2.323  -0.950   2.663  1.00  0.00    -0.012 C   
ATOM     19  C11 UNL     1      -3.632  -0.360   3.204  1.00  0.00     0.007 C   
ATOM     20  C12 UNL     1      -2.070  -2.316   3.306  1.00  0.00     0.007 C   
ENDBRANCH  17  18
ENDBRANCH  16  17
BRANCH  16  21
ATOM     21  N3  UNL     1       0.018  -0.635   0.629  1.00  0.00     0.249 N   
ATOM     22  H19 UNL     1      -0.061  -0.123   1.509  1.00  0.00     0.199 HD  
ATOM     23  H20 UNL     1      -0.009   0.083  -0.125  1.00  0.00     0.199 HD  
BRANCH  21  24
ATOM     24  C13 UNL     1       1.368  -1.266   0.566  1.00  0.00     0.164 C   
BRANCH  24  25
ATOM     25  C14 UNL     1       2.436  -0.237   0.820  1.00  0.00    -0.002 A   
ATOM     26  C15 UNL     1       3.009   0.473  -0.263  1.00  0.00     0.012 A   
ATOM     27  C19 UNL     1       2.823   0.076   2.134  1.00  0.00     0.045 A   
ATOM     28  C16 UNL     1       3.954   1.480  -0.043  1.00  0.00     0.037 A   
ATOM     29  C18 UNL     1       3.756   1.076   2.315  1.00  0.00     0.109 A   
ATOM     30  C17 UNL     1       4.305   1.760   1.259  1.00  0.00     0.108 A   
ATOM     31  O1  UNL     1       4.225   1.511   3.514  1.00  0.00    -0.316 OA  
ATOM     32  O2  UNL     1       5.190   2.710   1.659  1.00  0.00    -0.316 OA  
ATOM     33  C20 UNL     1       5.147   2.542   3.092  1.00  0.00     0.337 C   
ENDBRANCH  24  25
ENDBRANCH  21  24
ENDBRANCH  16  21
ENDBRANCH   3  16
TORSDOF 9
