REMARK SMILES CCc1[nH]nc(C)c1Cn1cc([C@H](CC(C)C)[NH2+]Cc2ccc3c(c2)OCO3)nn1
REMARK SMILES IDX 10 1 11 2 12 3 29 4 30 5 9 7 8 8 3 9 4 10 5 11 6 12 7 14
REMARK SMILES IDX 2 15 1 16 13 17 14 18 15 19 16 20 17 21 18 22 19 25 20 26
REMARK SMILES IDX 21 27 25 28 22 29 24 30 23 31 26 32 28 33 27 34
REMARK H PARENT 11 6 4 13 18 23 18 24
ROOT
ATOM     1   N3  UNL     1       1.248  -2.559  -1.204  1.00  0.00    -0.208 N   
ATOM     2   C8  UNL     1       0.783  -1.951  -0.069  1.00  0.00     0.046 A   
ATOM     3   C9  UNL     1       0.653  -0.626  -0.423  1.00  0.00     0.127 A   
ATOM     4   N5  UNL     1       1.012  -0.482  -1.739  1.00  0.00    -0.132 NA  
ATOM     5   N6  UNL     1       1.347  -1.671  -2.212  1.00  0.00    -0.076 NA  
ATOM     6   H12 UNL     1       0.637  -2.493   0.855  1.00  0.00     0.083 HD  
ENDROOT
BRANCH   1   7
ATOM     7   C7  UNL     1       1.630  -3.952  -1.395  1.00  0.00     0.173 C   
BRANCH   7   8
ATOM     8   C6  UNL     1       2.741  -4.327  -0.473  1.00  0.00     0.013 A   
ATOM     9   C3  UNL     1       2.743  -5.281   0.534  1.00  0.00     0.031 A   
ATOM     10  N1  UNL     1       3.992  -5.231   1.094  1.00  0.00    -0.242 N   
ATOM     11  N2  UNL     1       4.786  -4.308   0.542  1.00  0.00    -0.189 NA  
ATOM     12  C4  UNL     1       4.056  -3.781  -0.444  1.00  0.00     0.062 A   
ATOM     13  H6  UNL     1       4.365  -5.793   1.853  1.00  0.00     0.175 HD  
ATOM     14  C5  UNL     1       4.646  -2.740  -1.325  1.00  0.00     0.069 C   
BRANCH   9  15
ATOM     15  C2  UNL     1       1.713  -6.246   1.017  1.00  0.00     0.050 C   
ATOM     16  C1  UNL     1       0.874  -5.659   2.143  1.00  0.00     0.010 C   
ENDBRANCH   9  15
ENDBRANCH   7   8
ENDBRANCH   1   7
BRANCH   3  17
ATOM     17  C10 UNL     1       0.276   0.580   0.384  1.00  0.00     0.114 C   
BRANCH  17  18
ATOM     18  C11 UNL     1      -1.000   0.385   1.221  1.00  0.00     0.064 C   
BRANCH  18  19
ATOM     19  C12 UNL     1      -1.393   1.565   2.135  1.00  0.00    -0.012 C   
ATOM     20  C13 UNL     1      -0.315   1.880   3.172  1.00  0.00     0.007 C   
ATOM     21  C14 UNL     1      -2.714   1.250   2.842  1.00  0.00     0.007 C   
ENDBRANCH  18  19
ENDBRANCH  17  18
BRANCH  17  22
ATOM     22  N4  UNL     1       0.190   1.811  -0.476  1.00  0.00     0.249 N   
ATOM     23  H23 UNL     1       1.032   1.792  -1.071  1.00  0.00     0.199 HD  
ATOM     24  H24 UNL     1       0.270   2.663   0.088  1.00  0.00     0.199 HD  
BRANCH  22  25
ATOM     25  C15 UNL     1      -0.965   1.935  -1.413  1.00  0.00     0.164 C   
BRANCH  25  26
ATOM     26  C16 UNL     1      -0.730   3.065  -2.377  1.00  0.00    -0.002 A   
ATOM     27  C17 UNL     1      -0.059   2.825  -3.600  1.00  0.00     0.012 A   
ATOM     28  C21 UNL     1      -1.117   4.375  -2.044  1.00  0.00     0.045 A   
ATOM     29  C18 UNL     1       0.210   3.872  -4.489  1.00  0.00     0.037 A   
ATOM     30  C20 UNL     1      -0.835   5.383  -2.942  1.00  0.00     0.109 A   
ATOM     31  C19 UNL     1      -0.191   5.140  -4.130  1.00  0.00     0.108 A   
ATOM     32  O1  UNL     1      -1.136   6.698  -2.775  1.00  0.00    -0.316 OA  
ATOM     33  O2  UNL     1      -0.011   6.270  -4.863  1.00  0.00    -0.316 OA  
ATOM     34  C22 UNL     1      -0.635   7.254  -4.012  1.00  0.00     0.337 C   
ENDBRANCH  25  26
ENDBRANCH  22  25
ENDBRANCH  17  22
ENDBRANCH   3  17
TORSDOF 9
