REMARK SMILES COc1cccc([C@@H](O)Cn2cc([C@@H]([NH2+]Cc3ccc4c(c3)OCO4)C3CCCCC3)nn2)c1
REMARK SMILES IDX 11 1 12 2 13 3 32 4 33 5 10 7 8 8 7 9 3 10 4 11 34 12 5 13
REMARK SMILES IDX 6 14 2 15 1 16 9 17 14 19 15 20 16 23 17 24 18 25 22 26
REMARK SMILES IDX 19 27 21 28 20 29 23 30 25 31 24 32 26 33 27 34 31 35 28 36
REMARK SMILES IDX 30 37 29 38
REMARK H PARENT 12 6 9 18 15 21 15 22
ROOT
ATOM     1   N1  UNL     1       1.376   0.527  -1.310  1.00  0.00    -0.209 N   
ATOM     2   C9  UNL     1       0.816  -0.714  -1.193  1.00  0.00     0.045 A   
ATOM     3   C10 UNL     1       0.320  -0.735   0.091  1.00  0.00     0.127 A   
ATOM     4   N3  UNL     1       0.642   0.445   0.715  1.00  0.00    -0.132 NA  
ATOM     5   N4  UNL     1       1.295   1.204  -0.150  1.00  0.00    -0.076 NA  
ATOM     6   H11 UNL     1       0.790  -1.414  -2.017  1.00  0.00     0.083 HD  
ENDROOT
BRANCH   1   7
ATOM     7   C8  UNL     1       2.004   1.122  -2.474  1.00  0.00     0.170 C   
BRANCH   7   8
ATOM     8   C7  UNL     1       0.971   1.822  -3.360  1.00  0.00     0.164 C   
BRANCH   8   9
ATOM     9   C6  UNL     1       1.630   2.689  -4.413  1.00  0.00    -0.015 A   
ATOM     10  C2  UNL     1       2.138   4.901  -5.296  1.00  0.00     0.075 A   
ATOM     11  C3  UNL     1       2.852   4.309  -6.340  1.00  0.00     0.033 A   
ATOM     12  C26 UNL     1       1.532   4.091  -4.334  1.00  0.00     0.040 A   
ATOM     13  C4  UNL     1       2.958   2.922  -6.431  1.00  0.00     0.003 A   
ATOM     14  C5  UNL     1       2.350   2.115  -5.472  1.00  0.00     0.006 A   
BRANCH  10  15
ATOM     15  O1  UNL     1       2.111   6.267  -5.331  1.00  0.00    -0.349 OA  
ATOM     16  C1  UNL     1       1.343   6.931  -4.336  1.00  0.00     0.203 C   
ENDBRANCH  10  15
ENDBRANCH   8   9
BRANCH   8  17
ATOM     17  O2  UNL     1       0.149   0.842  -4.008  1.00  0.00    -0.387 OA  
ATOM     18  H8  UNL     1      -0.234   1.268  -4.799  1.00  0.00     0.211 HD  
ENDBRANCH   8  17
ENDBRANCH   7   8
ENDBRANCH   1   7
BRANCH   3  19
ATOM     19  C11 UNL     1      -0.417  -1.791   0.849  1.00  0.00     0.117 C   
BRANCH  19  20
ATOM     20  N2  UNL     1      -0.087  -1.692   2.318  1.00  0.00     0.249 N   
ATOM     21  H13 UNL     1      -0.792  -2.164   2.895  1.00  0.00     0.199 HD  
ATOM     22  H14 UNL     1      -0.131  -0.692   2.565  1.00  0.00     0.199 HD  
BRANCH  20  23
ATOM     23  C12 UNL     1       1.266  -2.178   2.704  1.00  0.00     0.164 C   
BRANCH  23  24
ATOM     24  C13 UNL     1       1.494  -1.968   4.174  1.00  0.00    -0.002 A   
ATOM     25  C14 UNL     1       2.000  -0.732   4.645  1.00  0.00     0.012 A   
ATOM     26  C18 UNL     1       1.151  -2.973   5.095  1.00  0.00     0.045 A   
ATOM     27  C15 UNL     1       2.174  -0.502   6.013  1.00  0.00     0.037 A   
ATOM     28  C17 UNL     1       1.335  -2.712   6.438  1.00  0.00     0.109 A   
ATOM     29  C16 UNL     1       1.831  -1.512   6.884  1.00  0.00     0.108 A   
ATOM     30  O3  UNL     1       1.054  -3.569   7.454  1.00  0.00    -0.316 OA  
ATOM     31  O4  UNL     1       1.928  -1.463   8.238  1.00  0.00    -0.316 OA  
ATOM     32  C19 UNL     1       1.456  -2.780   8.597  1.00  0.00     0.337 C   
ENDBRANCH  23  24
ENDBRANCH  20  23
ENDBRANCH  19  20
BRANCH  19  33
ATOM     33  C20 UNL     1      -1.960  -1.731   0.692  1.00  0.00     0.043 C   
ATOM     34  C21 UNL     1      -2.402  -2.042  -0.751  1.00  0.00     0.010 C   
ATOM     35  C25 UNL     1      -2.593  -0.408   1.169  1.00  0.00     0.010 C   
ATOM     36  C22 UNL     1      -3.924  -2.063  -0.884  1.00  0.00     0.001 C   
ATOM     37  C24 UNL     1      -4.115  -0.428   1.026  1.00  0.00     0.001 C   
ATOM     38  C23 UNL     1      -4.546  -0.757  -0.399  1.00  0.00     0.000 C   
ENDBRANCH  19  33
ENDBRANCH   3  19
TORSDOF 10
