REMARK SMILES Cc1cc([C@H](CO)n2cc([C@@H]([NH2+]Cc3ccc4c(c3)OCO4)C(C)(C)C)nn2)c(C)o1
REMARK SMILES IDX 8 1 9 2 10 3 27 4 28 5 5 7 4 8 2 9 3 10 31 11 29 12 1 13
REMARK SMILES IDX 30 14 6 15 7 16 11 18 12 19 13 22 14 23 15 24 19 25 16 26
REMARK SMILES IDX 18 27 17 28 20 29 22 30 21 31 23 32 24 33 25 34 26 35
REMARK H PARENT 9 6 7 17 12 20 12 21
ROOT
ATOM     1   N1  UNL     1       2.105  -0.148  -1.415  1.00  0.00    -0.202 N   
ATOM     2   C7  UNL     1       2.036   0.060  -0.060  1.00  0.00     0.046 A   
ATOM     3   C8  UNL     1       0.778  -0.377   0.281  1.00  0.00     0.127 A   
ATOM     4   N3  UNL     1       0.120  -0.789  -0.853  1.00  0.00    -0.132 NA  
ATOM     5   N4  UNL     1       0.947  -0.662  -1.877  1.00  0.00    -0.075 NA  
ATOM     6   H9  UNL     1       2.854   0.489   0.500  1.00  0.00     0.083 HD  
ENDROOT
BRANCH   1   7
ATOM     7   C5  UNL     1       3.199   0.146  -2.347  1.00  0.00     0.157 C   
BRANCH   7   8
ATOM     8   C4  UNL     1       4.545  -0.094  -1.710  1.00  0.00     0.005 A   
ATOM     9   C2  UNL     1       6.553   0.160  -0.712  1.00  0.00     0.056 A   
ATOM     10  C3  UNL     1       5.469   0.866  -1.190  1.00  0.00     0.037 A   
ATOM     11  O4  UNL     1       6.355  -1.172  -0.892  1.00  0.00    -0.319 OA  
ATOM     12  C22 UNL     1       5.150  -1.327  -1.502  1.00  0.00     0.061 A   
ATOM     13  C1  UNL     1       7.830   0.548  -0.076  1.00  0.00     0.073 C   
ATOM     14  C23 UNL     1       4.756  -2.721  -1.800  1.00  0.00     0.073 C   
ENDBRANCH   7   8
BRANCH   7  15
ATOM     15  C6  UNL     1       3.014   1.533  -2.985  1.00  0.00     0.186 C   
BRANCH  15  16
ATOM     16  O1  UNL     1       2.948   2.584  -2.014  1.00  0.00    -0.394 OA  
ATOM     17  H8  UNL     1       2.917   3.424  -2.510  1.00  0.00     0.210 HD  
ENDBRANCH  15  16
ENDBRANCH   7  15
ENDBRANCH   1   7
BRANCH   3  18
ATOM     18  C9  UNL     1       0.048  -0.360   1.588  1.00  0.00     0.120 C   
BRANCH  18  19
ATOM     19  N2  UNL     1      -1.367   0.101   1.327  1.00  0.00     0.250 N   
ATOM     20  H11 UNL     1      -2.016  -0.161   2.072  1.00  0.00     0.199 HD  
ATOM     21  H12 UNL     1      -1.687  -0.397   0.480  1.00  0.00     0.199 HD  
BRANCH  19  22
ATOM     22  C10 UNL     1      -1.499   1.560   1.063  1.00  0.00     0.164 C   
BRANCH  22  23
ATOM     23  C11 UNL     1      -2.911   1.913   0.698  1.00  0.00    -0.002 A   
ATOM     24  C12 UNL     1      -3.823   2.348   1.690  1.00  0.00     0.012 A   
ATOM     25  C16 UNL     1      -3.346   1.775  -0.632  1.00  0.00     0.045 A   
ATOM     26  C13 UNL     1      -5.150   2.658   1.362  1.00  0.00     0.037 A   
ATOM     27  C15 UNL     1      -4.662   2.089  -0.921  1.00  0.00     0.109 A   
ATOM     28  C14 UNL     1      -5.537   2.519   0.047  1.00  0.00     0.108 A   
ATOM     29  O2  UNL     1      -5.240   2.022  -2.150  1.00  0.00    -0.316 OA  
ATOM     30  O3  UNL     1      -6.779   2.774  -0.451  1.00  0.00    -0.316 OA  
ATOM     31  C17 UNL     1      -6.584   2.470  -1.849  1.00  0.00     0.337 C   
ENDBRANCH  22  23
ENDBRANCH  19  22
ENDBRANCH  18  19
BRANCH  18  32
ATOM     32  C18 UNL     1       0.055  -1.731   2.344  1.00  0.00     0.010 C   
ATOM     33  C19 UNL     1      -0.656  -2.854   1.560  1.00  0.00     0.017 C   
ATOM     34  C20 UNL     1       1.512  -2.177   2.603  1.00  0.00     0.017 C   
ATOM     35  C21 UNL     1      -0.632  -1.589   3.723  1.00  0.00     0.017 C   
ENDBRANCH  18  32
ENDBRANCH   3  18
TORSDOF 9
