REMARK SMILES Cc1cc([C@@H](CO)n2cc([C@@H]([NH2+]Cc3ccc4c(c3)OCO4)C(C)(C)C)nn2)c(C)o1
REMARK SMILES IDX 8 1 9 2 10 3 27 4 28 5 5 7 4 8 2 9 3 10 31 11 29 12 1 13
REMARK SMILES IDX 30 14 6 15 7 16 11 18 12 19 13 22 14 23 15 24 19 25 16 26
REMARK SMILES IDX 18 27 17 28 20 29 22 30 21 31 23 32 24 33 25 34 26 35
REMARK H PARENT 9 6 7 17 12 20 12 21
ROOT
ATOM     1   N1  UNL     1       2.359   1.125   0.112  1.00  0.00    -0.202 N   
ATOM     2   C7  UNL     1       1.928   0.109   0.927  1.00  0.00     0.046 A   
ATOM     3   C8  UNL     1       0.688  -0.222   0.428  1.00  0.00     0.127 A   
ATOM     4   N3  UNL     1       0.389   0.611  -0.619  1.00  0.00    -0.132 NA  
ATOM     5   N4  UNL     1       1.410   1.431  -0.799  1.00  0.00    -0.075 NA  
ATOM     6   H9  UNL     1       2.536  -0.279   1.733  1.00  0.00     0.083 HD  
ENDROOT
BRANCH   1   7
ATOM     7   C5  UNL     1       3.660   1.796   0.142  1.00  0.00     0.157 C   
BRANCH   7   8
ATOM     8   C4  UNL     1       4.670   0.993  -0.631  1.00  0.00     0.005 A   
ATOM     9   C2  UNL     1       6.512  -0.205  -1.135  1.00  0.00     0.056 A   
ATOM     10  C3  UNL     1       5.892   0.466  -0.106  1.00  0.00     0.037 A   
ATOM     11  O4  UNL     1       5.756  -0.130  -2.260  1.00  0.00    -0.319 OA  
ATOM     12  C22 UNL     1       4.649   0.604  -1.962  1.00  0.00     0.061 A   
ATOM     13  C1  UNL     1       7.779  -0.955  -1.248  1.00  0.00     0.073 C   
ATOM     14  C23 UNL     1       3.704   0.803  -3.085  1.00  0.00     0.073 C   
ENDBRANCH   7   8
BRANCH   7  15
ATOM     15  C6  UNL     1       3.603   3.272  -0.283  1.00  0.00     0.186 C   
BRANCH  15  16
ATOM     16  O1  UNL     1       2.965   4.052   0.733  1.00  0.00    -0.394 OA  
ATOM     17  H8  UNL     1       2.956   4.975   0.417  1.00  0.00     0.210 HD  
ENDBRANCH  15  16
ENDBRANCH   7  15
ENDBRANCH   1   7
BRANCH   3  18
ATOM     18  C9  UNL     1      -0.324  -1.237   0.871  1.00  0.00     0.120 C   
BRANCH  18  19
ATOM     19  N2  UNL     1      -1.705  -0.677   0.623  1.00  0.00     0.250 N   
ATOM     20  H11 UNL     1      -2.427  -1.400   0.599  1.00  0.00     0.199 HD  
ATOM     21  H12 UNL     1      -1.685  -0.261  -0.321  1.00  0.00     0.199 HD  
BRANCH  19  22
ATOM     22  C10 UNL     1      -2.137   0.399   1.559  1.00  0.00     0.164 C   
BRANCH  22  23
ATOM     23  C11 UNL     1      -3.479   0.936   1.147  1.00  0.00    -0.002 A   
ATOM     24  C12 UNL     1      -3.560   1.983   0.197  1.00  0.00     0.012 A   
ATOM     25  C16 UNL     1      -4.659   0.362   1.649  1.00  0.00     0.045 A   
ATOM     26  C13 UNL     1      -4.800   2.459  -0.242  1.00  0.00     0.037 A   
ATOM     27  C15 UNL     1      -5.864   0.855   1.194  1.00  0.00     0.109 A   
ATOM     28  C14 UNL     1      -5.934   1.873   0.275  1.00  0.00     0.108 A   
ATOM     29  O2  UNL     1      -7.092   0.411   1.572  1.00  0.00    -0.316 OA  
ATOM     30  O3  UNL     1      -7.213   2.197  -0.042  1.00  0.00    -0.316 OA  
ATOM     31  C17 UNL     1      -7.948   1.290   0.807  1.00  0.00     0.337 C   
ENDBRANCH  22  23
ENDBRANCH  19  22
ENDBRANCH  18  19
BRANCH  18  32
ATOM     32  C18 UNL     1      -0.173  -2.637   0.178  1.00  0.00     0.010 C   
ATOM     33  C19 UNL     1      -1.153  -3.656   0.806  1.00  0.00     0.017 C   
ATOM     34  C20 UNL     1       1.252  -3.194   0.398  1.00  0.00     0.017 C   
ATOM     35  C21 UNL     1      -0.440  -2.580  -1.340  1.00  0.00     0.017 C   
ENDBRANCH  18  32
ENDBRANCH   3  18
TORSDOF 9
