REMARK SMILES CC(C)[C@H]([NH2+]Cc1ccc2c(c1)OCO2)c1cn(Cc2cc(F)ncc2Cl)nn1
REMARK SMILES IDX 16 1 17 2 18 3 28 4 29 5 4 7 2 8 1 9 3 10 5 11 6 14 7 15
REMARK SMILES IDX 8 16 12 17 9 18 11 19 10 20 13 21 15 22 14 23 19 24 20 25
REMARK SMILES IDX 21 26 26 27 22 28 25 29 24 30 27 31 23 32
REMARK H PARENT 17 6 5 12 5 13
ROOT
ATOM     1   C13 UNL     1       0.452  -0.718   1.119  1.00  0.00     0.127 A   
ATOM     2   C14 UNL     1       1.033   0.331   1.797  1.00  0.00     0.046 A   
ATOM     3   N2  UNL     1       2.247   0.483   1.187  1.00  0.00    -0.208 N   
ATOM     4   N4  UNL     1       2.419  -0.439   0.220  1.00  0.00    -0.076 NA  
ATOM     5   N5  UNL     1       1.319  -1.170   0.158  1.00  0.00    -0.132 NA  
ATOM     6   H18 UNL     1       0.704   0.967   2.607  1.00  0.00     0.083 HD  
ENDROOT
BRANCH   1   7
ATOM     7   C4  UNL     1      -0.896  -1.353   1.246  1.00  0.00     0.117 C   
BRANCH   7   8
ATOM     8   C2  UNL     1      -0.910  -2.499   2.292  1.00  0.00     0.037 C   
ATOM     9   C1  UNL     1      -0.060  -3.715   1.906  1.00  0.00     0.014 C   
ATOM     10  C3  UNL     1      -2.341  -2.947   2.614  1.00  0.00     0.014 C   
ENDBRANCH   7   8
BRANCH   7  11
ATOM     11  N1  UNL     1      -1.355  -1.857  -0.103  1.00  0.00     0.249 N   
ATOM     12  H9  UNL     1      -1.790  -2.780  -0.026  1.00  0.00     0.199 HD  
ATOM     13  H10 UNL     1      -0.495  -2.001  -0.659  1.00  0.00     0.199 HD  
BRANCH  11  14
ATOM     14  C5  UNL     1      -2.262  -0.958  -0.870  1.00  0.00     0.164 C   
BRANCH  14  15
ATOM     15  C6  UNL     1      -1.625   0.332  -1.301  1.00  0.00    -0.002 A   
ATOM     16  C7  UNL     1      -1.934   1.545  -0.639  1.00  0.00     0.012 A   
ATOM     17  C11 UNL     1      -0.703   0.343  -2.362  1.00  0.00     0.045 A   
ATOM     18  C8  UNL     1      -1.337   2.749  -1.026  1.00  0.00     0.037 A   
ATOM     19  C10 UNL     1      -0.139   1.549  -2.725  1.00  0.00     0.109 A   
ATOM     20  C9  UNL     1      -0.446   2.718  -2.075  1.00  0.00     0.108 A   
ATOM     21  O1  UNL     1       0.748   1.733  -3.737  1.00  0.00    -0.316 OA  
ATOM     22  O2  UNL     1       0.212   3.787  -2.594  1.00  0.00    -0.316 OA  
ATOM     23  C12 UNL     1       0.929   3.167  -3.685  1.00  0.00     0.337 C   
ENDBRANCH  14  15
ENDBRANCH  11  14
ENDBRANCH   7  11
ENDBRANCH   1   7
BRANCH   3  24
ATOM     24  C15 UNL     1       3.300   1.436   1.496  1.00  0.00     0.171 C   
BRANCH  24  25
ATOM     25  C16 UNL     1       3.413   2.501   0.436  1.00  0.00    -0.004 A   
ATOM     26  C17 UNL     1       4.363   2.349  -0.589  1.00  0.00     0.067 A   
ATOM     27  C20 UNL     1       2.595   3.637   0.403  1.00  0.00     0.064 A   
ATOM     28  C18 UNL     1       4.461   3.321  -1.572  1.00  0.00     0.213 A   
ATOM     29  C19 UNL     1       2.776   4.557  -0.626  1.00  0.00     0.135 A   
ATOM     30  N3  UNL     1       3.689   4.422  -1.615  1.00  0.00    -0.227 NA  
ATOM     31  CL1 UNL     1       1.373   3.933   1.579  1.00  0.00    -0.082 Cl  
ATOM     32  F1  UNL     1       5.364   3.155  -2.548  1.00  0.00    -0.185 F   
ENDBRANCH  24  25
ENDBRANCH   3  24
TORSDOF 7
