REMARK SMILES COc1cc(C)ccc1Cn1cc([C@@H]([NH2+]Cc2ccc3c(c2)OCO3)C2CCCC2)nn1
REMARK SMILES IDX 11 1 12 2 13 3 31 4 32 5 10 7 9 8 3 9 4 10 5 11 8 12 7 13
REMARK SMILES IDX 6 14 2 15 1 16 14 17 15 18 16 21 17 22 18 23 22 24 19 25
REMARK SMILES IDX 21 26 20 27 23 28 25 29 24 30 26 31 27 32 30 33 28 34 29 35
REMARK H PARENT 12 6 15 19 15 20
ROOT
ATOM     1   N1  UNL     1      -1.924   1.921   1.113  1.00  0.00    -0.208 N   
ATOM     2   C10 UNL     1      -2.121   0.783   0.378  1.00  0.00     0.046 A   
ATOM     3   C11 UNL     1      -0.981   0.678  -0.385  1.00  0.00     0.127 A   
ATOM     4   N3  UNL     1      -0.177   1.765  -0.146  1.00  0.00    -0.132 NA  
ATOM     5   N4  UNL     1      -0.776   2.530   0.752  1.00  0.00    -0.076 NA  
ATOM     6   H12 UNL     1      -2.999   0.165   0.501  1.00  0.00     0.083 HD  
ENDROOT
BRANCH   1   7
ATOM     7   C9  UNL     1      -2.782   2.493   2.137  1.00  0.00     0.172 C   
BRANCH   7   8
ATOM     8   C8  UNL     1      -2.579   1.794   3.458  1.00  0.00     0.002 A   
ATOM     9   C2  UNL     1      -3.362   0.688   3.834  1.00  0.00     0.080 A   
ATOM     10  C3  UNL     1      -3.124   0.056   5.060  1.00  0.00     0.037 A   
ATOM     11  C4  UNL     1      -2.108   0.507   5.917  1.00  0.00    -0.049 A   
ATOM     12  C7  UNL     1      -1.567   2.246   4.323  1.00  0.00     0.008 A   
ATOM     13  C6  UNL     1      -1.341   1.613   5.544  1.00  0.00     0.004 A   
ATOM     14  C5  UNL     1      -1.885  -0.153   7.247  1.00  0.00     0.044 C   
BRANCH   9  15
ATOM     15  O1  UNL     1      -4.314   0.294   2.928  1.00  0.00    -0.349 OA  
ATOM     16  C1  UNL     1      -5.287  -0.642   3.384  1.00  0.00     0.203 C   
ENDBRANCH   9  15
ENDBRANCH   7   8
ENDBRANCH   1   7
BRANCH   3  17
ATOM     17  C12 UNL     1      -0.547  -0.351  -1.378  1.00  0.00     0.117 C   
BRANCH  17  18
ATOM     18  N2  UNL     1       0.341   0.296  -2.413  1.00  0.00     0.249 N   
ATOM     19  H14 UNL     1       0.909  -0.388  -2.920  1.00  0.00     0.199 HD  
ATOM     20  H15 UNL     1       1.004   0.893  -1.894  1.00  0.00     0.199 HD  
BRANCH  18  21
ATOM     21  C13 UNL     1      -0.359   1.166  -3.397  1.00  0.00     0.164 C   
BRANCH  21  22
ATOM     22  C14 UNL     1       0.634   1.837  -4.303  1.00  0.00    -0.002 A   
ATOM     23  C15 UNL     1       1.223   3.067  -3.921  1.00  0.00     0.012 A   
ATOM     24  C19 UNL     1       1.028   1.224  -5.505  1.00  0.00     0.045 A   
ATOM     25  C16 UNL     1       2.181   3.687  -4.730  1.00  0.00     0.037 A   
ATOM     26  C18 UNL     1       1.975   1.862  -6.278  1.00  0.00     0.109 A   
ATOM     27  C17 UNL     1       2.535   3.059  -5.903  1.00  0.00     0.108 A   
ATOM     28  O2  UNL     1       2.462   1.410  -7.463  1.00  0.00    -0.316 OA  
ATOM     29  O3  UNL     1       3.443   3.513  -6.805  1.00  0.00    -0.316 OA  
ATOM     30  C20 UNL     1       3.384   2.471  -7.803  1.00  0.00     0.337 C   
ENDBRANCH  21  22
ENDBRANCH  18  21
ENDBRANCH  17  18
BRANCH  17  31
ATOM     31  C21 UNL     1       0.236  -1.502  -0.716  1.00  0.00     0.043 C   
ATOM     32  C22 UNL     1       0.696  -2.595  -1.695  1.00  0.00     0.010 C   
ATOM     33  C25 UNL     1      -0.580  -2.293   0.312  1.00  0.00     0.010 C   
ATOM     34  C23 UNL     1       0.740  -3.899  -0.896  1.00  0.00     0.001 C   
ATOM     35  C24 UNL     1       0.239  -3.559   0.501  1.00  0.00     0.001 C   
ENDBRANCH  17  31
ENDBRANCH   3  17
TORSDOF 8
