REMARK SMILES CC(=O)n1ccc(C(=O)n2cc([C@@H]([NH2+]Cc3ccc4c(c3)OCO4)C(C)C)nn2)c1
REMARK SMILES IDX 10 1 11 2 12 3 28 4 29 5 8 6 9 7 7 8 4 9 5 10 30 11 6 12
REMARK SMILES IDX 2 13 1 14 3 15 13 16 14 17 15 20 16 21 17 22 21 23 18 24
REMARK SMILES IDX 20 25 19 26 22 27 24 28 23 29 25 30 26 31 27 32
REMARK H PARENT 14 18 14 19
ROOT
ATOM     1   N2  UNL     1       0.926   0.991   0.065  1.00  0.00    -0.143 N   
ATOM     2   C7  UNL     1       1.883   0.016  -0.175  1.00  0.00     0.139 A   
ATOM     3   C8  UNL     1       1.224  -0.972  -0.866  1.00  0.00     0.128 A   
ATOM     4   N4  UNL     1      -0.070  -0.577  -1.081  1.00  0.00    -0.131 NA  
ATOM     5   N5  UNL     1      -0.234   0.620  -0.539  1.00  0.00    -0.068 NA  
ENDROOT
BRANCH   1   6
ATOM     6   C6  UNL     1       1.041   2.146   0.866  1.00  0.00     0.272 C   
ATOM     7   O2  UNL     1       2.116   2.265   1.452  1.00  0.00    -0.269 OA  
BRANCH   6   8
ATOM     8   C5  UNL     1      -0.012   3.152   1.040  1.00  0.00     0.055 A   
ATOM     9   N1  UNL     1      -1.864   4.448   0.767  1.00  0.00    -0.254 N   
ATOM     10  C3  UNL     1      -1.181   4.899   1.884  1.00  0.00     0.084 A   
ATOM     11  C21 UNL     1      -1.136   3.378   0.259  1.00  0.00     0.096 A   
ATOM     12  C4  UNL     1      -0.052   4.137   2.067  1.00  0.00     0.031 A   
BRANCH   9  13
ATOM     13  C2  UNL     1      -3.061   5.008   0.276  1.00  0.00     0.219 C   
ATOM     14  C1  UNL     1      -3.619   4.364  -0.957  1.00  0.00     0.112 C   
ATOM     15  O1  UNL     1      -3.569   5.955   0.863  1.00  0.00    -0.277 OA  
ENDBRANCH   9  13
ENDBRANCH   6   8
ENDBRANCH   1   6
BRANCH   3  16
ATOM     16  C9  UNL     1       1.656  -2.352  -1.258  1.00  0.00     0.117 C   
BRANCH  16  17
ATOM     17  N3  UNL     1       0.554  -3.346  -0.952  1.00  0.00     0.249 N   
ATOM     18  H8  UNL     1       0.544  -4.107  -1.637  1.00  0.00     0.199 HD  
ATOM     19  H9  UNL     1      -0.336  -2.839  -1.076  1.00  0.00     0.199 HD  
BRANCH  17  20
ATOM     20  C10 UNL     1       0.562  -3.944   0.423  1.00  0.00     0.164 C   
BRANCH  20  21
ATOM     21  C11 UNL     1       0.386  -2.932   1.521  1.00  0.00    -0.002 A   
ATOM     22  C12 UNL     1      -0.872  -2.316   1.730  1.00  0.00     0.012 A   
ATOM     23  C16 UNL     1       1.489  -2.530   2.295  1.00  0.00     0.045 A   
ATOM     24  C13 UNL     1      -1.022  -1.289   2.667  1.00  0.00     0.037 A   
ATOM     25  C15 UNL     1       1.308  -1.508   3.203  1.00  0.00     0.109 A   
ATOM     26  C14 UNL     1       0.090  -0.897   3.376  1.00  0.00     0.108 A   
ATOM     27  O3  UNL     1       2.276  -0.968   3.989  1.00  0.00    -0.316 OA  
ATOM     28  O4  UNL     1       0.140   0.107   4.287  1.00  0.00    -0.316 OA  
ATOM     29  C17 UNL     1       1.528   0.051   4.689  1.00  0.00     0.337 C   
ENDBRANCH  20  21
ENDBRANCH  17  20
ENDBRANCH  16  17
BRANCH  16  30
ATOM     30  C18 UNL     1       2.077  -2.443  -2.748  1.00  0.00     0.037 C   
ATOM     31  C19 UNL     1       0.930  -2.232  -3.743  1.00  0.00     0.014 C   
ATOM     32  C20 UNL     1       2.786  -3.769  -3.053  1.00  0.00     0.014 C   
ENDBRANCH  16  30
ENDBRANCH   3  16
TORSDOF 8
