REMARK SMILES c1ccn2cc(CCn3cc([C@@H]([NH2+]Cc4ccc5c(c4)OCO5)C4CCCC4)nn3)nc2c1
REMARK SMILES IDX 9 1 10 2 11 3 29 4 30 5 8 7 7 8 6 9 1 10 2 11 33 12 3 13
REMARK SMILES IDX 32 14 4 15 31 16 5 17 12 18 13 19 14 22 15 23 16 24 20 25
REMARK SMILES IDX 17 26 19 27 18 28 21 29 23 30 22 31 24 32 25 33 28 34 26 35
REMARK SMILES IDX 27 36
REMARK H PARENT 10 6 13 20 13 21
ROOT
ATOM     1   N2  UNL     1      -1.798   1.816   2.618  1.00  0.00    -0.212 N   
ATOM     2   C8  UNL     1      -1.040   0.718   2.328  1.00  0.00     0.045 A   
ATOM     3   C9  UNL     1       0.153   1.252   1.896  1.00  0.00     0.127 A   
ATOM     4   N4  UNL     1       0.106   2.617   2.005  1.00  0.00    -0.132 NA  
ATOM     5   N5  UNL     1      -1.091   2.949   2.455  1.00  0.00    -0.076 NA  
ATOM     6   H9  UNL     1      -1.428  -0.290   2.381  1.00  0.00     0.083 HD  
ENDROOT
BRANCH   1   7
ATOM     7   C7  UNL     1      -3.193   1.869   2.996  1.00  0.00     0.140 C   
BRANCH   7   8
ATOM     8   C6  UNL     1      -4.127   1.268   1.949  1.00  0.00     0.079 C   
BRANCH   8   9
ATOM     9   C5  UNL     1      -4.029   1.931   0.618  1.00  0.00     0.059 A   
ATOM     10  C1  UNL     1      -3.285   3.039  -3.659  1.00  0.00     0.005 A   
ATOM     11  C2  UNL     1      -4.118   4.173  -3.286  1.00  0.00     0.016 A   
ATOM     12  C25 UNL     1      -2.965   2.076  -2.772  1.00  0.00     0.045 A   
ATOM     13  C3  UNL     1      -4.594   4.245  -2.032  1.00  0.00     0.082 A   
ATOM     14  C24 UNL     1      -3.443   2.162  -1.433  1.00  0.00     0.128 A   
ATOM     15  N1  UNL     1      -4.263   3.244  -1.123  1.00  0.00    -0.266 N   
ATOM     16  N6  UNL     1      -3.257   1.382  -0.386  1.00  0.00    -0.236 NA  
ATOM     17  C4  UNL     1      -4.638   3.091   0.186  1.00  0.00     0.105 A   
ENDBRANCH   8   9
ENDBRANCH   7   8
ENDBRANCH   1   7
BRANCH   3  18
ATOM     18  C10 UNL     1       1.339   0.611   1.259  1.00  0.00     0.117 C   
BRANCH  18  19
ATOM     19  N3  UNL     1       1.673   1.358  -0.016  1.00  0.00     0.249 N   
ATOM     20  H11 UNL     1       1.758   2.349   0.250  1.00  0.00     0.199 HD  
ATOM     21  H12 UNL     1       2.578   1.061  -0.388  1.00  0.00     0.199 HD  
BRANCH  19  22
ATOM     22  C11 UNL     1       0.649   1.278  -1.102  1.00  0.00     0.164 C   
BRANCH  22  23
ATOM     23  C12 UNL     1       0.523  -0.103  -1.684  1.00  0.00    -0.002 A   
ATOM     24  C13 UNL     1      -0.629  -0.883  -1.425  1.00  0.00     0.012 A   
ATOM     25  C17 UNL     1       1.560  -0.643  -2.464  1.00  0.00     0.045 A   
ATOM     26  C14 UNL     1      -0.750  -2.181  -1.934  1.00  0.00     0.037 A   
ATOM     27  C16 UNL     1       1.411  -1.927  -2.946  1.00  0.00     0.109 A   
ATOM     28  C15 UNL     1       0.288  -2.675  -2.689  1.00  0.00     0.108 A   
ATOM     29  O1  UNL     1       2.322  -2.600  -3.697  1.00  0.00    -0.316 OA  
ATOM     30  O2  UNL     1       0.346  -3.909  -3.254  1.00  0.00    -0.316 OA  
ATOM     31  C18 UNL     1       1.634  -3.856  -3.903  1.00  0.00     0.337 C   
ENDBRANCH  22  23
ENDBRANCH  19  22
ENDBRANCH  18  19
BRANCH  18  32
ATOM     32  C19 UNL     1       2.574   0.638   2.181  1.00  0.00     0.043 C   
ATOM     33  C20 UNL     1       2.390  -0.193   3.454  1.00  0.00     0.010 C   
ATOM     34  C23 UNL     1       3.833   0.006   1.577  1.00  0.00     0.010 C   
ATOM     35  C21 UNL     1       3.803  -0.343   3.996  1.00  0.00     0.001 C   
ATOM     36  C22 UNL     1       4.716  -0.347   2.772  1.00  0.00     0.001 C   
ENDBRANCH  18  32
ENDBRANCH   3  18
TORSDOF 8
