REMARK SMILES C/C(=C/c1ccco1)Cn1cc([C@@H]([NH2+]Cc2ccc3c(c2)OCO3)C2CCCC2)nn1
REMARK SMILES IDX 10 1 11 2 12 3 30 4 31 5 9 7 2 8 1 9 3 10 4 11 5 12 8 13
REMARK SMILES IDX 6 14 7 15 13 16 14 17 15 20 16 21 17 22 21 23 18 24 20 25
REMARK SMILES IDX 19 26 22 27 24 28 23 29 25 30 26 31 29 32 27 33 28 34
REMARK H PARENT 11 6 14 18 14 19
ROOT
ATOM     1   N1  UNL     1      -0.994   0.158   1.917  1.00  0.00    -0.208 N   
ATOM     2   C9  UNL     1      -0.442  -0.808   1.121  1.00  0.00     0.046 A   
ATOM     3   C10 UNL     1       0.859  -0.390   0.946  1.00  0.00     0.127 A   
ATOM     4   N3  UNL     1       1.054   0.785   1.628  1.00  0.00    -0.132 NA  
ATOM     5   N4  UNL     1      -0.081   1.101   2.231  1.00  0.00    -0.076 NA  
ATOM     6   H10 UNL     1      -1.014  -1.651   0.756  1.00  0.00     0.083 HD  
ENDROOT
BRANCH   1   7
ATOM     7   C8  UNL     1      -2.341   0.212   2.463  1.00  0.00     0.164 C   
BRANCH   7   8
ATOM     8   C2  UNL     1      -3.268   1.112   1.674  1.00  0.00    -0.051 C   
ATOM     9   C1  UNL     1      -3.051   2.590   1.891  1.00  0.00     0.041 C   
BRANCH   8  10
ATOM     10  C3  UNL     1      -4.281   0.708   0.885  1.00  0.00     0.034 C   
BRANCH  10  11
ATOM     11  C4  UNL     1      -4.589  -0.648   0.594  1.00  0.00     0.081 A   
ATOM     12  C5  UNL     1      -5.834  -1.206   0.336  1.00  0.00     0.036 A   
ATOM     13  O1  UNL     1      -3.656  -1.653   0.468  1.00  0.00    -0.318 OA  
ATOM     14  C6  UNL     1      -5.657  -2.581   0.063  1.00  0.00     0.028 A   
ATOM     15  C7  UNL     1      -4.306  -2.802   0.157  1.00  0.00     0.136 A   
ENDBRANCH  10  11
ENDBRANCH   8  10
ENDBRANCH   7   8
ENDBRANCH   1   7
BRANCH   3  16
ATOM     16  C11 UNL     1       1.978  -0.943   0.127  1.00  0.00     0.117 C   
BRANCH  16  17
ATOM     17  N2  UNL     1       2.626   0.200  -0.632  1.00  0.00     0.249 N   
ATOM     18  H12 UNL     1       3.647   0.117  -0.629  1.00  0.00     0.199 HD  
ATOM     19  H13 UNL     1       2.420   1.050  -0.083  1.00  0.00     0.199 HD  
BRANCH  17  20
ATOM     20  C12 UNL     1       2.158   0.408  -2.033  1.00  0.00     0.164 C   
BRANCH  20  21
ATOM     21  C13 UNL     1       0.688   0.698  -2.161  1.00  0.00    -0.002 A   
ATOM     22  C14 UNL     1       0.154   1.929  -1.709  1.00  0.00     0.012 A   
ATOM     23  C18 UNL     1      -0.175  -0.268  -2.706  1.00  0.00     0.045 A   
ATOM     24  C15 UNL     1      -1.220   2.191  -1.788  1.00  0.00     0.037 A   
ATOM     25  C17 UNL     1      -1.522   0.022  -2.769  1.00  0.00     0.109 A   
ATOM     26  C16 UNL     1      -2.032   1.216  -2.323  1.00  0.00     0.108 A   
ATOM     27  O2  UNL     1      -2.483  -0.804  -3.258  1.00  0.00    -0.316 OA  
ATOM     28  O3  UNL     1      -3.378   1.296  -2.478  1.00  0.00    -0.316 OA  
ATOM     29  C19 UNL     1      -3.659   0.019  -3.093  1.00  0.00     0.337 C   
ENDBRANCH  20  21
ENDBRANCH  17  20
ENDBRANCH  16  17
BRANCH  16  30
ATOM     30  C20 UNL     1       3.046  -1.627   1.002  1.00  0.00     0.043 C   
ATOM     31  C21 UNL     1       4.195  -2.264   0.214  1.00  0.00     0.010 C   
ATOM     32  C24 UNL     1       2.504  -2.833   1.780  1.00  0.00     0.010 C   
ATOM     33  C22 UNL     1       4.845  -3.220   1.210  1.00  0.00     0.001 C   
ATOM     34  C23 UNL     1       3.742  -3.629   2.181  1.00  0.00     0.001 C   
ENDBRANCH  16  30
ENDBRANCH   3  16
TORSDOF 9
