REMARK SMILES C/C(=C\c1ccco1)Cn1cc([C@@H]([NH2+]Cc2ccc3c(c2)OCO3)C2CCCC2)nn1
REMARK SMILES IDX 10 1 11 2 12 3 30 4 31 5 9 7 2 8 1 9 3 10 4 11 5 12 8 13
REMARK SMILES IDX 6 14 7 15 13 16 14 17 15 20 16 21 17 22 21 23 18 24 20 25
REMARK SMILES IDX 19 26 22 27 24 28 23 29 25 30 26 31 29 32 27 33 28 34
REMARK H PARENT 11 6 14 18 14 19
ROOT
ATOM     1   N1  UNL     1       2.161  -1.391   1.101  1.00  0.00    -0.208 N   
ATOM     2   C9  UNL     1       1.755  -0.536   0.110  1.00  0.00     0.046 A   
ATOM     3   C10 UNL     1       0.701   0.156   0.668  1.00  0.00     0.127 A   
ATOM     4   N3  UNL     1       0.513  -0.281   1.956  1.00  0.00    -0.132 NA  
ATOM     5   N4  UNL     1       1.406  -1.228   2.204  1.00  0.00    -0.076 NA  
ATOM     6   H10 UNL     1       2.237  -0.504  -0.857  1.00  0.00     0.083 HD  
ENDROOT
BRANCH   1   7
ATOM     7   C8  UNL     1       3.260  -2.355   1.096  1.00  0.00     0.164 C   
BRANCH   7   8
ATOM     8   C2  UNL     1       3.475  -3.010  -0.254  1.00  0.00    -0.051 C   
ATOM     9   C1  UNL     1       2.390  -3.968  -0.672  1.00  0.00     0.041 C   
BRANCH   8  10
ATOM     10  C3  UNL     1       4.601  -2.752  -0.962  1.00  0.00     0.034 C   
BRANCH  10  11
ATOM     11  C4  UNL     1       4.859  -3.246  -2.271  1.00  0.00     0.081 A   
ATOM     12  C5  UNL     1       6.087  -3.369  -2.912  1.00  0.00     0.036 A   
ATOM     13  O1  UNL     1       3.891  -3.652  -3.165  1.00  0.00    -0.318 OA  
ATOM     14  C6  UNL     1       5.861  -3.889  -4.207  1.00  0.00     0.028 A   
ATOM     15  C7  UNL     1       4.506  -4.040  -4.313  1.00  0.00     0.136 A   
ENDBRANCH  10  11
ENDBRANCH   8  10
ENDBRANCH   7   8
ENDBRANCH   1   7
BRANCH   3  16
ATOM     16  C11 UNL     1      -0.213   1.193   0.099  1.00  0.00     0.117 C   
BRANCH  16  17
ATOM     17  N2  UNL     1      -1.524   1.189   0.848  1.00  0.00     0.249 N   
ATOM     18  H12 UNL     1      -2.074   2.030   0.654  1.00  0.00     0.199 HD  
ATOM     19  H13 UNL     1      -1.301   1.210   1.854  1.00  0.00     0.199 HD  
BRANCH  17  20
ATOM     20  C12 UNL     1      -2.394  -0.002   0.617  1.00  0.00     0.164 C   
BRANCH  20  21
ATOM     21  C13 UNL     1      -3.735   0.205   1.262  1.00  0.00    -0.002 A   
ATOM     22  C14 UNL     1      -3.910  -0.036   2.643  1.00  0.00     0.012 A   
ATOM     23  C18 UNL     1      -4.809   0.701   0.502  1.00  0.00     0.045 A   
ATOM     24  C15 UNL     1      -5.142   0.200   3.260  1.00  0.00     0.037 A   
ATOM     25  C17 UNL     1      -6.012   0.916   1.140  1.00  0.00     0.109 A   
ATOM     26  C16 UNL     1      -6.176   0.672   2.480  1.00  0.00     0.108 A   
ATOM     27  O2  UNL     1      -7.149   1.379   0.554  1.00  0.00    -0.316 OA  
ATOM     28  O3  UNL     1      -7.432   0.960   2.908  1.00  0.00    -0.316 OA  
ATOM     29  C19 UNL     1      -8.054   1.390   1.681  1.00  0.00     0.337 C   
ENDBRANCH  20  21
ENDBRANCH  17  20
ENDBRANCH  16  17
BRANCH  16  30
ATOM     30  C20 UNL     1       0.395   2.609   0.177  1.00  0.00     0.043 C   
ATOM     31  C21 UNL     1      -0.501   3.721  -0.380  1.00  0.00     0.010 C   
ATOM     32  C24 UNL     1       1.660   2.770  -0.681  1.00  0.00     0.010 C   
ATOM     33  C22 UNL     1       0.449   4.891  -0.583  1.00  0.00     0.001 C   
ATOM     34  C23 UNL     1       1.794   4.268  -0.942  1.00  0.00     0.001 C   
ENDBRANCH  16  30
ENDBRANCH   3  16
TORSDOF 9
