REMARK SMILES CC[C@@H](c1ccccn1)n1cc([C@H](CC(C)C)[NH2+]Cc2ccc3c(c2)OCO3)nn1
REMARK SMILES IDX 10 1 11 2 12 3 29 4 30 5 3 7 2 8 1 9 4 10 5 11 9 12 6 13
REMARK SMILES IDX 8 14 7 15 13 16 14 17 15 18 16 19 17 20 18 21 19 24 20 25
REMARK SMILES IDX 21 26 25 27 22 28 24 29 23 30 26 31 28 32 27 33
REMARK H PARENT 11 6 18 22 18 23
ROOT
ATOM     1   N2  UNL     1      -0.982  -1.713   2.580  1.00  0.00    -0.203 N   
ATOM     2   C9  UNL     1      -1.284  -0.411   2.284  1.00  0.00     0.046 A   
ATOM     3   C10 UNL     1      -0.074   0.157   1.963  1.00  0.00     0.127 A   
ATOM     4   N4  UNL     1       0.909  -0.793   2.084  1.00  0.00    -0.132 NA  
ATOM     5   N5  UNL     1       0.346  -1.929   2.459  1.00  0.00    -0.075 NA  
ATOM     6   H11 UNL     1      -2.299  -0.040   2.305  1.00  0.00     0.083 HD  
ENDROOT
BRANCH   1   7
ATOM     7   C3  UNL     1      -1.874  -2.808   2.961  1.00  0.00     0.148 C   
BRANCH   7   8
ATOM     8   C2  UNL     1      -2.762  -2.434   4.164  1.00  0.00     0.028 C   
ATOM     9   C1  UNL     1      -3.518  -3.631   4.728  1.00  0.00     0.006 C   
ENDBRANCH   7   8
BRANCH   7  10
ATOM     10  C4  UNL     1      -2.671  -3.248   1.744  1.00  0.00     0.063 A   
ATOM     11  C5  UNL     1      -2.445  -4.502   1.173  1.00  0.00     0.026 A   
ATOM     12  N1  UNL     1      -3.600  -2.385   1.248  1.00  0.00    -0.259 NA  
ATOM     13  C6  UNL     1      -3.202  -4.887   0.069  1.00  0.00     0.004 A   
ATOM     14  C8  UNL     1      -4.325  -2.795   0.179  1.00  0.00     0.111 A   
ATOM     15  C7  UNL     1      -4.160  -4.021  -0.440  1.00  0.00     0.020 A   
ENDBRANCH   7  10
ENDBRANCH   1   7
BRANCH   3  16
ATOM     16  C11 UNL     1       0.298   1.530   1.502  1.00  0.00     0.114 C   
BRANCH  16  17
ATOM     17  C12 UNL     1      -0.861   2.315   0.859  1.00  0.00     0.064 C   
BRANCH  17  18
ATOM     18  C13 UNL     1      -0.521   3.732   0.349  1.00  0.00    -0.012 C   
ATOM     19  C14 UNL     1      -0.046   4.651   1.473  1.00  0.00     0.007 C   
ATOM     20  C15 UNL     1      -1.750   4.341  -0.337  1.00  0.00     0.007 C   
ENDBRANCH  17  18
ENDBRANCH  16  17
BRANCH  16  21
ATOM     21  N3  UNL     1       1.494   1.477   0.589  1.00  0.00     0.249 N   
ATOM     22  H22 UNL     1       2.209   0.939   1.101  1.00  0.00     0.199 HD  
ATOM     23  H23 UNL     1       1.896   2.410   0.451  1.00  0.00     0.199 HD  
BRANCH  21  24
ATOM     24  C16 UNL     1       1.331   0.792  -0.726  1.00  0.00     0.164 C   
BRANCH  24  25
ATOM     25  C17 UNL     1       2.609   0.869  -1.514  1.00  0.00    -0.002 A   
ATOM     26  C18 UNL     1       3.650  -0.062  -1.281  1.00  0.00     0.012 A   
ATOM     27  C22 UNL     1       2.796   1.898  -2.454  1.00  0.00     0.045 A   
ATOM     28  C19 UNL     1       4.859   0.024  -1.982  1.00  0.00     0.037 A   
ATOM     29  C21 UNL     1       3.999   1.949  -3.129  1.00  0.00     0.109 A   
ATOM     30  C20 UNL     1       5.002   1.040  -2.899  1.00  0.00     0.108 A   
ATOM     31  O1  UNL     1       4.339   2.872  -4.066  1.00  0.00    -0.316 OA  
ATOM     32  O2  UNL     1       6.101   1.278  -3.661  1.00  0.00    -0.316 OA  
ATOM     33  C23 UNL     1       5.642   2.389  -4.463  1.00  0.00     0.337 C   
ENDBRANCH  24  25
ENDBRANCH  21  24
ENDBRANCH  16  21
ENDBRANCH   3  16
TORSDOF 9
