REMARK SMILES CC[C@H](c1ccccn1)n1cc([C@H](CC(C)C)[NH2+]Cc2ccc3c(c2)OCO3)nn1
REMARK SMILES IDX 10 1 11 2 12 3 29 4 30 5 3 7 2 8 1 9 4 10 5 11 9 12 6 13
REMARK SMILES IDX 8 14 7 15 13 16 14 17 15 18 16 19 17 20 18 21 19 24 20 25
REMARK SMILES IDX 21 26 25 27 22 28 24 29 23 30 26 31 28 32 27 33
REMARK H PARENT 11 6 18 22 18 23
ROOT
ATOM     1   N2  UNL     1       2.110  -1.058   1.874  1.00  0.00    -0.203 N   
ATOM     2   C9  UNL     1       1.492  -0.056   1.173  1.00  0.00     0.046 A   
ATOM     3   C10 UNL     1       0.160  -0.199   1.483  1.00  0.00     0.127 A   
ATOM     4   N4  UNL     1       0.009  -1.250   2.351  1.00  0.00    -0.132 NA  
ATOM     5   N5  UNL     1       1.204  -1.771   2.578  1.00  0.00    -0.075 NA  
ATOM     6   H11 UNL     1       2.040   0.615   0.526  1.00  0.00     0.083 HD  
ENDROOT
BRANCH   1   7
ATOM     7   C3  UNL     1       3.525  -1.412   1.923  1.00  0.00     0.148 C   
BRANCH   7   8
ATOM     8   C2  UNL     1       4.426  -0.243   2.366  1.00  0.00     0.028 C   
ATOM     9   C1  UNL     1       4.158   0.196   3.801  1.00  0.00     0.006 C   
ENDBRANCH   7   8
BRANCH   7  10
ATOM     10  C4  UNL     1       3.942  -1.966   0.570  1.00  0.00     0.063 A   
ATOM     11  C5  UNL     1       4.155  -3.335   0.408  1.00  0.00     0.026 A   
ATOM     12  N1  UNL     1       4.079  -1.087  -0.460  1.00  0.00    -0.259 NA  
ATOM     13  C6  UNL     1       4.538  -3.815  -0.842  1.00  0.00     0.004 A   
ATOM     14  C8  UNL     1       4.464  -1.583  -1.659  1.00  0.00     0.111 A   
ATOM     15  C7  UNL     1       4.700  -2.925  -1.896  1.00  0.00     0.020 A   
ENDBRANCH   7  10
ENDBRANCH   1   7
BRANCH   3  16
ATOM     16  C11 UNL     1      -1.044   0.534   0.992  1.00  0.00     0.114 C   
BRANCH  16  17
ATOM     17  C12 UNL     1      -1.444   1.648   1.982  1.00  0.00     0.064 C   
BRANCH  17  18
ATOM     18  C13 UNL     1      -2.641   2.534   1.574  1.00  0.00    -0.012 C   
ATOM     19  C14 UNL     1      -2.445   3.199   0.211  1.00  0.00     0.007 C   
ATOM     20  C15 UNL     1      -2.873   3.606   2.644  1.00  0.00     0.007 C   
ENDBRANCH  17  18
ENDBRANCH  16  17
BRANCH  16  21
ATOM     21  N3  UNL     1      -2.202  -0.421   0.827  1.00  0.00     0.249 N   
ATOM     22  H22 UNL     1      -3.076   0.088   0.682  1.00  0.00     0.199 HD  
ATOM     23  H23 UNL     1      -2.281  -0.929   1.719  1.00  0.00     0.199 HD  
BRANCH  21  24
ATOM     24  C16 UNL     1      -2.061  -1.443  -0.254  1.00  0.00     0.164 C   
BRANCH  24  25
ATOM     25  C17 UNL     1      -2.128  -0.842  -1.631  1.00  0.00    -0.002 A   
ATOM     26  C18 UNL     1      -3.371  -0.436  -2.174  1.00  0.00     0.012 A   
ATOM     27  C22 UNL     1      -0.951  -0.639  -2.372  1.00  0.00     0.045 A   
ATOM     28  C19 UNL     1      -3.442   0.167  -3.434  1.00  0.00     0.037 A   
ATOM     29  C21 UNL     1      -1.056  -0.038  -3.609  1.00  0.00     0.109 A   
ATOM     30  C20 UNL     1      -2.266   0.355  -4.125  1.00  0.00     0.108 A   
ATOM     31  O1  UNL     1      -0.021   0.241  -4.444  1.00  0.00    -0.316 OA  
ATOM     32  O2  UNL     1      -2.146   0.929  -5.350  1.00  0.00    -0.316 OA  
ATOM     33  C23 UNL     1      -0.721   0.839  -5.559  1.00  0.00     0.337 C   
ENDBRANCH  24  25
ENDBRANCH  21  24
ENDBRANCH  16  21
ENDBRANCH   3  16
TORSDOF 9
