REMARK SMILES CC(=O)c1ccccc1-n1cc([C@@H]([NH2+]Cc2ccc3c(c2)OCO3)C2CCCCC2)nn1
REMARK SMILES IDX 10 1 11 2 12 3 31 4 32 5 9 6 4 7 5 8 6 9 8 10 7 11 2 12 1 13
REMARK SMILES IDX 3 14 13 15 14 16 15 19 16 20 17 21 21 22 18 23 20 24 19 25
REMARK SMILES IDX 22 26 24 27 23 28 25 29 26 30 30 31 27 32 29 33 28 34
REMARK H PARENT 14 17 14 18
ROOT
ATOM     1   N1  UNL     1       1.152   2.545   1.730  1.00  0.00    -0.180 N   
ATOM     2   C9  UNL     1       0.296   1.465   1.822  1.00  0.00     0.135 A   
ATOM     3   C10 UNL     1       0.506   0.743   0.671  1.00  0.00     0.127 A   
ATOM     4   N3  UNL     1       1.547   1.294  -0.018  1.00  0.00    -0.131 NA  
ATOM     5   N4  UNL     1       1.974   2.345   0.664  1.00  0.00    -0.071 NA  
ENDROOT
BRANCH   1   6
ATOM     6   C8  UNL     1       1.284   3.690   2.559  1.00  0.00     0.068 A   
ATOM     7   C3  UNL     1       0.249   4.192   3.374  1.00  0.00     0.041 A   
ATOM     8   C4  UNL     1       0.503   5.296   4.209  1.00  0.00     0.014 A   
ATOM     9   C5  UNL     1       1.760   5.902   4.231  1.00  0.00     0.001 A   
ATOM     10  C7  UNL     1       2.535   4.340   2.564  1.00  0.00     0.027 A   
ATOM     11  C6  UNL     1       2.771   5.431   3.401  1.00  0.00     0.002 A   
BRANCH   7  12
ATOM     12  C2  UNL     1      -1.166   3.734   3.286  1.00  0.00     0.161 C   
ATOM     13  C1  UNL     1      -1.986   3.674   4.549  1.00  0.00     0.093 C   
ATOM     14  O1  UNL     1      -1.643   3.432   2.194  1.00  0.00    -0.294 OA  
ENDBRANCH   7  12
ENDBRANCH   1   6
BRANCH   3  15
ATOM     15  C11 UNL     1      -0.244  -0.412   0.094  1.00  0.00     0.117 C   
BRANCH  15  16
ATOM     16  N2  UNL     1      -0.349  -0.263  -1.398  1.00  0.00     0.249 N   
ATOM     17  H10 UNL     1       0.590  -0.012  -1.743  1.00  0.00     0.199 HD  
ATOM     18  H11 UNL     1      -0.599  -1.143  -1.857  1.00  0.00     0.199 HD  
BRANCH  16  19
ATOM     19  C12 UNL     1      -1.284   0.804  -1.860  1.00  0.00     0.164 C   
BRANCH  19  20
ATOM     20  C13 UNL     1      -1.262   0.900  -3.359  1.00  0.00    -0.002 A   
ATOM     21  C14 UNL     1      -2.151   0.124  -4.141  1.00  0.00     0.012 A   
ATOM     22  C18 UNL     1      -0.314   1.721  -3.995  1.00  0.00     0.045 A   
ATOM     23  C15 UNL     1      -2.105   0.171  -5.538  1.00  0.00     0.037 A   
ATOM     24  C17 UNL     1      -0.297   1.745  -5.374  1.00  0.00     0.109 A   
ATOM     25  C16 UNL     1      -1.167   0.991  -6.124  1.00  0.00     0.108 A   
ATOM     26  O2  UNL     1       0.549   2.480  -6.142  1.00  0.00    -0.316 OA  
ATOM     27  O3  UNL     1      -0.977   1.156  -7.459  1.00  0.00    -0.316 OA  
ATOM     28  C19 UNL     1       0.092   2.126  -7.468  1.00  0.00     0.337 C   
ENDBRANCH  19  20
ENDBRANCH  16  19
ENDBRANCH  15  16
BRANCH  15  29
ATOM     29  C20 UNL     1       0.387  -1.779   0.469  1.00  0.00     0.043 C   
ATOM     30  C21 UNL     1      -0.587  -2.943   0.200  1.00  0.00     0.010 C   
ATOM     31  C25 UNL     1       1.744  -2.056  -0.208  1.00  0.00     0.010 C   
ATOM     32  C22 UNL     1       0.001  -4.285   0.632  1.00  0.00     0.001 C   
ATOM     33  C24 UNL     1       2.325  -3.402   0.224  1.00  0.00     0.001 C   
ATOM     34  C23 UNL     1       1.350  -4.545  -0.029  1.00  0.00     0.000 C   
ENDBRANCH  15  29
ENDBRANCH   3  15
TORSDOF 7
