REMARK SMILES COc1cccc(Cn2cc([C@@H]([NH2+]Cc3ccc4c(c3)OCO4)C3CCCCC3)nn2)c1C
REMARK SMILES IDX 9 1 10 2 11 3 30 4 31 5 8 7 7 8 3 9 4 10 32 11 5 12 6 13
REMARK SMILES IDX 33 14 2 15 1 16 12 17 13 18 14 21 15 22 16 23 20 24 17 25
REMARK SMILES IDX 19 26 18 27 21 28 23 29 22 30 24 31 25 32 29 33 26 34 28 35
REMARK SMILES IDX 27 36
REMARK H PARENT 10 6 13 19 13 20
ROOT
ATOM     1   N1  UNL     1      -0.241  -0.852   2.900  1.00  0.00    -0.208 N   
ATOM     2   C8  UNL     1      -0.154  -0.577   1.562  1.00  0.00     0.046 A   
ATOM     3   C9  UNL     1       0.004   0.789   1.504  1.00  0.00     0.127 A   
ATOM     4   N3  UNL     1      -0.040   1.298   2.776  1.00  0.00    -0.132 NA  
ATOM     5   N4  UNL     1      -0.195   0.290   3.618  1.00  0.00    -0.076 NA  
ATOM     6   H9  UNL     1      -0.183  -1.348   0.803  1.00  0.00     0.083 HD  
ENDROOT
BRANCH   1   7
ATOM     7   C7  UNL     1      -0.337  -2.130   3.594  1.00  0.00     0.169 C   
BRANCH   7   8
ATOM     8   C6  UNL     1      -0.982  -3.217   2.764  1.00  0.00    -0.023 A   
ATOM     9   C2  UNL     1      -0.932  -5.090   1.196  1.00  0.00     0.078 A   
ATOM     10  C3  UNL     1      -2.323  -5.197   1.282  1.00  0.00     0.034 A   
ATOM     11  C25 UNL     1      -0.248  -4.085   1.919  1.00  0.00    -0.016 A   
ATOM     12  C4  UNL     1      -3.044  -4.328   2.097  1.00  0.00     0.003 A   
ATOM     13  C5  UNL     1      -2.382  -3.349   2.832  1.00  0.00     0.006 A   
ATOM     14  C26 UNL     1       1.256  -4.017   1.799  1.00  0.00     0.047 C   
BRANCH   9  15
ATOM     15  O1  UNL     1      -0.150  -5.902   0.414  1.00  0.00    -0.349 OA  
ATOM     16  C1  UNL     1      -0.727  -7.123  -0.034  1.00  0.00     0.203 C   
ENDBRANCH   9  15
ENDBRANCH   7   8
ENDBRANCH   1   7
BRANCH   3  17
ATOM     17  C10 UNL     1       0.163   1.720   0.347  1.00  0.00     0.117 C   
BRANCH  17  18
ATOM     18  N2  UNL     1      -0.427   3.072   0.693  1.00  0.00     0.249 N   
ATOM     19  H11 UNL     1      -0.108   3.285   1.649  1.00  0.00     0.199 HD  
ATOM     20  H12 UNL     1      -0.048   3.797   0.076  1.00  0.00     0.199 HD  
BRANCH  18  21
ATOM     21  C11 UNL     1      -1.917   3.158   0.695  1.00  0.00     0.164 C   
BRANCH  21  22
ATOM     22  C12 UNL     1      -2.501   3.081  -0.689  1.00  0.00    -0.002 A   
ATOM     23  C13 UNL     1      -3.168   1.909  -1.120  1.00  0.00     0.012 A   
ATOM     24  C17 UNL     1      -2.358   4.161  -1.577  1.00  0.00     0.045 A   
ATOM     25  C14 UNL     1      -3.673   1.807  -2.421  1.00  0.00     0.037 A   
ATOM     26  C16 UNL     1      -2.868   4.028  -2.852  1.00  0.00     0.109 A   
ATOM     27  C15 UNL     1      -3.503   2.883  -3.264  1.00  0.00     0.108 A   
ATOM     28  O2  UNL     1      -2.807   4.970  -3.829  1.00  0.00    -0.316 OA  
ATOM     29  O3  UNL     1      -3.921   2.960  -4.553  1.00  0.00    -0.316 OA  
ATOM     30  C18 UNL     1      -3.498   4.295  -4.904  1.00  0.00     0.337 C   
ENDBRANCH  21  22
ENDBRANCH  18  21
ENDBRANCH  17  18
BRANCH  17  31
ATOM     31  C19 UNL     1       1.634   1.935  -0.101  1.00  0.00     0.043 C   
ATOM     32  C20 UNL     1       2.235   0.658  -0.720  1.00  0.00     0.010 C   
ATOM     33  C24 UNL     1       2.562   2.472   1.008  1.00  0.00     0.010 C   
ATOM     34  C21 UNL     1       3.650   0.899  -1.242  1.00  0.00     0.001 C   
ATOM     35  C23 UNL     1       3.981   2.704   0.490  1.00  0.00     0.001 C   
ATOM     36  C22 UNL     1       4.563   1.447  -0.150  1.00  0.00     0.000 C   
ENDBRANCH  17  31
ENDBRANCH   3  17
TORSDOF 8
