REMARK SMILES COc1ccc(N)cc1-n1cc([C@H](CC(C)C)[NH2+]Cc2ccc3c(c2)OCO3)nn1
REMARK SMILES IDX 10 1 11 2 12 3 29 4 30 5 9 6 3 7 4 8 5 9 8 10 6 11 2 12 1 13
REMARK SMILES IDX 7 14 13 17 14 18 15 19 16 20 17 21 18 22 19 25 20 26 21 27
REMARK SMILES IDX 25 28 22 29 24 30 23 31 26 32 28 33 27 34
REMARK H PARENT 7 15 7 16 18 23 18 24
ROOT
ATOM     1   N2  UNL     1      -0.368   2.059  -0.311  1.00  0.00    -0.178 N   
ATOM     2   C8  UNL     1      -0.361   0.780   0.219  1.00  0.00     0.135 A   
ATOM     3   C9  UNL     1       0.223   0.901   1.458  1.00  0.00     0.127 A   
ATOM     4   N4  UNL     1       0.578   2.200   1.661  1.00  0.00    -0.131 NA  
ATOM     5   N5  UNL     1       0.187   2.898   0.609  1.00  0.00    -0.071 NA  
ENDROOT
BRANCH   1   6
ATOM     6   C7  UNL     1      -0.847   2.543  -1.557  1.00  0.00     0.090 A   
ATOM     7   C2  UNL     1      -1.143   1.699  -2.642  1.00  0.00     0.098 A   
ATOM     8   C3  UNL     1      -1.697   2.267  -3.797  1.00  0.00     0.037 A   
ATOM     9   C4  UNL     1      -1.902   3.646  -3.896  1.00  0.00     0.026 A   
ATOM     10  C6  UNL     1      -1.034   3.936  -1.686  1.00  0.00     0.051 A   
ATOM     11  C5  UNL     1      -1.518   4.499  -2.867  1.00  0.00     0.025 A   
BRANCH   7  12
ATOM     12  O1  UNL     1      -0.877   0.361  -2.529  1.00  0.00    -0.347 OA  
ATOM     13  C1  UNL     1      -0.878  -0.416  -3.725  1.00  0.00     0.203 C   
ENDBRANCH   7  12
BRANCH  11  14
ATOM     14  N1  UNL     1      -1.829   5.859  -2.924  1.00  0.00    -0.358 N   
ATOM     15  H6  UNL     1      -1.899   6.236  -3.865  1.00  0.00     0.143 HD  
ATOM     16  H7  UNL     1      -1.256   6.449  -2.328  1.00  0.00     0.143 HD  
ENDBRANCH  11  14
ENDBRANCH   1   6
BRANCH   3  17
ATOM     17  C10 UNL     1       0.543  -0.123   2.494  1.00  0.00     0.114 C   
BRANCH  17  18
ATOM     18  C11 UNL     1      -0.423  -0.080   3.691  1.00  0.00     0.064 C   
BRANCH  18  19
ATOM     19  C12 UNL     1      -1.906  -0.340   3.347  1.00  0.00    -0.012 C   
ATOM     20  C13 UNL     1      -2.127  -1.705   2.693  1.00  0.00     0.007 C   
ATOM     21  C14 UNL     1      -2.764  -0.227   4.612  1.00  0.00     0.007 C   
ENDBRANCH  18  19
ENDBRANCH  17  18
BRANCH  17  22
ATOM     22  N3  UNL     1       1.934   0.116   3.042  1.00  0.00     0.249 N   
ATOM     23  H20 UNL     1       1.964   1.103   3.335  1.00  0.00     0.199 HD  
ATOM     24  H21 UNL     1       2.083  -0.452   3.881  1.00  0.00     0.199 HD  
BRANCH  22  25
ATOM     25  C15 UNL     1       3.067  -0.109   2.093  1.00  0.00     0.164 C   
BRANCH  25  26
ATOM     26  C16 UNL     1       3.232  -1.556   1.720  1.00  0.00    -0.002 A   
ATOM     27  C17 UNL     1       2.784  -2.030   0.462  1.00  0.00     0.012 A   
ATOM     28  C21 UNL     1       3.794  -2.461   2.637  1.00  0.00     0.045 A   
ATOM     29  C18 UNL     1       2.881  -3.386   0.127  1.00  0.00     0.037 A   
ATOM     30  C20 UNL     1       3.880  -3.792   2.271  1.00  0.00     0.109 A   
ATOM     31  C19 UNL     1       3.429  -4.243   1.056  1.00  0.00     0.108 A   
ATOM     32  O2  UNL     1       4.387  -4.790   3.041  1.00  0.00    -0.316 OA  
ATOM     33  O3  UNL     1       3.597  -5.580   0.910  1.00  0.00    -0.316 OA  
ATOM     34  C22 UNL     1       4.247  -5.922   2.153  1.00  0.00     0.337 C   
ENDBRANCH  25  26
ENDBRANCH  22  25
ENDBRANCH  17  22
ENDBRANCH   3  17
TORSDOF 9
