REMARK SMILES Cc1c(Cn2cc([C@@H]([NH2+]Cc3ccc4c(c3)OCO4)C3CCCC3)nn2)cnn1C
REMARK SMILES IDX 5 1 6 2 7 3 25 4 26 5 4 7 3 8 2 9 29 10 27 11 28 12 1 13
REMARK SMILES IDX 30 14 8 15 9 16 10 19 11 20 12 21 16 22 13 23 15 24 14 25
REMARK SMILES IDX 17 26 19 27 18 28 20 29 21 30 24 31 22 32 23 33
REMARK H PARENT 6 6 9 17 9 18
ROOT
ATOM     1   N1  UNL     1      -1.820   1.519  -0.292  1.00  0.00    -0.208 N   
ATOM     2   C5  UNL     1      -1.394   0.632   0.660  1.00  0.00     0.046 A   
ATOM     3   C6  UNL     1      -0.210   1.173   1.108  1.00  0.00     0.127 A   
ATOM     4   N3  UNL     1       0.037   2.342   0.437  1.00  0.00    -0.132 NA  
ATOM     5   N4  UNL     1      -0.958   2.549  -0.409  1.00  0.00    -0.076 NA  
ATOM     6   H6  UNL     1      -1.941  -0.269   0.896  1.00  0.00     0.083 HD  
ENDROOT
BRANCH   1   7
ATOM     7   C4  UNL     1      -3.023   1.457  -1.105  1.00  0.00     0.172 C   
BRANCH   7   8
ATOM     8   C3  UNL     1      -2.808   0.574  -2.281  1.00  0.00     0.010 A   
ATOM     9   C2  UNL     1      -3.158  -0.756  -2.463  1.00  0.00     0.031 A   
ATOM     10  N6  UNL     1      -2.739  -1.081  -3.731  1.00  0.00    -0.233 N   
ATOM     11  C21 UNL     1      -2.185   0.941  -3.495  1.00  0.00     0.138 A   
ATOM     12  N5  UNL     1      -2.142  -0.061  -4.370  1.00  0.00    -0.190 NA  
ATOM     13  C1  UNL     1      -3.848  -1.729  -1.578  1.00  0.00     0.064 C   
ATOM     14  C22 UNL     1      -2.876  -2.353  -4.403  1.00  0.00     0.159 C   
ENDBRANCH   7   8
ENDBRANCH   1   7
BRANCH   3  15
ATOM     15  C7  UNL     1       0.797   0.677   2.092  1.00  0.00     0.117 C   
BRANCH  15  16
ATOM     16  N2  UNL     1       2.183   0.932   1.534  1.00  0.00     0.249 N   
ATOM     17  H8  UNL     1       2.776   1.403   2.223  1.00  0.00     0.199 HD  
ATOM     18  H9  UNL     1       2.061   1.626   0.777  1.00  0.00     0.199 HD  
BRANCH  16  19
ATOM     19  C8  UNL     1       2.898  -0.248   0.980  1.00  0.00     0.164 C   
BRANCH  19  20
ATOM     20  C9  UNL     1       2.259  -0.817  -0.255  1.00  0.00    -0.002 A   
ATOM     21  C10 UNL     1       1.511  -2.018  -0.194  1.00  0.00     0.012 A   
ATOM     22  C14 UNL     1       2.392  -0.150  -1.485  1.00  0.00     0.045 A   
ATOM     23  C11 UNL     1       0.910  -2.551  -1.341  1.00  0.00     0.037 A   
ATOM     24  C13 UNL     1       1.798  -0.709  -2.598  1.00  0.00     0.109 A   
ATOM     25  C12 UNL     1       1.077  -1.875  -2.529  1.00  0.00     0.108 A   
ATOM     26  O1  UNL     1       1.863  -0.209  -3.859  1.00  0.00    -0.316 OA  
ATOM     27  O2  UNL     1       0.593  -2.259  -3.739  1.00  0.00    -0.316 OA  
ATOM     28  C15 UNL     1       1.127  -1.217  -4.589  1.00  0.00     0.337 C   
ENDBRANCH  19  20
ENDBRANCH  16  19
ENDBRANCH  15  16
BRANCH  15  29
ATOM     29  C16 UNL     1       0.676   1.376   3.458  1.00  0.00     0.043 C   
ATOM     30  C17 UNL     1      -0.676   1.153   4.142  1.00  0.00     0.010 C   
ATOM     31  C20 UNL     1       1.649   0.843   4.517  1.00  0.00     0.010 C   
ATOM     32  C18 UNL     1      -0.426   1.569   5.585  1.00  0.00     0.001 C   
ATOM     33  C19 UNL     1       1.040   1.244   5.859  1.00  0.00     0.001 C   
ENDBRANCH  15  29
ENDBRANCH   3  15
TORSDOF 7
