REMARK SMILES Fc1cc(Cn2cc([C@@H]([NH2+]Cc3ccc4c(c3)OCO4)C3CCCCC3)nn2)c(Cl)cn1
REMARK SMILES IDX 6 1 7 2 8 3 27 4 28 5 5 7 4 8 2 9 3 10 32 11 31 12 29 13
REMARK SMILES IDX 1 14 30 15 9 16 10 17 11 20 12 21 13 22 17 23 14 24 16 25
REMARK SMILES IDX 15 26 18 27 20 28 19 29 21 30 22 31 26 32 23 33 25 34 24 35
REMARK H PARENT 7 6 10 18 10 19
ROOT
ATOM     1   N1  UNL     1      -1.556   1.442   1.450  1.00  0.00    -0.208 N   
ATOM     2   C5  UNL     1      -1.045   0.781   0.368  1.00  0.00     0.046 A   
ATOM     3   C6  UNL     1      -0.871  -0.509   0.819  1.00  0.00     0.127 A   
ATOM     4   N3  UNL     1      -1.275  -0.587   2.127  1.00  0.00    -0.132 NA  
ATOM     5   N4  UNL     1      -1.696   0.609   2.500  1.00  0.00    -0.076 NA  
ATOM     6   H4  UNL     1      -0.836   1.274  -0.572  1.00  0.00     0.083 HD  
ENDROOT
BRANCH   1   7
ATOM     7   C4  UNL     1      -1.928   2.842   1.568  1.00  0.00     0.171 C   
BRANCH   7   8
ATOM     8   C3  UNL     1      -0.864   3.625   2.294  1.00  0.00    -0.004 A   
ATOM     9   C1  UNL     1       0.065   4.422   4.371  1.00  0.00     0.213 A   
ATOM     10  C2  UNL     1      -0.932   3.737   3.694  1.00  0.00     0.067 A   
ATOM     11  N5  UNL     1       1.122   4.995   3.763  1.00  0.00    -0.227 NA  
ATOM     12  C23 UNL     1       1.176   4.884   2.415  1.00  0.00     0.135 A   
ATOM     13  C22 UNL     1       0.226   4.218   1.646  1.00  0.00     0.064 A   
ATOM     14  F1  UNL     1      -0.019   4.518   5.705  1.00  0.00    -0.185 F   
ATOM     15  CL1 UNL     1       0.435   4.146  -0.061  1.00  0.00    -0.082 Cl  
ENDBRANCH   7   8
ENDBRANCH   1   7
BRANCH   3  16
ATOM     16  C7  UNL     1      -0.261  -1.718   0.179  1.00  0.00     0.117 C   
BRANCH  16  17
ATOM     17  N2  UNL     1       0.630  -2.373   1.225  1.00  0.00     0.249 N   
ATOM     18  H6  UNL     1       0.414  -3.367   1.330  1.00  0.00     0.199 HD  
ATOM     19  H7  UNL     1       0.352  -1.959   2.130  1.00  0.00     0.199 HD  
BRANCH  17  20
ATOM     20  C8  UNL     1       2.095  -2.185   1.058  1.00  0.00     0.164 C   
BRANCH  20  21
ATOM     21  C9  UNL     1       2.535  -0.748   1.083  1.00  0.00    -0.002 A   
ATOM     22  C10 UNL     1       2.463   0.008   2.277  1.00  0.00     0.012 A   
ATOM     23  C14 UNL     1       3.014  -0.138  -0.090  1.00  0.00     0.045 A   
ATOM     24  C11 UNL     1       2.864   1.349   2.307  1.00  0.00     0.037 A   
ATOM     25  C13 UNL     1       3.404   1.184  -0.026  1.00  0.00     0.109 A   
ATOM     26  C12 UNL     1       3.335   1.906   1.139  1.00  0.00     0.108 A   
ATOM     27  O1  UNL     1       3.889   1.914  -1.064  1.00  0.00    -0.316 OA  
ATOM     28  O2  UNL     1       3.775   3.182   0.983  1.00  0.00    -0.316 OA  
ATOM     29  C15 UNL     1       4.184   3.165  -0.403  1.00  0.00     0.337 C   
ENDBRANCH  20  21
ENDBRANCH  17  20
ENDBRANCH  16  17
BRANCH  16  30
ATOM     30  C16 UNL     1      -1.317  -2.752  -0.311  1.00  0.00     0.043 C   
ATOM     31  C17 UNL     1      -2.341  -2.145  -1.297  1.00  0.00     0.010 C   
ATOM     32  C21 UNL     1      -0.687  -3.994  -0.983  1.00  0.00     0.010 C   
ATOM     33  C18 UNL     1      -1.728  -1.806  -2.655  1.00  0.00     0.001 C   
ATOM     34  C20 UNL     1      -0.060  -3.683  -2.342  1.00  0.00     0.001 C   
ATOM     35  C19 UNL     1      -1.061  -3.024  -3.286  1.00  0.00     0.000 C   
ENDBRANCH  16  30
ENDBRANCH   3  16
TORSDOF 7
