REMARK SMILES COc1ccc(CCn2cc([C@@H]([NH2+]Cc3ccc4c(c3)OCO4)C(C)(C)C)nn2)c(C)c1
REMARK SMILES IDX 9 1 10 2 11 3 28 4 29 5 8 7 7 8 6 9 3 10 4 11 32 12 5 13
REMARK SMILES IDX 30 14 31 15 2 16 1 17 12 18 13 19 14 22 15 23 16 24 20 25
REMARK SMILES IDX 17 26 19 27 18 28 21 29 23 30 22 31 24 32 25 33 26 34 27 35
REMARK H PARENT 10 6 13 20 13 21
ROOT
ATOM     1   N1  UNL     1      -1.725   2.332  -1.712  1.00  0.00    -0.212 N   
ATOM     2   C8  UNL     1      -1.502   1.018  -2.017  1.00  0.00     0.045 A   
ATOM     3   C9  UNL     1      -1.589   0.376  -0.802  1.00  0.00     0.127 A   
ATOM     4   N3  UNL     1      -1.895   1.294   0.170  1.00  0.00    -0.132 NA  
ATOM     5   N4  UNL     1      -1.983   2.486  -0.402  1.00  0.00    -0.076 NA  
ATOM     6   H10 UNL     1      -1.246   0.690  -3.014  1.00  0.00     0.083 HD  
ENDROOT
BRANCH   1   7
ATOM     7   C7  UNL     1      -1.583   3.476  -2.587  1.00  0.00     0.139 C   
BRANCH   7   8
ATOM     8   C6  UNL     1      -0.289   4.266  -2.351  1.00  0.00     0.057 C   
BRANCH   8   9
ATOM     9   C5  UNL     1       0.960   3.404  -2.300  1.00  0.00    -0.043 A   
ATOM     10  C2  UNL     1       3.161   1.664  -2.006  1.00  0.00     0.075 A   
ATOM     11  C3  UNL     1       2.647   2.334  -0.902  1.00  0.00     0.034 A   
ATOM     12  C25 UNL     1       2.597   1.885  -3.263  1.00  0.00     0.037 A   
ATOM     13  C4  UNL     1       1.557   3.192  -1.044  1.00  0.00     0.007 A   
ATOM     14  C23 UNL     1       1.512   2.771  -3.431  1.00  0.00    -0.045 A   
ATOM     15  C24 UNL     1       0.961   2.959  -4.819  1.00  0.00     0.045 C   
BRANCH  10  16
ATOM     16  O1  UNL     1       4.171   0.786  -1.732  1.00  0.00    -0.349 OA  
ATOM     17  C1  UNL     1       5.059   0.508  -2.811  1.00  0.00     0.203 C   
ENDBRANCH  10  16
ENDBRANCH   8   9
ENDBRANCH   7   8
ENDBRANCH   1   7
BRANCH   3  18
ATOM     18  C10 UNL     1      -1.272  -1.039  -0.431  1.00  0.00     0.120 C   
BRANCH  18  19
ATOM     19  N2  UNL     1      -0.387  -1.054   0.793  1.00  0.00     0.250 N   
ATOM     20  H12 UNL     1      -0.209  -2.007   1.120  1.00  0.00     0.199 HD  
ATOM     21  H13 UNL     1      -0.891  -0.566   1.542  1.00  0.00     0.199 HD  
BRANCH  19  22
ATOM     22  C11 UNL     1       0.928  -0.362   0.630  1.00  0.00     0.164 C   
BRANCH  22  23
ATOM     23  C12 UNL     1       1.824  -0.614   1.811  1.00  0.00    -0.002 A   
ATOM     24  C13 UNL     1       2.977  -1.422   1.672  1.00  0.00     0.012 A   
ATOM     25  C17 UNL     1       1.518  -0.057   3.064  1.00  0.00     0.045 A   
ATOM     26  C14 UNL     1       3.817  -1.670   2.762  1.00  0.00     0.037 A   
ATOM     27  C16 UNL     1       2.367  -0.324   4.119  1.00  0.00     0.109 A   
ATOM     28  C15 UNL     1       3.485  -1.106   3.973  1.00  0.00     0.108 A   
ATOM     29  O2  UNL     1       2.218   0.137   5.388  1.00  0.00    -0.316 OA  
ATOM     30  O3  UNL     1       4.184  -1.232   5.130  1.00  0.00    -0.316 OA  
ATOM     31  C18 UNL     1       3.400  -0.409   6.017  1.00  0.00     0.337 C   
ENDBRANCH  22  23
ENDBRANCH  19  22
ENDBRANCH  18  19
BRANCH  18  32
ATOM     32  C19 UNL     1      -2.529  -1.950  -0.216  1.00  0.00     0.010 C   
ATOM     33  C20 UNL     1      -2.094  -3.419   0.005  1.00  0.00     0.017 C   
ATOM     34  C21 UNL     1      -3.418  -1.927  -1.483  1.00  0.00     0.017 C   
ATOM     35  C22 UNL     1      -3.392  -1.518   0.988  1.00  0.00     0.017 C   
ENDBRANCH  18  32
ENDBRANCH   3  18
TORSDOF 9
