REMARK SMILES Cc1cc(CCn2cc([C@@H]([NH2+]Cc3ccc4c(c3)OCO4)C(C)C)nn2)ccn1
REMARK SMILES IDX 7 1 8 2 9 3 25 4 26 5 6 7 5 8 4 9 2 10 3 11 29 12 28 13
REMARK SMILES IDX 27 14 1 15 10 16 11 17 12 20 13 21 14 22 18 23 15 24 17 25
REMARK SMILES IDX 16 26 19 27 21 28 20 29 22 30 23 31 24 32
REMARK H PARENT 8 6 11 18 11 19
ROOT
ATOM     1   N1  UNL     1      -1.426   0.168   3.390  1.00  0.00    -0.212 N   
ATOM     2   C7  UNL     1      -0.073  -0.050   3.405  1.00  0.00     0.045 A   
ATOM     3   C8  UNL     1       0.415   0.870   2.504  1.00  0.00     0.127 A   
ATOM     4   N3  UNL     1      -0.608   1.688   2.100  1.00  0.00    -0.132 NA  
ATOM     5   N4  UNL     1      -1.723   1.276   2.687  1.00  0.00    -0.076 NA  
ATOM     6   H9  UNL     1       0.372  -0.891   3.919  1.00  0.00     0.083 HD  
ENDROOT
BRANCH   1   7
ATOM     7   C6  UNL     1      -2.454  -0.800   3.725  1.00  0.00     0.139 C   
BRANCH   7   8
ATOM     8   C5  UNL     1      -3.107  -1.463   2.492  1.00  0.00     0.057 C   
BRANCH   8   9
ATOM     9   C4  UNL     1      -2.144  -1.677   1.343  1.00  0.00    -0.043 A   
ATOM     10  C2  UNL     1      -1.196  -0.868  -0.716  1.00  0.00     0.037 A   
ATOM     11  C3  UNL     1      -2.230  -0.857   0.212  1.00  0.00     0.027 A   
ATOM     12  N5  UNL     1      -0.064  -1.594  -0.529  1.00  0.00    -0.262 NA  
ATOM     13  C22 UNL     1      -0.077  -2.495   0.483  1.00  0.00     0.111 A   
ATOM     14  C21 UNL     1      -1.079  -2.571   1.437  1.00  0.00     0.024 A   
ATOM     15  C1  UNL     1      -1.276   0.011  -1.930  1.00  0.00     0.067 C   
ENDBRANCH   8   9
ENDBRANCH   7   8
ENDBRANCH   1   7
BRANCH   3  16
ATOM     16  C9  UNL     1       1.768   0.970   1.872  1.00  0.00     0.117 C   
BRANCH  16  17
ATOM     17  N2  UNL     1       1.610   0.874   0.377  1.00  0.00     0.249 N   
ATOM     18  H11 UNL     1       0.996   1.636   0.064  1.00  0.00     0.199 HD  
ATOM     19  H12 UNL     1       1.053   0.023   0.165  1.00  0.00     0.199 HD  
BRANCH  17  20
ATOM     20  C10 UNL     1       2.839   0.803  -0.446  1.00  0.00     0.164 C   
BRANCH  20  21
ATOM     21  C11 UNL     1       2.527   0.736  -1.914  1.00  0.00    -0.002 A   
ATOM     22  C12 UNL     1       2.228   1.919  -2.634  1.00  0.00     0.012 A   
ATOM     23  C16 UNL     1       2.504  -0.502  -2.578  1.00  0.00     0.045 A   
ATOM     24  C13 UNL     1       1.919   1.871  -3.998  1.00  0.00     0.037 A   
ATOM     25  C15 UNL     1       2.201  -0.513  -3.923  1.00  0.00     0.109 A   
ATOM     26  C14 UNL     1       1.915   0.639  -4.613  1.00  0.00     0.108 A   
ATOM     27  O1  UNL     1       2.137  -1.619  -4.710  1.00  0.00    -0.316 OA  
ATOM     28  O2  UNL     1       1.635   0.405  -5.921  1.00  0.00    -0.316 OA  
ATOM     29  C17 UNL     1       1.791  -1.030  -5.984  1.00  0.00     0.337 C   
ENDBRANCH  20  21
ENDBRANCH  17  20
ENDBRANCH  16  17
BRANCH  16  30
ATOM     30  C18 UNL     1       2.567   2.232   2.295  1.00  0.00     0.037 C   
ATOM     31  C19 UNL     1       2.771   2.283   3.815  1.00  0.00     0.014 C   
ATOM     32  C20 UNL     1       1.977   3.560   1.809  1.00  0.00     0.014 C   
ENDBRANCH  16  30
ENDBRANCH   3  16
TORSDOF 8
