REMARK SMILES CC(C)(C)[C@H]([NH2+]Cc1ccc2c(c1)OCO2)c1cn(-c2nccs2)nn1
REMARK SMILES IDX 5 1 2 2 1 3 3 4 4 5 6 6 7 9 8 10 9 11 13 12 10 13 12 14
REMARK SMILES IDX 11 15 14 16 16 17 15 18 17 19 18 20 26 21 19 22 25 23 20 24
REMARK SMILES IDX 21 25 24 26 22 27 23 28
REMARK H PARENT 6 7 6 8
ROOT
ATOM     1   C5  UNL     1      -0.030  -0.694   1.823  1.00  0.00     0.120 C   
ENDROOT
BRANCH   1   2
ATOM     2   C2  UNL     1       0.987  -0.506   3.003  1.00  0.00     0.010 C   
ATOM     3   C1  UNL     1       0.232  -0.341   4.342  1.00  0.00     0.017 C   
ATOM     4   C3  UNL     1       1.902   0.720   2.809  1.00  0.00     0.017 C   
ATOM     5   C4  UNL     1       1.881  -1.760   3.148  1.00  0.00     0.017 C   
ENDBRANCH   1   2
BRANCH   1   6
ATOM     6   N1  UNL     1       0.709  -0.835   0.512  1.00  0.00     0.250 N   
ATOM     7   H11 UNL     1       0.966   0.117   0.208  1.00  0.00     0.199 HD  
ATOM     8   H12 UNL     1       1.590  -1.345   0.613  1.00  0.00     0.199 HD  
BRANCH   6   9
ATOM     9   C6  UNL     1      -0.068  -1.456  -0.598  1.00  0.00     0.164 C   
BRANCH   9  10
ATOM     10  C7  UNL     1       0.745  -1.464  -1.861  1.00  0.00    -0.002 A   
ATOM     11  C8  UNL     1       0.735  -0.337  -2.718  1.00  0.00     0.012 A   
ATOM     12  C12 UNL     1       1.565  -2.562  -2.170  1.00  0.00     0.045 A   
ATOM     13  C9  UNL     1       1.521  -0.307  -3.875  1.00  0.00     0.037 A   
ATOM     14  C11 UNL     1       2.328  -2.500  -3.318  1.00  0.00     0.109 A   
ATOM     15  C10 UNL     1       2.307  -1.405  -4.147  1.00  0.00     0.108 A   
ATOM     16  O1  UNL     1       3.170  -3.470  -3.759  1.00  0.00    -0.316 OA  
ATOM     17  O2  UNL     1       3.131  -1.550  -5.216  1.00  0.00    -0.316 OA  
ATOM     18  C13 UNL     1       3.662  -2.871  -4.981  1.00  0.00     0.337 C   
ENDBRANCH   9  10
ENDBRANCH   6   9
ENDBRANCH   1   6
BRANCH   1  19
ATOM     19  C14 UNL     1      -1.034   0.416   1.695  1.00  0.00     0.128 A   
ATOM     20  C15 UNL     1      -2.291   0.573   2.231  1.00  0.00     0.137 A   
ATOM     21  N5  UNL     1      -0.768   1.477   0.870  1.00  0.00    -0.131 NA  
ATOM     22  N2  UNL     1      -2.747   1.779   1.731  1.00  0.00    -0.156 N   
ATOM     23  N4  UNL     1      -1.811   2.292   0.892  1.00  0.00    -0.069 NA  
BRANCH  22  24
ATOM     24  C16 UNL     1      -3.959   2.415   1.978  1.00  0.00     0.185 A   
ATOM     25  N3  UNL     1      -4.874   1.901   2.773  1.00  0.00    -0.232 NA  
ATOM     26  S1  UNL     1      -4.319   3.909   1.246  1.00  0.00    -0.059 S   
ATOM     27  C17 UNL     1      -5.955   2.764   2.816  1.00  0.00     0.121 A   
ATOM     28  C18 UNL     1      -5.836   3.907   2.051  1.00  0.00     0.069 A   
ENDBRANCH  22  24
ENDBRANCH   1  19
TORSDOF 6
