REMARK SMILES CCc1nc(C)c(Cn2cc([C@@H]([NH2+]Cc3ccc4c(c3)OCO4)C3CCCCC3)nn2)o1
REMARK SMILES IDX 9 1 10 2 11 3 30 4 31 5 8 7 7 8 3 9 4 10 32 11 5 12 6 13
REMARK SMILES IDX 2 14 1 15 12 16 13 17 14 20 15 21 16 22 20 23 17 24 19 25
REMARK SMILES IDX 18 26 21 27 23 28 22 29 24 30 25 31 29 32 26 33 28 34 27 35
REMARK H PARENT 10 6 13 18 13 19
ROOT
ATOM     1   N2  UNL     1       2.541   0.712   0.667  1.00  0.00    -0.206 N   
ATOM     2   C8  UNL     1       1.461  -0.102   0.877  1.00  0.00     0.046 A   
ATOM     3   C9  UNL     1       0.929  -0.280  -0.380  1.00  0.00     0.127 A   
ATOM     4   N4  UNL     1       1.702   0.389  -1.295  1.00  0.00    -0.132 NA  
ATOM     5   N5  UNL     1       2.683   0.992  -0.643  1.00  0.00    -0.076 NA  
ATOM     6   H11 UNL     1       1.157  -0.415   1.867  1.00  0.00     0.083 HD  
ENDROOT
BRANCH   1   7
ATOM     7   C7  UNL     1       3.393   1.339   1.662  1.00  0.00     0.197 C   
BRANCH   7   8
ATOM     8   C6  UNL     1       2.713   2.541   2.188  1.00  0.00     0.102 A   
ATOM     9   C3  UNL     1       1.387   3.623   3.510  1.00  0.00     0.147 A   
ATOM     10  N1  UNL     1       1.822   4.543   2.674  1.00  0.00    -0.231 NA  
ATOM     11  O3  UNL     1       1.870   2.367   3.254  1.00  0.00    -0.296 OA  
ATOM     12  C4  UNL     1       2.685   3.874   1.838  1.00  0.00     0.068 A   
ATOM     13  C5  UNL     1       3.394   4.591   0.757  1.00  0.00     0.069 C   
BRANCH   9  14
ATOM     14  C2  UNL     1       0.430   3.793   4.637  1.00  0.00     0.080 C   
ATOM     15  C1  UNL     1       0.423   2.634   5.621  1.00  0.00     0.013 C   
ENDBRANCH   9  14
ENDBRANCH   7   8
ENDBRANCH   1   7
BRANCH   3  16
ATOM     16  C10 UNL     1      -0.335  -0.943  -0.816  1.00  0.00     0.117 C   
BRANCH  16  17
ATOM     17  N3  UNL     1      -1.038  -0.111  -1.870  1.00  0.00     0.249 N   
ATOM     18  H13 UNL     1      -0.371   0.015  -2.642  1.00  0.00     0.199 HD  
ATOM     19  H14 UNL     1      -1.844  -0.625  -2.237  1.00  0.00     0.199 HD  
BRANCH  17  20
ATOM     20  C11 UNL     1      -1.473   1.263  -1.459  1.00  0.00     0.164 C   
BRANCH  20  21
ATOM     21  C12 UNL     1      -2.369   1.279  -0.253  1.00  0.00    -0.002 A   
ATOM     22  C13 UNL     1      -1.905   1.829   0.967  1.00  0.00     0.012 A   
ATOM     23  C17 UNL     1      -3.659   0.723  -0.315  1.00  0.00     0.045 A   
ATOM     24  C14 UNL     1      -2.706   1.812   2.114  1.00  0.00     0.037 A   
ATOM     25  C16 UNL     1      -4.420   0.721   0.836  1.00  0.00     0.109 A   
ATOM     26  C15 UNL     1      -3.957   1.247   2.016  1.00  0.00     0.108 A   
ATOM     27  O1  UNL     1      -5.675   0.213   0.950  1.00  0.00    -0.316 OA  
ATOM     28  O2  UNL     1      -4.862   1.138   3.023  1.00  0.00    -0.316 OA  
ATOM     29  C18 UNL     1      -5.963   0.503   2.338  1.00  0.00     0.337 C   
ENDBRANCH  20  21
ENDBRANCH  17  20
ENDBRANCH  16  17
BRANCH  16  30
ATOM     30  C19 UNL     1      -0.151  -2.385  -1.364  1.00  0.00     0.043 C   
ATOM     31  C20 UNL     1       0.328  -3.347  -0.259  1.00  0.00     0.010 C   
ATOM     32  C24 UNL     1       0.769  -2.491  -2.596  1.00  0.00     0.010 C   
ATOM     33  C21 UNL     1       0.431  -4.784  -0.765  1.00  0.00     0.001 C   
ATOM     34  C23 UNL     1       0.878  -3.932  -3.095  1.00  0.00     0.001 C   
ATOM     35  C22 UNL     1       1.331  -4.882  -1.992  1.00  0.00     0.000 C   
ENDBRANCH  16  30
ENDBRANCH   3  16
TORSDOF 8
