REMARK SMILES CC(C)[C@H]([NH2+]Cc1ccc2c(c1)OCO2)c1cn(C(=O)c2cncc(O)c2)nn1
REMARK SMILES IDX 16 1 17 2 18 3 28 4 29 5 4 6 2 7 1 8 3 9 5 10 6 13 7 14 8 15
REMARK SMILES IDX 12 16 9 17 11 18 10 19 13 20 15 21 14 22 19 23 20 24 21 25
REMARK SMILES IDX 22 26 27 27 23 28 25 29 24 30 26 31
REMARK H PARENT 5 11 5 12 26 32
ROOT
ATOM     1   C13 UNL     1       0.946  -0.425  -0.699  1.00  0.00     0.128 A   
ATOM     2   C14 UNL     1       0.709   0.381  -1.787  1.00  0.00     0.139 A   
ATOM     3   N2  UNL     1       0.549  -0.487  -2.853  1.00  0.00    -0.143 N   
ATOM     4   N4  UNL     1       0.654  -1.761  -2.401  1.00  0.00    -0.068 NA  
ATOM     5   N5  UNL     1       0.913  -1.733  -1.103  1.00  0.00    -0.131 NA  
ENDROOT
BRANCH   1   6
ATOM     6   C4  UNL     1       1.183  -0.088   0.742  1.00  0.00     0.117 C   
BRANCH   6   7
ATOM     7   C2  UNL     1       2.662   0.302   1.014  1.00  0.00     0.037 C   
ATOM     8   C1  UNL     1       2.833   0.951   2.393  1.00  0.00     0.014 C   
ATOM     9   C3  UNL     1       3.653  -0.858   0.863  1.00  0.00     0.014 C   
ENDBRANCH   6   7
BRANCH   6  10
ATOM     10  N1  UNL     1       0.775  -1.235   1.637  1.00  0.00     0.249 N   
ATOM     11  H9  UNL     1       1.182  -2.087   1.228  1.00  0.00     0.199 HD  
ATOM     12  H10 UNL     1       1.180  -1.128   2.571  1.00  0.00     0.199 HD  
BRANCH  10  13
ATOM     13  C5  UNL     1      -0.693  -1.474   1.780  1.00  0.00     0.164 C   
BRANCH  13  14
ATOM     14  C6  UNL     1      -1.389  -0.386   2.548  1.00  0.00    -0.002 A   
ATOM     15  C7  UNL     1      -1.217  -0.272   3.949  1.00  0.00     0.012 A   
ATOM     16  C11 UNL     1      -2.196   0.547   1.873  1.00  0.00     0.045 A   
ATOM     17  C8  UNL     1      -1.835   0.757   4.669  1.00  0.00     0.037 A   
ATOM     18  C10 UNL     1      -2.790   1.549   2.612  1.00  0.00     0.109 A   
ATOM     19  C9  UNL     1      -2.614   1.653   3.970  1.00  0.00     0.108 A   
ATOM     20  O1  UNL     1      -3.590   2.527   2.115  1.00  0.00    -0.316 OA  
ATOM     21  O2  UNL     1      -3.283   2.710   4.499  1.00  0.00    -0.316 OA  
ATOM     22  C12 UNL     1      -3.934   3.242   3.325  1.00  0.00     0.337 C   
ENDBRANCH  13  14
ENDBRANCH  10  13
ENDBRANCH   6  10
ENDBRANCH   1   6
BRANCH   3  23
ATOM     23  C15 UNL     1       0.257  -0.181  -4.192  1.00  0.00     0.272 C   
ATOM     24  O3  UNL     1       0.077   1.012  -4.435  1.00  0.00    -0.269 OA  
BRANCH  23  25
ATOM     25  C16 UNL     1       0.127  -1.159  -5.297  1.00  0.00     0.060 A   
ATOM     26  C17 UNL     1       0.826  -2.360  -5.334  1.00  0.00     0.124 A   
ATOM     27  C20 UNL     1      -0.705  -0.856  -6.379  1.00  0.00     0.050 A   
ATOM     28  N3  UNL     1       0.723  -3.262  -6.340  1.00  0.00    -0.261 NA  
ATOM     29  C19 UNL     1      -0.824  -1.763  -7.422  1.00  0.00     0.090 A   
ATOM     30  C18 UNL     1      -0.104  -2.946  -7.364  1.00  0.00     0.144 A   
BRANCH  29  31
ATOM     31  O4  UNL     1      -1.649  -1.445  -8.456  1.00  0.00    -0.359 OA  
ATOM     32  H21 UNL     1      -1.608  -2.140  -9.136  1.00  0.00     0.218 HD  
ENDBRANCH  29  31
ENDBRANCH  23  25
ENDBRANCH   3  23
TORSDOF 8
