REMARK SMILES c1ccn2c(CCn3cc([C@@H]([NH2+]Cc4ccc5c(c4)OCO5)C4CCCC4)nn3)cnc2c1
REMARK SMILES IDX 8 1 9 2 10 3 28 4 29 5 7 7 6 8 5 9 1 10 2 11 33 12 3 13
REMARK SMILES IDX 32 14 4 15 31 16 30 17 11 18 12 19 13 22 14 23 15 24 19 25
REMARK SMILES IDX 16 26 18 27 17 28 20 29 22 30 21 31 23 32 24 33 27 34 25 35
REMARK SMILES IDX 26 36
REMARK H PARENT 9 6 12 20 12 21
ROOT
ATOM     1   N2  UNL     1      -2.122  -1.580  -3.152  1.00  0.00    -0.212 N   
ATOM     2   C7  UNL     1      -2.336  -0.674  -2.147  1.00  0.00     0.045 A   
ATOM     3   C8  UNL     1      -1.680  -1.222  -1.064  1.00  0.00     0.127 A   
ATOM     4   N4  UNL     1      -1.274  -2.492  -1.395  1.00  0.00    -0.132 NA  
ATOM     5   N5  UNL     1      -1.565  -2.705  -2.671  1.00  0.00    -0.076 NA  
ATOM     6   H8  UNL     1      -2.787   0.287  -2.338  1.00  0.00     0.083 HD  
ENDROOT
BRANCH   1   7
ATOM     7   C6  UNL     1      -2.094  -1.290  -4.576  1.00  0.00     0.140 C   
BRANCH   7   8
ATOM     8   C5  UNL     1      -0.665  -1.028  -5.101  1.00  0.00     0.075 C   
BRANCH   8   9
ATOM     9   C4  UNL     1       0.117  -0.120  -4.197  1.00  0.00     0.036 A   
ATOM     10  C1  UNL     1       0.266   3.932  -3.655  1.00  0.00     0.005 A   
ATOM     11  C2  UNL     1      -0.464   3.470  -4.826  1.00  0.00     0.016 A   
ATOM     12  C25 UNL     1       0.850   3.067  -2.802  1.00  0.00     0.045 A   
ATOM     13  C3  UNL     1      -0.556   2.150  -5.060  1.00  0.00     0.082 A   
ATOM     14  C24 UNL     1       0.763   1.665  -3.045  1.00  0.00     0.128 A   
ATOM     15  N1  UNL     1       0.063   1.258  -4.186  1.00  0.00    -0.263 N   
ATOM     16  N6  UNL     1       1.228   0.634  -2.360  1.00  0.00    -0.239 NA  
ATOM     17  C23 UNL     1       0.957  -0.455  -3.154  1.00  0.00     0.133 A   
ENDBRANCH   8   9
ENDBRANCH   7   8
ENDBRANCH   1   7
BRANCH   3  18
ATOM     18  C9  UNL     1      -1.251  -0.631   0.245  1.00  0.00     0.117 C   
BRANCH  18  19
ATOM     19  N3  UNL     1       0.197  -0.198   0.184  1.00  0.00     0.249 N   
ATOM     20  H10 UNL     1       0.386   0.561   0.841  1.00  0.00     0.199 HD  
ATOM     21  H11 UNL     1       0.396   0.196  -0.758  1.00  0.00     0.199 HD  
BRANCH  19  22
ATOM     22  C10 UNL     1       1.217  -1.262   0.411  1.00  0.00     0.164 C   
BRANCH  22  23
ATOM     23  C11 UNL     1       1.340  -1.641   1.862  1.00  0.00    -0.002 A   
ATOM     24  C12 UNL     1       1.921  -0.740   2.789  1.00  0.00     0.012 A   
ATOM     25  C16 UNL     1       0.859  -2.882   2.314  1.00  0.00     0.045 A   
ATOM     26  C13 UNL     1       2.008  -1.057   4.148  1.00  0.00     0.037 A   
ATOM     27  C15 UNL     1       0.965  -3.169   3.660  1.00  0.00     0.109 A   
ATOM     28  C14 UNL     1       1.527  -2.286   4.549  1.00  0.00     0.108 A   
ATOM     29  O1  UNL     1       0.527  -4.304   4.265  1.00  0.00    -0.316 OA  
ATOM     30  O2  UNL     1       1.518  -2.754   5.823  1.00  0.00    -0.316 OA  
ATOM     31  C17 UNL     1       0.883  -4.038   5.640  1.00  0.00     0.337 C   
ENDBRANCH  22  23
ENDBRANCH  19  22
ENDBRANCH  18  19
BRANCH  18  32
ATOM     32  C18 UNL     1      -2.142   0.531   0.733  1.00  0.00     0.043 C   
ATOM     33  C19 UNL     1      -1.921   1.910   0.100  1.00  0.00     0.010 C   
ATOM     34  C22 UNL     1      -1.972   0.845   2.227  1.00  0.00     0.010 C   
ATOM     35  C20 UNL     1      -2.688   2.849   1.025  1.00  0.00     0.001 C   
ATOM     36  C21 UNL     1      -2.618   2.217   2.413  1.00  0.00     0.001 C   
ENDBRANCH  18  32
ENDBRANCH   3  18
TORSDOF 8
