REMARK SMILES CC(C)C[C@H]([NH2+]Cc1ccc2c(c1)OCO2)c1cn(-c2ccc(CN)cc2)nn1
REMARK SMILES IDX 17 1 18 2 19 3 28 4 29 5 5 6 4 7 2 8 1 9 3 10 6 11 7 14 8 15
REMARK SMILES IDX 9 16 13 17 10 18 12 19 11 20 14 21 16 22 15 23 20 24 21 25
REMARK SMILES IDX 27 26 22 27 26 28 23 29 24 30 25 31
REMARK H PARENT 6 12 6 13 25 32 25 33
ROOT
ATOM     1   C14 UNL     1      -0.389  -0.893   1.161  1.00  0.00     0.127 A   
ATOM     2   C15 UNL     1      -1.196  -1.025   2.269  1.00  0.00     0.135 A   
ATOM     3   N2  UNL     1      -1.413   0.267   2.713  1.00  0.00    -0.181 N   
ATOM     4   N4  UNL     1      -0.776   1.125   1.875  1.00  0.00    -0.071 NA  
ATOM     5   N5  UNL     1      -0.142   0.432   0.945  1.00  0.00    -0.131 NA  
ENDROOT
BRANCH   1   6
ATOM     6   C5  UNL     1       0.193  -1.912   0.231  1.00  0.00     0.114 C   
BRANCH   6   7
ATOM     7   C4  UNL     1       1.487  -2.511   0.820  1.00  0.00     0.064 C   
BRANCH   7   8
ATOM     8   C2  UNL     1       2.169  -3.627  -0.002  1.00  0.00    -0.012 C   
ATOM     9   C1  UNL     1       1.227  -4.790  -0.312  1.00  0.00     0.007 C   
ATOM     10  C3  UNL     1       3.397  -4.143   0.755  1.00  0.00     0.007 C   
ENDBRANCH   7   8
ENDBRANCH   6   7
BRANCH   6  11
ATOM     11  N1  UNL     1       0.499  -1.284  -1.102  1.00  0.00     0.249 N   
ATOM     12  H11 UNL     1       0.955  -0.379  -0.908  1.00  0.00     0.199 HD  
ATOM     13  H12 UNL     1       1.172  -1.830  -1.647  1.00  0.00     0.199 HD  
BRANCH  11  14
ATOM     14  C6  UNL     1      -0.686  -1.004  -1.961  1.00  0.00     0.164 C   
BRANCH  14  15
ATOM     15  C7  UNL     1      -0.267  -0.292  -3.215  1.00  0.00    -0.002 A   
ATOM     16  C8  UNL     1       0.049  -1.022  -4.386  1.00  0.00     0.012 A   
ATOM     17  C12 UNL     1      -0.133   1.109  -3.212  1.00  0.00     0.045 A   
ATOM     18  C9  UNL     1       0.485  -0.367  -5.544  1.00  0.00     0.037 A   
ATOM     19  C11 UNL     1       0.299   1.722  -4.369  1.00  0.00     0.109 A   
ATOM     20  C10 UNL     1       0.601   1.006  -5.502  1.00  0.00     0.108 A   
ATOM     21  O1  UNL     1       0.485   3.058  -4.534  1.00  0.00    -0.316 OA  
ATOM     22  O2  UNL     1       1.012   1.800  -6.524  1.00  0.00    -0.316 OA  
ATOM     23  C13 UNL     1       0.916   3.107  -5.913  1.00  0.00     0.337 C   
ENDBRANCH  14  15
ENDBRANCH  11  14
ENDBRANCH   6  11
ENDBRANCH   1   6
BRANCH   3  24
ATOM     24  C16 UNL     1      -2.161   0.718   3.829  1.00  0.00     0.058 A   
ATOM     25  C17 UNL     1      -2.810  -0.187   4.679  1.00  0.00     0.026 A   
ATOM     26  C22 UNL     1      -2.253   2.093   4.087  1.00  0.00     0.026 A   
ATOM     27  C18 UNL     1      -3.538   0.285   5.777  1.00  0.00     0.007 A   
ATOM     28  C21 UNL     1      -2.983   2.557   5.185  1.00  0.00     0.007 A   
ATOM     29  C19 UNL     1      -3.624   1.658   6.045  1.00  0.00    -0.034 A   
BRANCH  29  30
ATOM     30  C20 UNL     1      -4.428   2.161   7.218  1.00  0.00     0.113 C   
BRANCH  30  31
ATOM     31  N3  UNL     1      -5.823   2.368   6.854  1.00  0.00    -0.327 NA  
ATOM     32  H25 UNL     1      -5.874   3.034   6.085  1.00  0.00     0.119 HD  
ATOM     33  H26 UNL     1      -6.213   1.497   6.498  1.00  0.00     0.119 HD  
ENDBRANCH  30  31
ENDBRANCH  29  30
ENDBRANCH   3  24
TORSDOF 9
