REMARK SMILES COc1cc(F)c(Cn2cc([C@@H]([NH2+]Cc3ccc4c(c3)OCO4)C(C)(C)C)nn2)c(F)c1
REMARK SMILES IDX 9 1 10 2 11 3 28 4 29 5 8 7 7 8 3 9 4 10 32 11 5 12 30 13
REMARK SMILES IDX 6 14 31 15 2 16 1 17 12 18 13 19 14 22 15 23 16 24 20 25
REMARK SMILES IDX 17 26 19 27 18 28 21 29 23 30 22 31 24 32 25 33 26 34 27 35
REMARK H PARENT 10 6 13 20 13 21
ROOT
ATOM     1   N1  UNL     1       1.752   1.371   0.600  1.00  0.00    -0.208 N   
ATOM     2   C7  UNL     1       1.927   0.557  -0.488  1.00  0.00     0.046 A   
ATOM     3   C8  UNL     1       1.375   1.269  -1.529  1.00  0.00     0.127 A   
ATOM     4   N3  UNL     1       0.915   2.472  -1.055  1.00  0.00    -0.132 NA  
ATOM     5   N4  UNL     1       1.155   2.523   0.243  1.00  0.00    -0.076 NA  
ATOM     6   H7  UNL     1       2.383  -0.421  -0.415  1.00  0.00     0.083 HD  
ENDROOT
BRANCH   1   7
ATOM     7   C6  UNL     1       2.168   1.148   1.976  1.00  0.00     0.175 C   
BRANCH   7   8
ATOM     8   C5  UNL     1       1.469  -0.030   2.584  1.00  0.00     0.043 A   
ATOM     9   C2  UNL     1       0.149  -2.251   3.710  1.00  0.00     0.080 A   
ATOM     10  C3  UNL     1      -0.451  -0.993   3.732  1.00  0.00     0.073 A   
ATOM     11  C23 UNL     1       1.405  -2.398   3.117  1.00  0.00     0.073 A   
ATOM     12  C4  UNL     1       0.210   0.098   3.169  1.00  0.00     0.133 A   
ATOM     13  C22 UNL     1       2.048  -1.296   2.563  1.00  0.00     0.133 A   
ATOM     14  F1  UNL     1      -0.394   1.296   3.184  1.00  0.00    -0.206 F   
ATOM     15  F2  UNL     1       3.243  -1.464   1.978  1.00  0.00    -0.206 F   
BRANCH   9  16
ATOM     16  O1  UNL     1      -0.389  -3.407   4.202  1.00  0.00    -0.349 OA  
ATOM     17  C1  UNL     1      -1.615  -3.295   4.920  1.00  0.00     0.203 C   
ENDBRANCH   9  16
ENDBRANCH   7   8
ENDBRANCH   1   7
BRANCH   3  18
ATOM     18  C9  UNL     1       1.126   0.914  -2.964  1.00  0.00     0.120 C   
BRANCH  18  19
ATOM     19  N2  UNL     1      -0.197   1.545  -3.371  1.00  0.00     0.250 N   
ATOM     20  H9  UNL     1      -0.111   2.065  -4.247  1.00  0.00     0.199 HD  
ATOM     21  H10 UNL     1      -0.387   2.269  -2.657  1.00  0.00     0.199 HD  
BRANCH  19  22
ATOM     22  C10 UNL     1      -1.375   0.640  -3.438  1.00  0.00     0.164 C   
BRANCH  22  23
ATOM     23  C11 UNL     1      -1.678  -0.079  -2.153  1.00  0.00    -0.002 A   
ATOM     24  C12 UNL     1      -2.107   0.636  -1.008  1.00  0.00     0.012 A   
ATOM     25  C16 UNL     1      -1.513  -1.473  -2.071  1.00  0.00     0.045 A   
ATOM     26  C13 UNL     1      -2.357  -0.024   0.202  1.00  0.00     0.037 A   
ATOM     27  C15 UNL     1      -1.775  -2.091  -0.867  1.00  0.00     0.109 A   
ATOM     28  C14 UNL     1      -2.187  -1.388   0.237  1.00  0.00     0.108 A   
ATOM     29  O2  UNL     1      -1.661  -3.423  -0.624  1.00  0.00    -0.316 OA  
ATOM     30  O3  UNL     1      -2.393  -2.190   1.314  1.00  0.00    -0.316 OA  
ATOM     31  C17 UNL     1      -2.067  -3.484   0.762  1.00  0.00     0.337 C   
ENDBRANCH  22  23
ENDBRANCH  19  22
ENDBRANCH  18  19
BRANCH  18  32
ATOM     32  C18 UNL     1       2.267   1.338  -3.949  1.00  0.00     0.010 C   
ATOM     33  C19 UNL     1       2.486   2.864  -3.991  1.00  0.00     0.017 C   
ATOM     34  C20 UNL     1       3.598   0.672  -3.538  1.00  0.00     0.017 C   
ATOM     35  C21 UNL     1       1.940   0.848  -5.379  1.00  0.00     0.017 C   
ENDBRANCH  18  32
ENDBRANCH   3  18
TORSDOF 8
