REMARK SMILES CC(C)C[C@H]([NH2+]Cc1ccc2c(c1)OCO2)c1cn([C@@H](CO)c2cnc[nH]2)nn1
REMARK SMILES IDX 17 1 18 2 19 3 28 4 29 5 5 7 4 8 2 9 1 10 3 11 6 12 7 15
REMARK SMILES IDX 8 16 9 17 13 18 10 19 12 20 11 21 14 22 16 23 15 24 20 25
REMARK SMILES IDX 21 26 22 27 23 29 24 30 27 31 25 32 26 33
REMARK H PARENT 18 6 6 13 6 14 22 28 27 34
ROOT
ATOM     1   C14 UNL     1       0.561   1.834   0.318  1.00  0.00     0.127 A   
ATOM     2   C15 UNL     1       0.449   0.735   1.143  1.00  0.00     0.046 A   
ATOM     3   N2  UNL     1       1.746   0.412   1.447  1.00  0.00    -0.201 N   
ATOM     4   N5  UNL     1       2.595   1.296   0.889  1.00  0.00    -0.075 NA  
ATOM     5   N6  UNL     1       1.881   2.167   0.194  1.00  0.00    -0.132 NA  
ATOM     6   H20 UNL     1      -0.385   0.136   1.480  1.00  0.00     0.083 HD  
ENDROOT
BRANCH   1   7
ATOM     7   C5  UNL     1      -0.470   2.545  -0.492  1.00  0.00     0.114 C   
BRANCH   7   8
ATOM     8   C4  UNL     1      -1.668   3.038   0.341  1.00  0.00     0.064 C   
BRANCH   8   9
ATOM     9   C2  UNL     1      -1.315   4.037   1.464  1.00  0.00    -0.012 C   
ATOM     10  C1  UNL     1      -2.573   4.377   2.267  1.00  0.00     0.007 C   
ATOM     11  C3  UNL     1      -0.684   5.320   0.925  1.00  0.00     0.007 C   
ENDBRANCH   8   9
ENDBRANCH   7   8
BRANCH   7  12
ATOM     12  N1  UNL     1      -1.013   1.625  -1.562  1.00  0.00     0.249 N   
ATOM     13  H11 UNL     1      -1.345   0.762  -1.117  1.00  0.00     0.199 HD  
ATOM     14  H12 UNL     1      -1.828   2.045  -2.017  1.00  0.00     0.199 HD  
BRANCH  12  15
ATOM     15  C6  UNL     1      -0.037   1.236  -2.625  1.00  0.00     0.164 C   
BRANCH  15  16
ATOM     16  C7  UNL     1      -0.595   0.102  -3.438  1.00  0.00    -0.002 A   
ATOM     17  C8  UNL     1      -0.366  -1.236  -3.033  1.00  0.00     0.012 A   
ATOM     18  C12 UNL     1      -1.397   0.358  -4.564  1.00  0.00     0.045 A   
ATOM     19  C9  UNL     1      -0.925  -2.307  -3.737  1.00  0.00     0.037 A   
ATOM     20  C11 UNL     1      -1.930  -0.723  -5.236  1.00  0.00     0.109 A   
ATOM     21  C10 UNL     1      -1.706  -2.016  -4.833  1.00  0.00     0.108 A   
ATOM     22  O1  UNL     1      -2.714  -0.654  -6.343  1.00  0.00    -0.316 OA  
ATOM     23  O2  UNL     1      -2.327  -2.924  -5.630  1.00  0.00    -0.316 OA  
ATOM     24  C13 UNL     1      -2.936  -2.058  -6.610  1.00  0.00     0.337 C   
ENDBRANCH  15  16
ENDBRANCH  12  15
ENDBRANCH   7  12
ENDBRANCH   1   7
BRANCH   3  25
ATOM     25  C16 UNL     1       2.257  -0.806   2.079  1.00  0.00     0.171 C   
BRANCH  25  26
ATOM     26  C17 UNL     1       1.939  -0.844   3.585  1.00  0.00     0.187 C   
BRANCH  26  27
ATOM     27  O3  UNL     1       0.540  -1.028   3.848  1.00  0.00    -0.394 OA  
ATOM     28  H24 UNL     1       0.433  -0.947   4.818  1.00  0.00     0.210 HD  
ENDBRANCH  26  27
ENDBRANCH  25  26
BRANCH  25  29
ATOM     29  C18 UNL     1       1.770  -1.996   1.299  1.00  0.00     0.052 A   
ATOM     30  C19 UNL     1       2.169  -2.501   0.079  1.00  0.00     0.133 A   
ATOM     31  N4  UNL     1       0.722  -2.801   1.683  1.00  0.00    -0.306 N   
ATOM     32  N3  UNL     1       1.350  -3.525  -0.310  1.00  0.00    -0.248 NA  
ATOM     33  C20 UNL     1       0.513  -3.708   0.684  1.00  0.00     0.185 A   
ATOM     34  H27 UNL     1       0.184  -2.717   2.542  1.00  0.00     0.154 HD  
ENDBRANCH  25  29
ENDBRANCH   3  25
TORSDOF 10
