REMARK SMILES CC(C)C[C@H]([NH2+]Cc1ccc2c(c1)OCO2)c1cn([C@H](CO)c2cnc[nH]2)nn1
REMARK SMILES IDX 17 1 18 2 19 3 28 4 29 5 5 7 4 8 2 9 1 10 3 11 6 12 7 15
REMARK SMILES IDX 8 16 9 17 13 18 10 19 12 20 11 21 14 22 16 23 15 24 20 25
REMARK SMILES IDX 21 26 22 27 23 29 24 30 27 31 25 32 26 33
REMARK H PARENT 18 6 6 13 6 14 22 28 27 34
ROOT
ATOM     1   C14 UNL     1      -0.646   1.545   0.127  1.00  0.00     0.127 A   
ATOM     2   C15 UNL     1      -1.189   2.380   1.079  1.00  0.00     0.046 A   
ATOM     3   N2  UNL     1      -0.114   2.799   1.820  1.00  0.00    -0.201 N   
ATOM     4   N5  UNL     1       1.028   2.273   1.331  1.00  0.00    -0.075 NA  
ATOM     5   N6  UNL     1       0.719   1.530   0.281  1.00  0.00    -0.132 NA  
ATOM     6   H20 UNL     1      -2.198   2.692   1.307  1.00  0.00     0.083 HD  
ENDROOT
BRANCH   1   7
ATOM     7   C5  UNL     1      -1.275   0.742  -0.972  1.00  0.00     0.114 C   
BRANCH   7   8
ATOM     8   C4  UNL     1      -2.598   0.067  -0.563  1.00  0.00     0.064 C   
BRANCH   8   9
ATOM     9   C2  UNL     1      -3.301  -0.768  -1.655  1.00  0.00    -0.012 C   
ATOM     10  C1  UNL     1      -4.559  -1.422  -1.078  1.00  0.00     0.007 C   
ATOM     11  C3  UNL     1      -3.671   0.071  -2.878  1.00  0.00     0.007 C   
ENDBRANCH   8   9
ENDBRANCH   7   8
BRANCH   7  12
ATOM     12  N1  UNL     1      -0.306  -0.256  -1.548  1.00  0.00     0.249 N   
ATOM     13  H11 UNL     1      -0.634  -0.604  -2.454  1.00  0.00     0.199 HD  
ATOM     14  H12 UNL     1       0.556   0.272  -1.748  1.00  0.00     0.199 HD  
BRANCH  12  15
ATOM     15  C6  UNL     1       0.111  -1.406  -0.693  1.00  0.00     0.164 C   
BRANCH  15  16
ATOM     16  C7  UNL     1       1.132  -2.237  -1.419  1.00  0.00    -0.002 A   
ATOM     17  C8  UNL     1       2.502  -1.881  -1.375  1.00  0.00     0.012 A   
ATOM     18  C12 UNL     1       0.725  -3.330  -2.202  1.00  0.00     0.045 A   
ATOM     19  C9  UNL     1       3.456  -2.610  -2.095  1.00  0.00     0.037 A   
ATOM     20  C11 UNL     1       1.691  -4.027  -2.900  1.00  0.00     0.109 A   
ATOM     21  C10 UNL     1       3.017  -3.678  -2.846  1.00  0.00     0.108 A   
ATOM     22  O1  UNL     1       1.467  -5.104  -3.697  1.00  0.00    -0.316 OA  
ATOM     23  O2  UNL     1       3.796  -4.489  -3.611  1.00  0.00    -0.316 OA  
ATOM     24  C13 UNL     1       2.812  -5.410  -4.128  1.00  0.00     0.337 C   
ENDBRANCH  15  16
ENDBRANCH  12  15
ENDBRANCH   7  12
ENDBRANCH   1   7
BRANCH   3  25
ATOM     25  C16 UNL     1      -0.129   3.663   2.997  1.00  0.00     0.171 C   
BRANCH  25  26
ATOM     26  C17 UNL     1       1.190   4.431   3.207  1.00  0.00     0.187 C   
BRANCH  26  27
ATOM     27  O3  UNL     1       0.978   5.512   4.124  1.00  0.00    -0.394 OA  
ATOM     28  H24 UNL     1       1.849   5.929   4.271  1.00  0.00     0.210 HD  
ENDBRANCH  26  27
ENDBRANCH  25  26
BRANCH  25  29
ATOM     29  C18 UNL     1      -0.520   2.890   4.225  1.00  0.00     0.052 A   
ATOM     30  C19 UNL     1      -0.646   1.546   4.508  1.00  0.00     0.133 A   
ATOM     31  N4  UNL     1      -0.836   3.520   5.410  1.00  0.00    -0.306 N   
ATOM     32  N3  UNL     1      -1.069   1.353   5.794  1.00  0.00    -0.248 NA  
ATOM     33  C20 UNL     1      -1.172   2.554   6.314  1.00  0.00     0.185 A   
ATOM     34  H27 UNL     1      -0.794   4.518   5.588  1.00  0.00     0.154 HD  
ENDBRANCH  25  29
ENDBRANCH   3  25
TORSDOF 10
