REMARK SMILES CC(C)[C@H]([NH2+]Cc1ccc2c(c1)OCO2)c1cn(CC(=O)c2ccccc2F)nn1
REMARK SMILES IDX 16 1 17 2 18 3 29 4 30 5 4 7 2 8 1 9 3 10 5 11 6 14 7 15
REMARK SMILES IDX 8 16 12 17 9 18 11 19 10 20 13 21 15 22 14 23 19 24 20 25
REMARK SMILES IDX 21 26 22 27 23 28 27 29 24 30 26 31 25 32 28 33
REMARK H PARENT 17 6 5 12 5 13
ROOT
ATOM     1   C13 UNL     1      -0.238  -1.377   0.419  1.00  0.00     0.127 A   
ATOM     2   C14 UNL     1      -0.785  -0.279   1.040  1.00  0.00     0.046 A   
ATOM     3   N2  UNL     1       0.294   0.509   1.336  1.00  0.00    -0.204 N   
ATOM     4   N3  UNL     1       1.439  -0.097   0.970  1.00  0.00    -0.076 NA  
ATOM     5   N4  UNL     1       1.126  -1.242   0.387  1.00  0.00    -0.132 NA  
ATOM     6   H18 UNL     1      -1.801   0.025   1.254  1.00  0.00     0.083 HD  
ENDROOT
BRANCH   1   7
ATOM     7   C4  UNL     1      -0.874  -2.545  -0.265  1.00  0.00     0.117 C   
BRANCH   7   8
ATOM     8   C2  UNL     1      -0.842  -3.846   0.582  1.00  0.00     0.037 C   
ATOM     9   C1  UNL     1      -1.607  -4.989  -0.103  1.00  0.00     0.014 C   
ATOM     10  C3  UNL     1      -1.447  -3.637   1.978  1.00  0.00     0.014 C   
ENDBRANCH   7   8
BRANCH   7  11
ATOM     11  N1  UNL     1      -0.125  -2.781  -1.568  1.00  0.00     0.249 N   
ATOM     12  H9  UNL     1       0.812  -2.371  -1.424  1.00  0.00     0.199 HD  
ATOM     13  H10 UNL     1       0.045  -3.776  -1.729  1.00  0.00     0.199 HD  
BRANCH  11  14
ATOM     14  C5  UNL     1      -0.718  -2.171  -2.792  1.00  0.00     0.164 C   
BRANCH  14  15
ATOM     15  C6  UNL     1      -0.842  -0.676  -2.728  1.00  0.00    -0.002 A   
ATOM     16  C7  UNL     1       0.309   0.146  -2.787  1.00  0.00     0.012 A   
ATOM     17  C11 UNL     1      -2.104  -0.082  -2.558  1.00  0.00     0.045 A   
ATOM     18  C8  UNL     1       0.211   1.536  -2.663  1.00  0.00     0.037 A   
ATOM     19  C10 UNL     1      -2.167   1.292  -2.433  1.00  0.00     0.109 A   
ATOM     20  C9  UNL     1      -1.043   2.078  -2.482  1.00  0.00     0.108 A   
ATOM     21  O1  UNL     1      -3.302   2.014  -2.249  1.00  0.00    -0.316 OA  
ATOM     22  O2  UNL     1      -1.328   3.398  -2.333  1.00  0.00    -0.316 OA  
ATOM     23  C12 UNL     1      -2.764   3.354  -2.173  1.00  0.00     0.337 C   
ENDBRANCH  14  15
ENDBRANCH  11  14
ENDBRANCH   7  11
ENDBRANCH   1   7
BRANCH   3  24
ATOM     24  C15 UNL     1       0.325   1.783   2.025  1.00  0.00     0.215 C   
BRANCH  24  25
ATOM     25  C16 UNL     1      -0.578   2.802   1.371  1.00  0.00     0.185 C   
ATOM     26  O3  UNL     1      -1.802   2.662   1.351  1.00  0.00    -0.292 OA  
BRANCH  25  27
ATOM     27  C17 UNL     1      -0.001   4.028   0.773  1.00  0.00     0.055 A   
ATOM     28  C18 UNL     1      -0.740   5.216   0.833  1.00  0.00     0.015 A   
ATOM     29  C22 UNL     1       1.228   4.022   0.115  1.00  0.00     0.134 A   
ATOM     30  C19 UNL     1      -0.239   6.383   0.255  1.00  0.00     0.001 A   
ATOM     31  C21 UNL     1       1.731   5.184  -0.466  1.00  0.00     0.040 A   
ATOM     32  C20 UNL     1       0.994   6.365  -0.399  1.00  0.00     0.003 A   
ATOM     33  F1  UNL     1       1.938   2.893  -0.006  1.00  0.00    -0.206 F   
ENDBRANCH  25  27
ENDBRANCH  24  25
ENDBRANCH   3  24
TORSDOF 8
