REMARK SMILES CC(C)(C)[C@H]([NH2+]Cc1ccc2c(c1)OCO2)c1cn(Cc2cccc3[nH]ccc23)nn1
REMARK SMILES IDX 17 1 18 2 19 3 30 4 31 5 5 7 2 8 1 9 3 10 4 11 6 12 7 15
REMARK SMILES IDX 8 16 9 17 13 18 10 19 12 20 11 21 14 22 16 23 15 24 20 25
REMARK SMILES IDX 21 26 22 27 29 28 23 29 25 30 28 31 24 32 26 33 27 34
REMARK H PARENT 18 6 6 13 6 14 26 35
ROOT
ATOM     1   C14 UNL     1       0.943   0.021  -2.312  1.00  0.00     0.127 A   
ATOM     2   C15 UNL     1       1.614   0.745  -1.353  1.00  0.00     0.046 A   
ATOM     3   N2  UNL     1       1.470   2.043  -1.758  1.00  0.00    -0.208 N   
ATOM     4   N4  UNL     1       0.801   2.108  -2.926  1.00  0.00    -0.076 NA  
ATOM     5   N5  UNL     1       0.472   0.875  -3.275  1.00  0.00    -0.132 NA  
ATOM     6   H20 UNL     1       2.094   0.478  -0.421  1.00  0.00     0.083 HD  
ENDROOT
BRANCH   1   7
ATOM     7   C5  UNL     1       0.572  -1.428  -2.348  1.00  0.00     0.120 C   
BRANCH   7   8
ATOM     8   C2  UNL     1       1.476  -2.302  -3.288  1.00  0.00     0.010 C   
ATOM     9   C1  UNL     1       1.363  -1.909  -4.774  1.00  0.00     0.017 C   
ATOM     10  C3  UNL     1       2.956  -2.170  -2.863  1.00  0.00     0.017 C   
ATOM     11  C4  UNL     1       1.100  -3.797  -3.158  1.00  0.00     0.017 C   
ENDBRANCH   7   8
BRANCH   7  12
ATOM     12  N1  UNL     1      -0.890  -1.571  -2.732  1.00  0.00     0.250 N   
ATOM     13  H11 UNL     1      -0.994  -1.145  -3.662  1.00  0.00     0.199 HD  
ATOM     14  H12 UNL     1      -1.146  -2.557  -2.811  1.00  0.00     0.199 HD  
BRANCH  12  15
ATOM     15  C6  UNL     1      -1.890  -0.891  -1.844  1.00  0.00     0.164 C   
BRANCH  15  16
ATOM     16  C7  UNL     1      -1.801  -1.303  -0.402  1.00  0.00    -0.002 A   
ATOM     17  C8  UNL     1      -1.375  -0.371   0.576  1.00  0.00     0.012 A   
ATOM     18  C12 UNL     1      -2.114  -2.617  -0.013  1.00  0.00     0.045 A   
ATOM     19  C9  UNL     1      -1.244  -0.742   1.917  1.00  0.00     0.037 A   
ATOM     20  C11 UNL     1      -1.975  -2.949   1.320  1.00  0.00     0.109 A   
ATOM     21  C10 UNL     1      -1.551  -2.040   2.257  1.00  0.00     0.108 A   
ATOM     22  O1  UNL     1      -2.225  -4.172   1.857  1.00  0.00    -0.316 OA  
ATOM     23  O2  UNL     1      -1.481  -2.575   3.504  1.00  0.00    -0.316 OA  
ATOM     24  C13 UNL     1      -1.939  -3.921   3.253  1.00  0.00     0.337 C   
ENDBRANCH  15  16
ENDBRANCH  12  15
ENDBRANCH   7  12
ENDBRANCH   1   7
BRANCH   3  25
ATOM     25  C16 UNL     1       1.827   3.249  -1.032  1.00  0.00     0.170 C   
BRANCH  25  26
ATOM     26  C17 UNL     1       0.809   3.514   0.054  1.00  0.00    -0.019 A   
ATOM     27  C18 UNL     1      -0.393   4.178  -0.278  1.00  0.00     0.006 A   
ATOM     28  C24 UNL     1       0.976   3.085   1.395  1.00  0.00     0.002 A   
ATOM     29  C19 UNL     1      -1.385   4.413   0.672  1.00  0.00     0.002 A   
ATOM     30  C21 UNL     1      -0.038   3.336   2.323  1.00  0.00     0.037 A   
ATOM     31  C23 UNL     1       2.010   2.399   2.098  1.00  0.00     0.025 A   
ATOM     32  C20 UNL     1      -1.225   3.996   1.992  1.00  0.00     0.024 A   
ATOM     33  N3  UNL     1       0.381   2.837   3.537  1.00  0.00    -0.321 N   
ATOM     34  C22 UNL     1       1.612   2.253   3.406  1.00  0.00     0.072 A   
ATOM     35  H26 UNL     1      -0.145   2.904   4.398  1.00  0.00     0.152 HD  
ENDBRANCH  25  26
ENDBRANCH   3  25
TORSDOF 7
