REMARK SMILES CC(C)C[C@H]([NH2+]Cc1ccc2c(c1)OCO2)c1cn(-c2ccc(OCCO)cc2)nn1
REMARK SMILES IDX 20 1 21 2 22 3 23 4 28 5 29 6 19 7 17 8 18 9 31 10 30 11
REMARK SMILES IDX 5 12 4 13 2 14 1 15 3 16 6 17 7 20 8 21 9 22 13 23 10 24
REMARK SMILES IDX 12 25 11 26 14 27 16 28 15 29 24 30 25 31 26 32 27 33
REMARK H PARENT 6 18 6 19 27 34
ROOT
ATOM     1   C16 UNL     1       3.274   1.187  -0.323  1.00  0.00     0.058 A   
ATOM     2   C17 UNL     1       4.569   1.143   0.213  1.00  0.00     0.028 A   
ATOM     3   C18 UNL     1       5.653   1.682  -0.494  1.00  0.00     0.035 A   
ATOM     4   C19 UNL     1       5.453   2.269  -1.742  1.00  0.00     0.075 A   
ATOM     5   C22 UNL     1       4.159   2.324  -2.267  1.00  0.00     0.035 A   
ATOM     6   C23 UNL     1       3.071   1.787  -1.571  1.00  0.00     0.028 A   
ENDROOT
BRANCH   1   7
ATOM     7   N2  UNL     1       2.195   0.625   0.402  1.00  0.00    -0.181 N   
ATOM     8   C14 UNL     1       0.253  -0.100   1.111  1.00  0.00     0.127 A   
ATOM     9   C15 UNL     1       0.860   0.538   0.052  1.00  0.00     0.135 A   
ATOM     10  N4  UNL     1       1.195  -0.393   2.056  1.00  0.00    -0.131 NA  
ATOM     11  N3  UNL     1       2.365   0.036   1.615  1.00  0.00    -0.071 NA  
BRANCH   8  12
ATOM     12  C5  UNL     1      -1.170  -0.505   1.330  1.00  0.00     0.114 C   
BRANCH  12  13
ATOM     13  C4  UNL     1      -1.962   0.633   2.009  1.00  0.00     0.064 C   
BRANCH  13  14
ATOM     14  C2  UNL     1      -3.479   0.403   2.181  1.00  0.00    -0.012 C   
ATOM     15  C1  UNL     1      -4.190   0.158   0.849  1.00  0.00     0.007 C   
ATOM     16  C3  UNL     1      -4.106   1.613   2.882  1.00  0.00     0.007 C   
ENDBRANCH  13  14
ENDBRANCH  12  13
BRANCH  12  17
ATOM     17  N1  UNL     1      -1.244  -1.738   2.199  1.00  0.00     0.249 N   
ATOM     18  H11 UNL     1      -2.197  -1.888   2.538  1.00  0.00     0.199 HD  
ATOM     19  H12 UNL     1      -0.656  -1.549   3.023  1.00  0.00     0.199 HD  
BRANCH  17  20
ATOM     20  C6  UNL     1      -0.758  -3.011   1.587  1.00  0.00     0.164 C   
BRANCH  20  21
ATOM     21  C7  UNL     1      -1.629  -3.478   0.455  1.00  0.00    -0.002 A   
ATOM     22  C8  UNL     1      -1.171  -3.390  -0.881  1.00  0.00     0.012 A   
ATOM     23  C12 UNL     1      -2.920  -3.974   0.712  1.00  0.00     0.045 A   
ATOM     24  C9  UNL     1      -1.987  -3.781  -1.949  1.00  0.00     0.037 A   
ATOM     25  C11 UNL     1      -3.698  -4.350  -0.363  1.00  0.00     0.109 A   
ATOM     26  C10 UNL     1      -3.246  -4.256  -1.656  1.00  0.00     0.108 A   
ATOM     27  O1  UNL     1      -4.964  -4.837  -0.290  1.00  0.00    -0.316 OA  
ATOM     28  O2  UNL     1      -4.170  -4.676  -2.559  1.00  0.00    -0.316 OA  
ATOM     29  C13 UNL     1      -5.234  -5.109  -1.685  1.00  0.00     0.337 C   
ENDBRANCH  20  21
ENDBRANCH  17  20
ENDBRANCH  12  17
ENDBRANCH   8  12
ENDBRANCH   1   7
BRANCH   4  30
ATOM     30  O3  UNL     1       6.408   2.824  -2.543  1.00  0.00    -0.344 OA  
BRANCH  30  31
ATOM     31  C20 UNL     1       7.793   2.679  -2.188  1.00  0.00     0.196 C   
BRANCH  31  32
ATOM     32  C21 UNL     1       8.319   1.314  -2.632  1.00  0.00     0.185 C   
BRANCH  32  33
ATOM     33  O4  UNL     1       8.156   1.156  -4.040  1.00  0.00    -0.394 OA  
ATOM     34  H27 UNL     1       7.259   1.477  -4.253  1.00  0.00     0.210 HD  
ENDBRANCH  32  33
ENDBRANCH  31  32
ENDBRANCH  30  31
ENDBRANCH   4  30
TORSDOF 11
