REMARK SMILES Cc1cnccc1CCn1cc([C@@H]([NH2+]Cc2ccc3c(c2)OCO3)C2CCCCC2)nn1
REMARK SMILES IDX 10 1 11 2 12 3 31 4 32 5 9 7 8 8 7 9 2 10 3 11 4 12 6 13
REMARK SMILES IDX 5 14 1 15 13 16 14 17 15 20 16 21 17 22 21 23 18 24 20 25
REMARK SMILES IDX 19 26 22 27 24 28 23 29 25 30 26 31 30 32 27 33 29 34 28 35
REMARK H PARENT 11 6 14 18 14 19
ROOT
ATOM     1   N2  UNL     1      -0.006  -2.523   1.708  1.00  0.00    -0.212 N   
ATOM     2   C9  UNL     1      -0.509  -2.061   0.522  1.00  0.00     0.045 A   
ATOM     3   C10 UNL     1      -0.700  -0.713   0.738  1.00  0.00     0.127 A   
ATOM     4   N4  UNL     1      -0.416  -0.435   2.051  1.00  0.00    -0.132 NA  
ATOM     5   N5  UNL     1       0.009  -1.548   2.633  1.00  0.00    -0.076 NA  
ATOM     6   H11 UNL     1      -0.586  -2.689  -0.354  1.00  0.00     0.083 HD  
ENDROOT
BRANCH   1   7
ATOM     7   C8  UNL     1       0.685  -3.780   1.926  1.00  0.00     0.139 C   
BRANCH   7   8
ATOM     8   C7  UNL     1       2.221  -3.657   1.863  1.00  0.00     0.057 C   
BRANCH   8   9
ATOM     9   C6  UNL     1       2.709  -2.697   0.793  1.00  0.00    -0.040 A   
ATOM     10  C2  UNL     1       2.581  -2.941  -0.584  1.00  0.00    -0.029 A   
ATOM     11  C3  UNL     1       2.781  -1.859  -1.442  1.00  0.00     0.114 A   
ATOM     12  N1  UNL     1       3.110  -0.606  -1.039  1.00  0.00    -0.264 NA  
ATOM     13  C5  UNL     1       3.208  -1.454   1.209  1.00  0.00     0.024 A   
ATOM     14  C4  UNL     1       3.424  -0.468   0.266  1.00  0.00     0.111 A   
ATOM     15  C1  UNL     1       2.171  -4.267  -1.154  1.00  0.00     0.046 C   
ENDBRANCH   8   9
ENDBRANCH   7   8
ENDBRANCH   1   7
BRANCH   3  16
ATOM     16  C11 UNL     1      -1.000   0.404  -0.221  1.00  0.00     0.117 C   
BRANCH  16  17
ATOM     17  N3  UNL     1       0.320   1.016  -0.666  1.00  0.00     0.249 N   
ATOM     18  H13 UNL     1       0.229   1.518  -1.548  1.00  0.00     0.199 HD  
ATOM     19  H14 UNL     1       1.004   0.260  -0.846  1.00  0.00     0.199 HD  
BRANCH  17  20
ATOM     20  C12 UNL     1       0.962   1.952   0.306  1.00  0.00     0.164 C   
BRANCH  20  21
ATOM     21  C13 UNL     1       0.177   3.215   0.526  1.00  0.00    -0.002 A   
ATOM     22  C14 UNL     1      -0.495   3.428   1.754  1.00  0.00     0.012 A   
ATOM     23  C18 UNL     1       0.088   4.183  -0.489  1.00  0.00     0.045 A   
ATOM     24  C15 UNL     1      -1.247   4.587   1.971  1.00  0.00     0.037 A   
ATOM     25  C17 UNL     1      -0.666   5.312  -0.243  1.00  0.00     0.109 A   
ATOM     26  C16 UNL     1      -1.313   5.511   0.952  1.00  0.00     0.108 A   
ATOM     27  O1  UNL     1      -0.862   6.336  -1.116  1.00  0.00    -0.316 OA  
ATOM     28  O2  UNL     1      -1.988   6.688   0.986  1.00  0.00    -0.316 OA  
ATOM     29  C19 UNL     1      -1.668   7.228  -0.314  1.00  0.00     0.337 C   
ENDBRANCH  20  21
ENDBRANCH  17  20
ENDBRANCH  16  17
BRANCH  16  30
ATOM     30  C20 UNL     1      -1.823  -0.033  -1.476  1.00  0.00     0.043 C   
ATOM     31  C21 UNL     1      -3.179  -0.682  -1.099  1.00  0.00     0.010 C   
ATOM     32  C25 UNL     1      -2.121   1.112  -2.474  1.00  0.00     0.010 C   
ATOM     33  C22 UNL     1      -4.190   0.321  -0.544  1.00  0.00     0.001 C   
ATOM     34  C24 UNL     1      -3.114   2.139  -1.929  1.00  0.00     0.001 C   
ATOM     35  C23 UNL     1      -4.422   1.478  -1.508  1.00  0.00     0.000 C   
ENDBRANCH  16  30
ENDBRANCH   3  16
TORSDOF 8
