REMARK SMILES CC(C)(C)[C@H]([NH2+]Cc1ccc2c(c1)OCO2)c1cn(CC(=O)c2ccccc2Cl)nn1
REMARK SMILES IDX 17 1 18 2 19 3 30 4 31 5 5 7 2 8 1 9 3 10 4 11 6 12 7 15
REMARK SMILES IDX 8 16 9 17 13 18 10 19 12 20 11 21 14 22 16 23 15 24 20 25
REMARK SMILES IDX 21 26 22 27 23 28 24 29 28 30 25 31 27 32 26 33 29 34
REMARK H PARENT 18 6 6 13 6 14
ROOT
ATOM     1   C14 UNL     1       0.518   0.640   1.537  1.00  0.00     0.127 A   
ATOM     2   C15 UNL     1      -0.342   0.326   2.569  1.00  0.00     0.046 A   
ATOM     3   N2  UNL     1      -1.550   0.820   2.154  1.00  0.00    -0.204 N   
ATOM     4   N3  UNL     1      -1.444   1.406   0.945  1.00  0.00    -0.076 NA  
ATOM     5   N4  UNL     1      -0.181   1.312   0.561  1.00  0.00    -0.132 NA  
ATOM     6   H20 UNL     1      -0.227  -0.235   3.494  1.00  0.00     0.083 HD  
ENDROOT
BRANCH   1   7
ATOM     7   C5  UNL     1       1.954   0.275   1.282  1.00  0.00     0.120 C   
BRANCH   7   8
ATOM     8   C2  UNL     1       2.993   1.339   1.792  1.00  0.00     0.010 C   
ATOM     9   C1  UNL     1       2.821   1.564   3.312  1.00  0.00     0.017 C   
ATOM     10  C3  UNL     1       4.433   0.832   1.562  1.00  0.00     0.017 C   
ATOM     11  C4  UNL     1       2.841   2.701   1.087  1.00  0.00     0.017 C   
ENDBRANCH   7   8
BRANCH   7  12
ATOM     12  N1  UNL     1       2.114   0.059  -0.206  1.00  0.00     0.250 N   
ATOM     13  H11 UNL     1       1.579   0.818  -0.657  1.00  0.00     0.199 HD  
ATOM     14  H12 UNL     1       3.077   0.166  -0.531  1.00  0.00     0.199 HD  
BRANCH  12  15
ATOM     15  C6  UNL     1       1.569  -1.227  -0.733  1.00  0.00     0.164 C   
BRANCH  15  16
ATOM     16  C7  UNL     1       1.460  -1.157  -2.231  1.00  0.00    -0.002 A   
ATOM     17  C8  UNL     1       0.338  -0.531  -2.826  1.00  0.00     0.012 A   
ATOM     18  C12 UNL     1       2.498  -1.630  -3.044  1.00  0.00     0.045 A   
ATOM     19  C9  UNL     1       0.255  -0.369  -4.212  1.00  0.00     0.037 A   
ATOM     20  C11 UNL     1       2.388  -1.456  -4.409  1.00  0.00     0.109 A   
ATOM     21  C10 UNL     1       1.303  -0.840  -4.976  1.00  0.00     0.108 A   
ATOM     22  O1  UNL     1       3.305  -1.844  -5.336  1.00  0.00    -0.316 OA  
ATOM     23  O2  UNL     1       1.394  -0.761  -6.328  1.00  0.00    -0.316 OA  
ATOM     24  C13 UNL     1       2.633  -1.471  -6.560  1.00  0.00     0.337 C   
ENDBRANCH  15  16
ENDBRANCH  12  15
ENDBRANCH   7  12
ENDBRANCH   1   7
BRANCH   3  25
ATOM     25  C16 UNL     1      -2.851   0.690   2.789  1.00  0.00     0.214 C   
BRANCH  25  26
ATOM     26  C17 UNL     1      -3.459  -0.647   2.438  1.00  0.00     0.183 C   
ATOM     27  O3  UNL     1      -2.810  -1.692   2.464  1.00  0.00    -0.292 OA  
BRANCH  26  28
ATOM     28  C18 UNL     1      -4.864  -0.691   1.963  1.00  0.00     0.038 A   
ATOM     29  C19 UNL     1      -5.098  -1.395   0.771  1.00  0.00     0.013 A   
ATOM     30  C23 UNL     1      -5.932  -0.083   2.635  1.00  0.00     0.051 A   
ATOM     31  C20 UNL     1      -6.385  -1.456   0.234  1.00  0.00     0.001 A   
ATOM     32  C22 UNL     1      -7.222  -0.153   2.093  1.00  0.00     0.021 A   
ATOM     33  C21 UNL     1      -7.446  -0.831   0.890  1.00  0.00     0.002 A   
ATOM     34  CL1 UNL     1      -5.748   0.720   4.152  1.00  0.00    -0.084 Cl  
ENDBRANCH  26  28
ENDBRANCH  25  26
ENDBRANCH   3  25
TORSDOF 8
