REMARK SMILES c1cc2cc(Cn3cc([C@@H]([NH2+]Cc4ccc5c(c4)OCO5)C4CCCC4)nn3)ccn2n1
REMARK SMILES IDX 10 1 9 2 7 3 8 4 28 5 27 6 6 8 5 9 1 10 2 11 32 12 3 13
REMARK SMILES IDX 31 14 4 15 30 16 29 17 11 18 12 21 13 22 14 23 18 24 15 25
REMARK SMILES IDX 17 26 16 27 19 28 21 29 20 30 22 31 23 32 26 33 24 34 25 35
REMARK H PARENT 8 7 11 19 11 20
ROOT
ATOM     1   C9  UNL     1      -0.936   0.168   2.511  1.00  0.00     0.117 C   
ENDROOT
BRANCH   1   2
ATOM     2   C8  UNL     1      -0.209   0.673   1.306  1.00  0.00     0.127 A   
ATOM     3   N1  UNL     1       0.497   1.356  -0.619  1.00  0.00    -0.208 N   
ATOM     4   C7  UNL     1      -0.655   1.115   0.079  1.00  0.00     0.046 A   
ATOM     5   N4  UNL     1       1.583   1.082   0.132  1.00  0.00    -0.076 NA  
ATOM     6   N3  UNL     1       1.163   0.661   1.312  1.00  0.00    -0.132 NA  
ATOM     7   H6  UNL     1      -1.636   1.254  -0.352  1.00  0.00     0.083 HD  
BRANCH   3   8
ATOM     8   C6  UNL     1       0.648   1.843  -1.981  1.00  0.00     0.169 C   
BRANCH   8   9
ATOM     9   C5  UNL     1       0.648   0.716  -2.983  1.00  0.00    -0.025 A   
ATOM     10  C1  UNL     1       1.947  -2.624  -5.734  1.00  0.00     0.133 A   
ATOM     11  C2  UNL     1       2.680  -1.832  -4.834  1.00  0.00     0.047 A   
ATOM     12  N6  UNL     1       0.649  -2.317  -5.758  1.00  0.00    -0.185 NA  
ATOM     13  C3  UNL     1       1.746  -0.985  -4.285  1.00  0.00     0.058 A   
ATOM     14  N5  UNL     1       0.516  -1.302  -4.867  1.00  0.00    -0.201 N   
ATOM     15  C4  UNL     1       1.786   0.067  -3.327  1.00  0.00     0.031 A   
ATOM     16  C24 UNL     1      -0.652  -0.619  -4.530  1.00  0.00     0.102 A   
ATOM     17  C23 UNL     1      -0.625   0.365  -3.616  1.00  0.00     0.023 A   
ENDBRANCH   8   9
ENDBRANCH   3   8
ENDBRANCH   1   2
BRANCH   1  18
ATOM     18  N2  UNL     1      -0.172  -1.024   3.060  1.00  0.00     0.249 N   
ATOM     19  H8  UNL     1      -0.053  -0.951   4.074  1.00  0.00     0.199 HD  
ATOM     20  H9  UNL     1       0.783  -0.945   2.674  1.00  0.00     0.199 HD  
BRANCH  18  21
ATOM     21  C10 UNL     1      -0.709  -2.369   2.722  1.00  0.00     0.164 C   
BRANCH  21  22
ATOM     22  C11 UNL     1      -0.814  -2.644   1.247  1.00  0.00    -0.002 A   
ATOM     23  C12 UNL     1       0.351  -2.756   0.447  1.00  0.00     0.012 A   
ATOM     24  C16 UNL     1      -2.079  -2.786   0.648  1.00  0.00     0.045 A   
ATOM     25  C13 UNL     1       0.259  -3.005  -0.928  1.00  0.00     0.037 A   
ATOM     26  C15 UNL     1      -2.133  -3.035  -0.709  1.00  0.00     0.109 A   
ATOM     27  C14 UNL     1      -0.997  -3.145  -1.474  1.00  0.00     0.108 A   
ATOM     28  O1  UNL     1      -3.269  -3.201  -1.438  1.00  0.00    -0.316 OA  
ATOM     29  O2  UNL     1      -1.275  -3.405  -2.777  1.00  0.00    -0.316 OA  
ATOM     30  C17 UNL     1      -2.715  -3.489  -2.745  1.00  0.00     0.337 C   
ENDBRANCH  21  22
ENDBRANCH  18  21
ENDBRANCH   1  18
BRANCH   1  31
ATOM     31  C18 UNL     1      -1.042   1.235   3.617  1.00  0.00     0.043 C   
ATOM     32  C19 UNL     1      -1.824   2.482   3.194  1.00  0.00     0.010 C   
ATOM     33  C22 UNL     1      -1.813   0.769   4.862  1.00  0.00     0.010 C   
ATOM     34  C20 UNL     1      -2.111   3.169   4.519  1.00  0.00     0.001 C   
ATOM     35  C21 UNL     1      -2.405   2.031   5.490  1.00  0.00     0.001 C   
ENDBRANCH   1  31
TORSDOF 7
