REMARK SMILES Cc1ccc(F)c(CCn2cc([C@@H]([NH2+]Cc3ccc4c(c3)OCO4)C3CCCC3)nn2)c1
REMARK SMILES IDX 10 1 11 2 12 3 30 4 31 5 9 7 8 8 7 9 2 10 3 11 32 12 4 13
REMARK SMILES IDX 5 14 1 15 6 16 13 17 14 18 15 21 16 22 17 23 21 24 18 25
REMARK SMILES IDX 20 26 19 27 22 28 24 29 23 30 25 31 26 32 29 33 27 34 28 35
REMARK H PARENT 11 6 14 19 14 20
ROOT
ATOM     1   N1  UNL     1       3.361  -0.800  -0.540  1.00  0.00    -0.212 N   
ATOM     2   C9  UNL     1       2.271  -1.572  -0.829  1.00  0.00     0.045 A   
ATOM     3   C10 UNL     1       1.306  -1.117   0.040  1.00  0.00     0.127 A   
ATOM     4   N3  UNL     1       1.847  -0.147   0.847  1.00  0.00    -0.132 NA  
ATOM     5   N4  UNL     1       3.110   0.025   0.493  1.00  0.00    -0.076 NA  
ATOM     6   H10 UNL     1       2.272  -2.300  -1.629  1.00  0.00     0.083 HD  
ENDROOT
BRANCH   1   7
ATOM     7   C8  UNL     1       4.626  -0.747  -1.244  1.00  0.00     0.139 C   
BRANCH   7   8
ATOM     8   C7  UNL     1       4.727   0.459  -2.182  1.00  0.00     0.060 C   
BRANCH   8   9
ATOM     9   C6  UNL     1       3.651   0.493  -3.241  1.00  0.00    -0.010 A   
ATOM     10  C2  UNL     1       1.652   1.512  -4.199  1.00  0.00    -0.051 A   
ATOM     11  C3  UNL     1       1.639   0.530  -5.199  1.00  0.00     0.006 A   
ATOM     12  C25 UNL     1       2.668   1.494  -3.232  1.00  0.00     0.010 A   
ATOM     13  C4  UNL     1       2.613  -0.468  -5.217  1.00  0.00     0.040 A   
ATOM     14  C5  UNL     1       3.604  -0.479  -4.244  1.00  0.00     0.126 A   
ATOM     15  C1  UNL     1       0.635   2.616  -4.212  1.00  0.00     0.044 C   
ATOM     16  F1  UNL     1       4.520  -1.457  -4.261  1.00  0.00    -0.207 F   
ENDBRANCH   8   9
ENDBRANCH   7   8
ENDBRANCH   1   7
BRANCH   3  17
ATOM     17  C11 UNL     1      -0.134  -1.488   0.194  1.00  0.00     0.117 C   
BRANCH  17  18
ATOM     18  N2  UNL     1      -0.645  -1.030   1.533  1.00  0.00     0.249 N   
ATOM     19  H12 UNL     1      -1.660  -0.893   1.540  1.00  0.00     0.199 HD  
ATOM     20  H13 UNL     1      -0.229  -0.102   1.703  1.00  0.00     0.199 HD  
BRANCH  18  21
ATOM     21  C12 UNL     1      -0.259  -1.891   2.685  1.00  0.00     0.164 C   
BRANCH  21  22
ATOM     22  C13 UNL     1      -0.716  -1.271   3.974  1.00  0.00    -0.002 A   
ATOM     23  C14 UNL     1       0.105  -0.327   4.637  1.00  0.00     0.012 A   
ATOM     24  C18 UNL     1      -1.983  -1.576   4.498  1.00  0.00     0.045 A   
ATOM     25  C15 UNL     1      -0.323   0.296   5.814  1.00  0.00     0.037 A   
ATOM     26  C17 UNL     1      -2.375  -0.943   5.659  1.00  0.00     0.109 A   
ATOM     27  C16 UNL     1      -1.569  -0.034   6.299  1.00  0.00     0.108 A   
ATOM     28  O1  UNL     1      -3.563  -1.121   6.294  1.00  0.00    -0.316 OA  
ATOM     29  O2  UNL     1      -2.146   0.472   7.420  1.00  0.00    -0.316 OA  
ATOM     30  C19 UNL     1      -3.404  -0.236   7.426  1.00  0.00     0.337 C   
ENDBRANCH  21  22
ENDBRANCH  18  21
ENDBRANCH  17  18
BRANCH  17  31
ATOM     31  C20 UNL     1      -0.991  -0.891  -0.942  1.00  0.00     0.043 C   
ATOM     32  C21 UNL     1      -2.440  -1.407  -0.992  1.00  0.00     0.010 C   
ATOM     33  C24 UNL     1      -1.130   0.635  -0.950  1.00  0.00     0.010 C   
ATOM     34  C22 UNL     1      -3.292  -0.232  -1.476  1.00  0.00     0.001 C   
ATOM     35  C23 UNL     1      -2.309   0.855  -1.884  1.00  0.00     0.001 C   
ENDBRANCH  17  31
ENDBRANCH   3  17
TORSDOF 8
