REMARK SMILES CC(C)C[C@H]([NH2+]Cc1ccc2c(c1)OCO2)c1cn(Cc2nc[nH]n2)nn1
REMARK SMILES IDX 17 1 18 2 19 3 26 4 27 5 5 7 4 8 2 9 1 10 3 11 6 12 7 15
REMARK SMILES IDX 8 16 9 17 13 18 10 19 12 20 11 21 14 22 16 23 15 24 20 25
REMARK SMILES IDX 21 26 22 27 25 28 23 29 24 30
REMARK H PARENT 18 6 6 13 6 14 24 31
ROOT
ATOM     1   C14 UNL     1       0.607   1.098   1.793  1.00  0.00     0.127 A   
ATOM     2   C15 UNL     1       1.305   2.066   1.108  1.00  0.00     0.046 A   
ATOM     3   N2  UNL     1       2.311   2.423   1.968  1.00  0.00    -0.204 N   
ATOM     4   N6  UNL     1       2.201   1.746   3.130  1.00  0.00    -0.076 NA  
ATOM     5   N7  UNL     1       1.165   0.930   3.033  1.00  0.00    -0.132 NA  
ATOM     6   H20 UNL     1       1.206   2.502   0.123  1.00  0.00     0.083 HD  
ENDROOT
BRANCH   1   7
ATOM     7   C5  UNL     1      -0.550   0.247   1.385  1.00  0.00     0.114 C   
BRANCH   7   8
ATOM     8   C4  UNL     1      -1.881   0.886   1.832  1.00  0.00     0.064 C   
BRANCH   8   9
ATOM     9   C2  UNL     1      -3.171   0.155   1.403  1.00  0.00    -0.012 C   
ATOM     10  C1  UNL     1      -3.272  -0.018  -0.113  1.00  0.00     0.007 C   
ATOM     11  C3  UNL     1      -4.391   0.926   1.917  1.00  0.00     0.007 C   
ENDBRANCH   8   9
ENDBRANCH   7   8
BRANCH   7  12
ATOM     12  N1  UNL     1      -0.434  -1.128   2.000  1.00  0.00     0.249 N   
ATOM     13  H11 UNL     1      -1.295  -1.660   1.863  1.00  0.00     0.199 HD  
ATOM     14  H12 UNL     1      -0.318  -0.982   3.012  1.00  0.00     0.199 HD  
BRANCH  12  15
ATOM     15  C6  UNL     1       0.720  -1.962   1.542  1.00  0.00     0.164 C   
BRANCH  15  16
ATOM     16  C7  UNL     1       0.645  -2.314   0.083  1.00  0.00    -0.002 A   
ATOM     17  C8  UNL     1       1.542  -1.722  -0.839  1.00  0.00     0.012 A   
ATOM     18  C12 UNL     1      -0.335  -3.210  -0.382  1.00  0.00     0.045 A   
ATOM     19  C9  UNL     1       1.460  -2.009  -2.205  1.00  0.00     0.037 A   
ATOM     20  C11 UNL     1      -0.388  -3.468  -1.735  1.00  0.00     0.109 A   
ATOM     21  C10 UNL     1       0.482  -2.884  -2.622  1.00  0.00     0.108 A   
ATOM     22  O1  UNL     1      -1.275  -4.297  -2.346  1.00  0.00    -0.316 OA  
ATOM     23  O2  UNL     1       0.254  -3.273  -3.903  1.00  0.00    -0.316 OA  
ATOM     24  C13 UNL     1      -0.838  -4.200  -3.721  1.00  0.00     0.337 C   
ENDBRANCH  15  16
ENDBRANCH  12  15
ENDBRANCH   7  12
ENDBRANCH   1   7
BRANCH   3  25
ATOM     25  C16 UNL     1       3.347   3.426   1.796  1.00  0.00     0.213 C   
BRANCH  25  26
ATOM     26  C17 UNL     1       4.043   3.252   0.496  1.00  0.00     0.167 A   
ATOM     27  N3  UNL     1       4.820   2.157   0.204  1.00  0.00    -0.221 NA  
ATOM     28  N5  UNL     1       3.964   4.151  -0.496  1.00  0.00    -0.166 NA  
ATOM     29  C18 UNL     1       5.289   2.430  -0.991  1.00  0.00     0.205 A   
ATOM     30  N4  UNL     1       4.792   3.622  -1.414  1.00  0.00    -0.226 N   
ATOM     31  H24 UNL     1       4.965   4.119  -2.282  1.00  0.00     0.177 HD  
ENDBRANCH  25  26
ENDBRANCH   3  25
TORSDOF 8
