REMARK SMILES CC(C)[C@H]([NH2+]Cc1ccc2c(c1)OCO2)c1cn(-c2ccccc2N([O-])[O-])nn1
REMARK SMILES IDX 16 1 17 2 18 3 28 4 29 5 4 6 2 7 1 8 3 9 5 10 6 13 7 14 8 15
REMARK SMILES IDX 12 16 9 17 11 18 10 19 13 20 15 21 14 22 19 23 20 24 24 25
REMARK SMILES IDX 21 26 23 27 22 28 25 29 26 30 27 31
REMARK H PARENT 5 11 5 12
ROOT
ATOM     1   C13 UNL     1       0.470  -0.794   0.964  1.00  0.00     0.127 A   
ATOM     2   C14 UNL     1       0.891  -0.979   2.261  1.00  0.00     0.135 A   
ATOM     3   N2  UNL     1       1.587   0.170   2.588  1.00  0.00    -0.178 N   
ATOM     4   N4  UNL     1       1.659   0.951   1.476  1.00  0.00    -0.071 NA  
ATOM     5   N5  UNL     1       0.953   0.396   0.506  1.00  0.00    -0.131 NA  
ENDROOT
BRANCH   1   6
ATOM     6   C4  UNL     1      -0.387  -1.645   0.079  1.00  0.00     0.117 C   
BRANCH   6   7
ATOM     7   C2  UNL     1       0.431  -2.746  -0.645  1.00  0.00     0.037 C   
ATOM     8   C1  UNL     1      -0.481  -3.808  -1.272  1.00  0.00     0.014 C   
ATOM     9   C3  UNL     1       1.401  -2.209  -1.704  1.00  0.00     0.014 C   
ENDBRANCH   6   7
BRANCH   6  10
ATOM     10  N1  UNL     1      -1.120  -0.793  -0.922  1.00  0.00     0.249 N   
ATOM     11  H9  UNL     1      -1.465  -1.343  -1.714  1.00  0.00     0.199 HD  
ATOM     12  H10 UNL     1      -0.437  -0.126  -1.311  1.00  0.00     0.199 HD  
BRANCH  10  13
ATOM     13  C5  UNL     1      -2.251   0.007  -0.369  1.00  0.00     0.164 C   
BRANCH  13  14
ATOM     14  C6  UNL     1      -2.864   0.856  -1.446  1.00  0.00    -0.002 A   
ATOM     15  C7  UNL     1      -3.989   0.396  -2.171  1.00  0.00     0.012 A   
ATOM     16  C11 UNL     1      -2.286   2.095  -1.776  1.00  0.00     0.045 A   
ATOM     17  C8  UNL     1      -4.540   1.163  -3.203  1.00  0.00     0.037 A   
ATOM     18  C10 UNL     1      -2.853   2.824  -2.800  1.00  0.00     0.109 A   
ATOM     19  C9  UNL     1      -3.948   2.372  -3.494  1.00  0.00     0.108 A   
ATOM     20  O1  UNL     1      -2.421   4.033  -3.243  1.00  0.00    -0.316 OA  
ATOM     21  O2  UNL     1      -4.345   3.240  -4.460  1.00  0.00    -0.316 OA  
ATOM     22  C12 UNL     1      -3.387   4.306  -4.283  1.00  0.00     0.337 C   
ENDBRANCH  13  14
ENDBRANCH  10  13
ENDBRANCH   6  10
ENDBRANCH   1   6
BRANCH   3  23
ATOM     23  C15 UNL     1       2.204   0.571   3.804  1.00  0.00     0.086 A   
ATOM     24  C16 UNL     1       3.197   1.567   3.741  1.00  0.00     0.028 A   
ATOM     25  C20 UNL     1       1.903   0.030   5.065  1.00  0.00     0.141 A   
ATOM     26  C17 UNL     1       3.890   1.962   4.892  1.00  0.00     0.002 A   
ATOM     27  C19 UNL     1       2.600   0.419   6.220  1.00  0.00     0.033 A   
ATOM     28  C18 UNL     1       3.602   1.382   6.125  1.00  0.00     0.002 A   
BRANCH  25  29
ATOM     29  N3  UNL     1       0.775  -0.852   5.274  1.00  0.00     0.094 N   
ATOM     30  O3  UNL     1      -0.342  -0.424   4.953  1.00  0.00    -0.138 OA  
ATOM     31  O4  UNL     1       1.017  -1.985   5.706  1.00  0.00    -0.138 OA  
ENDBRANCH  25  29
ENDBRANCH   3  23
TORSDOF 7
