REMARK SMILES CC(C)(C)[C@H]([NH2+]Cc1ccc2c(c1)OCO2)c1cn(C(=O)c2cccc(N([O-])[O-])c2)nn1
REMARK SMILES IDX 17 1 18 2 19 3 31 4 32 5 5 6 2 7 1 8 3 9 4 10 6 11 7 14 8 15
REMARK SMILES IDX 9 16 13 17 10 18 12 19 11 20 14 21 16 22 15 23 20 24 21 25
REMARK SMILES IDX 22 26 23 27 30 28 24 29 26 30 25 31 27 32 28 33 29 34
REMARK H PARENT 6 12 6 13
ROOT
ATOM     1   C14 UNL     1       0.462   0.852   1.064  1.00  0.00     0.128 A   
ATOM     2   C15 UNL     1       0.698  -0.505   1.106  1.00  0.00     0.139 A   
ATOM     3   N2  UNL     1      -0.353  -1.067   0.404  1.00  0.00    -0.143 N   
ATOM     4   N4  UNL     1      -1.220  -0.089   0.042  1.00  0.00    -0.068 NA  
ATOM     5   N5  UNL     1      -0.716   1.079   0.405  1.00  0.00    -0.131 NA  
ENDROOT
BRANCH   1   6
ATOM     6   C5  UNL     1       1.326   2.013   1.460  1.00  0.00     0.120 C   
BRANCH   6   7
ATOM     7   C2  UNL     1       0.840   2.764   2.749  1.00  0.00     0.010 C   
ATOM     8   C1  UNL     1      -0.513   3.478   2.558  1.00  0.00     0.017 C   
ATOM     9   C3  UNL     1       0.699   1.770   3.924  1.00  0.00     0.017 C   
ATOM     10  C4  UNL     1       1.885   3.821   3.173  1.00  0.00     0.017 C   
ENDBRANCH   6   7
BRANCH   6  11
ATOM     11  N1  UNL     1       1.412   2.977   0.286  1.00  0.00     0.250 N   
ATOM     12  H11 UNL     1       1.503   3.943   0.609  1.00  0.00     0.199 HD  
ATOM     13  H12 UNL     1       0.500   2.928  -0.195  1.00  0.00     0.199 HD  
BRANCH  11  14
ATOM     14  C6  UNL     1       2.488   2.720  -0.721  1.00  0.00     0.164 C   
BRANCH  14  15
ATOM     15  C7  UNL     1       2.339   1.419  -1.458  1.00  0.00    -0.002 A   
ATOM     16  C8  UNL     1       1.317   1.248  -2.423  1.00  0.00     0.012 A   
ATOM     17  C12 UNL     1       3.186   0.337  -1.155  1.00  0.00     0.045 A   
ATOM     18  C9  UNL     1       1.122   0.014  -3.057  1.00  0.00     0.037 A   
ATOM     19  C11 UNL     1       2.962  -0.864  -1.794  1.00  0.00     0.109 A   
ATOM     20  C10 UNL     1       1.956  -1.024  -2.714  1.00  0.00     0.108 A   
ATOM     21  O1  UNL     1       3.667  -2.008  -1.589  1.00  0.00    -0.316 OA  
ATOM     22  O2  UNL     1       1.900  -2.290  -3.204  1.00  0.00    -0.316 OA  
ATOM     23  C13 UNL     1       3.018  -2.901  -2.521  1.00  0.00     0.337 C   
ENDBRANCH  14  15
ENDBRANCH  11  14
ENDBRANCH   6  11
ENDBRANCH   1   6
BRANCH   3  24
ATOM     24  C16 UNL     1      -0.557  -2.413   0.051  1.00  0.00     0.271 C   
ATOM     25  O3  UNL     1       0.248  -3.225   0.499  1.00  0.00    -0.269 OA  
BRANCH  24  26
ATOM     26  C17 UNL     1      -1.656  -2.903  -0.822  1.00  0.00     0.042 A   
ATOM     27  C18 UNL     1      -2.243  -4.142  -0.533  1.00  0.00     0.014 A   
ATOM     28  C22 UNL     1      -2.078  -2.179  -1.943  1.00  0.00     0.045 A   
ATOM     29  C19 UNL     1      -3.273  -4.640  -1.335  1.00  0.00     0.003 A   
ATOM     30  C21 UNL     1      -3.105  -2.693  -2.749  1.00  0.00     0.118 A   
ATOM     31  C20 UNL     1      -3.712  -3.917  -2.443  1.00  0.00     0.031 A   
BRANCH  30  32
ATOM     32  N3  UNL     1      -3.531  -1.940  -3.934  1.00  0.00     0.092 N   
ATOM     33  O4  UNL     1      -4.522  -2.350  -4.554  1.00  0.00    -0.138 OA  
ATOM     34  O5  UNL     1      -2.869  -0.937  -4.241  1.00  0.00    -0.138 OA  
ENDBRANCH  30  32
ENDBRANCH  24  26
ENDBRANCH   3  24
TORSDOF 8
