REMARK SMILES CN(C)c1ccc(CCn2cc([C@@H]([NH2+]Cc3ccc4c(c3)OCO4)C3CCCC3)nn2)cc1
REMARK SMILES IDX 10 1 11 2 12 3 30 4 31 5 9 7 8 8 7 9 4 10 5 11 33 12 6 13
REMARK SMILES IDX 32 14 2 15 1 16 3 17 13 18 14 19 15 22 16 23 17 24 21 25
REMARK SMILES IDX 18 26 20 27 19 28 22 29 24 30 23 31 25 32 26 33 29 34 27 35
REMARK SMILES IDX 28 36
REMARK H PARENT 11 6 14 20 14 21
ROOT
ATOM     1   N2  UNL     1       3.034   0.721   1.289  1.00  0.00    -0.212 N   
ATOM     2   C9  UNL     1       2.808   0.190   0.049  1.00  0.00     0.045 A   
ATOM     3   C10 UNL     1       1.761   0.936  -0.442  1.00  0.00     0.127 A   
ATOM     4   N4  UNL     1       1.454   1.927   0.455  1.00  0.00    -0.132 NA  
ATOM     5   N5  UNL     1       2.250   1.793   1.505  1.00  0.00    -0.076 NA  
ATOM     6   H13 UNL     1       3.324  -0.691  -0.307  1.00  0.00     0.083 HD  
ENDROOT
BRANCH   1   7
ATOM     7   C8  UNL     1       3.838   0.152   2.352  1.00  0.00     0.139 C   
BRANCH   7   8
ATOM     8   C7  UNL     1       3.005  -0.450   3.495  1.00  0.00     0.057 C   
BRANCH   8   9
ATOM     9   C6  UNL     1       1.871  -1.337   3.033  1.00  0.00    -0.046 A   
ATOM     10  C3  UNL     1      -0.329  -2.849   1.983  1.00  0.00     0.028 A   
ATOM     11  C4  UNL     1      -0.518  -1.764   2.856  1.00  0.00     0.024 A   
ATOM     12  C26 UNL     1       1.010  -3.178   1.701  1.00  0.00     0.024 A   
ATOM     13  C5  UNL     1       0.554  -1.018   3.368  1.00  0.00     0.006 A   
ATOM     14  C25 UNL     1       2.091  -2.454   2.228  1.00  0.00     0.006 A   
BRANCH  10  15
ATOM     15  N1  UNL     1      -1.410  -3.504   1.365  1.00  0.00    -0.337 N   
ATOM     16  C1  UNL     1      -1.147  -4.811   0.748  1.00  0.00     0.129 C   
ATOM     17  C2  UNL     1      -2.718  -3.425   2.033  1.00  0.00     0.129 C   
ENDBRANCH  10  15
ENDBRANCH   8   9
ENDBRANCH   7   8
ENDBRANCH   1   7
BRANCH   3  18
ATOM     18  C11 UNL     1       0.900   0.724  -1.643  1.00  0.00     0.117 C   
BRANCH  18  19
ATOM     19  N3  UNL     1      -0.549   0.852  -1.261  1.00  0.00     0.249 N   
ATOM     20  H15 UNL     1      -1.163   0.946  -2.074  1.00  0.00     0.199 HD  
ATOM     21  H16 UNL     1      -0.638   1.723  -0.719  1.00  0.00     0.199 HD  
BRANCH  19  22
ATOM     22  C12 UNL     1      -1.062  -0.250  -0.391  1.00  0.00     0.164 C   
BRANCH  22  23
ATOM     23  C13 UNL     1      -2.495  -0.003  -0.016  1.00  0.00    -0.002 A   
ATOM     24  C14 UNL     1      -3.542  -0.651  -0.712  1.00  0.00     0.012 A   
ATOM     25  C18 UNL     1      -2.803   0.901   1.016  1.00  0.00     0.045 A   
ATOM     26  C15 UNL     1      -4.880  -0.410  -0.381  1.00  0.00     0.037 A   
ATOM     27  C17 UNL     1      -4.132   1.115   1.317  1.00  0.00     0.109 A   
ATOM     28  C16 UNL     1      -5.141   0.478   0.639  1.00  0.00     0.108 A   
ATOM     29  O1  UNL     1      -4.600   1.948   2.282  1.00  0.00    -0.316 OA  
ATOM     30  O2  UNL     1      -6.372   0.829   1.093  1.00  0.00    -0.316 OA  
ATOM     31  C19 UNL     1      -6.026   1.756   2.144  1.00  0.00     0.337 C   
ENDBRANCH  22  23
ENDBRANCH  19  22
ENDBRANCH  18  19
BRANCH  18  32
ATOM     32  C20 UNL     1       1.261   1.681  -2.793  1.00  0.00     0.043 C   
ATOM     33  C21 UNL     1       0.622   1.321  -4.138  1.00  0.00     0.010 C   
ATOM     34  C24 UNL     1       0.855   3.147  -2.624  1.00  0.00     0.010 C   
ATOM     35  C22 UNL     1       0.767   2.581  -4.990  1.00  0.00     0.001 C   
ATOM     36  C23 UNL     1       1.051   3.727  -4.020  1.00  0.00     0.001 C   
ENDBRANCH  18  32
ENDBRANCH   3  18
TORSDOF 9
