REMARK SMILES C[C@H](c1ccncc1)n1cc([C@@H]([NH2+]Cc2ccc3c(c2)OCO3)C2CCCCC2)nn1
REMARK SMILES IDX 12 1 11 2 9 3 10 4 31 5 30 6 2 8 1 9 3 10 4 11 8 12 5 13
REMARK SMILES IDX 7 14 6 15 13 16 14 19 15 20 16 21 20 22 17 23 19 24 18 25
REMARK SMILES IDX 21 26 23 27 22 28 24 29 25 30 29 31 26 32 28 33 27 34
REMARK H PARENT 10 7 13 17 13 18
ROOT
ATOM     1   C10 UNL     1       1.046   0.060   1.617  1.00  0.00     0.117 C   
ENDROOT
BRANCH   1   2
ATOM     2   C9  UNL     1       1.241  -0.486   0.239  1.00  0.00     0.127 A   
ATOM     3   N2  UNL     1       1.773  -0.943  -1.811  1.00  0.00    -0.205 N   
ATOM     4   C8  UNL     1       2.144  -0.161  -0.749  1.00  0.00     0.046 A   
ATOM     5   N5  UNL     1       0.703  -1.698  -1.494  1.00  0.00    -0.075 NA  
ATOM     6   N4  UNL     1       0.367  -1.427  -0.244  1.00  0.00    -0.132 NA  
ATOM     7   H9  UNL     1       2.969   0.537  -0.804  1.00  0.00     0.083 HD  
BRANCH   3   8
ATOM     8   C2  UNL     1       2.338  -0.987  -3.161  1.00  0.00     0.126 C   
ATOM     9   C1  UNL     1       3.794  -1.462  -3.135  1.00  0.00     0.036 C   
BRANCH   8  10
ATOM     10  C3  UNL     1       2.095   0.344  -3.856  1.00  0.00    -0.023 A   
ATOM     11  C4  UNL     1       3.075   1.337  -3.974  1.00  0.00     0.026 A   
ATOM     12  C7  UNL     1       0.823   0.617  -4.383  1.00  0.00     0.026 A   
ATOM     13  C5  UNL     1       2.747   2.534  -4.598  1.00  0.00     0.111 A   
ATOM     14  C6  UNL     1       0.590   1.843  -4.988  1.00  0.00     0.111 A   
ATOM     15  N1  UNL     1       1.522   2.809  -5.095  1.00  0.00    -0.265 NA  
ENDBRANCH   8  10
ENDBRANCH   3   8
ENDBRANCH   1   2
BRANCH   1  16
ATOM     16  N3  UNL     1      -0.422   0.072   1.963  1.00  0.00     0.249 N   
ATOM     17  H11 UNL     1      -0.571   0.172   2.972  1.00  0.00     0.199 HD  
ATOM     18  H12 UNL     1      -0.799  -0.849   1.700  1.00  0.00     0.199 HD  
BRANCH  16  19
ATOM     19  C11 UNL     1      -1.233   1.101   1.253  1.00  0.00     0.164 C   
BRANCH  19  20
ATOM     20  C12 UNL     1      -2.675   1.009   1.665  1.00  0.00    -0.002 A   
ATOM     21  C13 UNL     1      -3.528   0.051   1.065  1.00  0.00     0.012 A   
ATOM     22  C17 UNL     1      -3.176   1.842   2.680  1.00  0.00     0.045 A   
ATOM     23  C14 UNL     1      -4.865  -0.069   1.460  1.00  0.00     0.037 A   
ATOM     24  C16 UNL     1      -4.499   1.702   3.042  1.00  0.00     0.109 A   
ATOM     25  C15 UNL     1      -5.321   0.773   2.451  1.00  0.00     0.108 A   
ATOM     26  O1  UNL     1      -5.139   2.428   3.995  1.00  0.00    -0.316 OA  
ATOM     27  O2  UNL     1      -6.582   0.803   2.953  1.00  0.00    -0.316 OA  
ATOM     28  C18 UNL     1      -6.473   1.879   3.911  1.00  0.00     0.337 C   
ENDBRANCH  19  20
ENDBRANCH  16  19
ENDBRANCH   1  16
BRANCH   1  29
ATOM     29  C19 UNL     1       1.805  -0.713   2.726  1.00  0.00     0.043 C   
ATOM     30  C20 UNL     1       1.437  -2.207   2.826  1.00  0.00     0.010 C   
ATOM     31  C24 UNL     1       3.331  -0.552   2.584  1.00  0.00     0.010 C   
ATOM     32  C21 UNL     1       2.192  -2.898   3.964  1.00  0.00     0.001 C   
ATOM     33  C23 UNL     1       4.079  -1.237   3.727  1.00  0.00     0.001 C   
ATOM     34  C22 UNL     1       3.701  -2.710   3.843  1.00  0.00     0.000 C   
ENDBRANCH   1  29
TORSDOF 7
