REMARK SMILES C[C@@H](c1ccncc1)n1cc([C@@H]([NH2+]Cc2ccc3c(c2)OCO3)C2CCCCC2)nn1
REMARK SMILES IDX 12 1 11 2 9 3 10 4 31 5 30 6 2 8 1 9 3 10 4 11 8 12 5 13
REMARK SMILES IDX 7 14 6 15 13 16 14 19 15 20 16 21 20 22 17 23 19 24 18 25
REMARK SMILES IDX 21 26 23 27 22 28 24 29 25 30 29 31 26 32 28 33 27 34
REMARK H PARENT 10 7 13 17 13 18
ROOT
ATOM     1   C10 UNL     1      -1.193   0.404  -0.999  1.00  0.00     0.117 C   
ENDROOT
BRANCH   1   2
ATOM     2   C9  UNL     1      -0.251   0.749   0.114  1.00  0.00     0.127 A   
ATOM     3   N2  UNL     1       0.782   1.319   1.934  1.00  0.00    -0.205 N   
ATOM     4   C8  UNL     1      -0.451   1.345   1.339  1.00  0.00     0.046 A   
ATOM     5   N5  UNL     1       1.704   0.820   1.083  1.00  0.00    -0.075 NA  
ATOM     6   N4  UNL     1       1.080   0.449  -0.021  1.00  0.00    -0.132 NA  
ATOM     7   H9  UNL     1      -1.330   1.723   1.848  1.00  0.00     0.083 HD  
BRANCH   3   8
ATOM     8   C2  UNL     1       1.151   1.653   3.310  1.00  0.00     0.126 C   
ATOM     9   C1  UNL     1       0.561   2.990   3.767  1.00  0.00     0.036 C   
BRANCH   8  10
ATOM     10  C3  UNL     1       0.833   0.469   4.210  1.00  0.00    -0.023 A   
ATOM     11  C4  UNL     1       1.764  -0.579   4.310  1.00  0.00     0.026 A   
ATOM     12  C7  UNL     1      -0.371   0.339   4.914  1.00  0.00     0.026 A   
ATOM     13  C5  UNL     1       1.460  -1.682   5.092  1.00  0.00     0.111 A   
ATOM     14  C6  UNL     1      -0.584  -0.804   5.673  1.00  0.00     0.111 A   
ATOM     15  N1  UNL     1       0.301  -1.818   5.769  1.00  0.00    -0.265 NA  
ENDBRANCH   8  10
ENDBRANCH   3   8
ENDBRANCH   1   2
BRANCH   1  16
ATOM     16  N3  UNL     1      -0.408   0.082  -2.252  1.00  0.00     0.249 N   
ATOM     17  H11 UNL     1      -0.925  -0.539  -2.882  1.00  0.00     0.199 HD  
ATOM     18  H12 UNL     1       0.426  -0.445  -1.949  1.00  0.00     0.199 HD  
BRANCH  16  19
ATOM     19  C11 UNL     1       0.079   1.263  -3.015  1.00  0.00     0.164 C   
BRANCH  19  20
ATOM     20  C12 UNL     1       0.952   0.831  -4.159  1.00  0.00    -0.002 A   
ATOM     21  C13 UNL     1       0.389   0.533  -5.423  1.00  0.00     0.012 A   
ATOM     22  C17 UNL     1       2.336   0.673  -3.963  1.00  0.00     0.045 A   
ATOM     23  C14 UNL     1       1.192   0.089  -6.481  1.00  0.00     0.037 A   
ATOM     24  C16 UNL     1       3.099   0.237  -5.028  1.00  0.00     0.109 A   
ATOM     25  C15 UNL     1       2.543  -0.050  -6.250  1.00  0.00     0.108 A   
ATOM     26  O1  UNL     1       4.443   0.038  -5.010  1.00  0.00    -0.316 OA  
ATOM     27  O2  UNL     1       3.467  -0.469  -7.154  1.00  0.00    -0.316 OA  
ATOM     28  C18 UNL     1       4.675  -0.407  -6.365  1.00  0.00     0.337 C   
ENDBRANCH  19  20
ENDBRANCH  16  19
ENDBRANCH   1  16
BRANCH   1  29
ATOM     29  C19 UNL     1      -2.134  -0.796  -0.701  1.00  0.00     0.043 C   
ATOM     30  C20 UNL     1      -3.209  -0.434   0.342  1.00  0.00     0.010 C   
ATOM     31  C24 UNL     1      -1.398  -2.085  -0.287  1.00  0.00     0.010 C   
ATOM     32  C21 UNL     1      -4.182  -1.587   0.578  1.00  0.00     0.001 C   
ATOM     33  C23 UNL     1      -2.376  -3.237  -0.036  1.00  0.00     0.001 C   
ATOM     34  C22 UNL     1      -3.445  -2.857   0.986  1.00  0.00     0.000 C   
ENDBRANCH   1  29
TORSDOF 7
