REMARK SMILES CC(C)[C@H]([NH2+]Cc1ccc2c(c1)OCO2)c1cn(Cc2conc2C2CC2)nn1
REMARK SMILES IDX 16 1 17 2 18 3 28 4 29 5 4 7 2 8 1 9 3 10 5 11 6 14 7 15
REMARK SMILES IDX 8 16 12 17 9 18 11 19 10 20 13 21 15 22 14 23 19 24 20 25
REMARK SMILES IDX 21 26 24 27 22 28 23 29 25 30 26 31 27 32
REMARK H PARENT 17 6 5 12 5 13
ROOT
ATOM     1   C13 UNL     1       0.518   1.090   1.243  1.00  0.00     0.127 A   
ATOM     2   C14 UNL     1       0.279   0.918   2.588  1.00  0.00     0.046 A   
ATOM     3   N2  UNL     1      -1.008   1.357   2.756  1.00  0.00    -0.208 N   
ATOM     4   N4  UNL     1      -1.519   1.792   1.588  1.00  0.00    -0.076 NA  
ATOM     5   N5  UNL     1      -0.596   1.633   0.655  1.00  0.00    -0.132 NA  
ATOM     6   H18 UNL     1       0.866   0.519   3.404  1.00  0.00     0.083 HD  
ENDROOT
BRANCH   1   7
ATOM     7   C4  UNL     1       1.708   0.751   0.398  1.00  0.00     0.117 C   
BRANCH   7   8
ATOM     8   C2  UNL     1       2.802   1.849   0.462  1.00  0.00     0.037 C   
ATOM     9   C1  UNL     1       4.133   1.355  -0.120  1.00  0.00     0.014 C   
ATOM     10  C3  UNL     1       2.401   3.167  -0.212  1.00  0.00     0.014 C   
ENDBRANCH   7   8
BRANCH   7  11
ATOM     11  N1  UNL     1       1.286   0.516  -1.028  1.00  0.00     0.249 N   
ATOM     12  H9  UNL     1       0.634   1.276  -1.274  1.00  0.00     0.199 HD  
ATOM     13  H10 UNL     1       2.071   0.589  -1.682  1.00  0.00     0.199 HD  
BRANCH  11  14
ATOM     14  C5  UNL     1       0.571  -0.768  -1.277  1.00  0.00     0.164 C   
BRANCH  14  15
ATOM     15  C6  UNL     1       0.089  -0.827  -2.699  1.00  0.00    -0.002 A   
ATOM     16  C7  UNL     1      -1.130  -0.204  -3.059  1.00  0.00     0.012 A   
ATOM     17  C11 UNL     1       0.869  -1.448  -3.688  1.00  0.00     0.045 A   
ATOM     18  C8  UNL     1      -1.574  -0.207  -4.386  1.00  0.00     0.037 A   
ATOM     19  C10 UNL     1       0.401  -1.435  -4.986  1.00  0.00     0.109 A   
ATOM     20  C9  UNL     1      -0.785  -0.832  -5.326  1.00  0.00     0.108 A   
ATOM     21  O1  UNL     1       1.026  -1.988  -6.058  1.00  0.00    -0.316 OA  
ATOM     22  O2  UNL     1      -1.057  -0.932  -6.652  1.00  0.00    -0.316 OA  
ATOM     23  C12 UNL     1       0.079  -1.696  -7.110  1.00  0.00     0.337 C   
ENDBRANCH  14  15
ENDBRANCH  11  14
ENDBRANCH   7  11
ENDBRANCH   1   7
BRANCH   3  24
ATOM     24  C15 UNL     1      -1.813   1.358   3.969  1.00  0.00     0.173 C   
BRANCH  24  25
ATOM     25  C16 UNL     1      -2.125  -0.030   4.383  1.00  0.00     0.021 A   
ATOM     26  C17 UNL     1      -1.689  -0.700   5.505  1.00  0.00     0.171 A   
ATOM     27  C18 UNL     1      -2.933  -0.993   3.734  1.00  0.00     0.078 A   
ATOM     28  O3  UNL     1      -2.163  -1.970   5.500  1.00  0.00    -0.221 OA  
ATOM     29  N3  UNL     1      -2.933  -2.166   4.369  1.00  0.00    -0.134 NA  
BRANCH  27  30
ATOM     30  C19 UNL     1      -3.699  -0.766   2.403  1.00  0.00     0.041 C   
ATOM     31  C20 UNL     1      -5.127  -1.233   2.285  1.00  0.00     0.011 C   
ATOM     32  C21 UNL     1      -4.825   0.234   2.358  1.00  0.00     0.011 C   
ENDBRANCH  27  30
ENDBRANCH  24  25
ENDBRANCH   3  24
TORSDOF 8
