REMARK SMILES COc1ccc(Cn2cc([C@@H]([NH2+]Cc3ccc4c(c3)OCO4)C3CCCC3)nn2)cc1C
REMARK SMILES IDX 8 1 9 2 10 3 28 4 29 5 7 7 6 8 3 9 4 10 31 11 5 12 30 13
REMARK SMILES IDX 32 14 2 15 1 16 11 17 12 18 13 21 14 22 15 23 19 24 16 25
REMARK SMILES IDX 18 26 17 27 20 28 22 29 21 30 23 31 24 32 27 33 25 34 26 35
REMARK H PARENT 9 6 12 19 12 20
ROOT
ATOM     1   N1  UNL     1      -2.422  -1.186  -2.176  1.00  0.00    -0.208 N   
ATOM     2   C7  UNL     1      -1.450  -0.230  -2.054  1.00  0.00     0.046 A   
ATOM     3   C8  UNL     1      -0.281  -0.953  -1.988  1.00  0.00     0.127 A   
ATOM     4   N3  UNL     1      -0.567  -2.287  -2.113  1.00  0.00    -0.132 NA  
ATOM     5   N4  UNL     1      -1.879  -2.418  -2.220  1.00  0.00    -0.076 NA  
ATOM     6   H8  UNL     1      -1.679   0.824  -1.972  1.00  0.00     0.083 HD  
ENDROOT
BRANCH   1   7
ATOM     7   C6  UNL     1      -3.863  -1.005  -2.150  1.00  0.00     0.169 C   
BRANCH   7   8
ATOM     8   C5  UNL     1      -4.314  -0.648  -0.755  1.00  0.00    -0.028 A   
ATOM     9   C2  UNL     1      -5.044   0.019   1.885  1.00  0.00     0.077 A   
ATOM     10  C3  UNL     1      -4.865  -1.316   1.516  1.00  0.00     0.034 A   
ATOM     11  C24 UNL     1      -4.854   1.034   0.931  1.00  0.00    -0.020 A   
ATOM     12  C4  UNL     1      -4.500  -1.647   0.207  1.00  0.00     0.008 A   
ATOM     13  C23 UNL     1      -4.501   0.692  -0.385  1.00  0.00     0.011 A   
ATOM     14  C25 UNL     1      -5.068   2.478   1.294  1.00  0.00     0.047 C   
BRANCH   9  15
ATOM     15  O1  UNL     1      -5.386   0.441   3.144  1.00  0.00    -0.349 OA  
ATOM     16  C1  UNL     1      -5.849  -0.545   4.057  1.00  0.00     0.203 C   
ENDBRANCH   9  15
ENDBRANCH   7   8
ENDBRANCH   1   7
BRANCH   3  17
ATOM     17  C9  UNL     1       1.119  -0.517  -1.710  1.00  0.00     0.117 C   
BRANCH  17  18
ATOM     18  N2  UNL     1       1.744  -1.427  -0.672  1.00  0.00     0.249 N   
ATOM     19  H10 UNL     1       1.699  -2.382  -1.055  1.00  0.00     0.199 HD  
ATOM     20  H11 UNL     1       2.732  -1.195  -0.543  1.00  0.00     0.199 HD  
BRANCH  18  21
ATOM     21  C10 UNL     1       1.080  -1.462   0.668  1.00  0.00     0.164 C   
BRANCH  21  22
ATOM     22  C11 UNL     1       1.048  -0.126   1.356  1.00  0.00    -0.002 A   
ATOM     23  C12 UNL     1      -0.188   0.528   1.586  1.00  0.00     0.012 A   
ATOM     24  C16 UNL     1       2.244   0.494   1.761  1.00  0.00     0.045 A   
ATOM     25  C13 UNL     1      -0.234   1.786   2.197  1.00  0.00     0.037 A   
ATOM     26  C15 UNL     1       2.161   1.733   2.363  1.00  0.00     0.109 A   
ATOM     27  C14 UNL     1       0.960   2.363   2.572  1.00  0.00     0.108 A   
ATOM     28  O2  UNL     1       3.217   2.464   2.806  1.00  0.00    -0.316 OA  
ATOM     29  O3  UNL     1       1.107   3.572   3.173  1.00  0.00    -0.316 OA  
ATOM     30  C17 UNL     1       2.538   3.614   3.363  1.00  0.00     0.337 C   
ENDBRANCH  21  22
ENDBRANCH  18  21
ENDBRANCH  17  18
BRANCH  17  31
ATOM     31  C18 UNL     1       1.998  -0.550  -2.975  1.00  0.00     0.043 C   
ATOM     32  C19 UNL     1       3.433  -0.062  -2.757  1.00  0.00     0.010 C   
ATOM     33  C22 UNL     1       1.513   0.399  -4.075  1.00  0.00     0.010 C   
ATOM     34  C20 UNL     1       3.942   0.302  -4.149  1.00  0.00     0.001 C   
ATOM     35  C21 UNL     1       2.705   0.514  -5.016  1.00  0.00     0.001 C   
ENDBRANCH  17  31
ENDBRANCH   3  17
TORSDOF 8
