REMARK SMILES Cc1cc([C@H](O)Cn2cc([C@@H]([NH2+]Cc3ccc4c(c3)OCO4)C3CCCCC3)nn2)cs1
REMARK SMILES IDX 8 1 9 2 10 3 29 4 30 5 7 7 5 8 4 9 2 10 3 11 32 12 31 13
REMARK SMILES IDX 1 14 6 15 11 17 12 18 13 21 14 22 15 23 19 24 16 25 18 26
REMARK SMILES IDX 17 27 20 28 22 29 21 30 23 31 24 32 28 33 25 34 27 35 26 36
REMARK H PARENT 9 6 6 16 12 19 12 20
ROOT
ATOM     1   N1  UNL     1      -2.492  -0.965  -1.577  1.00  0.00    -0.209 N   
ATOM     2   C7  UNL     1      -1.164  -0.934  -1.254  1.00  0.00     0.045 A   
ATOM     3   C8  UNL     1      -1.030   0.215  -0.509  1.00  0.00     0.127 A   
ATOM     4   N3  UNL     1      -2.236   0.871  -0.475  1.00  0.00    -0.132 NA  
ATOM     5   N4  UNL     1      -3.113   0.154  -1.157  1.00  0.00    -0.076 NA  
ATOM     6   H9  UNL     1      -0.485  -1.728  -1.535  1.00  0.00     0.083 HD  
ENDROOT
BRANCH   1   7
ATOM     7   C6  UNL     1      -3.218  -1.979  -2.313  1.00  0.00     0.170 C   
BRANCH   7   8
ATOM     8   C5  UNL     1      -3.419  -3.285  -1.532  1.00  0.00     0.164 C   
BRANCH   8   9
ATOM     9   C4  UNL     1      -4.080  -3.102  -0.191  1.00  0.00    -0.010 A   
ATOM     10  C2  UNL     1      -4.254  -2.902   2.145  1.00  0.00    -0.014 A   
ATOM     11  C3  UNL     1      -3.401  -3.091   1.077  1.00  0.00     0.017 A   
ATOM     12  S1  UNL     1      -5.871  -2.716   1.630  1.00  0.00    -0.102 S   
ATOM     13  C24 UNL     1      -5.439  -2.915  -0.010  1.00  0.00     0.052 A   
ATOM     14  C1  UNL     1      -3.923  -2.841   3.597  1.00  0.00     0.052 C   
ENDBRANCH   8   9
BRANCH   8  15
ATOM     15  O1  UNL     1      -2.165  -3.969  -1.413  1.00  0.00    -0.387 OA  
ATOM     16  H6  UNL     1      -2.364  -4.826  -0.993  1.00  0.00     0.211 HD  
ENDBRANCH   8  15
ENDBRANCH   7   8
ENDBRANCH   1   7
BRANCH   3  17
ATOM     17  C9  UNL     1       0.146   0.819   0.185  1.00  0.00     0.117 C   
BRANCH  17  18
ATOM     18  N2  UNL     1      -0.039   2.320   0.296  1.00  0.00     0.249 N   
ATOM     19  H11 UNL     1      -1.012   2.462   0.603  1.00  0.00     0.199 HD  
ATOM     20  H12 UNL     1       0.570   2.707   1.022  1.00  0.00     0.199 HD  
BRANCH  18  21
ATOM     21  C10 UNL     1       0.137   3.098  -0.966  1.00  0.00     0.164 C   
BRANCH  21  22
ATOM     22  C11 UNL     1       1.566   3.137  -1.432  1.00  0.00    -0.002 A   
ATOM     23  C12 UNL     1       1.959   2.421  -2.588  1.00  0.00     0.012 A   
ATOM     24  C16 UNL     1       2.529   3.864  -0.709  1.00  0.00     0.045 A   
ATOM     25  C13 UNL     1       3.291   2.421  -3.017  1.00  0.00     0.037 A   
ATOM     26  C15 UNL     1       3.833   3.842  -1.159  1.00  0.00     0.109 A   
ATOM     27  C14 UNL     1       4.204   3.141  -2.279  1.00  0.00     0.108 A   
ATOM     28  O2  UNL     1       4.879   4.482  -0.575  1.00  0.00    -0.316 OA  
ATOM     29  O3  UNL     1       5.531   3.252  -2.543  1.00  0.00    -0.316 OA  
ATOM     30  C17 UNL     1       5.953   4.129  -1.477  1.00  0.00     0.337 C   
ENDBRANCH  21  22
ENDBRANCH  18  21
ENDBRANCH  17  18
BRANCH  17  31
ATOM     31  C18 UNL     1       0.398   0.260   1.613  1.00  0.00     0.043 C   
ATOM     32  C19 UNL     1       0.878  -1.204   1.575  1.00  0.00     0.010 C   
ATOM     33  C23 UNL     1      -0.805   0.398   2.567  1.00  0.00     0.010 C   
ATOM     34  C20 UNL     1       1.209  -1.723   2.973  1.00  0.00     0.001 C   
ATOM     35  C22 UNL     1      -0.482  -0.135   3.962  1.00  0.00     0.001 C   
ATOM     36  C21 UNL     1       0.022  -1.573   3.918  1.00  0.00     0.000 C   
ENDBRANCH  17  31
ENDBRANCH   3  17
TORSDOF 9
