REMARK SMILES Cc1cc([C@@H](O)Cn2cc([C@@H]([NH2+]Cc3ccc4c(c3)OCO4)C3CCCCC3)nn2)cs1
REMARK SMILES IDX 8 1 9 2 10 3 29 4 30 5 7 7 5 8 4 9 2 10 3 11 32 12 31 13
REMARK SMILES IDX 1 14 6 15 11 17 12 18 13 21 14 22 15 23 19 24 16 25 18 26
REMARK SMILES IDX 17 27 20 28 22 29 21 30 23 31 24 32 28 33 25 34 27 35 26 36
REMARK H PARENT 9 6 6 16 12 19 12 20
ROOT
ATOM     1   N1  UNL     1      -2.393   0.605   1.966  1.00  0.00    -0.209 N   
ATOM     2   C7  UNL     1      -1.938  -0.352   1.102  1.00  0.00     0.045 A   
ATOM     3   C8  UNL     1      -0.623  -0.534   1.463  1.00  0.00     0.127 A   
ATOM     4   N3  UNL     1      -0.333   0.278   2.530  1.00  0.00    -0.132 NA  
ATOM     5   N4  UNL     1      -1.429   0.949   2.843  1.00  0.00    -0.076 NA  
ATOM     6   H9  UNL     1      -2.566  -0.784   0.335  1.00  0.00     0.083 HD  
ENDROOT
BRANCH   1   7
ATOM     7   C6  UNL     1      -3.729   1.152   2.089  1.00  0.00     0.170 C   
BRANCH   7   8
ATOM     8   C5  UNL     1      -4.208   1.985   0.891  1.00  0.00     0.164 C   
BRANCH   8   9
ATOM     9   C4  UNL     1      -3.525   3.311   0.639  1.00  0.00    -0.010 A   
ATOM     10  C2  UNL     1      -3.260   5.421  -0.388  1.00  0.00    -0.014 A   
ATOM     11  C3  UNL     1      -4.022   4.273  -0.315  1.00  0.00     0.017 A   
ATOM     12  S1  UNL     1      -1.941   5.363   0.691  1.00  0.00    -0.102 S   
ATOM     13  C24 UNL     1      -2.400   3.819   1.263  1.00  0.00     0.052 A   
ATOM     14  C1  UNL     1      -3.471   6.624  -1.243  1.00  0.00     0.052 C   
ENDBRANCH   8   9
BRANCH   8  15
ATOM     15  O1  UNL     1      -4.193   1.170  -0.289  1.00  0.00    -0.387 OA  
ATOM     16  H6  UNL     1      -4.534   1.718  -1.018  1.00  0.00     0.211 HD  
ENDBRANCH   8  15
ENDBRANCH   7   8
ENDBRANCH   1   7
BRANCH   3  17
ATOM     17  C9  UNL     1       0.444  -1.407   0.886  1.00  0.00     0.117 C   
BRANCH  17  18
ATOM     18  N2  UNL     1       1.808  -0.818   1.160  1.00  0.00     0.249 N   
ATOM     19  H11 UNL     1       2.539  -1.526   1.079  1.00  0.00     0.199 HD  
ATOM     20  H12 UNL     1       1.791  -0.512   2.144  1.00  0.00     0.199 HD  
BRANCH  18  21
ATOM     21  C10 UNL     1       2.183   0.374   0.342  1.00  0.00     0.164 C   
BRANCH  21  22
ATOM     22  C11 UNL     1       2.332   0.064  -1.123  1.00  0.00    -0.002 A   
ATOM     23  C12 UNL     1       1.476   0.681  -2.067  1.00  0.00     0.012 A   
ATOM     24  C16 UNL     1       3.301  -0.853  -1.565  1.00  0.00     0.045 A   
ATOM     25  C13 UNL     1       1.583   0.391  -3.432  1.00  0.00     0.037 A   
ATOM     26  C15 UNL     1       3.372  -1.124  -2.916  1.00  0.00     0.109 A   
ATOM     27  C14 UNL     1       2.543  -0.515  -3.824  1.00  0.00     0.108 A   
ATOM     28  O2  UNL     1       4.228  -2.000  -3.501  1.00  0.00    -0.316 OA  
ATOM     29  O3  UNL     1       2.784  -0.920  -5.098  1.00  0.00    -0.316 OA  
ATOM     30  C17 UNL     1       3.867  -1.850  -4.893  1.00  0.00     0.337 C   
ENDBRANCH  21  22
ENDBRANCH  18  21
ENDBRANCH  17  18
BRANCH  17  31
ATOM     31  C18 UNL     1       0.365  -2.860   1.429  1.00  0.00     0.043 C   
ATOM     32  C19 UNL     1       0.733  -2.995   2.920  1.00  0.00     0.010 C   
ATOM     33  C23 UNL     1       1.215  -3.831   0.584  1.00  0.00     0.010 C   
ATOM     34  C20 UNL     1       0.592  -4.438   3.404  1.00  0.00     0.001 C   
ATOM     35  C22 UNL     1       1.072  -5.272   1.071  1.00  0.00     0.001 C   
ATOM     36  C21 UNL     1       1.412  -5.401   2.552  1.00  0.00     0.000 C   
ENDBRANCH  17  31
ENDBRANCH   3  17
TORSDOF 9
