REMARK SMILES CC(C)c1[nH]ncc1Cn1cc([C@@H]([NH2+]Cc2ccc3c(c2)OCO3)C(C)C)nn1
REMARK SMILES IDX 10 1 11 2 12 3 28 4 29 5 9 7 8 8 4 9 5 10 6 11 7 12 2 14
REMARK SMILES IDX 1 15 3 16 13 17 14 18 15 21 16 22 17 23 21 24 18 25 20 26
REMARK SMILES IDX 19 27 22 28 24 29 23 30 25 31 26 32 27 33
REMARK H PARENT 11 6 5 13 14 19 14 20
ROOT
ATOM     1   N3  UNL     1       1.510  -1.472   1.764  1.00  0.00    -0.208 N   
ATOM     2   C8  UNL     1       0.642  -1.609   0.714  1.00  0.00     0.046 A   
ATOM     3   C9  UNL     1       1.449  -1.513  -0.398  1.00  0.00     0.127 A   
ATOM     4   N5  UNL     1       2.754  -1.386   0.002  1.00  0.00    -0.132 NA  
ATOM     5   N6  UNL     1       2.780  -1.368   1.325  1.00  0.00    -0.076 NA  
ATOM     6   H12 UNL     1      -0.428  -1.669   0.850  1.00  0.00     0.083 HD  
ENDROOT
BRANCH   1   7
ATOM     7   C7  UNL     1       1.183  -1.236   3.163  1.00  0.00     0.172 C   
BRANCH   7   8
ATOM     8   C6  UNL     1       0.755   0.183   3.335  1.00  0.00     0.010 A   
ATOM     9   C4  UNL     1      -0.451   0.713   3.775  1.00  0.00     0.034 A   
ATOM     10  N1  UNL     1      -0.305   2.078   3.694  1.00  0.00    -0.242 N   
ATOM     11  N2  UNL     1       0.880   2.463   3.204  1.00  0.00    -0.192 NA  
ATOM     12  C5  UNL     1       1.547   1.323   3.046  1.00  0.00     0.138 A   
ATOM     13  H8  UNL     1      -0.979   2.797   3.943  1.00  0.00     0.175 HD  
BRANCH   9  14
ATOM     14  C2  UNL     1      -1.736   0.117   4.276  1.00  0.00     0.029 C   
ATOM     15  C1  UNL     1      -1.512  -0.742   5.520  1.00  0.00     0.014 C   
ATOM     16  C3  UNL     1      -2.451  -0.670   3.179  1.00  0.00     0.014 C   
ENDBRANCH   9  14
ENDBRANCH   7   8
ENDBRANCH   1   7
BRANCH   3  17
ATOM     17  C10 UNL     1       1.098  -1.379  -1.841  1.00  0.00     0.117 C   
BRANCH  17  18
ATOM     18  N4  UNL     1       1.875  -0.238  -2.467  1.00  0.00     0.249 N   
ATOM     19  H14 UNL     1       1.710  -0.217  -3.477  1.00  0.00     0.199 HD  
ATOM     20  H15 UNL     1       2.872  -0.443  -2.319  1.00  0.00     0.199 HD  
BRANCH  18  21
ATOM     21  C11 UNL     1       1.638   1.127  -1.895  1.00  0.00     0.164 C   
BRANCH  21  22
ATOM     22  C12 UNL     1       0.198   1.559  -1.932  1.00  0.00    -0.002 A   
ATOM     23  C13 UNL     1      -0.449   1.808  -3.166  1.00  0.00     0.012 A   
ATOM     24  C17 UNL     1      -0.524   1.696  -0.732  1.00  0.00     0.045 A   
ATOM     25  C14 UNL     1      -1.800   2.173  -3.206  1.00  0.00     0.037 A   
ATOM     26  C16 UNL     1      -1.854   2.052  -0.807  1.00  0.00     0.109 A   
ATOM     27  C15 UNL     1      -2.474   2.283  -2.010  1.00  0.00     0.108 A   
ATOM     28  O1  UNL     1      -2.695   2.209   0.249  1.00  0.00    -0.316 OA  
ATOM     29  O2  UNL     1      -3.781   2.619  -1.863  1.00  0.00    -0.316 OA  
ATOM     30  C18 UNL     1      -3.907   2.617  -0.426  1.00  0.00     0.337 C   
ENDBRANCH  21  22
ENDBRANCH  18  21
ENDBRANCH  17  18
BRANCH  17  31
ATOM     31  C19 UNL     1       1.329  -2.662  -2.681  1.00  0.00     0.037 C   
ATOM     32  C20 UNL     1       2.776  -3.167  -2.699  1.00  0.00     0.014 C   
ATOM     33  C21 UNL     1       0.395  -3.793  -2.234  1.00  0.00     0.014 C   
ENDBRANCH  17  31
ENDBRANCH   3  17
TORSDOF 8
