REMARK SMILES CC(C)[C@H]([NH2+]Cc1ccc2c(c1)OCO2)c1cn(Cc2cnc(C3CCC3)o2)nn1
REMARK SMILES IDX 16 1 17 2 18 3 29 4 30 5 4 7 2 8 1 9 3 10 5 11 6 14 7 15
REMARK SMILES IDX 8 16 12 17 9 18 11 19 10 20 13 21 15 22 14 23 19 24 20 25
REMARK SMILES IDX 21 26 28 27 22 28 23 29 24 30 25 31 27 32 26 33
REMARK H PARENT 17 6 5 12 5 13
ROOT
ATOM     1   C13 UNL     1      -0.213   2.053  -0.814  1.00  0.00     0.127 A   
ATOM     2   C14 UNL     1      -1.288   1.424  -0.226  1.00  0.00     0.046 A   
ATOM     3   N2  UNL     1      -2.096   1.094  -1.280  1.00  0.00    -0.206 N   
ATOM     4   N4  UNL     1      -1.558   1.507  -2.444  1.00  0.00    -0.076 NA  
ATOM     5   N5  UNL     1      -0.406   2.097  -2.171  1.00  0.00    -0.132 NA  
ATOM     6   H18 UNL     1      -1.529   1.155   0.794  1.00  0.00     0.083 HD  
ENDROOT
BRANCH   1   7
ATOM     7   C4  UNL     1       1.067   2.558  -0.234  1.00  0.00     0.117 C   
BRANCH   7   8
ATOM     8   C2  UNL     1       1.071   4.078   0.077  1.00  0.00     0.037 C   
ATOM     9   C1  UNL     1       0.063   4.427   1.179  1.00  0.00     0.014 C   
ATOM     10  C3  UNL     1       0.835   4.978  -1.141  1.00  0.00     0.014 C   
ENDBRANCH   7   8
BRANCH   7  11
ATOM     11  N1  UNL     1       2.220   2.256  -1.169  1.00  0.00     0.249 N   
ATOM     12  H9  UNL     1       1.949   2.623  -2.092  1.00  0.00     0.199 HD  
ATOM     13  H10 UNL     1       3.058   2.761  -0.870  1.00  0.00     0.199 HD  
BRANCH  11  14
ATOM     14  C5  UNL     1       2.557   0.812  -1.365  1.00  0.00     0.164 C   
BRANCH  14  15
ATOM     15  C6  UNL     1       3.039   0.141  -0.109  1.00  0.00    -0.002 A   
ATOM     16  C7  UNL     1       4.327   0.422   0.406  1.00  0.00     0.012 A   
ATOM     17  C11 UNL     1       2.196  -0.747   0.582  1.00  0.00     0.045 A   
ATOM     18  C8  UNL     1       4.770  -0.168   1.594  1.00  0.00     0.037 A   
ATOM     19  C10 UNL     1       2.663  -1.309   1.752  1.00  0.00     0.109 A   
ATOM     20  C9  UNL     1       3.913  -1.028   2.244  1.00  0.00     0.108 A   
ATOM     21  O1  UNL     1       1.975  -2.173   2.544  1.00  0.00    -0.316 OA  
ATOM     22  O2  UNL     1       4.172  -1.682   3.406  1.00  0.00    -0.316 OA  
ATOM     23  C12 UNL     1       2.955  -2.440   3.574  1.00  0.00     0.337 C   
ENDBRANCH  14  15
ENDBRANCH  11  14
ENDBRANCH   7  11
ENDBRANCH   1   7
BRANCH   3  24
ATOM     24  C15 UNL     1      -3.334   0.335  -1.258  1.00  0.00     0.197 C   
BRANCH  24  25
ATOM     25  C16 UNL     1      -3.022  -1.105  -1.185  1.00  0.00     0.099 A   
ATOM     26  C17 UNL     1      -2.824  -2.099  -2.111  1.00  0.00     0.145 A   
ATOM     27  O3  UNL     1      -2.848  -1.651   0.057  1.00  0.00    -0.296 OA  
ATOM     28  N3  UNL     1      -2.512  -3.270  -1.474  1.00  0.00    -0.234 NA  
ATOM     29  C18 UNL     1      -2.554  -2.970  -0.190  1.00  0.00     0.150 A   
BRANCH  29  30
ATOM     30  C19 UNL     1      -2.275  -4.013   0.930  1.00  0.00     0.063 C   
ATOM     31  C20 UNL     1      -1.145  -3.620   1.913  1.00  0.00     0.012 C   
ATOM     32  C22 UNL     1      -3.236  -3.953   2.141  1.00  0.00     0.012 C   
ATOM     33  C21 UNL     1      -2.009  -4.235   3.033  1.00  0.00     0.002 C   
ENDBRANCH  29  30
ENDBRANCH  24  25
ENDBRANCH   3  24
TORSDOF 8
