REMARK SMILES CN(C)c1ccccc1Cn1cc([C@@H]([NH2+]Cc2ccc3c(c2)OCO3)C(C)(C)C)nn1
REMARK SMILES IDX 11 1 12 2 13 3 30 4 31 5 10 7 9 8 4 9 5 10 6 11 8 12 7 13
REMARK SMILES IDX 2 14 1 15 3 16 14 17 15 18 16 21 17 22 18 23 22 24 19 25
REMARK SMILES IDX 21 26 20 27 23 28 25 29 24 30 26 31 27 32 28 33 29 34
REMARK H PARENT 12 6 15 19 15 20
ROOT
ATOM     1   N2  UNL     1      -0.299  -1.235   2.705  1.00  0.00    -0.208 N   
ATOM     2   C10 UNL     1       0.118  -1.256   1.403  1.00  0.00     0.046 A   
ATOM     3   C11 UNL     1       1.350  -0.646   1.438  1.00  0.00     0.127 A   
ATOM     4   N4  UNL     1       1.655  -0.316   2.733  1.00  0.00    -0.132 NA  
ATOM     5   N5  UNL     1       0.642  -0.685   3.500  1.00  0.00    -0.076 NA  
ATOM     6   H13 UNL     1      -0.507  -1.640   0.609  1.00  0.00     0.083 HD  
ENDROOT
BRANCH   1   7
ATOM     7   C9  UNL     1      -1.580  -1.658   3.245  1.00  0.00     0.171 C   
BRANCH   7   8
ATOM     8   C8  UNL     1      -2.611  -0.569   3.069  1.00  0.00    -0.007 A   
ATOM     9   C3  UNL     1      -3.437  -0.506   1.923  1.00  0.00     0.033 A   
ATOM     10  C4  UNL     1      -4.341   0.564   1.809  1.00  0.00     0.024 A   
ATOM     11  C5  UNL     1      -4.421   1.554   2.790  1.00  0.00     0.002 A   
ATOM     12  C7  UNL     1      -2.700   0.440   4.048  1.00  0.00     0.007 A   
ATOM     13  C6  UNL     1      -3.600   1.493   3.909  1.00  0.00     0.000 A   
BRANCH   9  14
ATOM     14  N1  UNL     1      -3.355  -1.533   0.950  1.00  0.00    -0.337 N   
ATOM     15  C1  UNL     1      -3.401  -1.059  -0.440  1.00  0.00     0.129 C   
ATOM     16  C2  UNL     1      -4.369  -2.568   1.228  1.00  0.00     0.129 C   
ENDBRANCH   9  14
ENDBRANCH   7   8
ENDBRANCH   1   7
BRANCH   3  17
ATOM     17  C12 UNL     1       2.257  -0.214   0.330  1.00  0.00     0.120 C   
BRANCH  17  18
ATOM     18  N3  UNL     1       2.766   1.184   0.628  1.00  0.00     0.250 N   
ATOM     19  H15 UNL     1       3.185   1.141   1.567  1.00  0.00     0.199 HD  
ATOM     20  H16 UNL     1       3.500   1.456  -0.027  1.00  0.00     0.199 HD  
BRANCH  18  21
ATOM     21  C13 UNL     1       1.736   2.270   0.674  1.00  0.00     0.164 C   
BRANCH  21  22
ATOM     22  C14 UNL     1       1.042   2.486  -0.642  1.00  0.00    -0.002 A   
ATOM     23  C15 UNL     1       1.731   3.074  -1.730  1.00  0.00     0.012 A   
ATOM     24  C19 UNL     1      -0.293   2.077  -0.808  1.00  0.00     0.045 A   
ATOM     25  C16 UNL     1       1.102   3.247  -2.968  1.00  0.00     0.037 A   
ATOM     26  C18 UNL     1      -0.882   2.260  -2.042  1.00  0.00     0.109 A   
ATOM     27  C17 UNL     1      -0.204   2.828  -3.091  1.00  0.00     0.108 A   
ATOM     28  O1  UNL     1      -2.154   1.913  -2.373  1.00  0.00    -0.316 OA  
ATOM     29  O2  UNL     1      -0.964   2.916  -4.213  1.00  0.00    -0.316 OA  
ATOM     30  C20 UNL     1      -2.214   2.369  -3.744  1.00  0.00     0.337 C   
ENDBRANCH  21  22
ENDBRANCH  18  21
ENDBRANCH  17  18
BRANCH  17  31
ATOM     31  C21 UNL     1       3.457  -1.189   0.061  1.00  0.00     0.010 C   
ATOM     32  C22 UNL     1       4.443  -1.274   1.244  1.00  0.00     0.017 C   
ATOM     33  C23 UNL     1       4.245  -0.738  -1.191  1.00  0.00     0.017 C   
ATOM     34  C24 UNL     1       2.926  -2.612  -0.230  1.00  0.00     0.017 C   
ENDBRANCH  17  31
ENDBRANCH   3  17
TORSDOF 8
