REMARK SMILES CC(C)(C)[C@H]([NH2+]Cc1ccc2c(c1)OCO2)c1cn(-c2ccc(CO)cc2F)nn1
REMARK SMILES IDX 17 1 18 2 19 3 29 4 30 5 5 6 2 7 1 8 3 9 4 10 6 11 7 14 8 15
REMARK SMILES IDX 9 16 13 17 10 18 12 19 11 20 14 21 16 22 15 23 20 24 21 25
REMARK SMILES IDX 27 26 22 27 26 28 23 29 28 30 24 31 25 32
REMARK H PARENT 6 12 6 13 25 33
ROOT
ATOM     1   C14 UNL     1       0.838  -0.224  -2.179  1.00  0.00     0.128 A   
ATOM     2   C15 UNL     1       0.051  -0.859  -1.245  1.00  0.00     0.135 A   
ATOM     3   N2  UNL     1       0.904  -1.712  -0.573  1.00  0.00    -0.178 N   
ATOM     4   N3  UNL     1       2.131  -1.645  -1.163  1.00  0.00    -0.071 NA  
ATOM     5   N4  UNL     1       2.103  -0.732  -2.119  1.00  0.00    -0.131 NA  
ENDROOT
BRANCH   1   6
ATOM     6   C5  UNL     1       0.552   0.952  -3.063  1.00  0.00     0.120 C   
BRANCH   6   7
ATOM     7   C2  UNL     1       0.272   0.580  -4.560  1.00  0.00     0.010 C   
ATOM     8   C1  UNL     1      -0.181   1.835  -5.344  1.00  0.00     0.017 C   
ATOM     9   C3  UNL     1      -0.886  -0.442  -4.643  1.00  0.00     0.017 C   
ATOM     10  C4  UNL     1       1.500  -0.021  -5.271  1.00  0.00     0.017 C   
ENDBRANCH   6   7
BRANCH   6  11
ATOM     11  N1  UNL     1       1.718   1.922  -2.958  1.00  0.00     0.250 N   
ATOM     12  H11 UNL     1       1.891   2.395  -3.848  1.00  0.00     0.199 HD  
ATOM     13  H12 UNL     1       2.553   1.340  -2.784  1.00  0.00     0.199 HD  
BRANCH  11  14
ATOM     14  C6  UNL     1       1.635   2.953  -1.876  1.00  0.00     0.164 C   
BRANCH  14  15
ATOM     15  C7  UNL     1       1.621   2.381  -0.486  1.00  0.00    -0.002 A   
ATOM     16  C8  UNL     1       2.797   1.817   0.068  1.00  0.00     0.012 A   
ATOM     17  C12 UNL     1       0.424   2.338   0.252  1.00  0.00     0.045 A   
ATOM     18  C9  UNL     1       2.778   1.193   1.320  1.00  0.00     0.037 A   
ATOM     19  C11 UNL     1       0.438   1.707   1.480  1.00  0.00     0.109 A   
ATOM     20  C10 UNL     1       1.579   1.146   1.996  1.00  0.00     0.108 A   
ATOM     21  O1  UNL     1      -0.638   1.538   2.294  1.00  0.00    -0.316 OA  
ATOM     22  O2  UNL     1       1.367   0.553   3.199  1.00  0.00    -0.316 OA  
ATOM     23  C13 UNL     1      -0.041   0.811   3.393  1.00  0.00     0.337 C   
ENDBRANCH  14  15
ENDBRANCH  11  14
ENDBRANCH   6  11
ENDBRANCH   1   6
BRANCH   3  24
ATOM     24  C16 UNL     1       0.675  -2.511   0.570  1.00  0.00     0.093 A   
ATOM     25  C17 UNL     1       1.740  -3.235   1.133  1.00  0.00     0.029 A   
ATOM     26  C22 UNL     1      -0.578  -2.574   1.181  1.00  0.00     0.147 A   
ATOM     27  C18 UNL     1       1.544  -3.998   2.289  1.00  0.00     0.008 A   
ATOM     28  C21 UNL     1      -0.774  -3.338   2.330  1.00  0.00     0.047 A   
ATOM     29  C19 UNL     1       0.284  -4.059   2.897  1.00  0.00    -0.020 A   
ATOM     30  F1  UNL     1      -1.634  -1.905   0.700  1.00  0.00    -0.205 F   
BRANCH  29  31
ATOM     31  C20 UNL     1       0.064  -4.859   4.151  1.00  0.00     0.191 C   
BRANCH  31  32
ATOM     32  O3  UNL     1      -0.254  -3.961   5.204  1.00  0.00    -0.392 OA  
ATOM     33  H25 UNL     1      -0.401  -4.501   6.000  1.00  0.00     0.211 HD  
ENDBRANCH  31  32
ENDBRANCH  29  31
ENDBRANCH   3  24
TORSDOF 8
