REMARK SMILES COc1cccc(C)c1Cn1cc([C@@H]([NH2+]Cc2ccc3c(c2)OCO3)C(C)C)nn1
REMARK SMILES IDX 11 1 12 2 13 3 29 4 30 5 10 7 9 8 3 9 4 10 5 11 7 12 6 13
REMARK SMILES IDX 8 14 2 15 1 16 14 17 15 18 16 21 17 22 18 23 22 24 19 25
REMARK SMILES IDX 21 26 20 27 23 28 25 29 24 30 26 31 27 32 28 33
REMARK H PARENT 12 6 15 19 15 20
ROOT
ATOM     1   N1  UNL     1      -0.338  -1.928   0.105  1.00  0.00    -0.208 N   
ATOM     2   C10 UNL     1      -0.597  -0.753   0.756  1.00  0.00     0.046 A   
ATOM     3   C11 UNL     1      -1.755  -0.297   0.171  1.00  0.00     0.127 A   
ATOM     4   N3  UNL     1      -2.189  -1.215  -0.749  1.00  0.00    -0.132 NA  
ATOM     5   N4  UNL     1      -1.323  -2.214  -0.772  1.00  0.00    -0.076 NA  
ATOM     6   H12 UNL     1       0.076  -0.344   1.497  1.00  0.00     0.083 HD  
ENDROOT
BRANCH   1   7
ATOM     7   C9  UNL     1       0.815  -2.803   0.250  1.00  0.00     0.172 C   
BRANCH   7   8
ATOM     8   C8  UNL     1       1.873  -2.492  -0.790  1.00  0.00     0.005 A   
ATOM     9   C2  UNL     1       2.753  -1.402  -0.585  1.00  0.00     0.080 A   
ATOM     10  C3  UNL     1       3.718  -1.089  -1.546  1.00  0.00     0.034 A   
ATOM     11  C4  UNL     1       3.827  -1.850  -2.707  1.00  0.00     0.003 A   
ATOM     12  C6  UNL     1       1.989  -3.261  -1.975  1.00  0.00    -0.044 A   
ATOM     13  C5  UNL     1       2.972  -2.927  -2.918  1.00  0.00     0.004 A   
ATOM     14  C7  UNL     1       1.100  -4.442  -2.261  1.00  0.00     0.045 C   
BRANCH   9  15
ATOM     15  O1  UNL     1       2.575  -0.696   0.579  1.00  0.00    -0.349 OA  
ATOM     16  C1  UNL     1       3.596   0.232   0.938  1.00  0.00     0.203 C   
ENDBRANCH   9  15
ENDBRANCH   7   8
ENDBRANCH   1   7
BRANCH   3  17
ATOM     17  C12 UNL     1      -2.472   1.004   0.316  1.00  0.00     0.117 C   
BRANCH  17  18
ATOM     18  N2  UNL     1      -2.969   1.484  -1.029  1.00  0.00     0.249 N   
ATOM     19  H14 UNL     1      -3.534   0.718  -1.419  1.00  0.00     0.199 HD  
ATOM     20  H15 UNL     1      -3.580   2.296  -0.918  1.00  0.00     0.199 HD  
BRANCH  18  21
ATOM     21  C13 UNL     1      -1.918   1.797  -2.049  1.00  0.00     0.164 C   
BRANCH  21  22
ATOM     22  C14 UNL     1      -1.004   2.917  -1.637  1.00  0.00    -0.002 A   
ATOM     23  C15 UNL     1      -1.467   4.255  -1.629  1.00  0.00     0.012 A   
ATOM     24  C19 UNL     1       0.311   2.636  -1.224  1.00  0.00     0.045 A   
ATOM     25  C16 UNL     1      -0.635   5.299  -1.212  1.00  0.00     0.037 A   
ATOM     26  C18 UNL     1       1.104   3.689  -0.817  1.00  0.00     0.109 A   
ATOM     27  C17 UNL     1       0.644   4.983  -0.811  1.00  0.00     0.108 A   
ATOM     28  O2  UNL     1       2.388   3.593  -0.381  1.00  0.00    -0.316 OA  
ATOM     29  O3  UNL     1       1.581   5.864  -0.375  1.00  0.00    -0.316 OA  
ATOM     30  C20 UNL     1       2.700   4.984  -0.140  1.00  0.00     0.337 C   
ENDBRANCH  21  22
ENDBRANCH  18  21
ENDBRANCH  17  18
BRANCH  17  31
ATOM     31  C21 UNL     1      -3.641   0.931   1.333  1.00  0.00     0.037 C   
ATOM     32  C22 UNL     1      -4.827   0.074   0.876  1.00  0.00     0.014 C   
ATOM     33  C23 UNL     1      -4.139   2.330   1.719  1.00  0.00     0.014 C   
ENDBRANCH  17  31
ENDBRANCH   3  17
TORSDOF 8
