REMARK SMILES CC(C)C[C@H]([NH2+]Cc1ccc2c(c1)OCO2)c1cn(Cc2c(F)cncc2F)nn1
REMARK SMILES IDX 17 1 18 2 19 3 29 4 30 5 5 7 4 8 2 9 1 10 3 11 6 12 7 15
REMARK SMILES IDX 8 16 9 17 13 18 10 19 12 20 11 21 14 22 16 23 15 24 20 25
REMARK SMILES IDX 21 26 22 27 27 28 24 29 26 30 25 31 23 32 28 33
REMARK H PARENT 18 6 6 13 6 14
ROOT
ATOM     1   C14 UNL     1       0.576   0.253   1.062  1.00  0.00     0.127 A   
ATOM     2   C15 UNL     1       0.552  -1.101   1.309  1.00  0.00     0.046 A   
ATOM     3   N2  UNL     1      -0.246  -1.220   2.414  1.00  0.00    -0.208 N   
ATOM     4   N4  UNL     1      -0.664  -0.012   2.837  1.00  0.00    -0.076 NA  
ATOM     5   N5  UNL     1      -0.166   0.899   2.018  1.00  0.00    -0.132 NA  
ATOM     6   H20 UNL     1       0.991  -1.957   0.814  1.00  0.00     0.083 HD  
ENDROOT
BRANCH   1   7
ATOM     7   C5  UNL     1       1.198   1.052  -0.037  1.00  0.00     0.114 C   
BRANCH   7   8
ATOM     8   C4  UNL     1       2.615   1.516   0.348  1.00  0.00     0.064 C   
BRANCH   8   9
ATOM     9   C2  UNL     1       3.417   2.210  -0.774  1.00  0.00    -0.012 C   
ATOM     10  C1  UNL     1       3.673   1.285  -1.966  1.00  0.00     0.007 C   
ATOM     11  C3  UNL     1       4.754   2.710  -0.216  1.00  0.00     0.007 C   
ENDBRANCH   8   9
ENDBRANCH   7   8
BRANCH   7  12
ATOM     12  N1  UNL     1       0.337   2.267  -0.311  1.00  0.00     0.249 N   
ATOM     13  H11 UNL     1       0.905   3.113  -0.406  1.00  0.00     0.199 HD  
ATOM     14  H12 UNL     1      -0.220   2.412   0.548  1.00  0.00     0.199 HD  
BRANCH  12  15
ATOM     15  C6  UNL     1      -0.602   2.165  -1.461  1.00  0.00     0.164 C   
BRANCH  15  16
ATOM     16  C7  UNL     1      -1.629   1.075  -1.323  1.00  0.00    -0.002 A   
ATOM     17  C8  UNL     1      -2.649   1.169  -0.344  1.00  0.00     0.012 A   
ATOM     18  C12 UNL     1      -1.578  -0.055  -2.157  1.00  0.00     0.045 A   
ATOM     19  C9  UNL     1      -3.601   0.154  -0.195  1.00  0.00     0.037 A   
ATOM     20  C11 UNL     1      -2.537  -1.033  -1.990  1.00  0.00     0.109 A   
ATOM     21  C10 UNL     1      -3.521  -0.931  -1.038  1.00  0.00     0.108 A   
ATOM     22  O1  UNL     1      -2.632  -2.179  -2.714  1.00  0.00    -0.316 OA  
ATOM     23  O2  UNL     1      -4.363  -1.996  -1.047  1.00  0.00    -0.316 OA  
ATOM     24  C13 UNL     1      -3.828  -2.763  -2.147  1.00  0.00     0.337 C   
ENDBRANCH  15  16
ENDBRANCH  12  15
ENDBRANCH   7  12
ENDBRANCH   1   7
BRANCH   3  25
ATOM     25  C16 UNL     1      -0.619  -2.427   3.133  1.00  0.00     0.175 C   
BRANCH  25  26
ATOM     26  C17 UNL     1      -1.569  -3.266   2.339  1.00  0.00     0.046 A   
ATOM     27  C18 UNL     1      -2.943  -3.045   2.381  1.00  0.00     0.149 A   
ATOM     28  C21 UNL     1      -1.109  -4.287   1.511  1.00  0.00     0.149 A   
ATOM     29  C19 UNL     1      -3.788  -3.843   1.623  1.00  0.00     0.150 A   
ATOM     30  C20 UNL     1      -2.014  -5.046   0.785  1.00  0.00     0.150 A   
ATOM     31  N3  UNL     1      -3.352  -4.843   0.818  1.00  0.00    -0.259 NA  
ATOM     32  F1  UNL     1      -3.448  -2.068   3.144  1.00  0.00    -0.205 F   
ATOM     33  F2  UNL     1       0.205  -4.527   1.405  1.00  0.00    -0.205 F   
ENDBRANCH  25  26
ENDBRANCH   3  25
TORSDOF 8
