REMARK SMILES CC(C)(C)[C@H]([NH2+]Cc1ccc2c(c1)OCO2)c1cn(-c2cc(N)ccn2)nn1
REMARK SMILES IDX 17 1 18 2 19 3 27 4 28 5 5 6 2 7 1 8 3 9 4 10 6 11 7 14 8 15
REMARK SMILES IDX 9 16 13 17 10 18 12 19 11 20 14 21 16 22 15 23 20 24 21 25
REMARK SMILES IDX 26 26 22 27 25 28 24 29 23 30
REMARK H PARENT 6 12 6 13 23 31 23 32
ROOT
ATOM     1   C14 UNL     1      -0.543   0.745  -0.424  1.00  0.00     0.128 A   
ATOM     2   C15 UNL     1      -1.014   0.939  -1.702  1.00  0.00     0.137 A   
ATOM     3   N2  UNL     1       0.105   1.243  -2.454  1.00  0.00    -0.162 N   
ATOM     4   N5  UNL     1       1.203   1.190  -1.656  1.00  0.00    -0.070 NA  
ATOM     5   N6  UNL     1       0.819   0.893  -0.424  1.00  0.00    -0.131 NA  
ENDROOT
BRANCH   1   6
ATOM     6   C5  UNL     1      -1.249   0.350   0.840  1.00  0.00     0.120 C   
BRANCH   6   7
ATOM     7   C2  UNL     1      -1.726   1.563   1.714  1.00  0.00     0.010 C   
ATOM     8   C1  UNL     1      -0.552   2.399   2.263  1.00  0.00     0.017 C   
ATOM     9   C3  UNL     1      -2.638   2.495   0.885  1.00  0.00     0.017 C   
ATOM     10  C4  UNL     1      -2.567   1.064   2.912  1.00  0.00     0.017 C   
ENDBRANCH   6   7
BRANCH   6  11
ATOM     11  N1  UNL     1      -0.338  -0.549   1.643  1.00  0.00     0.250 N   
ATOM     12  H11 UNL     1       0.595  -0.110   1.640  1.00  0.00     0.199 HD  
ATOM     13  H12 UNL     1      -0.617  -0.613   2.625  1.00  0.00     0.199 HD  
BRANCH  11  14
ATOM     14  C6  UNL     1      -0.174  -1.932   1.111  1.00  0.00     0.164 C   
BRANCH  14  15
ATOM     15  C7  UNL     1       0.812  -2.698   1.947  1.00  0.00    -0.002 A   
ATOM     16  C8  UNL     1       2.196  -2.618   1.662  1.00  0.00     0.012 A   
ATOM     17  C12 UNL     1       0.373  -3.450   3.050  1.00  0.00     0.045 A   
ATOM     18  C9  UNL     1       3.133  -3.287   2.458  1.00  0.00     0.037 A   
ATOM     19  C11 UNL     1       1.323  -4.096   3.813  1.00  0.00     0.109 A   
ATOM     20  C10 UNL     1       2.663  -4.018   3.526  1.00  0.00     0.108 A   
ATOM     21  O1  UNL     1       1.069  -4.860   4.908  1.00  0.00    -0.316 OA  
ATOM     22  O2  UNL     1       3.423  -4.726   4.402  1.00  0.00    -0.316 OA  
ATOM     23  C13 UNL     1       2.406  -5.279   5.265  1.00  0.00     0.337 C   
ENDBRANCH  14  15
ENDBRANCH  11  14
ENDBRANCH   6  11
ENDBRANCH   1   6
BRANCH   3  24
ATOM     24  C16 UNL     1       0.145   1.541  -3.840  1.00  0.00     0.147 A   
ATOM     25  C17 UNL     1       1.369   1.815  -4.447  1.00  0.00     0.069 A   
ATOM     26  N4  UNL     1      -1.036   1.528  -4.515  1.00  0.00    -0.239 NA  
ATOM     27  C18 UNL     1       1.389   2.122  -5.806  1.00  0.00     0.028 A   
ATOM     28  C20 UNL     1      -0.977   1.774  -5.841  1.00  0.00     0.115 A   
ATOM     29  C19 UNL     1       0.197   2.051  -6.522  1.00  0.00     0.043 A   
BRANCH  27  30
ATOM     30  N3  UNL     1       2.606   2.273  -6.477  1.00  0.00    -0.358 N   
ATOM     31  H22 UNL     1       2.546   2.761  -7.367  1.00  0.00     0.143 HD  
ATOM     32  H23 UNL     1       3.374   2.618  -5.908  1.00  0.00     0.143 HD  
ENDBRANCH  27  30
ENDBRANCH   3  24
TORSDOF 7
