REMARK SMILES CC(C)C[C@H]([NH2+]Cc1ccc2c(c1)OCO2)c1cn(CCc2ccc(Cl)cn2)nn1
REMARK SMILES IDX 17 1 18 2 19 3 29 4 30 5 5 7 4 8 2 9 1 10 3 11 6 12 7 15
REMARK SMILES IDX 8 16 9 17 13 18 10 19 12 20 11 21 14 22 16 23 15 24 20 25
REMARK SMILES IDX 21 26 22 27 23 28 28 29 24 30 27 31 25 32 26 33
REMARK H PARENT 18 6 6 13 6 14
ROOT
ATOM     1   C14 UNL     1      -0.369   0.644   0.436  1.00  0.00     0.127 A   
ATOM     2   C15 UNL     1      -1.163   0.070   1.402  1.00  0.00     0.045 A   
ATOM     3   N2  UNL     1      -0.576   0.447   2.576  1.00  0.00    -0.212 N   
ATOM     4   N4  UNL     1       0.458   1.281   2.353  1.00  0.00    -0.076 NA  
ATOM     5   N5  UNL     1       0.607   1.395   1.044  1.00  0.00    -0.132 NA  
ATOM     6   H20 UNL     1      -2.008  -0.604   1.371  1.00  0.00     0.083 HD  
ENDROOT
BRANCH   1   7
ATOM     7   C5  UNL     1      -0.400   0.537  -1.050  1.00  0.00     0.114 C   
BRANCH   7   8
ATOM     8   C4  UNL     1      -0.062  -0.880  -1.560  1.00  0.00     0.064 C   
BRANCH   8   9
ATOM     9   C2  UNL     1       1.209  -1.576  -1.018  1.00  0.00    -0.012 C   
ATOM     10  C1  UNL     1       1.210  -3.042  -1.470  1.00  0.00     0.007 C   
ATOM     11  C3  UNL     1       2.511  -0.915  -1.465  1.00  0.00     0.007 C   
ENDBRANCH   8   9
ENDBRANCH   7   8
BRANCH   7  12
ATOM     12  N1  UNL     1       0.519   1.548  -1.684  1.00  0.00     0.249 N   
ATOM     13  H11 UNL     1       1.331   1.622  -1.056  1.00  0.00     0.199 HD  
ATOM     14  H12 UNL     1       0.859   1.219  -2.592  1.00  0.00     0.199 HD  
BRANCH  12  15
ATOM     15  C6  UNL     1      -0.030   2.928  -1.824  1.00  0.00     0.164 C   
BRANCH  15  16
ATOM     16  C7  UNL     1      -1.006   3.046  -2.962  1.00  0.00    -0.002 A   
ATOM     17  C8  UNL     1      -0.545   3.057  -4.302  1.00  0.00     0.012 A   
ATOM     18  C12 UNL     1      -2.385   3.121  -2.707  1.00  0.00     0.045 A   
ATOM     19  C9  UNL     1      -1.444   3.137  -5.371  1.00  0.00     0.037 A   
ATOM     20  C11 UNL     1      -3.244   3.196  -3.783  1.00  0.00     0.109 A   
ATOM     21  C10 UNL     1      -2.788   3.203  -5.078  1.00  0.00     0.108 A   
ATOM     22  O1  UNL     1      -4.599   3.269  -3.710  1.00  0.00    -0.316 OA  
ATOM     23  O2  UNL     1      -3.797   3.287  -5.983  1.00  0.00    -0.316 OA  
ATOM     24  C13 UNL     1      -4.946   3.355  -5.111  1.00  0.00     0.337 C   
ENDBRANCH  15  16
ENDBRANCH  12  15
ENDBRANCH   7  12
ENDBRANCH   1   7
BRANCH   3  25
ATOM     25  C16 UNL     1      -0.904   0.015   3.919  1.00  0.00     0.140 C   
BRANCH  25  26
ATOM     26  C17 UNL     1       0.163  -0.899   4.524  1.00  0.00     0.077 C   
BRANCH  26  27
ATOM     27  C18 UNL     1       0.384  -2.178   3.751  1.00  0.00     0.042 A   
ATOM     28  C19 UNL     1       1.627  -2.811   3.797  1.00  0.00     0.025 A   
ATOM     29  N3  UNL     1      -0.666  -2.694   3.064  1.00  0.00    -0.260 NA  
ATOM     30  C20 UNL     1       1.809  -4.002   3.096  1.00  0.00     0.024 A   
ATOM     31  C22 UNL     1      -0.462  -3.863   2.403  1.00  0.00     0.131 A   
ATOM     32  C21 UNL     1       0.746  -4.539   2.383  1.00  0.00     0.059 A   
ATOM     33  CL1 UNL     1       0.929  -5.992   1.493  1.00  0.00    -0.083 Cl  
ENDBRANCH  26  27
ENDBRANCH  25  26
ENDBRANCH   3  25
TORSDOF 9
