REMARK SMILES CN(C)c1ccccc1CCn1cc([C@@H]([NH2+]Cc2ccc3c(c2)OCO3)C2CCCC2)nn1
REMARK SMILES IDX 12 1 13 2 14 3 32 4 33 5 11 7 10 8 9 9 4 10 5 11 6 12 8 13
REMARK SMILES IDX 7 14 2 15 1 16 3 17 15 18 16 19 17 22 18 23 19 24 23 25
REMARK SMILES IDX 20 26 22 27 21 28 24 29 26 30 25 31 27 32 28 33 31 34 29 35
REMARK SMILES IDX 30 36
REMARK H PARENT 13 6 16 20 16 21
ROOT
ATOM     1   N2  UNL     1      -2.634  -1.220  -0.571  1.00  0.00    -0.212 N   
ATOM     2   C11 UNL     1      -1.735  -0.228  -0.837  1.00  0.00     0.045 A   
ATOM     3   C12 UNL     1      -0.971  -0.741  -1.860  1.00  0.00     0.127 A   
ATOM     4   N4  UNL     1      -1.428  -1.993  -2.184  1.00  0.00    -0.132 NA  
ATOM     5   N5  UNL     1      -2.447  -2.275  -1.388  1.00  0.00    -0.076 NA  
ATOM     6   H15 UNL     1      -1.704   0.691  -0.268  1.00  0.00     0.083 HD  
ENDROOT
BRANCH   1   7
ATOM     7   C10 UNL     1      -3.652  -1.246   0.458  1.00  0.00     0.139 C   
BRANCH   7   8
ATOM     8   C9  UNL     1      -3.295  -2.167   1.625  1.00  0.00     0.059 C   
BRANCH   8   9
ATOM     9   C8  UNL     1      -1.986  -1.842   2.324  1.00  0.00    -0.025 A   
ATOM     10  C3  UNL     1      -1.783  -0.624   3.013  1.00  0.00     0.031 A   
ATOM     11  C4  UNL     1      -0.543  -0.410   3.641  1.00  0.00     0.024 A   
ATOM     12  C5  UNL     1       0.471  -1.369   3.594  1.00  0.00     0.002 A   
ATOM     13  C7  UNL     1      -0.951  -2.797   2.280  1.00  0.00     0.006 A   
ATOM     14  C6  UNL     1       0.268  -2.563   2.912  1.00  0.00     0.000 A   
BRANCH  10  15
ATOM     15  N1  UNL     1      -2.835   0.319   3.088  1.00  0.00    -0.337 N   
ATOM     16  C1  UNL     1      -3.635   0.089   4.305  1.00  0.00     0.129 C   
ATOM     17  C2  UNL     1      -2.425   1.721   2.940  1.00  0.00     0.129 C   
ENDBRANCH  10  15
ENDBRANCH   8   9
ENDBRANCH   7   8
ENDBRANCH   1   7
BRANCH   3  18
ATOM     18  C13 UNL     1       0.256  -0.211  -2.524  1.00  0.00     0.117 C   
BRANCH  18  19
ATOM     19  N3  UNL     1       1.302  -1.312  -2.543  1.00  0.00     0.249 N   
ATOM     20  H17 UNL     1       2.088  -1.063  -3.147  1.00  0.00     0.199 HD  
ATOM     21  H18 UNL     1       0.840  -2.131  -2.964  1.00  0.00     0.199 HD  
BRANCH  19  22
ATOM     22  C14 UNL     1       1.832  -1.737  -1.212  1.00  0.00     0.164 C   
BRANCH  22  23
ATOM     23  C15 UNL     1       2.608  -0.653  -0.519  1.00  0.00    -0.002 A   
ATOM     24  C16 UNL     1       3.915  -0.317  -0.946  1.00  0.00     0.012 A   
ATOM     25  C20 UNL     1       2.021   0.065   0.538  1.00  0.00     0.045 A   
ATOM     26  C17 UNL     1       4.628   0.716  -0.327  1.00  0.00     0.037 A   
ATOM     27  C19 UNL     1       2.751   1.075   1.128  1.00  0.00     0.109 A   
ATOM     28  C18 UNL     1       4.018   1.393   0.707  1.00  0.00     0.108 A   
ATOM     29  O1  UNL     1       2.331   1.861   2.154  1.00  0.00    -0.316 OA  
ATOM     30  O2  UNL     1       4.558   2.417   1.416  1.00  0.00    -0.316 OA  
ATOM     31  C21 UNL     1       3.498   2.692   2.356  1.00  0.00     0.337 C   
ENDBRANCH  22  23
ENDBRANCH  19  22
ENDBRANCH  18  19
BRANCH  18  32
ATOM     32  C22 UNL     1      -0.004   0.244  -3.985  1.00  0.00     0.043 C   
ATOM     33  C23 UNL     1       1.200   0.945  -4.634  1.00  0.00     0.010 C   
ATOM     34  C26 UNL     1      -1.059   1.357  -4.095  1.00  0.00     0.010 C   
ATOM     35  C24 UNL     1       1.150   2.381  -4.116  1.00  0.00     0.001 C   
ATOM     36  C25 UNL     1      -0.312   2.644  -3.760  1.00  0.00     0.001 C   
ENDBRANCH  18  32
ENDBRANCH   3  18
TORSDOF 9
