REMARK SMILES Cc1cc(N([O-])[O-])ccc1-n1cc([C@H](CC(C)C)[NH2+]Cc2ccc3c(c2)OCO3)nn1
REMARK SMILES IDX 11 1 12 2 13 3 30 4 31 5 10 6 2 7 3 8 4 9 9 10 8 11 1 12
REMARK SMILES IDX 5 13 6 14 7 15 14 16 15 17 16 18 17 19 18 20 19 21 20 24
REMARK SMILES IDX 21 25 22 26 26 27 23 28 25 29 24 30 27 31 29 32 28 33
REMARK H PARENT 19 22 19 23
ROOT
ATOM     1   N2  UNL     1      -1.560  -2.211  -0.056  1.00  0.00    -0.180 N   
ATOM     2   C8  UNL     1      -0.822  -1.895  -1.189  1.00  0.00     0.135 A   
ATOM     3   C9  UNL     1       0.311  -1.264  -0.725  1.00  0.00     0.127 A   
ATOM     4   N4  UNL     1       0.249  -1.187   0.634  1.00  0.00    -0.131 NA  
ATOM     5   N5  UNL     1      -0.885  -1.743   1.022  1.00  0.00    -0.071 NA  
ENDROOT
BRANCH   1   6
ATOM     6   C7  UNL     1      -2.817  -2.889   0.034  1.00  0.00     0.061 A   
ATOM     7   C2  UNL     1      -3.466  -3.143   1.271  1.00  0.00    -0.025 A   
ATOM     8   C3  UNL     1      -4.708  -3.819   1.267  1.00  0.00     0.036 A   
ATOM     9   C4  UNL     1      -5.297  -4.238   0.069  1.00  0.00     0.118 A   
ATOM     10  C6  UNL     1      -3.431  -3.324  -1.161  1.00  0.00     0.028 A   
ATOM     11  C5  UNL     1      -4.660  -3.992  -1.147  1.00  0.00     0.033 A   
ATOM     12  C1  UNL     1      -2.929  -2.744   2.624  1.00  0.00     0.046 C   
BRANCH   9  13
ATOM     13  N1  UNL     1      -6.588  -4.939   0.090  1.00  0.00     0.092 N   
ATOM     14  O1  UNL     1      -7.105  -5.158   1.194  1.00  0.00    -0.138 OA  
ATOM     15  O2  UNL     1      -7.079  -5.265  -0.999  1.00  0.00    -0.138 OA  
ENDBRANCH   9  13
ENDBRANCH   1   6
BRANCH   3  16
ATOM     16  C10 UNL     1       1.490  -0.686  -1.446  1.00  0.00     0.114 C   
BRANCH  16  17
ATOM     17  C11 UNL     1       2.521  -1.787  -1.768  1.00  0.00     0.064 C   
BRANCH  17  18
ATOM     18  C12 UNL     1       3.768  -1.354  -2.570  1.00  0.00    -0.012 C   
ATOM     19  C13 UNL     1       3.411  -0.669  -3.889  1.00  0.00     0.007 C   
ATOM     20  C14 UNL     1       4.650  -2.576  -2.844  1.00  0.00     0.007 C   
ENDBRANCH  17  18
ENDBRANCH  16  17
BRANCH  16  21
ATOM     21  N3  UNL     1       2.146   0.378  -0.609  1.00  0.00     0.249 N   
ATOM     22  H18 UNL     1       2.225   0.003   0.348  1.00  0.00     0.199 HD  
ATOM     23  H19 UNL     1       3.102   0.579  -0.915  1.00  0.00     0.199 HD  
BRANCH  21  24
ATOM     24  C15 UNL     1       1.403   1.667  -0.518  1.00  0.00     0.164 C   
BRANCH  24  25
ATOM     25  C16 UNL     1       2.114   2.615   0.405  1.00  0.00    -0.002 A   
ATOM     26  C17 UNL     1       1.833   2.598   1.793  1.00  0.00     0.012 A   
ATOM     27  C21 UNL     1       3.101   3.481  -0.092  1.00  0.00     0.045 A   
ATOM     28  C18 UNL     1       2.517   3.442   2.674  1.00  0.00     0.037 A   
ATOM     29  C20 UNL     1       3.758   4.299   0.804  1.00  0.00     0.109 A   
ATOM     30  C19 UNL     1       3.474   4.282   2.147  1.00  0.00     0.108 A   
ATOM     31  O3  UNL     1       4.735   5.189   0.491  1.00  0.00    -0.316 OA  
ATOM     32  O4  UNL     1       4.234   5.162   2.849  1.00  0.00    -0.316 OA  
ATOM     33  C22 UNL     1       5.019   5.754   1.792  1.00  0.00     0.337 C   
ENDBRANCH  24  25
ENDBRANCH  21  24
ENDBRANCH  16  21
ENDBRANCH   3  16
TORSDOF 8
