REMARK SMILES CC(C)C[C@H]([NH2+]Cc1ccc2c(c1)OCO2)c1cn(C[C@H]2NCCc3sccc32)nn1
REMARK SMILES IDX 17 1 18 2 19 3 30 4 31 5 5 7 4 8 2 9 1 10 3 11 6 12 7 15
REMARK SMILES IDX 8 16 9 17 13 18 10 19 12 20 11 21 14 22 16 23 15 24 20 25
REMARK SMILES IDX 21 26 22 27 29 28 23 29 25 30 28 31 24 32 26 33 27 34
REMARK H PARENT 18 6 6 13 6 14 22 35
ROOT
ATOM     1   C14 UNL     1       1.542   1.369  -0.924  1.00  0.00     0.127 A   
ATOM     2   C15 UNL     1       0.987   1.534   0.325  1.00  0.00     0.045 A   
ATOM     3   N2  UNL     1       0.467   2.796   0.287  1.00  0.00    -0.210 N   
ATOM     4   N4  UNL     1       0.712   3.385  -0.898  1.00  0.00    -0.076 NA  
ATOM     5   N5  UNL     1       1.373   2.519  -1.650  1.00  0.00    -0.132 NA  
ATOM     6   H20 UNL     1       0.875   0.886   1.183  1.00  0.00     0.083 HD  
ENDROOT
BRANCH   1   7
ATOM     7   C5  UNL     1       2.158   0.174  -1.565  1.00  0.00     0.114 C   
BRANCH   7   8
ATOM     8   C4  UNL     1       3.691   0.284  -1.679  1.00  0.00     0.064 C   
BRANCH   8   9
ATOM     9   C2  UNL     1       4.444   0.360  -0.332  1.00  0.00    -0.012 C   
ATOM     10  C1  UNL     1       4.217  -0.879   0.534  1.00  0.00     0.007 C   
ATOM     11  C3  UNL     1       5.942   0.541  -0.590  1.00  0.00     0.007 C   
ENDBRANCH   8   9
ENDBRANCH   7   8
BRANCH   7  12
ATOM     12  N1  UNL     1       1.626   0.001  -2.976  1.00  0.00     0.249 N   
ATOM     13  H11 UNL     1       2.125  -0.761  -3.443  1.00  0.00     0.199 HD  
ATOM     14  H12 UNL     1       1.849   0.871  -3.479  1.00  0.00     0.199 HD  
BRANCH  12  15
ATOM     15  C6  UNL     1       0.152  -0.216  -3.111  1.00  0.00     0.164 C   
BRANCH  15  16
ATOM     16  C7  UNL     1      -0.344  -1.431  -2.378  1.00  0.00    -0.002 A   
ATOM     17  C8  UNL     1      -1.141  -1.283  -1.216  1.00  0.00     0.012 A   
ATOM     18  C12 UNL     1       0.002  -2.720  -2.820  1.00  0.00     0.045 A   
ATOM     19  C9  UNL     1      -1.581  -2.400  -0.498  1.00  0.00     0.037 A   
ATOM     20  C11 UNL     1      -0.449  -3.799  -2.088  1.00  0.00     0.109 A   
ATOM     21  C10 UNL     1      -1.216  -3.645  -0.960  1.00  0.00     0.108 A   
ATOM     22  O1  UNL     1      -0.199  -5.104  -2.372  1.00  0.00    -0.316 OA  
ATOM     23  O2  UNL     1      -1.548  -4.833  -0.392  1.00  0.00    -0.316 OA  
ATOM     24  C13 UNL     1      -0.928  -5.761  -1.308  1.00  0.00     0.337 C   
ENDBRANCH  15  16
ENDBRANCH  12  15
ENDBRANCH   7  12
ENDBRANCH   1   7
BRANCH   3  25
ATOM     25  C16 UNL     1      -0.296   3.480   1.308  1.00  0.00     0.157 C   
BRANCH  25  26
ATOM     26  C17 UNL     1      -1.813   3.387   1.057  1.00  0.00     0.104 C   
ATOM     27  N3  UNL     1      -2.336   1.985   1.052  1.00  0.00    -0.308 NA  
ATOM     28  C23 UNL     1      -2.592   4.207   2.058  1.00  0.00    -0.019 A   
ATOM     29  C18 UNL     1      -2.451   1.421   2.418  1.00  0.00     0.087 C   
ATOM     30  C20 UNL     1      -3.313   3.642   3.093  1.00  0.00    -0.005 A   
ATOM     31  C22 UNL     1      -2.693   5.635   2.092  1.00  0.00     0.013 A   
ATOM     32  C19 UNL     1      -3.462   2.171   3.307  1.00  0.00     0.058 C   
ATOM     33  S1  UNL     1      -4.071   4.789   4.089  1.00  0.00    -0.102 S   
ATOM     34  C21 UNL     1      -3.463   6.080   3.146  1.00  0.00     0.046 A   
ATOM     35  H24 UNL     1      -3.286   2.037   0.670  1.00  0.00     0.123 HD  
ENDBRANCH  25  26
ENDBRANCH   3  25
TORSDOF 8
