REMARK SMILES CC(C)C[C@H]([NH2+]Cc1ccc2c(c1)OCO2)c1cn(C[C@@H]2NCCc3sccc32)nn1
REMARK SMILES IDX 17 1 18 2 19 3 30 4 31 5 5 7 4 8 2 9 1 10 3 11 6 12 7 15
REMARK SMILES IDX 8 16 9 17 13 18 10 19 12 20 11 21 14 22 16 23 15 24 20 25
REMARK SMILES IDX 21 26 22 27 29 28 23 29 25 30 28 31 24 32 26 33 27 34
REMARK H PARENT 18 6 6 13 6 14 22 35
ROOT
ATOM     1   C14 UNL     1      -0.225  -1.764  -0.744  1.00  0.00     0.127 A   
ATOM     2   C15 UNL     1      -1.361  -1.281  -0.134  1.00  0.00     0.045 A   
ATOM     3   N2  UNL     1      -1.286  -1.772   1.141  1.00  0.00    -0.210 N   
ATOM     4   N4  UNL     1      -0.168  -2.503   1.308  1.00  0.00    -0.076 NA  
ATOM     5   N5  UNL     1       0.502  -2.486   0.167  1.00  0.00    -0.132 NA  
ATOM     6   H20 UNL     1      -2.189  -0.674  -0.474  1.00  0.00     0.083 HD  
ENDROOT
BRANCH   1   7
ATOM     7   C5  UNL     1       0.294  -1.608  -2.140  1.00  0.00     0.114 C   
BRANCH   7   8
ATOM     8   C4  UNL     1      -0.287  -2.704  -3.057  1.00  0.00     0.064 C   
BRANCH   8   9
ATOM     9   C2  UNL     1       0.083  -2.608  -4.549  1.00  0.00    -0.012 C   
ATOM     10  C1  UNL     1      -0.468  -1.340  -5.200  1.00  0.00     0.007 C   
ATOM     11  C3  UNL     1      -0.452  -3.837  -5.292  1.00  0.00     0.007 C   
ENDBRANCH   8   9
ENDBRANCH   7   8
BRANCH   7  12
ATOM     12  N1  UNL     1       1.803  -1.718  -2.111  1.00  0.00     0.249 N   
ATOM     13  H11 UNL     1       2.087  -2.654  -2.419  1.00  0.00     0.199 HD  
ATOM     14  H12 UNL     1       2.067  -1.703  -1.113  1.00  0.00     0.199 HD  
BRANCH  12  15
ATOM     15  C6  UNL     1       2.590  -0.675  -2.818  1.00  0.00     0.164 C   
BRANCH  15  16
ATOM     16  C7  UNL     1       2.371   0.719  -2.298  1.00  0.00    -0.002 A   
ATOM     17  C8  UNL     1       1.817   1.711  -3.144  1.00  0.00     0.012 A   
ATOM     18  C12 UNL     1       2.716   1.057  -0.977  1.00  0.00     0.045 A   
ATOM     19  C9  UNL     1       1.600   3.014  -2.685  1.00  0.00     0.037 A   
ATOM     20  C11 UNL     1       2.491   2.352  -0.557  1.00  0.00     0.109 A   
ATOM     21  C10 UNL     1       1.948   3.302  -1.385  1.00  0.00     0.108 A   
ATOM     22  O1  UNL     1       2.771   2.843   0.679  1.00  0.00    -0.316 OA  
ATOM     23  O2  UNL     1       1.816   4.509  -0.777  1.00  0.00    -0.316 OA  
ATOM     24  C13 UNL     1       2.367   4.224   0.524  1.00  0.00     0.337 C   
ENDBRANCH  15  16
ENDBRANCH  12  15
ENDBRANCH   7  12
ENDBRANCH   1   7
BRANCH   3  25
ATOM     25  C16 UNL     1      -2.274  -1.653   2.196  1.00  0.00     0.157 C   
BRANCH  25  26
ATOM     26  C17 UNL     1      -1.706  -1.224   3.563  1.00  0.00     0.104 C   
ATOM     27  N3  UNL     1      -2.752  -1.299   4.620  1.00  0.00    -0.308 NA  
ATOM     28  C23 UNL     1      -1.117   0.168   3.558  1.00  0.00    -0.019 A   
ATOM     29  C18 UNL     1      -3.736  -0.198   4.543  1.00  0.00     0.087 C   
ATOM     30  C20 UNL     1      -1.787   1.266   4.064  1.00  0.00    -0.005 A   
ATOM     31  C22 UNL     1       0.184   0.541   3.092  1.00  0.00     0.013 A   
ATOM     32  C19 UNL     1      -3.119   1.201   4.741  1.00  0.00     0.058 C   
ATOM     33  S1  UNL     1      -0.911   2.713   3.917  1.00  0.00    -0.102 S   
ATOM     34  C21 UNL     1       0.423   1.890   3.234  1.00  0.00     0.046 A   
ATOM     35  H24 UNL     1      -2.278  -1.232   5.524  1.00  0.00     0.123 HD  
ENDBRANCH  25  26
ENDBRANCH   3  25
TORSDOF 8
