REMARK SMILES NS(=O)(=O)c1cccc(-n2cc([C@@H]([NH2+]Cc3ccc4c(c3)OCO4)C3CCCCC3)nn2)c1
REMARK SMILES IDX 10 1 11 2 12 3 31 4 32 5 9 6 5 7 6 8 33 9 7 10 8 11 2 12
REMARK SMILES IDX 3 13 4 14 1 15 13 18 14 19 15 22 16 23 17 24 21 25 18 26
REMARK SMILES IDX 20 27 19 28 22 29 24 30 23 31 25 32 26 33 30 34 27 35 29 36
REMARK SMILES IDX 28 37
REMARK H PARENT 1 16 1 17 14 20 14 21
ROOT
ATOM     1   N2  UNL     1       1.465  -0.100   1.757  1.00  0.00    -0.180 N   
ATOM     2   C6  UNL     1       0.384  -0.017   0.902  1.00  0.00     0.135 A   
ATOM     3   C7  UNL     1       0.439  -1.167   0.146  1.00  0.00     0.127 A   
ATOM     4   N4  UNL     1       1.529  -1.897   0.520  1.00  0.00    -0.131 NA  
ATOM     5   N5  UNL     1       2.139  -1.249   1.496  1.00  0.00    -0.071 NA  
ENDROOT
BRANCH   1   6
ATOM     6   C5  UNL     1       1.918   0.826   2.729  1.00  0.00     0.070 A   
ATOM     7   C1  UNL     1       1.798   2.977   3.839  1.00  0.00     0.340 A   
ATOM     8   C2  UNL     1       2.916   2.658   4.612  1.00  0.00     0.138 A   
ATOM     9   C23 UNL     1       1.294   2.073   2.891  1.00  0.00     0.163 A   
ATOM     10  C3  UNL     1       3.521   1.406   4.465  1.00  0.00     0.015 A   
ATOM     11  C4  UNL     1       3.027   0.493   3.528  1.00  0.00     0.027 A   
BRANCH   7  12
ATOM     12  S1  UNL     1       1.081   4.593   3.969  1.00  0.00    -0.114 S   
ATOM     13  O1  UNL     1       0.485   4.937   2.698  1.00  0.00    -0.479 OA  
ATOM     14  O2  UNL     1       2.002   5.465   4.661  1.00  0.00    -0.479 OA  
BRANCH  12  15
ATOM     15  N1  UNL     1      -0.206   4.335   5.022  1.00  0.00    -0.094 NA  
ATOM     16  H1  UNL     1      -1.080   4.590   4.558  1.00  0.00     0.263 HD  
ATOM     17  H2  UNL     1      -0.051   4.866   5.882  1.00  0.00     0.263 HD  
ENDBRANCH  12  15
ENDBRANCH   7  12
ENDBRANCH   1   6
BRANCH   3  18
ATOM     18  C8  UNL     1      -0.392  -1.640  -1.007  1.00  0.00     0.117 C   
BRANCH  18  19
ATOM     19  N3  UNL     1       0.521  -1.723  -2.216  1.00  0.00     0.249 N   
ATOM     20  H8  UNL     1       1.466  -1.461  -1.897  1.00  0.00     0.199 HD  
ATOM     21  H9  UNL     1       0.628  -2.697  -2.515  1.00  0.00     0.199 HD  
BRANCH  19  22
ATOM     22  C9  UNL     1       0.172  -0.864  -3.378  1.00  0.00     0.164 C   
BRANCH  22  23
ATOM     23  C10 UNL     1       0.191   0.605  -3.049  1.00  0.00    -0.002 A   
ATOM     24  C11 UNL     1       1.414   1.273  -2.796  1.00  0.00     0.012 A   
ATOM     25  C15 UNL     1      -1.019   1.321  -2.950  1.00  0.00     0.045 A   
ATOM     26  C12 UNL     1       1.428   2.626  -2.436  1.00  0.00     0.037 A   
ATOM     27  C14 UNL     1      -0.968   2.653  -2.592  1.00  0.00     0.109 A   
ATOM     28  C13 UNL     1       0.220   3.285  -2.333  1.00  0.00     0.108 A   
ATOM     29  O3  UNL     1      -2.033   3.482  -2.472  1.00  0.00    -0.316 OA  
ATOM     30  O4  UNL     1       0.052   4.594  -2.006  1.00  0.00    -0.316 OA  
ATOM     31  C16 UNL     1      -1.382   4.718  -2.085  1.00  0.00     0.337 C   
ENDBRANCH  22  23
ENDBRANCH  19  22
ENDBRANCH  18  19
BRANCH  18  32
ATOM     32  C17 UNL     1      -1.061  -3.021  -0.753  1.00  0.00     0.043 C   
ATOM     33  C18 UNL     1      -1.954  -2.980   0.507  1.00  0.00     0.010 C   
ATOM     34  C22 UNL     1      -1.904  -3.485  -1.962  1.00  0.00     0.010 C   
ATOM     35  C19 UNL     1      -2.644  -4.316   0.766  1.00  0.00     0.001 C   
ATOM     36  C21 UNL     1      -2.620  -4.808  -1.699  1.00  0.00     0.001 C   
ATOM     37  C20 UNL     1      -3.467  -4.759  -0.432  1.00  0.00     0.000 C   
ENDBRANCH  18  32
ENDBRANCH   3  18
TORSDOF 8
