REMARK SMILES Oc1ccc(CCn2cc([C@@H]([NH2+]Cc3ccc4c(c3)OCO4)C3CCCC3)nn2)cc1F
REMARK SMILES IDX 8 1 9 2 10 3 28 4 29 5 7 7 6 8 5 9 2 10 3 11 31 12 4 13
REMARK SMILES IDX 30 14 32 15 1 16 11 18 12 19 13 22 14 23 15 24 19 25 16 26
REMARK SMILES IDX 18 27 17 28 20 29 22 30 21 31 23 32 24 33 27 34 25 35 26 36
REMARK H PARENT 9 6 1 17 12 20 12 21
ROOT
ATOM     1   N1  UNL     1      -2.163  -1.569  -2.365  1.00  0.00    -0.212 N   
ATOM     2   C7  UNL     1      -0.922  -1.026  -2.179  1.00  0.00     0.045 A   
ATOM     3   C8  UNL     1      -0.225  -2.014  -1.522  1.00  0.00     0.127 A   
ATOM     4   N3  UNL     1      -1.036  -3.107  -1.357  1.00  0.00    -0.132 NA  
ATOM     5   N4  UNL     1      -2.217  -2.825  -1.885  1.00  0.00    -0.076 NA  
ATOM     6   H8  UNL     1      -0.677  -0.018  -2.479  1.00  0.00     0.083 HD  
ENDROOT
BRANCH   1   7
ATOM     7   C6  UNL     1      -3.350  -0.915  -2.876  1.00  0.00     0.139 C   
BRANCH   7   8
ATOM     8   C5  UNL     1      -4.436  -0.713  -1.812  1.00  0.00     0.057 C   
BRANCH   8   9
ATOM     9   C4  UNL     1      -3.936  -0.011  -0.568  1.00  0.00    -0.043 A   
ATOM     10  C1  UNL     1      -2.890   1.210   1.721  1.00  0.00     0.107 A   
ATOM     11  C2  UNL     1      -3.302  -0.114   1.783  1.00  0.00     0.036 A   
ATOM     12  C24 UNL     1      -3.021   1.931   0.539  1.00  0.00     0.153 A   
ATOM     13  C3  UNL     1      -3.821  -0.724   0.639  1.00  0.00     0.006 A   
ATOM     14  C23 UNL     1      -3.543   1.334  -0.605  1.00  0.00     0.045 A   
ATOM     15  F1  UNL     1      -2.605   3.204   0.493  1.00  0.00    -0.204 F   
BRANCH  10  16
ATOM     16  O1  UNL     1      -2.340   1.771   2.836  1.00  0.00    -0.358 OA  
ATOM     17  H1  UNL     1      -2.208   2.722   2.649  1.00  0.00     0.218 HD  
ENDBRANCH  10  16
ENDBRANCH   8   9
ENDBRANCH   7   8
ENDBRANCH   1   7
BRANCH   3  18
ATOM     18  C9  UNL     1       1.146  -2.017  -0.929  1.00  0.00     0.117 C   
BRANCH  18  19
ATOM     19  N2  UNL     1       1.083  -2.599   0.467  1.00  0.00     0.249 N   
ATOM     20  H10 UNL     1       0.568  -3.487   0.382  1.00  0.00     0.199 HD  
ATOM     21  H11 UNL     1       2.021  -2.821   0.812  1.00  0.00     0.199 HD  
BRANCH  19  22
ATOM     22  C10 UNL     1       0.383  -1.769   1.494  1.00  0.00     0.164 C   
BRANCH  22  23
ATOM     23  C11 UNL     1       1.181  -0.558   1.893  1.00  0.00    -0.002 A   
ATOM     24  C12 UNL     1       2.272  -0.683   2.788  1.00  0.00     0.012 A   
ATOM     25  C16 UNL     1       0.874   0.702   1.349  1.00  0.00     0.045 A   
ATOM     26  C13 UNL     1       3.046   0.428   3.137  1.00  0.00     0.037 A   
ATOM     27  C15 UNL     1       1.659   1.777   1.711  1.00  0.00     0.109 A   
ATOM     28  C14 UNL     1       2.715   1.645   2.580  1.00  0.00     0.108 A   
ATOM     29  O2  UNL     1       1.504   3.053   1.269  1.00  0.00    -0.316 OA  
ATOM     30  O3  UNL     1       3.356   2.821   2.798  1.00  0.00    -0.316 OA  
ATOM     31  C17 UNL     1       2.571   3.719   1.983  1.00  0.00     0.337 C   
ENDBRANCH  22  23
ENDBRANCH  19  22
ENDBRANCH  18  19
BRANCH  18  32
ATOM     32  C18 UNL     1       2.139  -2.848  -1.764  1.00  0.00     0.043 C   
ATOM     33  C19 UNL     1       3.575  -2.830  -1.229  1.00  0.00     0.010 C   
ATOM     34  C22 UNL     1       2.334  -2.304  -3.185  1.00  0.00     0.010 C   
ATOM     35  C20 UNL     1       4.443  -3.242  -2.413  1.00  0.00     0.001 C   
ATOM     36  C21 UNL     1       3.615  -2.973  -3.667  1.00  0.00     0.001 C   
ENDBRANCH  18  32
ENDBRANCH   3  18
TORSDOF 9
