REMARK SMILES CC(C)C[C@H]([NH2+]Cc1ccc2c(c1)OCO2)c1cn(Cc2ccc(F)c(N([O-])[O-])c2)nn1
REMARK SMILES IDX 17 1 18 2 19 3 31 4 32 5 5 7 4 8 2 9 1 10 3 11 6 12 7 15
REMARK SMILES IDX 8 16 9 17 13 18 10 19 12 20 11 21 14 22 16 23 15 24 20 25
REMARK SMILES IDX 21 26 22 27 30 28 23 29 26 30 24 31 25 32 27 33 28 34 29 35
REMARK H PARENT 18 6 6 13 6 14
ROOT
ATOM     1   C14 UNL     1       0.805   1.555   1.282  1.00  0.00     0.127 A   
ATOM     2   C15 UNL     1       1.555   1.381   0.137  1.00  0.00     0.046 A   
ATOM     3   N2  UNL     1       2.849   1.382   0.588  1.00  0.00    -0.208 N   
ATOM     4   N4  UNL     1       2.891   1.594   1.920  1.00  0.00    -0.076 NA  
ATOM     5   N5  UNL     1       1.647   1.704   2.354  1.00  0.00    -0.132 NA  
ATOM     6   H20 UNL     1       1.303   1.200  -0.899  1.00  0.00     0.083 HD  
ENDROOT
BRANCH   1   7
ATOM     7   C5  UNL     1      -0.671   1.516   1.510  1.00  0.00     0.114 C   
BRANCH   7   8
ATOM     8   C4  UNL     1      -1.231   2.941   1.690  1.00  0.00     0.064 C   
BRANCH   8   9
ATOM     9   C2  UNL     1      -2.761   3.065   1.884  1.00  0.00    -0.012 C   
ATOM     10  C1  UNL     1      -3.151   4.545   1.949  1.00  0.00     0.007 C   
ATOM     11  C3  UNL     1      -3.553   2.377   0.771  1.00  0.00     0.007 C   
ENDBRANCH   8   9
ENDBRANCH   7   8
BRANCH   7  12
ATOM     12  N1  UNL     1      -0.986   0.697   2.739  1.00  0.00     0.249 N   
ATOM     13  H11 UNL     1      -1.970   0.803   3.002  1.00  0.00     0.199 HD  
ATOM     14  H12 UNL     1      -0.420   1.094   3.502  1.00  0.00     0.199 HD  
BRANCH  12  15
ATOM     15  C6  UNL     1      -0.676  -0.769   2.669  1.00  0.00     0.164 C   
BRANCH  15  16
ATOM     16  C7  UNL     1      -1.521  -1.494   1.658  1.00  0.00    -0.002 A   
ATOM     17  C8  UNL     1      -2.884  -1.771   1.930  1.00  0.00     0.012 A   
ATOM     18  C12 UNL     1      -0.970  -1.873   0.418  1.00  0.00     0.045 A   
ATOM     19  C9  UNL     1      -3.691  -2.402   0.976  1.00  0.00     0.037 A   
ATOM     20  C11 UNL     1      -1.792  -2.497  -0.497  1.00  0.00     0.109 A   
ATOM     21  C10 UNL     1      -3.114  -2.752  -0.227  1.00  0.00     0.108 A   
ATOM     22  O1  UNL     1      -1.422  -2.918  -1.738  1.00  0.00    -0.316 OA  
ATOM     23  O2  UNL     1      -3.744  -3.371  -1.261  1.00  0.00    -0.316 OA  
ATOM     24  C13 UNL     1      -2.655  -3.518  -2.203  1.00  0.00     0.337 C   
ENDBRANCH  15  16
ENDBRANCH  12  15
ENDBRANCH   7  12
ENDBRANCH   1   7
BRANCH   3  25
ATOM     25  C16 UNL     1       4.049   0.973  -0.132  1.00  0.00     0.169 C   
BRANCH  25  26
ATOM     26  C17 UNL     1       4.061  -0.527  -0.371  1.00  0.00    -0.026 A   
ATOM     27  C18 UNL     1       4.504  -1.050  -1.600  1.00  0.00     0.008 A   
ATOM     28  C22 UNL     1       3.654  -1.429   0.629  1.00  0.00     0.039 A   
ATOM     29  C19 UNL     1       4.485  -2.435  -1.839  1.00  0.00     0.042 A   
ATOM     30  C21 UNL     1       3.610  -2.807   0.365  1.00  0.00     0.154 A   
ATOM     31  C20 UNL     1       4.023  -3.313  -0.860  1.00  0.00     0.151 A   
ATOM     32  F1  UNL     1       3.952  -4.621  -1.148  1.00  0.00    -0.205 F   
BRANCH  30  33
ATOM     33  N3  UNL     1       3.053  -3.691   1.371  1.00  0.00     0.095 N   
ATOM     34  O3  UNL     1       3.622  -4.765   1.593  1.00  0.00    -0.138 OA  
ATOM     35  O4  UNL     1       2.045  -3.274   1.971  1.00  0.00    -0.138 OA  
ENDBRANCH  30  33
ENDBRANCH  25  26
ENDBRANCH   3  25
TORSDOF 9
