REMARK SMILES Fc1ccc(CCn2cc([C@@H]([NH2+]Cc3ccc4c(c3)OCO4)C3CCCCC3)nn2)cn1
REMARK SMILES IDX 8 1 9 2 10 3 29 4 30 5 7 7 6 8 5 9 2 10 3 11 32 12 4 13
REMARK SMILES IDX 31 14 1 15 11 16 12 17 13 20 14 21 15 22 19 23 16 24 18 25
REMARK SMILES IDX 17 26 20 27 22 28 21 29 23 30 24 31 28 32 25 33 27 34 26 35
REMARK H PARENT 9 6 12 18 12 19
ROOT
ATOM     1   N1  UNL     1      -1.445  -2.645   0.987  1.00  0.00    -0.212 N   
ATOM     2   C7  UNL     1      -1.400  -1.422   0.380  1.00  0.00     0.045 A   
ATOM     3   C8  UNL     1      -0.146  -1.381  -0.191  1.00  0.00     0.127 A   
ATOM     4   N3  UNL     1       0.496  -2.569   0.048  1.00  0.00    -0.132 NA  
ATOM     5   N4  UNL     1      -0.311  -3.334   0.761  1.00  0.00    -0.076 NA  
ATOM     6   H7  UNL     1      -2.207  -0.706   0.448  1.00  0.00     0.083 HD  
ENDROOT
BRANCH   1   7
ATOM     7   C6  UNL     1      -2.443  -3.187   1.883  1.00  0.00     0.139 C   
BRANCH   7   8
ATOM     8   C5  UNL     1      -2.888  -2.232   2.999  1.00  0.00     0.058 C   
BRANCH   8   9
ATOM     9   C4  UNL     1      -1.816  -1.575   3.838  1.00  0.00    -0.028 A   
ATOM     10  C1  UNL     1       0.111  -0.354   5.369  1.00  0.00     0.212 A   
ATOM     11  C2  UNL     1      -1.126   0.254   5.264  1.00  0.00     0.061 A   
ATOM     12  N5  UNL     1       0.432  -1.514   4.759  1.00  0.00    -0.228 NA  
ATOM     13  C3  UNL     1      -2.098  -0.364   4.484  1.00  0.00     0.010 A   
ATOM     14  C24 UNL     1      -0.549  -2.116   4.046  1.00  0.00     0.118 A   
ATOM     15  F1  UNL     1       1.064   0.248   6.094  1.00  0.00    -0.185 F   
ENDBRANCH   8   9
ENDBRANCH   7   8
ENDBRANCH   1   7
BRANCH   3  16
ATOM     16  C9  UNL     1       0.591  -0.279  -0.878  1.00  0.00     0.117 C   
BRANCH  16  17
ATOM     17  N2  UNL     1       2.046  -0.278  -0.448  1.00  0.00     0.249 N   
ATOM     18  H9  UNL     1       2.402  -1.228  -0.620  1.00  0.00     0.199 HD  
ATOM     19  H10 UNL     1       2.588   0.368  -1.031  1.00  0.00     0.199 HD  
BRANCH  17  20
ATOM     20  C10 UNL     1       2.321   0.014   0.996  1.00  0.00     0.164 C   
BRANCH  20  21
ATOM     21  C11 UNL     1       1.911   1.400   1.406  1.00  0.00    -0.002 A   
ATOM     22  C12 UNL     1       2.695   2.522   1.049  1.00  0.00     0.012 A   
ATOM     23  C16 UNL     1       0.725   1.590   2.136  1.00  0.00     0.045 A   
ATOM     24  C13 UNL     1       2.305   3.814   1.417  1.00  0.00     0.037 A   
ATOM     25  C15 UNL     1       0.370   2.876   2.485  1.00  0.00     0.109 A   
ATOM     26  C14 UNL     1       1.139   3.958   2.136  1.00  0.00     0.108 A   
ATOM     27  O1  UNL     1      -0.735   3.229   3.192  1.00  0.00    -0.316 OA  
ATOM     28  O2  UNL     1       0.617   5.131   2.580  1.00  0.00    -0.316 OA  
ATOM     29  C17 UNL     1      -0.556   4.663   3.278  1.00  0.00     0.337 C   
ENDBRANCH  20  21
ENDBRANCH  17  20
ENDBRANCH  16  17
BRANCH  16  30
ATOM     30  C18 UNL     1       0.536  -0.341  -2.429  1.00  0.00     0.043 C   
ATOM     31  C19 UNL     1       1.117  -1.631  -3.040  1.00  0.00     0.010 C   
ATOM     32  C23 UNL     1      -0.896  -0.106  -2.949  1.00  0.00     0.010 C   
ATOM     33  C20 UNL     1       1.055  -1.610  -4.567  1.00  0.00     0.001 C   
ATOM     34  C22 UNL     1      -0.949  -0.085  -4.476  1.00  0.00     0.001 C   
ATOM     35  C21 UNL     1      -0.362  -1.359  -5.072  1.00  0.00     0.000 C   
ENDBRANCH  16  30
ENDBRANCH   3  16
TORSDOF 8
