REMARK SMILES Cc1csc([C@@H](CO)n2cc([C@@H]([NH2+]Cc3ccc4c(c3)OCO4)C(C)C)nn2)c1
REMARK SMILES IDX 9 1 10 2 11 3 27 4 28 5 6 7 5 8 2 9 3 10 29 11 4 12 1 13
REMARK SMILES IDX 7 14 8 15 12 17 13 18 14 21 15 22 16 23 20 24 17 25 19 26
REMARK SMILES IDX 18 27 21 28 23 29 22 30 24 31 25 32 26 33
REMARK H PARENT 10 6 8 16 13 19 13 20
ROOT
ATOM     1   N1  UNL     1      -0.539  -2.621   1.616  1.00  0.00    -0.202 N   
ATOM     2   C7  UNL     1       0.306  -1.639   1.167  1.00  0.00     0.046 A   
ATOM     3   C8  UNL     1      -0.163  -0.492   1.766  1.00  0.00     0.127 A   
ATOM     4   N3  UNL     1      -1.250  -0.800   2.545  1.00  0.00    -0.132 NA  
ATOM     5   N4  UNL     1      -1.472  -2.100   2.445  1.00  0.00    -0.075 NA  
ATOM     6   H9  UNL     1       1.116  -1.844   0.484  1.00  0.00     0.083 HD  
ENDROOT
BRANCH   1   7
ATOM     7   C5  UNL     1      -0.543  -4.053   1.321  1.00  0.00     0.162 C   
BRANCH   7   8
ATOM     8   C4  UNL     1      -0.277  -4.313  -0.149  1.00  0.00     0.014 A   
ATOM     9   C2  UNL     1       0.737  -4.796  -2.219  1.00  0.00    -0.044 A   
ATOM     10  C3  UNL     1      -0.578  -4.587  -2.585  1.00  0.00     0.049 A   
ATOM     11  C21 UNL     1       0.901  -4.632  -0.802  1.00  0.00     0.017 A   
ATOM     12  S1  UNL     1      -1.585  -4.211  -1.261  1.00  0.00    -0.100 S   
ATOM     13  C1  UNL     1       1.841  -5.157  -3.158  1.00  0.00     0.045 C   
ENDBRANCH   7   8
BRANCH   7  14
ATOM     14  C6  UNL     1       0.379  -4.818   2.283  1.00  0.00     0.186 C   
BRANCH  14  15
ATOM     15  O1  UNL     1       1.740  -4.370   2.234  1.00  0.00    -0.394 OA  
ATOM     16  H8  UNL     1       2.245  -4.916   2.868  1.00  0.00     0.210 HD  
ENDBRANCH  14  15
ENDBRANCH   7  14
ENDBRANCH   1   7
BRANCH   3  17
ATOM     17  C9  UNL     1       0.252   0.938   1.627  1.00  0.00     0.117 C   
BRANCH  17  18
ATOM     18  N2  UNL     1      -1.007   1.788   1.716  1.00  0.00     0.249 N   
ATOM     19  H11 UNL     1      -1.740   1.155   2.079  1.00  0.00     0.199 HD  
ATOM     20  H12 UNL     1      -0.918   2.509   2.436  1.00  0.00     0.199 HD  
BRANCH  18  21
ATOM     21  C10 UNL     1      -1.497   2.386   0.445  1.00  0.00     0.164 C   
BRANCH  21  22
ATOM     22  C11 UNL     1      -1.808   1.376  -0.626  1.00  0.00    -0.002 A   
ATOM     23  C12 UNL     1      -2.874   0.459  -0.464  1.00  0.00     0.012 A   
ATOM     24  C16 UNL     1      -1.024   1.320  -1.793  1.00  0.00     0.045 A   
ATOM     25  C13 UNL     1      -3.145  -0.508  -1.440  1.00  0.00     0.037 A   
ATOM     26  C15 UNL     1      -1.320   0.359  -2.734  1.00  0.00     0.109 A   
ATOM     27  C14 UNL     1      -2.349  -0.533  -2.564  1.00  0.00     0.108 A   
ATOM     28  O2  UNL     1      -0.656   0.171  -3.905  1.00  0.00    -0.316 OA  
ATOM     29  O3  UNL     1      -2.464  -1.397  -3.607  1.00  0.00    -0.316 OA  
ATOM     30  C17 UNL     1      -1.392  -0.944  -4.460  1.00  0.00     0.337 C   
ENDBRANCH  21  22
ENDBRANCH  18  21
ENDBRANCH  17  18
BRANCH  17  31
ATOM     31  C18 UNL     1       1.257   1.406   2.712  1.00  0.00     0.037 C   
ATOM     32  C19 UNL     1       1.712   2.853   2.474  1.00  0.00     0.014 C   
ATOM     33  C20 UNL     1       2.507   0.517   2.759  1.00  0.00     0.014 C   
ENDBRANCH  17  31
ENDBRANCH   3  17
TORSDOF 9
