REMARK SMILES Cc1csc([C@H](CO)n2cc([C@@H]([NH2+]Cc3ccc4c(c3)OCO4)C(C)C)nn2)c1
REMARK SMILES IDX 9 1 10 2 11 3 27 4 28 5 6 7 5 8 2 9 3 10 29 11 4 12 1 13
REMARK SMILES IDX 7 14 8 15 12 17 13 18 14 21 15 22 16 23 20 24 17 25 19 26
REMARK SMILES IDX 18 27 21 28 23 29 22 30 24 31 25 32 26 33
REMARK H PARENT 10 6 8 16 13 19 13 20
ROOT
ATOM     1   N1  UNL     1      -0.652  -1.970  -1.557  1.00  0.00    -0.202 N   
ATOM     2   C7  UNL     1      -0.042  -0.832  -1.096  1.00  0.00     0.046 A   
ATOM     3   C8  UNL     1       0.601  -1.233   0.051  1.00  0.00     0.127 A   
ATOM     4   N3  UNL     1       0.341  -2.561   0.272  1.00  0.00    -0.132 NA  
ATOM     5   N4  UNL     1      -0.437  -2.997  -0.704  1.00  0.00    -0.075 NA  
ATOM     6   H9  UNL     1      -0.118   0.113  -1.617  1.00  0.00     0.083 HD  
ENDROOT
BRANCH   1   7
ATOM     7   C5  UNL     1      -1.462  -2.171  -2.758  1.00  0.00     0.162 C   
BRANCH   7   8
ATOM     8   C4  UNL     1      -0.837  -1.489  -3.960  1.00  0.00     0.014 A   
ATOM     9   C2  UNL     1      -0.293   0.031  -5.672  1.00  0.00    -0.044 A   
ATOM     10  C3  UNL     1       0.583  -1.005  -5.923  1.00  0.00     0.049 A   
ATOM     11  C21 UNL     1      -1.112  -0.260  -4.533  1.00  0.00     0.017 A   
ATOM     12  S1  UNL     1       0.425  -2.288  -4.810  1.00  0.00    -0.100 S   
ATOM     13  C1  UNL     1      -0.390   1.280  -6.484  1.00  0.00     0.045 C   
ENDBRANCH   7   8
BRANCH   7  14
ATOM     14  C6  UNL     1      -2.933  -1.796  -2.508  1.00  0.00     0.186 C   
BRANCH  14  15
ATOM     15  O1  UNL     1      -3.100  -0.445  -2.070  1.00  0.00    -0.394 OA  
ATOM     16  H8  UNL     1      -4.060  -0.280  -2.023  1.00  0.00     0.210 HD  
ENDBRANCH  14  15
ENDBRANCH   7  14
ENDBRANCH   1   7
BRANCH   3  17
ATOM     17  C9  UNL     1       1.442  -0.470   1.022  1.00  0.00     0.117 C   
BRANCH  17  18
ATOM     18  N2  UNL     1       1.409  -1.135   2.378  1.00  0.00     0.249 N   
ATOM     19  H11 UNL     1       2.200  -0.838   2.955  1.00  0.00     0.199 HD  
ATOM     20  H12 UNL     1       1.522  -2.143   2.199  1.00  0.00     0.199 HD  
BRANCH  18  21
ATOM     21  C10 UNL     1       0.146  -0.968   3.156  1.00  0.00     0.164 C   
BRANCH  21  22
ATOM     22  C11 UNL     1      -0.019   0.427   3.694  1.00  0.00    -0.002 A   
ATOM     23  C12 UNL     1       0.761   0.871   4.789  1.00  0.00     0.012 A   
ATOM     24  C16 UNL     1      -0.928   1.313   3.089  1.00  0.00     0.045 A   
ATOM     25  C13 UNL     1       0.644   2.179   5.272  1.00  0.00     0.037 A   
ATOM     26  C15 UNL     1      -1.016   2.595   3.587  1.00  0.00     0.109 A   
ATOM     27  C14 UNL     1      -0.253   3.017   4.647  1.00  0.00     0.108 A   
ATOM     28  O2  UNL     1      -1.832   3.574   3.113  1.00  0.00    -0.316 OA  
ATOM     29  O3  UNL     1      -0.493   4.312   4.976  1.00  0.00    -0.316 OA  
ATOM     30  C17 UNL     1      -1.514   4.657   4.016  1.00  0.00     0.337 C   
ENDBRANCH  21  22
ENDBRANCH  18  21
ENDBRANCH  17  18
BRANCH  17  31
ATOM     31  C18 UNL     1       2.908  -0.320   0.534  1.00  0.00     0.037 C   
ATOM     32  C19 UNL     1       3.673   0.724   1.357  1.00  0.00     0.014 C   
ATOM     33  C20 UNL     1       3.696  -1.635   0.507  1.00  0.00     0.014 C   
ENDBRANCH  17  31
ENDBRANCH   3  17
TORSDOF 9
