REMARK SMILES CC(C)Oc1cccc(Cn2cc([C@@H]([NH2+]Cc3ccc4c(c3)OCO4)C3CCCCC3)nn2)n1
REMARK SMILES IDX 11 1 12 2 13 3 32 4 33 5 10 7 9 8 5 9 6 10 34 11 7 12 8 13
REMARK SMILES IDX 4 14 2 15 1 16 3 17 14 18 15 19 16 22 17 23 18 24 22 25
REMARK SMILES IDX 19 26 21 27 20 28 23 29 25 30 24 31 26 32 27 33 31 34 28 35
REMARK SMILES IDX 30 36 29 37
REMARK H PARENT 12 6 15 20 15 21
ROOT
ATOM     1   N1  UNL     1       1.061  -0.127  -1.908  1.00  0.00    -0.206 N   
ATOM     2   C10 UNL     1       0.341   0.605  -1.002  1.00  0.00     0.046 A   
ATOM     3   C11 UNL     1       1.081   1.754  -0.840  1.00  0.00     0.127 A   
ATOM     4   N3  UNL     1       2.216   1.671  -1.610  1.00  0.00    -0.132 NA  
ATOM     5   N4  UNL     1       2.189   0.521  -2.264  1.00  0.00    -0.076 NA  
ATOM     6   H13 UNL     1      -0.588   0.247  -0.576  1.00  0.00     0.083 HD  
ENDROOT
BRANCH   1   7
ATOM     7   C9  UNL     1       0.710  -1.391  -2.526  1.00  0.00     0.190 C   
BRANCH   7   8
ATOM     8   C8  UNL     1       1.153  -2.544  -1.668  1.00  0.00     0.063 A   
ATOM     9   C4  UNL     1       0.592  -4.153  -0.102  1.00  0.00     0.167 A   
ATOM     10  C5  UNL     1       1.869  -4.689  -0.114  1.00  0.00     0.055 A   
ATOM     11  N5  UNL     1       0.218  -3.088  -0.846  1.00  0.00    -0.228 NA  
ATOM     12  C6  UNL     1       2.821  -4.108  -0.944  1.00  0.00     0.006 A   
ATOM     13  C7  UNL     1       2.463  -3.022  -1.736  1.00  0.00     0.026 A   
BRANCH   9  14
ATOM     14  O1  UNL     1      -0.323  -4.788   0.710  1.00  0.00    -0.327 OA  
BRANCH  14  15
ATOM     15  C2  UNL     1      -1.649  -4.243   0.696  1.00  0.00     0.121 C   
ATOM     16  C1  UNL     1      -2.327  -4.727   1.979  1.00  0.00     0.039 C   
ATOM     17  C3  UNL     1      -2.434  -4.740  -0.516  1.00  0.00     0.039 C   
ENDBRANCH  14  15
ENDBRANCH   9  14
ENDBRANCH   7   8
ENDBRANCH   1   7
BRANCH   3  18
ATOM     18  C12 UNL     1       0.880   2.956   0.024  1.00  0.00     0.117 C   
BRANCH  18  19
ATOM     19  N2  UNL     1       2.233   3.426   0.527  1.00  0.00     0.249 N   
ATOM     20  H15 UNL     1       2.921   3.079  -0.162  1.00  0.00     0.199 HD  
ATOM     21  H16 UNL     1       2.297   4.449   0.496  1.00  0.00     0.199 HD  
BRANCH  19  22
ATOM     22  C13 UNL     1       2.654   2.961   1.877  1.00  0.00     0.164 C   
BRANCH  22  23
ATOM     23  C14 UNL     1       2.585   1.474   2.092  1.00  0.00    -0.002 A   
ATOM     24  C15 UNL     1       3.463   0.594   1.411  1.00  0.00     0.012 A   
ATOM     25  C19 UNL     1       1.627   0.945   2.979  1.00  0.00     0.045 A   
ATOM     26  C16 UNL     1       3.380  -0.793   1.607  1.00  0.00     0.037 A   
ATOM     27  C18 UNL     1       1.580  -0.425   3.152  1.00  0.00     0.109 A   
ATOM     28  C17 UNL     1       2.431  -1.270   2.485  1.00  0.00     0.108 A   
ATOM     29  O2  UNL     1       0.722  -1.089   3.971  1.00  0.00    -0.316 OA  
ATOM     30  O3  UNL     1       2.218  -2.576   2.801  1.00  0.00    -0.316 OA  
ATOM     31  C20 UNL     1       1.180  -2.451   3.803  1.00  0.00     0.337 C   
ENDBRANCH  22  23
ENDBRANCH  19  22
ENDBRANCH  18  19
BRANCH  18  32
ATOM     32  C21 UNL     1       0.175   4.137  -0.702  1.00  0.00     0.043 C   
ATOM     33  C22 UNL     1      -1.268   3.771  -1.101  1.00  0.00     0.010 C   
ATOM     34  C26 UNL     1       0.940   4.680  -1.927  1.00  0.00     0.010 C   
ATOM     35  C23 UNL     1      -1.995   4.944  -1.756  1.00  0.00     0.001 C   
ATOM     36  C25 UNL     1       0.208   5.861  -2.564  1.00  0.00     0.001 C   
ATOM     37  C24 UNL     1      -1.220   5.495  -2.949  1.00  0.00     0.000 C   
ENDBRANCH  18  32
ENDBRANCH   3  18
TORSDOF 9
