REMARK SMILES Cc1ccc(O)c(Cn2cc([C@@H]([NH2+]Cc3ccc4c(c3)OCO4)C(C)(C)C)nn2)n1
REMARK SMILES IDX 9 1 10 2 11 3 28 4 29 5 8 7 7 8 2 9 3 10 30 11 4 12 5 13
REMARK SMILES IDX 1 14 6 15 12 17 13 18 14 21 15 22 16 23 20 24 17 25 19 26
REMARK SMILES IDX 18 27 21 28 23 29 22 30 24 31 25 32 26 33 27 34
REMARK H PARENT 10 6 6 16 13 19 13 20
ROOT
ATOM     1   N1  UNL     1       0.735  -1.794   1.687  1.00  0.00    -0.206 N   
ATOM     2   C8  UNL     1       1.002  -1.302   0.438  1.00  0.00     0.046 A   
ATOM     3   C9  UNL     1       1.208   0.042   0.646  1.00  0.00     0.127 A   
ATOM     4   N3  UNL     1       1.104   0.312   1.986  1.00  0.00    -0.132 NA  
ATOM     5   N4  UNL     1       0.820  -0.818   2.613  1.00  0.00    -0.076 NA  
ATOM     6   H9  UNL     1       0.955  -1.925  -0.445  1.00  0.00     0.083 HD  
ENDROOT
BRANCH   1   7
ATOM     7   C7  UNL     1       0.366  -3.150   2.052  1.00  0.00     0.192 C   
BRANCH   7   8
ATOM     8   C6  UNL     1      -1.105  -3.366   1.815  1.00  0.00     0.090 A   
ATOM     9   C2  UNL     1      -2.847  -3.527   0.269  1.00  0.00     0.038 A   
ATOM     10  C3  UNL     1      -3.767  -3.785   1.280  1.00  0.00     0.026 A   
ATOM     11  N5  UNL     1      -1.533  -3.309   0.519  1.00  0.00    -0.254 NA  
ATOM     12  C4  UNL     1      -3.324  -3.833   2.599  1.00  0.00     0.037 A   
ATOM     13  C5  UNL     1      -1.978  -3.625   2.870  1.00  0.00     0.095 A   
ATOM     14  C1  UNL     1      -3.295  -3.481  -1.161  1.00  0.00     0.067 C   
BRANCH  13  15
ATOM     15  O1  UNL     1      -1.511  -3.679   4.149  1.00  0.00    -0.359 OA  
ATOM     16  H6  UNL     1      -2.245  -3.892   4.752  1.00  0.00     0.218 HD  
ENDBRANCH  13  15
ENDBRANCH   7   8
ENDBRANCH   1   7
BRANCH   3  17
ATOM     17  C10 UNL     1       1.376   1.164  -0.328  1.00  0.00     0.120 C   
BRANCH  17  18
ATOM     18  N2  UNL     1       0.515   2.332   0.118  1.00  0.00     0.250 N   
ATOM     19  H11 UNL     1       0.784   2.529   1.092  1.00  0.00     0.199 HD  
ATOM     20  H12 UNL     1       0.713   3.167  -0.435  1.00  0.00     0.199 HD  
BRANCH  18  21
ATOM     21  C11 UNL     1      -0.964   2.100   0.126  1.00  0.00     0.164 C   
BRANCH  21  22
ATOM     22  C12 UNL     1      -1.532   1.846  -1.242  1.00  0.00    -0.002 A   
ATOM     23  C13 UNL     1      -1.637   2.900  -2.182  1.00  0.00     0.012 A   
ATOM     24  C17 UNL     1      -1.940   0.550  -1.606  1.00  0.00     0.045 A   
ATOM     25  C14 UNL     1      -2.134   2.667  -3.469  1.00  0.00     0.037 A   
ATOM     26  C16 UNL     1      -2.425   0.355  -2.882  1.00  0.00     0.109 A   
ATOM     27  C15 UNL     1      -2.518   1.383  -3.788  1.00  0.00     0.108 A   
ATOM     28  O2  UNL     1      -2.855  -0.828  -3.394  1.00  0.00    -0.316 OA  
ATOM     29  O3  UNL     1      -3.018   0.977  -4.984  1.00  0.00    -0.316 OA  
ATOM     30  C18 UNL     1      -3.251  -0.424  -4.725  1.00  0.00     0.337 C   
ENDBRANCH  21  22
ENDBRANCH  18  21
ENDBRANCH  17  18
BRANCH  17  31
ATOM     31  C19 UNL     1       2.862   1.625  -0.532  1.00  0.00     0.010 C   
ATOM     32  C20 UNL     1       3.490   2.225   0.742  1.00  0.00     0.017 C   
ATOM     33  C21 UNL     1       2.945   2.686  -1.655  1.00  0.00     0.017 C   
ATOM     34  C22 UNL     1       3.728   0.425  -0.981  1.00  0.00     0.017 C   
ENDBRANCH  17  31
ENDBRANCH   3  17
TORSDOF 8
