REMARK SMILES CC(C)C[C@H]([NH2+]Cc1ccc2c(c1)OCO2)c1cn(Cc2cccc(N)c2)nn1
REMARK SMILES IDX 17 1 18 2 19 3 28 4 29 5 5 7 4 8 2 9 1 10 3 11 6 12 7 15
REMARK SMILES IDX 8 16 9 17 13 18 10 19 12 20 11 21 14 22 16 23 15 24 20 25
REMARK SMILES IDX 21 26 22 27 27 28 23 29 25 30 24 31 26 32
REMARK H PARENT 18 6 6 13 6 14 26 33 26 34
ROOT
ATOM     1   C14 UNL     1      -0.744   0.340   0.721  1.00  0.00     0.127 A   
ATOM     2   C15 UNL     1       0.013  -0.774   1.006  1.00  0.00     0.046 A   
ATOM     3   N2  UNL     1       0.084  -0.786   2.373  1.00  0.00    -0.208 N   
ATOM     4   N4  UNL     1      -0.671   0.199   2.898  1.00  0.00    -0.076 NA  
ATOM     5   N5  UNL     1      -1.164   0.909   1.897  1.00  0.00    -0.132 NA  
ATOM     6   H20 UNL     1       0.535  -1.497   0.393  1.00  0.00     0.083 HD  
ENDROOT
BRANCH   1   7
ATOM     7   C5  UNL     1      -1.154   0.947  -0.578  1.00  0.00     0.114 C   
BRANCH   7   8
ATOM     8   C4  UNL     1      -0.181   2.049  -1.046  1.00  0.00     0.064 C   
BRANCH   8   9
ATOM     9   C2  UNL     1       1.254   1.575  -1.364  1.00  0.00    -0.012 C   
ATOM     10  C1  UNL     1       1.290   0.535  -2.484  1.00  0.00     0.007 C   
ATOM     11  C3  UNL     1       2.120   2.777  -1.750  1.00  0.00     0.007 C   
ENDBRANCH   8   9
ENDBRANCH   7   8
BRANCH   7  12
ATOM     12  N1  UNL     1      -2.514   1.603  -0.436  1.00  0.00     0.249 N   
ATOM     13  H11 UNL     1      -2.692   2.225  -1.229  1.00  0.00     0.199 HD  
ATOM     14  H12 UNL     1      -2.461   2.190   0.408  1.00  0.00     0.199 HD  
BRANCH  12  15
ATOM     15  C6  UNL     1      -3.677   0.682  -0.267  1.00  0.00     0.164 C   
BRANCH  15  16
ATOM     16  C7  UNL     1      -3.974  -0.112  -1.509  1.00  0.00    -0.002 A   
ATOM     17  C8  UNL     1      -3.687  -1.498  -1.557  1.00  0.00     0.012 A   
ATOM     18  C12 UNL     1      -4.515   0.521  -2.641  1.00  0.00     0.045 A   
ATOM     19  C9  UNL     1      -3.926  -2.242  -2.718  1.00  0.00     0.037 A   
ATOM     20  C11 UNL     1      -4.738  -0.241  -3.769  1.00  0.00     0.109 A   
ATOM     21  C10 UNL     1      -4.451  -1.583  -3.807  1.00  0.00     0.108 A   
ATOM     22  O1  UNL     1      -5.248   0.215  -4.942  1.00  0.00    -0.316 OA  
ATOM     23  O2  UNL     1      -4.745  -2.141  -5.010  1.00  0.00    -0.316 OA  
ATOM     24  C13 UNL     1      -5.282  -1.004  -5.719  1.00  0.00     0.337 C   
ENDBRANCH  15  16
ENDBRANCH  12  15
ENDBRANCH   7  12
ENDBRANCH   1   7
BRANCH   3  25
ATOM     25  C16 UNL     1       0.837  -1.688   3.229  1.00  0.00     0.169 C   
BRANCH  25  26
ATOM     26  C17 UNL     1       2.319  -1.486   3.046  1.00  0.00    -0.027 A   
ATOM     27  C18 UNL     1       2.962  -0.385   3.627  1.00  0.00     0.005 A   
ATOM     28  C22 UNL     1       3.066  -2.366   2.244  1.00  0.00     0.028 A   
ATOM     29  C19 UNL     1       4.316  -0.159   3.389  1.00  0.00     0.002 A   
ATOM     30  C21 UNL     1       4.436  -2.174   2.042  1.00  0.00     0.024 A   
ATOM     31  C20 UNL     1       5.040  -1.036   2.579  1.00  0.00     0.023 A   
BRANCH  30  32
ATOM     32  N3  UNL     1       5.130  -2.977   1.131  1.00  0.00    -0.358 N   
ATOM     33  H26 UNL     1       6.140  -2.956   1.257  1.00  0.00     0.143 HD  
ATOM     34  H27 UNL     1       4.785  -3.930   1.069  1.00  0.00     0.143 HD  
ENDBRANCH  30  32
ENDBRANCH  25  26
ENDBRANCH   3  25
TORSDOF 9
