REMARK SMILES c1cncc(CCn2cc([C@@H]([NH2+]Cc3ccc4c(c3)OCO4)C3CCCC3)nn2)c1
REMARK SMILES IDX 8 1 9 2 10 3 28 4 29 5 7 7 6 8 5 9 1 10 2 11 30 12 3 13 4 14
REMARK SMILES IDX 11 15 12 16 13 19 14 20 15 21 19 22 16 23 18 24 17 25 20 26
REMARK SMILES IDX 22 27 21 28 23 29 24 30 27 31 25 32 26 33
REMARK H PARENT 9 6 12 17 12 18
ROOT
ATOM     1   N2  UNL     1       0.081   1.657  -2.889  1.00  0.00    -0.212 N   
ATOM     2   C7  UNL     1       0.816   1.845  -1.751  1.00  0.00     0.045 A   
ATOM     3   C8  UNL     1       0.985   0.573  -1.253  1.00  0.00     0.127 A   
ATOM     4   N4  UNL     1       0.410  -0.327  -2.112  1.00  0.00    -0.132 NA  
ATOM     5   N5  UNL     1      -0.135   0.349  -3.112  1.00  0.00    -0.076 NA  
ATOM     6   H8  UNL     1       1.071   2.827  -1.381  1.00  0.00     0.083 HD  
ENDROOT
BRANCH   1   7
ATOM     7   C6  UNL     1      -0.601   2.665  -3.678  1.00  0.00     0.139 C   
BRANCH   7   8
ATOM     8   C5  UNL     1      -2.119   2.681  -3.450  1.00  0.00     0.058 C   
BRANCH   8   9
ATOM     9   C4  UNL     1      -2.488   2.852  -1.997  1.00  0.00    -0.028 A   
ATOM     10  C1  UNL     1      -2.805   4.196  -0.023  1.00  0.00     0.020 A   
ATOM     11  C2  UNL     1      -2.984   3.023   0.695  1.00  0.00     0.111 A   
ATOM     12  C23 UNL     1      -2.538   4.106  -1.388  1.00  0.00     0.007 A   
ATOM     13  N1  UNL     1      -2.914   1.787   0.147  1.00  0.00    -0.264 NA  
ATOM     14  C3  UNL     1      -2.716   1.737  -1.191  1.00  0.00     0.114 A   
ENDBRANCH   8   9
ENDBRANCH   7   8
ENDBRANCH   1   7
BRANCH   3  15
ATOM     15  C9  UNL     1       1.564   0.107   0.043  1.00  0.00     0.117 C   
BRANCH  15  16
ATOM     16  N3  UNL     1       0.693  -0.947   0.671  1.00  0.00     0.249 N   
ATOM     17  H10 UNL     1       0.529  -1.679  -0.031  1.00  0.00     0.199 HD  
ATOM     18  H11 UNL     1       1.159  -1.397   1.462  1.00  0.00     0.199 HD  
BRANCH  16  19
ATOM     19  C10 UNL     1      -0.653  -0.470   1.115  1.00  0.00     0.164 C   
BRANCH  19  20
ATOM     20  C11 UNL     1      -1.290  -1.477   2.031  1.00  0.00    -0.002 A   
ATOM     21  C12 UNL     1      -2.115  -2.500   1.505  1.00  0.00     0.012 A   
ATOM     22  C16 UNL     1      -1.035  -1.435   3.413  1.00  0.00     0.045 A   
ATOM     23  C13 UNL     1      -2.689  -3.461   2.345  1.00  0.00     0.037 A   
ATOM     24  C15 UNL     1      -1.616  -2.397   4.214  1.00  0.00     0.109 A   
ATOM     25  C14 UNL     1      -2.418  -3.380   3.697  1.00  0.00     0.108 A   
ATOM     26  O1  UNL     1      -1.476  -2.492   5.564  1.00  0.00    -0.316 OA  
ATOM     27  O2  UNL     1      -2.887  -4.219   4.658  1.00  0.00    -0.316 OA  
ATOM     28  C17 UNL     1      -2.314  -3.635   5.845  1.00  0.00     0.337 C   
ENDBRANCH  19  20
ENDBRANCH  16  19
ENDBRANCH  15  16
BRANCH  15  29
ATOM     29  C18 UNL     1       3.011  -0.401  -0.118  1.00  0.00     0.043 C   
ATOM     30  C19 UNL     1       3.743  -0.677   1.209  1.00  0.00     0.010 C   
ATOM     31  C22 UNL     1       3.197  -1.682  -0.941  1.00  0.00     0.010 C   
ATOM     32  C20 UNL     1       4.563  -1.948   0.992  1.00  0.00     0.001 C   
ATOM     33  C21 UNL     1       4.571  -2.173  -0.509  1.00  0.00     0.001 C   
ENDBRANCH  15  29
ENDBRANCH   3  15
TORSDOF 8
