REMARK SMILES OC[C@H](c1cccc(F)c1)n1cc([C@@H]([NH2+]Cc2ccc3c(c2)OCO3)C2CCCCC2)nn1
REMARK SMILES IDX 11 1 12 2 13 3 32 4 33 5 3 7 2 8 1 9 4 11 5 12 10 13 6 14
REMARK SMILES IDX 8 15 7 16 9 17 14 18 15 19 16 22 17 23 18 24 22 25 19 26
REMARK SMILES IDX 21 27 20 28 23 29 25 30 24 31 26 32 27 33 31 34 28 35 30 36
REMARK SMILES IDX 29 37
REMARK H PARENT 12 6 1 10 15 20 15 21
ROOT
ATOM     1   N1  UNL     1      -0.235  -2.581  -0.843  1.00  0.00    -0.202 N   
ATOM     2   C9  UNL     1       0.015  -1.502  -0.037  1.00  0.00     0.046 A   
ATOM     3   C10 UNL     1      -1.219  -0.917   0.134  1.00  0.00     0.127 A   
ATOM     4   N3  UNL     1      -2.159  -1.633  -0.561  1.00  0.00    -0.132 NA  
ATOM     5   N4  UNL     1      -1.546  -2.640  -1.163  1.00  0.00    -0.075 NA  
ATOM     6   H9  UNL     1       1.010  -1.266   0.317  1.00  0.00     0.083 HD  
ENDROOT
BRANCH   1   7
ATOM     7   C2  UNL     1       0.712  -3.535  -1.419  1.00  0.00     0.155 C   
BRANCH   7   8
ATOM     8   C1  UNL     1       1.192  -4.553  -0.366  1.00  0.00     0.185 C   
BRANCH   8   9
ATOM     9   O1  UNL     1       1.821  -3.942   0.761  1.00  0.00    -0.394 OA  
ATOM     10  H1  UNL     1       2.103  -4.663   1.355  1.00  0.00     0.210 HD  
ENDBRANCH   8   9
ENDBRANCH   7   8
BRANCH   7  11
ATOM     11  C3  UNL     1       1.771  -2.794  -2.228  1.00  0.00    -0.020 A   
ATOM     12  C4  UNL     1       3.081  -2.575  -1.769  1.00  0.00     0.006 A   
ATOM     13  C8  UNL     1       1.415  -2.267  -3.485  1.00  0.00     0.045 A   
ATOM     14  C5  UNL     1       4.003  -1.858  -2.540  1.00  0.00     0.003 A   
ATOM     15  C7  UNL     1       2.340  -1.552  -4.240  1.00  0.00     0.123 A   
ATOM     16  C6  UNL     1       3.631  -1.343  -3.779  1.00  0.00     0.039 A   
ATOM     17  F1  UNL     1       1.970  -1.050  -5.425  1.00  0.00    -0.207 F   
ENDBRANCH   7  11
ENDBRANCH   1   7
BRANCH   3  18
ATOM     18  C11 UNL     1      -1.619   0.335   0.846  1.00  0.00     0.117 C   
BRANCH  18  19
ATOM     19  N2  UNL     1      -2.558   1.125  -0.046  1.00  0.00     0.249 N   
ATOM     20  H11 UNL     1      -2.934   1.936   0.448  1.00  0.00     0.199 HD  
ATOM     21  H12 UNL     1      -3.344   0.495  -0.262  1.00  0.00     0.199 HD  
BRANCH  19  22
ATOM     22  C12 UNL     1      -1.999   1.602  -1.349  1.00  0.00     0.164 C   
BRANCH  22  23
ATOM     23  C13 UNL     1      -0.956   2.671  -1.179  1.00  0.00    -0.002 A   
ATOM     24  C14 UNL     1      -1.338   4.000  -0.874  1.00  0.00     0.012 A   
ATOM     25  C18 UNL     1       0.407   2.353  -1.296  1.00  0.00     0.045 A   
ATOM     26  C15 UNL     1      -0.376   5.000  -0.689  1.00  0.00     0.037 A   
ATOM     27  C17 UNL     1       1.330   3.359  -1.100  1.00  0.00     0.109 A   
ATOM     28  C16 UNL     1       0.950   4.645  -0.808  1.00  0.00     0.108 A   
ATOM     29  O2  UNL     1       2.680   3.220  -1.165  1.00  0.00    -0.316 OA  
ATOM     30  O3  UNL     1       2.012   5.479  -0.658  1.00  0.00    -0.316 OA  
ATOM     31  C19 UNL     1       3.109   4.578  -0.920  1.00  0.00     0.337 C   
ENDBRANCH  22  23
ENDBRANCH  19  22
ENDBRANCH  18  19
BRANCH  18  32
ATOM     32  C20 UNL     1      -2.322   0.038   2.207  1.00  0.00     0.043 C   
ATOM     33  C21 UNL     1      -1.391  -0.773   3.138  1.00  0.00     0.010 C   
ATOM     34  C25 UNL     1      -2.779   1.325   2.930  1.00  0.00     0.010 C   
ATOM     35  C22 UNL     1      -2.016  -1.044   4.503  1.00  0.00     0.001 C   
ATOM     36  C24 UNL     1      -3.388   1.044   4.301  1.00  0.00     0.001 C   
ATOM     37  C23 UNL     1      -2.446   0.245   5.187  1.00  0.00     0.000 C   
ENDBRANCH  18  32
ENDBRANCH   3  18
TORSDOF 9
