REMARK SMILES OC[C@@H](c1cccc(F)c1)n1cc([C@@H]([NH2+]Cc2ccc3c(c2)OCO3)C2CCCCC2)nn1
REMARK SMILES IDX 11 1 12 2 13 3 32 4 33 5 3 7 2 8 1 9 4 11 5 12 10 13 6 14
REMARK SMILES IDX 8 15 7 16 9 17 14 18 15 19 16 22 17 23 18 24 22 25 19 26
REMARK SMILES IDX 21 27 20 28 23 29 25 30 24 31 26 32 27 33 31 34 28 35 30 36
REMARK SMILES IDX 29 37
REMARK H PARENT 12 6 1 10 15 20 15 21
ROOT
ATOM     1   N1  UNL     1      -2.569   1.808  -0.038  1.00  0.00    -0.202 N   
ATOM     2   C9  UNL     1      -1.603   1.391   0.840  1.00  0.00     0.046 A   
ATOM     3   C10 UNL     1      -0.606   0.895   0.031  1.00  0.00     0.127 A   
ATOM     4   N3  UNL     1      -0.990   1.008  -1.281  1.00  0.00    -0.132 NA  
ATOM     5   N4  UNL     1      -2.191   1.560  -1.312  1.00  0.00    -0.075 NA  
ATOM     6   H9  UNL     1      -1.714   1.488   1.911  1.00  0.00     0.083 HD  
ENDROOT
BRANCH   1   7
ATOM     7   C2  UNL     1      -3.869   2.403   0.277  1.00  0.00     0.155 C   
BRANCH   7   8
ATOM     8   C1  UNL     1      -4.034   3.787  -0.375  1.00  0.00     0.185 C   
BRANCH   8   9
ATOM     9   O1  UNL     1      -3.195   4.738   0.286  1.00  0.00    -0.394 OA  
ATOM     10  H1  UNL     1      -3.353   5.601  -0.142  1.00  0.00     0.210 HD  
ENDBRANCH   8   9
ENDBRANCH   7   8
BRANCH   7  11
ATOM     11  C3  UNL     1      -4.985   1.417  -0.042  1.00  0.00    -0.020 A   
ATOM     12  C4  UNL     1      -5.481   1.246  -1.347  1.00  0.00     0.006 A   
ATOM     13  C8  UNL     1      -5.526   0.624   0.985  1.00  0.00     0.045 A   
ATOM     14  C5  UNL     1      -6.495   0.321  -1.615  1.00  0.00     0.003 A   
ATOM     15  C7  UNL     1      -6.534  -0.296   0.704  1.00  0.00     0.123 A   
ATOM     16  C6  UNL     1      -7.025  -0.453  -0.584  1.00  0.00     0.039 A   
ATOM     17  F1  UNL     1      -7.030  -1.046   1.696  1.00  0.00    -0.207 F   
ENDBRANCH   7  11
ENDBRANCH   1   7
BRANCH   3  18
ATOM     18  C11 UNL     1       0.705   0.260   0.362  1.00  0.00     0.117 C   
BRANCH  18  19
ATOM     19  N2  UNL     1       1.077  -0.758  -0.691  1.00  0.00     0.249 N   
ATOM     20  H11 UNL     1       0.955  -0.288  -1.599  1.00  0.00     0.199 HD  
ATOM     21  H12 UNL     1       2.063  -1.019  -0.612  1.00  0.00     0.199 HD  
BRANCH  19  22
ATOM     22  C12 UNL     1       0.245  -1.999  -0.734  1.00  0.00     0.164 C   
BRANCH  22  23
ATOM     23  C13 UNL     1       0.406  -2.859   0.489  1.00  0.00    -0.002 A   
ATOM     24  C14 UNL     1       1.589  -3.612   0.688  1.00  0.00     0.012 A   
ATOM     25  C18 UNL     1      -0.609  -2.896   1.461  1.00  0.00     0.045 A   
ATOM     26  C15 UNL     1       1.762  -4.388   1.840  1.00  0.00     0.037 A   
ATOM     27  C17 UNL     1      -0.405  -3.668   2.586  1.00  0.00     0.109 A   
ATOM     28  C16 UNL     1       0.747  -4.392   2.771  1.00  0.00     0.108 A   
ATOM     29  O2  UNL     1      -1.276  -3.804   3.620  1.00  0.00    -0.316 OA  
ATOM     30  O3  UNL     1       0.746  -5.079   3.943  1.00  0.00    -0.316 OA  
ATOM     31  C19 UNL     1      -0.556  -4.731   4.465  1.00  0.00     0.337 C   
ENDBRANCH  22  23
ENDBRANCH  19  22
ENDBRANCH  18  19
BRANCH  18  32
ATOM     32  C20 UNL     1       1.838   1.311   0.526  1.00  0.00     0.043 C   
ATOM     33  C21 UNL     1       3.083   0.706   1.205  1.00  0.00     0.010 C   
ATOM     34  C25 UNL     1       2.240   2.015  -0.785  1.00  0.00     0.010 C   
ATOM     35  C22 UNL     1       4.167   1.757   1.437  1.00  0.00     0.001 C   
ATOM     36  C24 UNL     1       3.325   3.066  -0.546  1.00  0.00     0.001 C   
ATOM     37  C23 UNL     1       4.546   2.468   0.142  1.00  0.00     0.000 C   
ENDBRANCH  18  32
ENDBRANCH   3  18
TORSDOF 9
