REMARK SMILES COCc1ccccc1-n1cc([C@@H]([NH2+]Cc2ccc3c(c2)OCO3)C2CCCCC2)nn1
REMARK SMILES IDX 10 1 11 2 12 3 31 4 32 5 9 6 4 7 5 8 6 9 8 10 7 11 3 12 2 13
REMARK SMILES IDX 1 14 13 15 14 16 15 19 16 20 17 21 21 22 18 23 20 24 19 25
REMARK SMILES IDX 22 26 24 27 23 28 25 29 26 30 30 31 27 32 29 33 28 34
REMARK H PARENT 14 17 14 18
ROOT
ATOM     1   N1  UNL     1      -1.059  -2.170   1.870  1.00  0.00    -0.180 N   
ATOM     2   C9  UNL     1      -1.036  -0.981   1.169  1.00  0.00     0.135 A   
ATOM     3   C10 UNL     1       0.269  -0.544   1.228  1.00  0.00     0.127 A   
ATOM     4   N3  UNL     1       0.988  -1.404   2.003  1.00  0.00    -0.131 NA  
ATOM     5   N4  UNL     1       0.168  -2.351   2.431  1.00  0.00    -0.071 NA  
ENDROOT
BRANCH   1   6
ATOM     6   C8  UNL     1      -2.103  -3.119   2.053  1.00  0.00     0.063 A   
ATOM     7   C3  UNL     1      -3.213  -3.256   1.187  1.00  0.00     0.001 A   
ATOM     8   C4  UNL     1      -4.212  -4.195   1.531  1.00  0.00     0.008 A   
ATOM     9   C5  UNL     1      -4.101  -5.003   2.663  1.00  0.00     0.001 A   
ATOM     10  C7  UNL     1      -1.988  -3.973   3.171  1.00  0.00     0.026 A   
ATOM     11  C6  UNL     1      -2.982  -4.901   3.475  1.00  0.00     0.002 A   
BRANCH   7  12
ATOM     12  C2  UNL     1      -3.417  -2.531  -0.126  1.00  0.00     0.197 C   
BRANCH  12  13
ATOM     13  O1  UNL     1      -2.237  -2.531  -0.940  1.00  0.00    -0.380 OA  
ATOM     14  C1  UNL     1      -2.082  -3.756  -1.655  1.00  0.00     0.195 C   
ENDBRANCH  12  13
ENDBRANCH   7  12
ENDBRANCH   1   6
BRANCH   3  15
ATOM     15  C11 UNL     1       0.974   0.571   0.521  1.00  0.00     0.117 C   
BRANCH  15  16
ATOM     16  N2  UNL     1       1.714   0.005  -0.665  1.00  0.00     0.249 N   
ATOM     17  H12 UNL     1       2.313   0.719  -1.091  1.00  0.00     0.199 HD  
ATOM     18  H13 UNL     1       2.369  -0.696  -0.290  1.00  0.00     0.199 HD  
BRANCH  16  19
ATOM     19  C12 UNL     1       0.911  -0.684  -1.718  1.00  0.00     0.164 C   
BRANCH  19  20
ATOM     20  C13 UNL     1       1.742  -0.901  -2.953  1.00  0.00    -0.002 A   
ATOM     21  C14 UNL     1       1.700   0.037  -4.012  1.00  0.00     0.012 A   
ATOM     22  C18 UNL     1       2.599  -2.011  -3.044  1.00  0.00     0.045 A   
ATOM     23  C15 UNL     1       2.485  -0.136  -5.157  1.00  0.00     0.037 A   
ATOM     24  C17 UNL     1       3.362  -2.150  -4.186  1.00  0.00     0.109 A   
ATOM     25  C16 UNL     1       3.305  -1.241  -5.213  1.00  0.00     0.108 A   
ATOM     26  O2  UNL     1       4.233  -3.162  -4.437  1.00  0.00    -0.316 OA  
ATOM     27  O3  UNL     1       4.126  -1.570  -6.245  1.00  0.00    -0.316 OA  
ATOM     28  C19 UNL     1       4.714  -2.792  -5.750  1.00  0.00     0.337 C   
ENDBRANCH  19  20
ENDBRANCH  16  19
ENDBRANCH  15  16
BRANCH  15  29
ATOM     29  C20 UNL     1       0.072   1.777   0.124  1.00  0.00     0.043 C   
ATOM     30  C21 UNL     1       0.769   2.833  -0.759  1.00  0.00     0.010 C   
ATOM     31  C25 UNL     1      -0.503   2.497   1.367  1.00  0.00     0.010 C   
ATOM     32  C22 UNL     1       1.853   3.605  -0.011  1.00  0.00     0.001 C   
ATOM     33  C24 UNL     1       0.548   3.295   2.138  1.00  0.00     0.001 C   
ATOM     34  C23 UNL     1       1.293   4.277   1.238  1.00  0.00     0.000 C   
ENDBRANCH  15  29
ENDBRANCH   3  15
TORSDOF 8
