REMARK SMILES CN(C)c1ncccc1Cn1cc([C@@H]([NH2+]Cc2ccc3c(c2)OCO3)C2CCCCC2)nn1
REMARK SMILES IDX 11 1 12 2 13 3 32 4 33 5 10 7 9 8 4 9 5 10 6 11 8 12 7 13
REMARK SMILES IDX 2 14 1 15 3 16 14 17 15 18 16 21 17 22 18 23 22 24 19 25
REMARK SMILES IDX 21 26 20 27 23 28 25 29 24 30 26 31 27 32 31 33 28 34 30 35
REMARK SMILES IDX 29 36
REMARK H PARENT 12 6 15 19 15 20
ROOT
ATOM     1   N3  UNL     1       1.412   0.082   0.842  1.00  0.00    -0.208 N   
ATOM     2   C9  UNL     1       0.112  -0.162   0.496  1.00  0.00     0.046 A   
ATOM     3   C10 UNL     1       0.201  -0.763  -0.738  1.00  0.00     0.127 A   
ATOM     4   N5  UNL     1       1.522  -0.876  -1.090  1.00  0.00    -0.132 NA  
ATOM     5   N6  UNL     1       2.254  -0.363  -0.114  1.00  0.00    -0.076 NA  
ATOM     6   H12 UNL     1      -0.715   0.136   1.125  1.00  0.00     0.083 HD  
ENDROOT
BRANCH   1   7
ATOM     7   C8  UNL     1       1.921   0.726   2.041  1.00  0.00     0.173 C   
BRANCH   7   8
ATOM     8   C7  UNL     1       2.071   2.207   1.829  1.00  0.00     0.012 A   
ATOM     9   C3  UNL     1       0.996   3.095   1.998  1.00  0.00     0.124 A   
ATOM     10  N2  UNL     1       1.116   4.412   1.723  1.00  0.00    -0.241 NA  
ATOM     11  C4  UNL     1       2.312   4.878   1.302  1.00  0.00     0.113 A   
ATOM     12  C6  UNL     1       3.296   2.723   1.377  1.00  0.00     0.010 A   
ATOM     13  C5  UNL     1       3.423   4.080   1.117  1.00  0.00     0.021 A   
BRANCH   9  14
ATOM     14  N1  UNL     1      -0.245   2.600   2.484  1.00  0.00    -0.322 N   
ATOM     15  C1  UNL     1      -0.244   2.739   3.953  1.00  0.00     0.131 C   
ATOM     16  C2  UNL     1      -1.365   3.341   1.879  1.00  0.00     0.131 C   
ENDBRANCH   9  14
ENDBRANCH   7   8
ENDBRANCH   1   7
BRANCH   3  17
ATOM     17  C11 UNL     1      -0.858  -1.184  -1.700  1.00  0.00     0.117 C   
BRANCH  17  18
ATOM     18  N4  UNL     1      -0.435  -0.858  -3.119  1.00  0.00     0.249 N   
ATOM     19  H14 UNL     1       0.496  -1.276  -3.246  1.00  0.00     0.199 HD  
ATOM     20  H15 UNL     1      -1.071  -1.303  -3.786  1.00  0.00     0.199 HD  
BRANCH  18  21
ATOM     21  C12 UNL     1      -0.301   0.593  -3.454  1.00  0.00     0.164 C   
BRANCH  21  22
ATOM     22  C13 UNL     1      -1.599   1.346  -3.356  1.00  0.00    -0.002 A   
ATOM     23  C14 UNL     1      -2.610   1.170  -4.331  1.00  0.00     0.012 A   
ATOM     24  C18 UNL     1      -1.829   2.204  -2.265  1.00  0.00     0.045 A   
ATOM     25  C15 UNL     1      -3.837   1.834  -4.218  1.00  0.00     0.037 A   
ATOM     26  C17 UNL     1      -3.052   2.837  -2.181  1.00  0.00     0.109 A   
ATOM     27  C16 UNL     1      -4.027   2.657  -3.130  1.00  0.00     0.108 A   
ATOM     28  O1  UNL     1      -3.441   3.679  -1.188  1.00  0.00    -0.316 OA  
ATOM     29  O2  UNL     1      -5.151   3.369  -2.859  1.00  0.00    -0.316 OA  
ATOM     30  C19 UNL     1      -4.766   4.040  -1.640  1.00  0.00     0.337 C   
ENDBRANCH  21  22
ENDBRANCH  18  21
ENDBRANCH  17  18
BRANCH  17  31
ATOM     31  C20 UNL     1      -1.225  -2.691  -1.632  1.00  0.00     0.043 C   
ATOM     32  C21 UNL     1      -0.052  -3.651  -1.914  1.00  0.00     0.010 C   
ATOM     33  C25 UNL     1      -1.891  -3.047  -0.287  1.00  0.00     0.010 C   
ATOM     34  C22 UNL     1      -0.495  -5.113  -1.861  1.00  0.00     0.001 C   
ATOM     35  C24 UNL     1      -2.331  -4.509  -0.244  1.00  0.00     0.001 C   
ATOM     36  C23 UNL     1      -1.170  -5.452  -0.537  1.00  0.00     0.000 C   
ENDBRANCH  17  31
ENDBRANCH   3  17
TORSDOF 8
