REMARK SMILES CCOc1cc(Cn2cc([C@@H]([NH2+]Cc3ccc4c(c3)OCO4)C(C)C)nn2)ccc1O
REMARK SMILES IDX 8 1 9 2 10 3 26 4 27 5 7 7 6 8 4 9 5 10 30 11 29 12 28 13
REMARK SMILES IDX 3 14 2 15 1 16 31 17 11 19 12 20 13 23 14 24 15 25 19 26
REMARK SMILES IDX 16 27 18 28 17 29 20 30 22 31 21 32 23 33 24 34 25 35
REMARK H PARENT 9 6 31 18 12 21 12 22
ROOT
ATOM     1   N1  UNL     1      -0.205   1.964  -0.910  1.00  0.00    -0.208 N   
ATOM     2   C7  UNL     1       1.148   1.777  -0.843  1.00  0.00     0.046 A   
ATOM     3   C8  UNL     1       1.435   1.023  -1.959  1.00  0.00     0.127 A   
ATOM     4   N3  UNL     1       0.272   0.768  -2.642  1.00  0.00    -0.132 NA  
ATOM     5   N4  UNL     1      -0.721   1.361  -2.000  1.00  0.00    -0.076 NA  
ATOM     6   H9  UNL     1       1.750   2.179  -0.040  1.00  0.00     0.083 HD  
ENDROOT
BRANCH   1   7
ATOM     7   C6  UNL     1      -1.049   2.748  -0.026  1.00  0.00     0.169 C   
BRANCH   7   8
ATOM     8   C5  UNL     1      -1.635   1.897   1.071  1.00  0.00    -0.026 A   
ATOM     9   C3  UNL     1      -3.379   0.390   1.855  1.00  0.00     0.105 A   
ATOM     10  C4  UNL     1      -2.822   1.171   0.845  1.00  0.00     0.041 A   
ATOM     11  C23 UNL     1      -2.735   0.341   3.096  1.00  0.00     0.102 A   
ATOM     12  C22 UNL     1      -1.555   1.032   3.336  1.00  0.00     0.036 A   
ATOM     13  C21 UNL     1      -1.003   1.812   2.322  1.00  0.00     0.008 A   
BRANCH   9  14
ATOM     14  O1  UNL     1      -4.521  -0.361   1.776  1.00  0.00    -0.344 OA  
BRANCH  14  15
ATOM     15  C2  UNL     1      -5.187  -0.471   0.517  1.00  0.00     0.164 C   
ATOM     16  C1  UNL     1      -6.192   0.654   0.338  1.00  0.00     0.035 C   
ENDBRANCH  14  15
ENDBRANCH   9  14
BRANCH  11  17
ATOM     17  O4  UNL     1      -3.257  -0.411   4.114  1.00  0.00    -0.358 OA  
ATOM     18  H29 UNL     1      -4.113  -0.740   3.777  1.00  0.00     0.218 HD  
ENDBRANCH  11  17
ENDBRANCH   7   8
ENDBRANCH   1   7
BRANCH   3  19
ATOM     19  C9  UNL     1       2.715   0.446  -2.469  1.00  0.00     0.117 C   
BRANCH  19  20
ATOM     20  N2  UNL     1       2.435  -0.896  -3.117  1.00  0.00     0.249 N   
ATOM     21  H11 UNL     1       2.901  -0.965  -4.027  1.00  0.00     0.199 HD  
ATOM     22  H12 UNL     1       1.422  -0.905  -3.324  1.00  0.00     0.199 HD  
BRANCH  20  23
ATOM     23  C10 UNL     1       2.766  -2.102  -2.311  1.00  0.00     0.164 C   
BRANCH  23  24
ATOM     24  C11 UNL     1       1.992  -2.221  -1.030  1.00  0.00    -0.002 A   
ATOM     25  C12 UNL     1       2.632  -2.006   0.215  1.00  0.00     0.012 A   
ATOM     26  C16 UNL     1       0.625  -2.550  -1.055  1.00  0.00     0.045 A   
ATOM     27  C13 UNL     1       1.926  -2.120   1.417  1.00  0.00     0.037 A   
ATOM     28  C15 UNL     1      -0.039  -2.666   0.149  1.00  0.00     0.109 A   
ATOM     29  C14 UNL     1       0.593  -2.458   1.350  1.00  0.00     0.108 A   
ATOM     30  O2  UNL     1      -1.345  -3.008   0.302  1.00  0.00    -0.316 OA  
ATOM     31  O3  UNL     1      -0.234  -2.642   2.411  1.00  0.00    -0.316 OA  
ATOM     32  C17 UNL     1      -1.450  -3.043   1.745  1.00  0.00     0.337 C   
ENDBRANCH  23  24
ENDBRANCH  20  23
ENDBRANCH  19  20
BRANCH  19  33
ATOM     33  C18 UNL     1       3.451   1.348  -3.494  1.00  0.00     0.037 C   
ATOM     34  C19 UNL     1       3.979   2.629  -2.838  1.00  0.00     0.014 C   
ATOM     35  C20 UNL     1       2.619   1.708  -4.731  1.00  0.00     0.014 C   
ENDBRANCH  19  33
ENDBRANCH   3  19
TORSDOF 10
