REMARK SMILES CCc1n[nH]c(C2CC2)c1Cn1cc([C@@H]([NH2+]Cc2ccc3c(c2)OCO3)C(C)(C)C)nn1
REMARK SMILES IDX 12 1 13 2 14 3 31 4 32 5 11 7 10 8 3 9 4 10 5 11 6 12 2 14
REMARK SMILES IDX 1 15 7 16 8 17 9 18 15 19 16 20 17 23 18 24 19 25 23 26
REMARK SMILES IDX 20 27 22 28 21 29 24 30 26 31 25 32 27 33 28 34 29 35 30 36
REMARK H PARENT 13 6 5 13 16 21 16 22
ROOT
ATOM     1   N3  UNL     1       1.988  -1.979   0.039  1.00  0.00    -0.208 N   
ATOM     2   C10 UNL     1       1.502  -0.880  -0.617  1.00  0.00     0.046 A   
ATOM     3   C11 UNL     1       2.275   0.160  -0.147  1.00  0.00     0.127 A   
ATOM     4   N5  UNL     1       3.192  -0.331   0.746  1.00  0.00    -0.132 NA  
ATOM     5   N6  UNL     1       3.010  -1.637   0.850  1.00  0.00    -0.076 NA  
ATOM     6   H14 UNL     1       0.666  -0.938  -1.301  1.00  0.00     0.083 HD  
ENDROOT
BRANCH   1   7
ATOM     7   C9  UNL     1       1.509  -3.352  -0.023  1.00  0.00     0.173 C   
BRANCH   7   8
ATOM     8   C8  UNL     1       0.122  -3.441   0.514  1.00  0.00     0.014 A   
ATOM     9   C3  UNL     1      -0.294  -3.339   1.877  1.00  0.00     0.065 A   
ATOM     10  N1  UNL     1      -1.626  -3.408   1.995  1.00  0.00    -0.189 NA  
ATOM     11  N2  UNL     1      -2.060  -3.638   0.749  1.00  0.00    -0.242 N   
ATOM     12  C4  UNL     1      -1.056  -3.655  -0.172  1.00  0.00     0.035 A   
ATOM     13  H6  UNL     1      -3.054  -3.779   0.598  1.00  0.00     0.175 HD  
BRANCH   9  14
ATOM     14  C2  UNL     1       0.542  -3.175   3.106  1.00  0.00     0.055 C   
ATOM     15  C1  UNL     1       0.506  -1.757   3.654  1.00  0.00     0.011 C   
ENDBRANCH   9  14
BRANCH  12  16
ATOM     16  C5  UNL     1      -1.236  -3.886  -1.691  1.00  0.00     0.036 C   
ATOM     17  C6  UNL     1      -2.111  -5.019  -2.158  1.00  0.00     0.010 C   
ATOM     18  C7  UNL     1      -0.623  -5.115  -2.310  1.00  0.00     0.010 C   
ENDBRANCH  12  16
ENDBRANCH   7   8
ENDBRANCH   1   7
BRANCH   3  19
ATOM     19  C12 UNL     1       2.188   1.637  -0.384  1.00  0.00     0.120 C   
BRANCH  19  20
ATOM     20  N4  UNL     1       2.450   2.361   0.924  1.00  0.00     0.250 N   
ATOM     21  H16 UNL     1       2.609   3.358   0.769  1.00  0.00     0.199 HD  
ATOM     22  H17 UNL     1       3.323   1.966   1.302  1.00  0.00     0.199 HD  
BRANCH  20  23
ATOM     23  C13 UNL     1       1.410   2.203   1.989  1.00  0.00     0.164 C   
BRANCH  23  24
ATOM     24  C14 UNL     1       0.073   2.764   1.593  1.00  0.00    -0.002 A   
ATOM     25  C15 UNL     1      -1.018   1.895   1.339  1.00  0.00     0.012 A   
ATOM     26  C19 UNL     1      -0.094   4.151   1.434  1.00  0.00     0.045 A   
ATOM     27  C16 UNL     1      -2.253   2.399   0.916  1.00  0.00     0.037 A   
ATOM     28  C18 UNL     1      -1.324   4.613   1.014  1.00  0.00     0.109 A   
ATOM     29  C17 UNL     1      -2.373   3.763   0.759  1.00  0.00     0.108 A   
ATOM     30  O1  UNL     1      -1.645   5.916   0.795  1.00  0.00    -0.316 OA  
ATOM     31  O2  UNL     1      -3.486   4.424   0.347  1.00  0.00    -0.316 OA  
ATOM     32  C20 UNL     1      -3.035   5.794   0.414  1.00  0.00     0.337 C   
ENDBRANCH  23  24
ENDBRANCH  20  23
ENDBRANCH  19  20
BRANCH  19  33
ATOM     33  C21 UNL     1       3.150   2.171  -1.503  1.00  0.00     0.010 C   
ATOM     34  C22 UNL     1       2.865   3.666  -1.786  1.00  0.00     0.017 C   
ATOM     35  C23 UNL     1       2.900   1.411  -2.827  1.00  0.00     0.017 C   
ATOM     36  C24 UNL     1       4.639   2.025  -1.134  1.00  0.00     0.017 C   
ENDBRANCH  19  33
ENDBRANCH   3  19
TORSDOF 9
