REMARK SMILES CC(C)(C)[C@H]([NH2+]Cc1ccc2c(c1)OCO2)c1cn(C(=O)c2ccc3[nH]ncc3c2)nn1
REMARK SMILES IDX 17 1 18 2 19 3 31 4 32 5 5 6 2 7 1 8 3 9 4 10 6 11 7 14 8 15
REMARK SMILES IDX 9 16 13 17 10 18 12 19 11 20 14 21 16 22 15 23 20 24 21 25
REMARK SMILES IDX 22 26 23 27 30 28 24 29 29 30 25 31 28 32 26 33 27 34
REMARK H PARENT 6 12 6 13 26 35
ROOT
ATOM     1   C14 UNL     1      -0.313   0.750  -0.552  1.00  0.00     0.128 A   
ATOM     2   C15 UNL     1       0.661   0.945  -1.503  1.00  0.00     0.139 A   
ATOM     3   N2  UNL     1       1.627   1.720  -0.881  1.00  0.00    -0.143 N   
ATOM     4   N5  UNL     1       1.247   1.946   0.402  1.00  0.00    -0.068 NA  
ATOM     5   N6  UNL     1       0.080   1.359   0.611  1.00  0.00    -0.131 NA  
ENDROOT
BRANCH   1   6
ATOM     6   C5  UNL     1      -1.598  -0.028  -0.591  1.00  0.00     0.120 C   
BRANCH   6   7
ATOM     7   C2  UNL     1      -2.840   0.806  -1.065  1.00  0.00     0.010 C   
ATOM     8   C1  UNL     1      -3.176   1.966  -0.107  1.00  0.00     0.017 C   
ATOM     9   C3  UNL     1      -4.087  -0.101  -1.185  1.00  0.00     0.017 C   
ATOM     10  C4  UNL     1      -2.581   1.397  -2.470  1.00  0.00     0.017 C   
ENDBRANCH   6   7
BRANCH   6  11
ATOM     11  N1  UNL     1      -1.853  -0.613   0.779  1.00  0.00     0.250 N   
ATOM     12  H11 UNL     1      -1.681   0.139   1.463  1.00  0.00     0.199 HD  
ATOM     13  H12 UNL     1      -2.828  -0.894   0.911  1.00  0.00     0.199 HD  
BRANCH  11  14
ATOM     14  C6  UNL     1      -0.982  -1.763   1.155  1.00  0.00     0.164 C   
BRANCH  14  15
ATOM     15  C7  UNL     1      -1.207  -2.143   2.591  1.00  0.00    -0.002 A   
ATOM     16  C8  UNL     1      -0.545  -1.434   3.623  1.00  0.00     0.012 A   
ATOM     17  C12 UNL     1      -2.110  -3.166   2.922  1.00  0.00     0.045 A   
ATOM     18  C9  UNL     1      -0.770  -1.746   4.968  1.00  0.00     0.037 A   
ATOM     19  C11 UNL     1      -2.306  -3.450   4.258  1.00  0.00     0.109 A   
ATOM     20  C10 UNL     1      -1.656  -2.760   5.252  1.00  0.00     0.108 A   
ATOM     21  O1  UNL     1      -3.137  -4.407   4.747  1.00  0.00    -0.316 OA  
ATOM     22  O2  UNL     1      -1.995  -3.196   6.492  1.00  0.00    -0.316 OA  
ATOM     23  C13 UNL     1      -2.915  -4.261   6.170  1.00  0.00     0.337 C   
ENDBRANCH  14  15
ENDBRANCH  11  14
ENDBRANCH   6  11
ENDBRANCH   1   6
BRANCH   3  24
ATOM     24  C16 UNL     1       2.811   2.238  -1.431  1.00  0.00     0.271 C   
ATOM     25  O3  UNL     1       2.978   2.014  -2.629  1.00  0.00    -0.269 OA  
BRANCH  24  26
ATOM     26  C17 UNL     1       3.844   3.027  -0.703  1.00  0.00     0.040 A   
ATOM     27  C18 UNL     1       4.120   2.834   0.658  1.00  0.00     0.016 A   
ATOM     28  C23 UNL     1       4.584   3.964  -1.449  1.00  0.00     0.025 A   
ATOM     29  C19 UNL     1       5.108   3.581   1.314  1.00  0.00     0.027 A   
ATOM     30  C22 UNL     1       5.578   4.719  -0.803  1.00  0.00     0.018 A   
ATOM     31  C20 UNL     1       5.814   4.514   0.551  1.00  0.00     0.056 A   
ATOM     32  C21 UNL     1       6.499   5.723  -1.175  1.00  0.00     0.141 A   
ATOM     33  N3  UNL     1       6.825   5.383   0.877  1.00  0.00    -0.238 N   
ATOM     34  N4  UNL     1       7.254   6.131  -0.154  1.00  0.00    -0.192 NA  
ATOM     35  H23 UNL     1       7.268   5.513   1.779  1.00  0.00     0.176 HD  
ENDBRANCH  24  26
ENDBRANCH   3  24
TORSDOF 7
