REMARK SMILES C[C@@H](c1cccnc1)n1cc([C@@H]([NH2+]Cc2ccc3c(c2)OCO3)C(C)(C)C)nn1
REMARK SMILES IDX 12 1 11 2 9 3 10 4 29 5 28 6 2 8 1 9 3 10 4 11 8 12 5 13
REMARK SMILES IDX 7 14 6 15 13 16 14 19 15 20 16 21 20 22 17 23 19 24 18 25
REMARK SMILES IDX 21 26 23 27 22 28 24 29 25 30 26 31 27 32
REMARK H PARENT 10 7 13 17 13 18
ROOT
ATOM     1   C10 UNL     1       0.534  -1.394   0.630  1.00  0.00     0.120 C   
ENDROOT
BRANCH   1   2
ATOM     2   C9  UNL     1      -0.827  -0.805   0.831  1.00  0.00     0.127 A   
ATOM     3   N2  UNL     1      -2.804   0.054   0.605  1.00  0.00    -0.205 N   
ATOM     4   C8  UNL     1      -1.952  -0.860   0.038  1.00  0.00     0.046 A   
ATOM     5   N5  UNL     1      -2.254   0.586   1.716  1.00  0.00    -0.075 NA  
ATOM     6   N4  UNL     1      -1.048   0.066   1.865  1.00  0.00    -0.132 NA  
ATOM     7   H9  UNL     1      -2.183  -1.369  -0.888  1.00  0.00     0.083 HD  
BRANCH   3   8
ATOM     8   C2  UNL     1      -4.007   0.625  -0.006  1.00  0.00     0.128 C   
ATOM     9   C1  UNL     1      -4.964   1.274   0.996  1.00  0.00     0.036 C   
BRANCH   8  10
ATOM     10  C3  UNL     1      -3.584   1.575  -1.110  1.00  0.00    -0.007 A   
ATOM     11  C4  UNL     1      -3.905   1.322  -2.449  1.00  0.00     0.009 A   
ATOM     12  C7  UNL     1      -2.803   2.700  -0.844  1.00  0.00     0.116 A   
ATOM     13  C5  UNL     1      -3.430   2.171  -3.445  1.00  0.00     0.020 A   
ATOM     14  N1  UNL     1      -2.304   3.518  -1.795  1.00  0.00    -0.264 NA  
ATOM     15  C6  UNL     1      -2.639   3.244  -3.074  1.00  0.00     0.111 A   
ENDBRANCH   8  10
ENDBRANCH   3   8
ENDBRANCH   1   2
BRANCH   1  16
ATOM     16  N3  UNL     1       1.583  -0.321   0.866  1.00  0.00     0.250 N   
ATOM     17  H11 UNL     1       2.523  -0.720   0.839  1.00  0.00     0.199 HD  
ATOM     18  H12 UNL     1       1.425   0.038   1.817  1.00  0.00     0.199 HD  
BRANCH  16  19
ATOM     19  C11 UNL     1       1.546   0.869  -0.046  1.00  0.00     0.164 C   
BRANCH  19  20
ATOM     20  C12 UNL     1       1.718   0.516  -1.498  1.00  0.00    -0.002 A   
ATOM     21  C13 UNL     1       2.954   0.021  -1.978  1.00  0.00     0.012 A   
ATOM     22  C17 UNL     1       0.637   0.657  -2.386  1.00  0.00     0.045 A   
ATOM     23  C14 UNL     1       3.107  -0.343  -3.321  1.00  0.00     0.037 A   
ATOM     24  C16 UNL     1       0.820   0.285  -3.701  1.00  0.00     0.109 A   
ATOM     25  C15 UNL     1       2.020  -0.202  -4.155  1.00  0.00     0.108 A   
ATOM     26  O1  UNL     1      -0.121   0.342  -4.680  1.00  0.00    -0.316 OA  
ATOM     27  O2  UNL     1       1.988  -0.509  -5.477  1.00  0.00    -0.316 OA  
ATOM     28  C18 UNL     1       0.638  -0.128  -5.817  1.00  0.00     0.337 C   
ENDBRANCH  19  20
ENDBRANCH  16  19
ENDBRANCH   1  16
BRANCH   1  29
ATOM     29  C19 UNL     1       0.829  -2.657   1.514  1.00  0.00     0.010 C   
ATOM     30  C20 UNL     1       2.193  -3.274   1.126  1.00  0.00     0.017 C   
ATOM     31  C21 UNL     1       0.855  -2.347   3.023  1.00  0.00     0.017 C   
ATOM     32  C22 UNL     1      -0.246  -3.739   1.259  1.00  0.00     0.017 C   
ENDBRANCH   1  29
TORSDOF 7
