REMARK SMILES CC(C)C[C@H]([NH2+]Cc1ccc2c(c1)OCO2)c1cn(CCc2cnco2)nn1
REMARK SMILES IDX 17 1 18 2 19 3 27 4 28 5 5 7 4 8 2 9 1 10 3 11 6 12 7 15
REMARK SMILES IDX 8 16 9 17 13 18 10 19 12 20 11 21 14 22 16 23 15 24 20 25
REMARK SMILES IDX 21 26 22 27 23 28 26 29 24 30 25 31
REMARK H PARENT 18 6 6 13 6 14
ROOT
ATOM     1   C14 UNL     1      -1.751  -0.097  -0.716  1.00  0.00     0.127 A   
ATOM     2   C15 UNL     1      -1.233   1.157  -0.951  1.00  0.00     0.045 A   
ATOM     3   N2  UNL     1      -2.223   1.796  -1.640  1.00  0.00    -0.212 N   
ATOM     4   N4  UNL     1      -3.315   1.019  -1.748  1.00  0.00    -0.076 NA  
ATOM     5   N5  UNL     1      -3.032  -0.153  -1.202  1.00  0.00    -0.132 NA  
ATOM     6   H20 UNL     1      -0.278   1.620  -0.739  1.00  0.00     0.083 HD  
ENDROOT
BRANCH   1   7
ATOM     7   C5  UNL     1      -1.171  -1.290  -0.035  1.00  0.00     0.114 C   
BRANCH   7   8
ATOM     8   C4  UNL     1      -0.591  -2.314  -1.032  1.00  0.00     0.064 C   
BRANCH   8   9
ATOM     9   C2  UNL     1       0.584  -1.805  -1.894  1.00  0.00    -0.012 C   
ATOM     10  C1  UNL     1       1.016  -2.898  -2.876  1.00  0.00     0.007 C   
ATOM     11  C3  UNL     1       1.782  -1.367  -1.051  1.00  0.00     0.007 C   
ENDBRANCH   8   9
ENDBRANCH   7   8
BRANCH   7  12
ATOM     12  N1  UNL     1      -2.245  -2.013   0.755  1.00  0.00     0.249 N   
ATOM     13  H11 UNL     1      -3.023  -2.171   0.099  1.00  0.00     0.199 HD  
ATOM     14  H12 UNL     1      -1.904  -2.932   1.052  1.00  0.00     0.199 HD  
BRANCH  12  15
ATOM     15  C6  UNL     1      -2.802  -1.290   1.936  1.00  0.00     0.164 C   
BRANCH  15  16
ATOM     16  C7  UNL     1      -1.792  -1.093   3.032  1.00  0.00    -0.002 A   
ATOM     17  C8  UNL     1      -1.396  -2.181   3.847  1.00  0.00     0.012 A   
ATOM     18  C12 UNL     1      -1.205   0.169   3.229  1.00  0.00     0.045 A   
ATOM     19  C9  UNL     1      -0.426  -2.016   4.843  1.00  0.00     0.037 A   
ATOM     20  C11 UNL     1      -0.251   0.296   4.217  1.00  0.00     0.109 A   
ATOM     21  C10 UNL     1       0.129  -0.766   5.000  1.00  0.00     0.108 A   
ATOM     22  O1  UNL     1       0.417   1.437   4.529  1.00  0.00    -0.316 OA  
ATOM     23  O2  UNL     1       1.081  -0.426   5.907  1.00  0.00    -0.316 OA  
ATOM     24  C13 UNL     1       1.241   0.981   5.627  1.00  0.00     0.337 C   
ENDBRANCH  15  16
ENDBRANCH  12  15
ENDBRANCH   7  12
ENDBRANCH   1   7
BRANCH   3  25
ATOM     25  C16 UNL     1      -2.211   3.133  -2.199  1.00  0.00     0.141 C   
BRANCH  25  26
ATOM     26  C17 UNL     1      -1.825   3.154  -3.675  1.00  0.00     0.085 C   
BRANCH  26  27
ATOM     27  C18 UNL     1      -0.399   2.809  -3.884  1.00  0.00     0.081 A   
ATOM     28  C19 UNL     1       0.787   3.505  -3.828  1.00  0.00     0.142 A   
ATOM     29  O3  UNL     1      -0.104   1.511  -4.202  1.00  0.00    -0.301 OA  
ATOM     30  N3  UNL     1       1.834   2.658  -4.086  1.00  0.00    -0.237 NA  
ATOM     31  C20 UNL     1       1.251   1.508  -4.332  1.00  0.00     0.246 A   
ENDBRANCH  26  27
ENDBRANCH  25  26
ENDBRANCH   3  25
TORSDOF 9
