REMARK SMILES C[C@H](c1cccnc1)n1cc([C@@H]([NH2+]Cc2ccc3c(c2)OCO3)C(C)(C)C)nn1
REMARK SMILES IDX 12 1 11 2 9 3 10 4 29 5 28 6 2 8 1 9 3 10 4 11 8 12 5 13
REMARK SMILES IDX 7 14 6 15 13 16 14 19 15 20 16 21 20 22 17 23 19 24 18 25
REMARK SMILES IDX 21 26 23 27 22 28 24 29 25 30 26 31 27 32
REMARK H PARENT 10 7 13 17 13 18
ROOT
ATOM     1   C10 UNL     1       1.177   0.616  -1.874  1.00  0.00     0.120 C   
ENDROOT
BRANCH   1   2
ATOM     2   C9  UNL     1       1.318  -0.059  -0.546  1.00  0.00     0.127 A   
ATOM     3   N2  UNL     1       1.023  -0.997   1.384  1.00  0.00    -0.205 N   
ATOM     4   C8  UNL     1       0.433  -0.847   0.156  1.00  0.00     0.046 A   
ATOM     5   N5  UNL     1       2.221  -0.379   1.413  1.00  0.00    -0.075 NA  
ATOM     6   N4  UNL     1       2.411   0.199   0.239  1.00  0.00    -0.132 NA  
ATOM     7   H9  UNL     1      -0.554  -1.229  -0.064  1.00  0.00     0.083 HD  
BRANCH   3   8
ATOM     8   C2  UNL     1       0.420  -1.500   2.622  1.00  0.00     0.128 C   
ATOM     9   C1  UNL     1       0.105  -2.992   2.504  1.00  0.00     0.036 C   
BRANCH   8  10
ATOM     10  C3  UNL     1      -0.741  -0.594   2.991  1.00  0.00    -0.007 A   
ATOM     11  C4  UNL     1      -2.088  -0.961   2.897  1.00  0.00     0.009 A   
ATOM     12  C7  UNL     1      -0.474   0.721   3.382  1.00  0.00     0.116 A   
ATOM     13  C5  UNL     1      -3.084  -0.027   3.176  1.00  0.00     0.020 A   
ATOM     14  N1  UNL     1      -1.420   1.653   3.625  1.00  0.00    -0.264 NA  
ATOM     15  C6  UNL     1      -2.705   1.256   3.530  1.00  0.00     0.111 A   
ENDBRANCH   8  10
ENDBRANCH   3   8
ENDBRANCH   1   2
BRANCH   1  16
ATOM     16  N3  UNL     1       1.584   2.072  -1.740  1.00  0.00     0.250 N   
ATOM     17  H11 UNL     1       2.541   2.074  -1.361  1.00  0.00     0.199 HD  
ATOM     18  H12 UNL     1       1.613   2.528  -2.653  1.00  0.00     0.199 HD  
BRANCH  16  19
ATOM     19  C11 UNL     1       0.759   2.915  -0.814  1.00  0.00     0.164 C   
BRANCH  19  20
ATOM     20  C12 UNL     1      -0.691   2.991  -1.205  1.00  0.00    -0.002 A   
ATOM     21  C13 UNL     1      -1.085   3.655  -2.391  1.00  0.00     0.012 A   
ATOM     22  C17 UNL     1      -1.667   2.377  -0.399  1.00  0.00     0.045 A   
ATOM     23  C14 UNL     1      -2.430   3.696  -2.778  1.00  0.00     0.037 A   
ATOM     24  C16 UNL     1      -2.982   2.433  -0.810  1.00  0.00     0.109 A   
ATOM     25  C15 UNL     1      -3.352   3.073  -1.966  1.00  0.00     0.108 A   
ATOM     26  O1  UNL     1      -4.041   1.884  -0.158  1.00  0.00    -0.316 OA  
ATOM     27  O2  UNL     1      -4.691   3.010  -2.187  1.00  0.00    -0.316 OA  
ATOM     28  C18 UNL     1      -5.130   2.290  -1.017  1.00  0.00     0.337 C   
ENDBRANCH  19  20
ENDBRANCH  16  19
ENDBRANCH   1  16
BRANCH   1  29
ATOM     29  C19 UNL     1       1.972  -0.074  -3.038  1.00  0.00     0.010 C   
ATOM     30  C20 UNL     1       1.640   0.604  -4.388  1.00  0.00     0.017 C   
ATOM     31  C21 UNL     1       3.500  -0.025  -2.841  1.00  0.00     0.017 C   
ATOM     32  C22 UNL     1       1.545  -1.555  -3.159  1.00  0.00     0.017 C   
ENDBRANCH   1  29
TORSDOF 7
