REMARK SMILES CC(C)[C@H]([NH2+]Cc1ccc2c(c1)OCO2)c1cn(CC(=O)c2ccc(Cl)cc2)nn1
REMARK SMILES IDX 16 1 17 2 18 3 29 4 30 5 4 7 2 8 1 9 3 10 5 11 6 14 7 15
REMARK SMILES IDX 8 16 12 17 9 18 11 19 10 20 13 21 15 22 14 23 19 24 20 25
REMARK SMILES IDX 21 26 22 27 23 28 28 29 24 30 27 31 25 32 26 33
REMARK H PARENT 17 6 5 12 5 13
ROOT
ATOM     1   C13 UNL     1      -1.532   1.554  -0.596  1.00  0.00     0.127 A   
ATOM     2   C14 UNL     1      -2.034   0.527   0.168  1.00  0.00     0.046 A   
ATOM     3   N2  UNL     1      -1.865  -0.577  -0.617  1.00  0.00    -0.204 N   
ATOM     4   N3  UNL     1      -1.323  -0.250  -1.804  1.00  0.00    -0.076 NA  
ATOM     5   N4  UNL     1      -1.104   1.053  -1.800  1.00  0.00    -0.132 NA  
ATOM     6   H18 UNL     1      -2.442   0.469   1.168  1.00  0.00     0.083 HD  
ENDROOT
BRANCH   1   7
ATOM     7   C4  UNL     1      -1.343   3.005  -0.289  1.00  0.00     0.117 C   
BRANCH   7   8
ATOM     8   C2  UNL     1      -2.557   3.861  -0.740  1.00  0.00     0.037 C   
ATOM     9   C1  UNL     1      -2.498   5.276  -0.151  1.00  0.00     0.014 C   
ATOM     10  C3  UNL     1      -2.742   3.941  -2.261  1.00  0.00     0.014 C   
ENDBRANCH   7   8
BRANCH   7  11
ATOM     11  N1  UNL     1      -0.071   3.513  -0.924  1.00  0.00     0.249 N   
ATOM     12  H9  UNL     1      -0.188   4.471  -1.265  1.00  0.00     0.199 HD  
ATOM     13  H10 UNL     1       0.085   2.929  -1.761  1.00  0.00     0.199 HD  
BRANCH  11  14
ATOM     14  C5  UNL     1       1.156   3.454  -0.078  1.00  0.00     0.164 C   
BRANCH  14  15
ATOM     15  C6  UNL     1       1.671   2.062   0.149  1.00  0.00    -0.002 A   
ATOM     16  C7  UNL     1       1.396   1.379   1.358  1.00  0.00     0.012 A   
ATOM     17  C11 UNL     1       2.411   1.413  -0.857  1.00  0.00     0.045 A   
ATOM     18  C8  UNL     1       1.844   0.070   1.564  1.00  0.00     0.037 A   
ATOM     19  C10 UNL     1       2.850   0.128  -0.616  1.00  0.00     0.109 A   
ATOM     20  C9  UNL     1       2.575  -0.525   0.559  1.00  0.00     0.108 A   
ATOM     21  O1  UNL     1       3.584  -0.629  -1.473  1.00  0.00    -0.316 OA  
ATOM     22  O2  UNL     1       3.105  -1.775   0.594  1.00  0.00    -0.316 OA  
ATOM     23  C12 UNL     1       3.772  -1.826  -0.686  1.00  0.00     0.337 C   
ENDBRANCH  14  15
ENDBRANCH  11  14
ENDBRANCH   7  11
ENDBRANCH   1   7
BRANCH   3  24
ATOM     24  C15 UNL     1      -2.175  -1.951  -0.303  1.00  0.00     0.214 C   
BRANCH  24  25
ATOM     25  C16 UNL     1      -1.063  -2.562   0.511  1.00  0.00     0.182 C   
ATOM     26  O3  UNL     1      -0.946  -2.290   1.707  1.00  0.00    -0.292 OA  
BRANCH  25  27
ATOM     27  C17 UNL     1      -0.100  -3.504  -0.128  1.00  0.00     0.019 A   
ATOM     28  C18 UNL     1       0.060  -3.597  -1.517  1.00  0.00     0.013 A   
ATOM     29  C22 UNL     1       0.680  -4.317   0.707  1.00  0.00     0.013 A   
ATOM     30  C19 UNL     1       0.970  -4.510  -2.059  1.00  0.00     0.021 A   
ATOM     31  C21 UNL     1       1.593  -5.224   0.163  1.00  0.00     0.021 A   
ATOM     32  C20 UNL     1       1.730  -5.320  -1.219  1.00  0.00     0.041 A   
ATOM     33  CL1 UNL     1       2.860  -6.425  -1.895  1.00  0.00    -0.084 Cl  
ENDBRANCH  25  27
ENDBRANCH  24  25
ENDBRANCH   3  24
TORSDOF 8
