REMARK SMILES Cn1cnc(Cl)c1CCn1cc([C@@H]([NH2+]Cc2ccc3c(c2)OCO3)C2CCCC2)nn1
REMARK SMILES IDX 10 1 11 2 12 3 30 4 31 5 9 7 8 8 7 9 2 10 3 11 4 12 5 13
REMARK SMILES IDX 1 14 6 15 13 16 14 17 15 20 16 21 17 22 21 23 18 24 20 25
REMARK SMILES IDX 19 26 22 27 24 28 23 29 25 30 26 31 29 32 27 33 28 34
REMARK H PARENT 11 6 14 18 14 19
ROOT
ATOM     1   N3  UNL     1      -0.376  -3.417  -0.737  1.00  0.00    -0.212 N   
ATOM     2   C7  UNL     1      -0.587  -2.415   0.173  1.00  0.00     0.045 A   
ATOM     3   C8  UNL     1      -0.836  -1.312  -0.619  1.00  0.00     0.127 A   
ATOM     4   N5  UNL     1      -0.953  -1.716  -1.925  1.00  0.00    -0.132 NA  
ATOM     5   N6  UNL     1      -0.714  -3.014  -1.977  1.00  0.00    -0.076 NA  
ATOM     6   H9  UNL     1      -0.368  -2.534   1.225  1.00  0.00     0.083 HD  
ENDROOT
BRANCH   1   7
ATOM     7   C6  UNL     1       0.469  -4.586  -0.580  1.00  0.00     0.140 C   
BRANCH   7   8
ATOM     8   C5  UNL     1       1.958  -4.255  -0.328  1.00  0.00     0.076 C   
BRANCH   8   9
ATOM     9   C4  UNL     1       2.422  -2.993  -0.999  1.00  0.00     0.050 A   
ATOM     10  N1  UNL     1       2.593  -2.828  -2.354  1.00  0.00    -0.296 N   
ATOM     11  C2  UNL     1       2.759  -1.489  -2.589  1.00  0.00     0.190 A   
ATOM     12  N2  UNL     1       2.708  -0.788  -1.476  1.00  0.00    -0.227 NA  
ATOM     13  C3  UNL     1       2.651  -1.732  -0.474  1.00  0.00     0.147 A   
ATOM     14  C1  UNL     1       2.546  -3.836  -3.387  1.00  0.00     0.137 C   
ATOM     15  CL1 UNL     1       2.639  -1.285   1.169  1.00  0.00    -0.061 Cl  
ENDBRANCH   8   9
ENDBRANCH   7   8
ENDBRANCH   1   7
BRANCH   3  16
ATOM     16  C9  UNL     1      -0.788   0.152  -0.298  1.00  0.00     0.117 C   
BRANCH  16  17
ATOM     17  N4  UNL     1       0.200   0.784  -1.251  1.00  0.00     0.249 N   
ATOM     18  H11 UNL     1       1.089   0.249  -1.184  1.00  0.00     0.199 HD  
ATOM     19  H12 UNL     1      -0.121   0.575  -2.204  1.00  0.00     0.199 HD  
BRANCH  17  20
ATOM     20  C10 UNL     1       0.540   2.220  -1.124  1.00  0.00     0.164 C   
BRANCH  20  21
ATOM     21  C11 UNL     1       1.192   2.583   0.179  1.00  0.00    -0.002 A   
ATOM     22  C12 UNL     1       2.545   2.246   0.417  1.00  0.00     0.012 A   
ATOM     23  C16 UNL     1       0.465   3.254   1.176  1.00  0.00     0.045 A   
ATOM     24  C13 UNL     1       3.166   2.566   1.629  1.00  0.00     0.037 A   
ATOM     25  C15 UNL     1       1.106   3.554   2.361  1.00  0.00     0.109 A   
ATOM     26  C14 UNL     1       2.418   3.219   2.583  1.00  0.00     0.108 A   
ATOM     27  O1  UNL     1       0.548   4.199   3.419  1.00  0.00    -0.316 OA  
ATOM     28  O2  UNL     1       2.853   3.608   3.808  1.00  0.00    -0.316 OA  
ATOM     29  C17 UNL     1       1.671   4.254   4.327  1.00  0.00     0.337 C   
ENDBRANCH  20  21
ENDBRANCH  17  20
ENDBRANCH  16  17
BRANCH  16  30
ATOM     30  C18 UNL     1      -2.154   0.860  -0.357  1.00  0.00     0.043 C   
ATOM     31  C19 UNL     1      -3.235   0.231   0.527  1.00  0.00     0.010 C   
ATOM     32  C22 UNL     1      -2.832   0.972  -1.730  1.00  0.00     0.010 C   
ATOM     33  C20 UNL     1      -4.497   0.940   0.061  1.00  0.00     0.001 C   
ATOM     34  C21 UNL     1      -4.337   1.031  -1.452  1.00  0.00     0.001 C   
ENDBRANCH  16  30
ENDBRANCH   3  16
TORSDOF 8
