REMARK SMILES CC(C)[C@H]([NH2+]Cc1ccc2c(c1)OCO2)c1cn(Cc2csc(Cl)n2)nn1
REMARK SMILES IDX 16 1 17 2 18 3 26 4 27 5 4 7 2 8 1 9 3 10 5 11 6 14 7 15
REMARK SMILES IDX 8 16 12 17 9 18 11 19 10 20 13 21 15 22 14 23 19 24 20 25
REMARK SMILES IDX 21 26 25 27 22 28 23 29 24 30
REMARK H PARENT 17 6 5 12 5 13
ROOT
ATOM     1   C13 UNL     1      -0.371  -0.935  -0.731  1.00  0.00     0.127 A   
ATOM     2   C14 UNL     1      -0.441  -0.960  -2.105  1.00  0.00     0.046 A   
ATOM     3   N2  UNL     1      -1.518  -0.167  -2.399  1.00  0.00    -0.206 N   
ATOM     4   N4  UNL     1      -2.074   0.321  -1.272  1.00  0.00    -0.076 NA  
ATOM     5   N5  UNL     1      -1.388  -0.150  -0.245  1.00  0.00    -0.132 NA  
ATOM     6   H18 UNL     1       0.153  -1.431  -2.878  1.00  0.00     0.083 HD  
ENDROOT
BRANCH   1   7
ATOM     7   C4  UNL     1       0.610  -1.538   0.225  1.00  0.00     0.117 C   
BRANCH   7   8
ATOM     8   C2  UNL     1       0.278  -2.991   0.650  1.00  0.00     0.037 C   
ATOM     9   C1  UNL     1      -1.085  -3.149   1.333  1.00  0.00     0.014 C   
ATOM     10  C3  UNL     1       0.382  -3.965  -0.530  1.00  0.00     0.014 C   
ENDBRANCH   7   8
BRANCH   7  11
ATOM     11  N1  UNL     1       0.693  -0.686   1.469  1.00  0.00     0.249 N   
ATOM     12  H9  UNL     1       1.051  -1.213   2.273  1.00  0.00     0.199 HD  
ATOM     13  H10 UNL     1      -0.276  -0.420   1.705  1.00  0.00     0.199 HD  
BRANCH  11  14
ATOM     14  C5  UNL     1       1.468   0.577   1.322  1.00  0.00     0.164 C   
BRANCH  14  15
ATOM     15  C6  UNL     1       1.309   1.440   2.542  1.00  0.00    -0.002 A   
ATOM     16  C7  UNL     1       2.237   1.363   3.608  1.00  0.00     0.012 A   
ATOM     17  C11 UNL     1       0.202   2.301   2.645  1.00  0.00     0.045 A   
ATOM     18  C8  UNL     1       2.073   2.143   4.758  1.00  0.00     0.037 A   
ATOM     19  C10 UNL     1       0.072   3.055   3.793  1.00  0.00     0.109 A   
ATOM     20  C9  UNL     1       0.980   2.978   4.821  1.00  0.00     0.108 A   
ATOM     21  O1  UNL     1      -0.929   3.936   4.048  1.00  0.00    -0.316 OA  
ATOM     22  O2  UNL     1       0.666   3.803   5.853  1.00  0.00    -0.316 OA  
ATOM     23  C12 UNL     1      -0.541   4.421   5.355  1.00  0.00     0.337 C   
ENDBRANCH  14  15
ENDBRANCH  11  14
ENDBRANCH   7  11
ENDBRANCH   1   7
BRANCH   3  24
ATOM     24  C15 UNL     1      -2.070   0.154  -3.703  1.00  0.00     0.190 C   
BRANCH  24  25
ATOM     25  C16 UNL     1      -1.192   1.141  -4.399  1.00  0.00     0.069 A   
ATOM     26  C17 UNL     1      -1.377   2.512  -4.476  1.00  0.00     0.074 A   
ATOM     27  N3  UNL     1      -0.056   0.672  -5.055  1.00  0.00    -0.232 NA  
ATOM     28  S1  UNL     1      -0.112   3.225  -5.397  1.00  0.00    -0.064 S   
ATOM     29  C18 UNL     1       0.560   1.683  -5.619  1.00  0.00     0.167 A   
ATOM     30  CL1 UNL     1       2.010   1.492  -6.512  1.00  0.00    -0.054 Cl  
ENDBRANCH  24  25
ENDBRANCH   3  24
TORSDOF 7
