REMARK SMILES CC(C)(C)[C@H]([NH2+]Cc1ccc2c(c1)OCO2)c1cn([C@H](CO)c2cccc(F)c2O)nn1
REMARK SMILES IDX 17 1 18 2 19 3 31 4 32 5 5 7 2 8 1 9 3 10 4 11 6 12 7 15
REMARK SMILES IDX 8 16 9 17 13 18 10 19 12 20 11 21 14 22 16 23 15 24 20 25
REMARK SMILES IDX 21 26 22 27 23 29 24 30 29 31 25 32 27 33 26 34 28 35 30 36
REMARK H PARENT 18 6 6 13 6 14 22 28 30 37
ROOT
ATOM     1   C14 UNL     1       0.373  -1.007  -0.591  1.00  0.00     0.127 A   
ATOM     2   C15 UNL     1       0.893  -2.181  -0.093  1.00  0.00     0.046 A   
ATOM     3   N2  UNL     1       0.150  -2.425   1.033  1.00  0.00    -0.202 N   
ATOM     4   N3  UNL     1      -0.817  -1.490   1.176  1.00  0.00    -0.075 NA  
ATOM     5   N4  UNL     1      -0.683  -0.614   0.194  1.00  0.00    -0.132 NA  
ATOM     6   H20 UNL     1       1.707  -2.827  -0.394  1.00  0.00     0.083 HD  
ENDROOT
BRANCH   1   7
ATOM     7   C5  UNL     1       0.725  -0.194  -1.804  1.00  0.00     0.120 C   
BRANCH   7   8
ATOM     8   C2  UNL     1       1.859   0.863  -1.562  1.00  0.00     0.010 C   
ATOM     9   C1  UNL     1       3.130   0.174  -1.015  1.00  0.00     0.017 C   
ATOM     10  C3  UNL     1       2.255   1.537  -2.897  1.00  0.00     0.017 C   
ATOM     11  C4  UNL     1       1.441   1.964  -0.565  1.00  0.00     0.017 C   
ENDBRANCH   7   8
BRANCH   7  12
ATOM     12  N1  UNL     1      -0.533   0.491  -2.291  1.00  0.00     0.250 N   
ATOM     13  H11 UNL     1      -0.347   1.343  -2.826  1.00  0.00     0.199 HD  
ATOM     14  H12 UNL     1      -1.036   0.797  -1.441  1.00  0.00     0.199 HD  
BRANCH  12  15
ATOM     15  C6  UNL     1      -1.471  -0.374  -3.058  1.00  0.00     0.164 C   
BRANCH  15  16
ATOM     16  C7  UNL     1      -2.792   0.322  -3.236  1.00  0.00    -0.002 A   
ATOM     17  C8  UNL     1      -3.810   0.159  -2.265  1.00  0.00     0.012 A   
ATOM     18  C12 UNL     1      -3.000   1.192  -4.320  1.00  0.00     0.045 A   
ATOM     19  C9  UNL     1      -5.029   0.836  -2.382  1.00  0.00     0.037 A   
ATOM     20  C11 UNL     1      -4.209   1.852  -4.399  1.00  0.00     0.109 A   
ATOM     21  C10 UNL     1      -5.197   1.675  -3.460  1.00  0.00     0.108 A   
ATOM     22  O1  UNL     1      -4.563   2.744  -5.364  1.00  0.00    -0.316 OA  
ATOM     23  O2  UNL     1      -6.300   2.423  -3.721  1.00  0.00    -0.316 OA  
ATOM     24  C13 UNL     1      -5.901   3.090  -4.939  1.00  0.00     0.337 C   
ENDBRANCH  15  16
ENDBRANCH  12  15
ENDBRANCH   7  12
ENDBRANCH   1   7
BRANCH   3  25
ATOM     25  C16 UNL     1       0.332  -3.497   2.013  1.00  0.00     0.158 C   
BRANCH  25  26
ATOM     26  C17 UNL     1      -0.951  -4.330   2.189  1.00  0.00     0.186 C   
BRANCH  26  27
ATOM     27  O3  UNL     1      -1.198  -5.115   1.017  1.00  0.00    -0.394 OA  
ATOM     28  H24 UNL     1      -1.954  -5.697   1.217  1.00  0.00     0.210 HD  
ENDBRANCH  26  27
ENDBRANCH  25  26
BRANCH  25  29
ATOM     29  C18 UNL     1       0.895  -2.917   3.303  1.00  0.00     0.010 A   
ATOM     30  C19 UNL     1       0.062  -2.402   4.315  1.00  0.00     0.009 A   
ATOM     31  C23 UNL     1       2.280  -2.835   3.499  1.00  0.00     0.112 A   
ATOM     32  C20 UNL     1       0.597  -1.855   5.489  1.00  0.00     0.004 A   
ATOM     33  C22 UNL     1       2.808  -2.289   4.671  1.00  0.00     0.153 A   
ATOM     34  C21 UNL     1       1.977  -1.802   5.669  1.00  0.00     0.042 A   
ATOM     35  F1  UNL     1       4.140  -2.217   4.820  1.00  0.00    -0.204 F   
BRANCH  31  36
ATOM     36  O4  UNL     1       3.132  -3.282   2.525  1.00  0.00    -0.358 OA  
ATOM     37  H28 UNL     1       4.038  -3.204   2.887  1.00  0.00     0.218 HD  
ENDBRANCH  31  36
ENDBRANCH  25  29
ENDBRANCH   3  25
TORSDOF 10
