REMARK SMILES CC(C)(C)[C@H]([NH2+]Cc1ccc2c(c1)OCO2)c1cn([C@@H](CO)c2cccc(F)c2O)nn1
REMARK SMILES IDX 17 1 18 2 19 3 31 4 32 5 5 7 2 8 1 9 3 10 4 11 6 12 7 15
REMARK SMILES IDX 8 16 9 17 13 18 10 19 12 20 11 21 14 22 16 23 15 24 20 25
REMARK SMILES IDX 21 26 22 27 23 29 24 30 29 31 25 32 27 33 26 34 28 35 30 36
REMARK H PARENT 18 6 6 13 6 14 22 28 30 37
ROOT
ATOM     1   C14 UNL     1       1.325  -0.295  -0.236  1.00  0.00     0.127 A   
ATOM     2   C15 UNL     1       1.392  -1.399  -1.054  1.00  0.00     0.046 A   
ATOM     3   N2  UNL     1       0.526  -2.294  -0.481  1.00  0.00    -0.202 N   
ATOM     4   N3  UNL     1      -0.075  -1.747   0.600  1.00  0.00    -0.075 NA  
ATOM     5   N4  UNL     1       0.415  -0.530   0.764  1.00  0.00    -0.132 NA  
ATOM     6   H20 UNL     1       1.950  -1.636  -1.950  1.00  0.00     0.083 HD  
ENDROOT
BRANCH   1   7
ATOM     7   C5  UNL     1       1.984   1.048  -0.328  1.00  0.00     0.120 C   
BRANCH   7   8
ATOM     8   C2  UNL     1       3.344   1.151   0.448  1.00  0.00     0.010 C   
ATOM     9   C1  UNL     1       4.329   0.070  -0.053  1.00  0.00     0.017 C   
ATOM     10  C3  UNL     1       4.011   2.521   0.182  1.00  0.00     0.017 C   
ATOM     11  C4  UNL     1       3.174   0.984   1.971  1.00  0.00     0.017 C   
ENDBRANCH   7   8
BRANCH   7  12
ATOM     12  N1  UNL     1       1.012   2.090   0.174  1.00  0.00     0.250 N   
ATOM     13  H11 UNL     1       0.612   1.715   1.048  1.00  0.00     0.199 HD  
ATOM     14  H12 UNL     1       1.469   2.970   0.424  1.00  0.00     0.199 HD  
BRANCH  12  15
ATOM     15  C6  UNL     1      -0.132   2.385  -0.734  1.00  0.00     0.164 C   
BRANCH  15  16
ATOM     16  C7  UNL     1      -1.094   3.328  -0.069  1.00  0.00    -0.002 A   
ATOM     17  C8  UNL     1      -2.086   2.824   0.808  1.00  0.00     0.012 A   
ATOM     18  C12 UNL     1      -0.980   4.715  -0.264  1.00  0.00     0.045 A   
ATOM     19  C9  UNL     1      -2.960   3.688   1.476  1.00  0.00     0.037 A   
ATOM     20  C11 UNL     1      -1.858   5.538   0.410  1.00  0.00     0.109 A   
ATOM     21  C10 UNL     1      -2.820   5.041   1.256  1.00  0.00     0.108 A   
ATOM     22  O1  UNL     1      -1.882   6.895   0.337  1.00  0.00    -0.316 OA  
ATOM     23  O2  UNL     1      -3.572   6.021   1.819  1.00  0.00    -0.316 OA  
ATOM     24  C13 UNL     1      -2.987   7.198   1.220  1.00  0.00     0.337 C   
ENDBRANCH  15  16
ENDBRANCH  12  15
ENDBRANCH   7  12
ENDBRANCH   1   7
BRANCH   3  25
ATOM     25  C16 UNL     1       0.218  -3.654  -0.926  1.00  0.00     0.158 C   
BRANCH  25  26
ATOM     26  C17 UNL     1       0.531  -4.685   0.175  1.00  0.00     0.186 C   
BRANCH  26  27
ATOM     27  O3  UNL     1       1.946  -4.804   0.353  1.00  0.00    -0.394 OA  
ATOM     28  H24 UNL     1       2.091  -5.473   1.048  1.00  0.00     0.210 HD  
ENDBRANCH  26  27
ENDBRANCH  25  26
BRANCH  25  29
ATOM     29  C18 UNL     1      -1.199  -3.707  -1.476  1.00  0.00     0.010 A   
ATOM     30  C19 UNL     1      -2.308  -4.011  -0.663  1.00  0.00     0.009 A   
ATOM     31  C23 UNL     1      -1.443  -3.418  -2.824  1.00  0.00     0.112 A   
ATOM     32  C20 UNL     1      -3.604  -4.052  -1.193  1.00  0.00     0.004 A   
ATOM     33  C22 UNL     1      -2.736  -3.462  -3.347  1.00  0.00     0.153 A   
ATOM     34  C21 UNL     1      -3.820  -3.783  -2.542  1.00  0.00     0.042 A   
ATOM     35  F1  UNL     1      -2.925  -3.183  -4.644  1.00  0.00    -0.204 F   
BRANCH  31  36
ATOM     36  O4  UNL     1      -0.400  -3.077  -3.644  1.00  0.00    -0.358 OA  
ATOM     37  H28 UNL     1      -0.767  -3.014  -4.550  1.00  0.00     0.218 HD  
ENDBRANCH  31  36
ENDBRANCH  25  29
ENDBRANCH   3  25
TORSDOF 10
