REMARK SMILES Cn1cc(-n2cc([C@@H]([NH2+]Cc3ccc4c(c3)OCO4)C3CCCCC3)nn2)ccc1=O
REMARK SMILES IDX 8 1 7 2 5 3 6 4 27 5 26 6 4 7 2 8 3 9 30 10 29 11 28 12 1 13
REMARK SMILES IDX 31 14 9 15 10 18 11 19 12 20 16 21 13 22 15 23 14 24 17 25
REMARK SMILES IDX 19 26 18 27 20 28 21 29 25 30 22 31 24 32 23 33
REMARK H PARENT 9 16 9 17
ROOT
ATOM     1   C6  UNL     1      -0.960  -0.599   0.039  1.00  0.00     0.117 C   
ENDROOT
BRANCH   1   2
ATOM     2   C5  UNL     1      -0.507   0.760   0.479  1.00  0.00     0.127 A   
ATOM     3   N2  UNL     1      -0.132   2.722   1.450  1.00  0.00    -0.179 N   
ATOM     4   C4  UNL     1      -0.889   1.550   1.538  1.00  0.00     0.135 A   
ATOM     5   N5  UNL     1       0.647   2.594   0.327  1.00  0.00    -0.071 NA  
ATOM     6   N4  UNL     1       0.437   1.421  -0.245  1.00  0.00    -0.131 NA  
BRANCH   3   7
ATOM     7   C3  UNL     1      -0.155   3.835   2.326  1.00  0.00     0.072 A   
ATOM     8   N1  UNL     1      -0.932   5.015   4.267  1.00  0.00    -0.276 N   
ATOM     9   C2  UNL     1      -0.928   3.908   3.430  1.00  0.00     0.103 A   
ATOM     10  C23 UNL     1      -0.146   6.141   4.029  1.00  0.00     0.242 A   
ATOM     11  C22 UNL     1       0.718   6.070   2.824  1.00  0.00     0.071 A   
ATOM     12  C21 UNL     1       0.703   4.984   2.041  1.00  0.00     0.033 A   
ATOM     13  C1  UNL     1      -1.805   5.008   5.434  1.00  0.00     0.139 C   
ATOM     14  O3  UNL     1      -0.122   7.150   4.725  1.00  0.00    -0.272 OA  
ENDBRANCH   3   7
ENDBRANCH   1   2
BRANCH   1  15
ATOM     15  N3  UNL     1      -0.597  -0.836  -1.402  1.00  0.00     0.249 N   
ATOM     16  H7  UNL     1      -0.548  -1.832  -1.634  1.00  0.00     0.199 HD  
ATOM     17  H8  UNL     1       0.357  -0.466  -1.534  1.00  0.00     0.199 HD  
BRANCH  15  18
ATOM     18  C7  UNL     1      -1.469  -0.155  -2.401  1.00  0.00     0.164 C   
BRANCH  18  19
ATOM     19  C8  UNL     1      -0.924  -0.349  -3.787  1.00  0.00    -0.002 A   
ATOM     20  C9  UNL     1       0.051   0.542  -4.297  1.00  0.00     0.012 A   
ATOM     21  C13 UNL     1      -1.333  -1.449  -4.563  1.00  0.00     0.045 A   
ATOM     22  C10 UNL     1       0.603   0.351  -5.569  1.00  0.00     0.037 A   
ATOM     23  C12 UNL     1      -0.768  -1.608  -5.812  1.00  0.00     0.109 A   
ATOM     24  C11 UNL     1       0.172  -0.734  -6.301  1.00  0.00     0.108 A   
ATOM     25  O1  UNL     1      -1.052  -2.610  -6.686  1.00  0.00    -0.316 OA  
ATOM     26  O2  UNL     1       0.597  -1.073  -7.546  1.00  0.00    -0.316 OA  
ATOM     27  C14 UNL     1      -0.194  -2.256  -7.796  1.00  0.00     0.337 C   
ENDBRANCH  18  19
ENDBRANCH  15  18
ENDBRANCH   1  15
BRANCH   1  28
ATOM     28  C15 UNL     1      -0.378  -1.725   0.935  1.00  0.00     0.043 C   
ATOM     29  C16 UNL     1      -1.117  -3.061   0.723  1.00  0.00     0.010 C   
ATOM     30  C20 UNL     1       1.142  -1.927   0.778  1.00  0.00     0.010 C   
ATOM     31  C17 UNL     1      -0.592  -4.148   1.660  1.00  0.00     0.001 C   
ATOM     32  C19 UNL     1       1.664  -3.020   1.710  1.00  0.00     0.001 C   
ATOM     33  C18 UNL     1       0.915  -4.334   1.514  1.00  0.00     0.000 C   
ENDBRANCH   1  28
TORSDOF 6
