REMARK SMILES COc1ccnc(Cn2cc([C@H](CC(C)C)[NH2+]Cc3ccc4c(c3)OCO4)nn2)c1
REMARK SMILES IDX 9 1 10 2 11 3 28 4 29 5 8 7 7 8 3 9 4 10 30 11 5 12 6 13
REMARK SMILES IDX 2 14 1 15 12 16 13 17 14 18 15 19 16 20 17 21 18 24 19 25
REMARK SMILES IDX 20 26 24 27 21 28 23 29 22 30 25 31 27 32 26 33
REMARK H PARENT 10 6 17 22 17 23
ROOT
ATOM     1   N2  UNL     1       0.246  -1.173  -1.420  1.00  0.00    -0.206 N   
ATOM     2   C7  UNL     1      -0.301  -0.045  -0.874  1.00  0.00     0.046 A   
ATOM     3   C8  UNL     1       0.782   0.644  -0.381  1.00  0.00     0.127 A   
ATOM     4   N4  UNL     1       1.929  -0.048  -0.674  1.00  0.00    -0.132 NA  
ATOM     5   N5  UNL     1       1.589  -1.159  -1.307  1.00  0.00    -0.076 NA  
ATOM     6   H8  UNL     1      -1.371   0.116  -0.837  1.00  0.00     0.083 HD  
ENDROOT
BRANCH   1   7
ATOM     7   C6  UNL     1      -0.445  -2.320  -1.976  1.00  0.00     0.190 C   
BRANCH   7   8
ATOM     8   C5  UNL     1      -0.854  -3.247  -0.862  1.00  0.00     0.062 A   
ATOM     9   C2  UNL     1      -0.468  -5.168   0.519  1.00  0.00     0.078 A   
ATOM     10  C3  UNL     1      -1.637  -4.862   1.207  1.00  0.00     0.053 A   
ATOM     11  C22 UNL     1      -0.066  -4.351  -0.533  1.00  0.00     0.059 A   
ATOM     12  C4  UNL     1      -2.359  -3.749   0.822  1.00  0.00     0.114 A   
ATOM     13  N1  UNL     1      -1.985  -2.926  -0.182  1.00  0.00    -0.259 NA  
BRANCH   9  14
ATOM     14  O1  UNL     1       0.188  -6.277   0.973  1.00  0.00    -0.349 OA  
ATOM     15  C1  UNL     1       1.317  -6.717   0.227  1.00  0.00     0.203 C   
ENDBRANCH   9  14
ENDBRANCH   7   8
ENDBRANCH   1   7
BRANCH   3  16
ATOM     16  C9  UNL     1       0.849   1.875   0.455  1.00  0.00     0.114 C   
BRANCH  16  17
ATOM     17  C10 UNL     1       1.374   3.096  -0.324  1.00  0.00     0.064 C   
BRANCH  17  18
ATOM     18  C11 UNL     1       0.489   3.547  -1.506  1.00  0.00    -0.012 C   
ATOM     19  C12 UNL     1       1.161   4.713  -2.237  1.00  0.00     0.007 C   
ATOM     20  C13 UNL     1      -0.914   3.959  -1.061  1.00  0.00     0.007 C   
ENDBRANCH  17  18
ENDBRANCH  16  17
BRANCH  16  21
ATOM     21  N3  UNL     1       1.791   1.665   1.627  1.00  0.00     0.249 N   
ATOM     22  H19 UNL     1       2.710   1.433   1.225  1.00  0.00     0.199 HD  
ATOM     23  H20 UNL     1       1.894   2.540   2.147  1.00  0.00     0.199 HD  
BRANCH  21  24
ATOM     24  C14 UNL     1       1.440   0.564   2.578  1.00  0.00     0.164 C   
BRANCH  24  25
ATOM     25  C15 UNL     1       0.088   0.728   3.214  1.00  0.00    -0.002 A   
ATOM     26  C16 UNL     1      -0.974  -0.139   2.858  1.00  0.00     0.012 A   
ATOM     27  C20 UNL     1      -0.141   1.756   4.145  1.00  0.00     0.045 A   
ATOM     28  C17 UNL     1      -2.249   0.021   3.409  1.00  0.00     0.037 A   
ATOM     29  C19 UNL     1      -1.410   1.885   4.670  1.00  0.00     0.109 A   
ATOM     30  C18 UNL     1      -2.435   1.044   4.312  1.00  0.00     0.108 A   
ATOM     31  O2  UNL     1      -1.799   2.825   5.570  1.00  0.00    -0.316 OA  
ATOM     32  O3  UNL     1      -3.598   1.348   4.943  1.00  0.00    -0.316 OA  
ATOM     33  C21 UNL     1      -3.185   2.460   5.766  1.00  0.00     0.337 C   
ENDBRANCH  24  25
ENDBRANCH  21  24
ENDBRANCH  16  21
ENDBRANCH   3  16
TORSDOF 9
