REMARK SMILES Oc1ccc(CCn2cc([C@@H]([NH2+]Cc3ccc4c(c3)OCO4)C3CCCCC3)nn2)cc1F
REMARK SMILES IDX 8 1 9 2 10 3 29 4 30 5 7 7 6 8 5 9 2 10 3 11 32 12 4 13
REMARK SMILES IDX 31 14 33 15 1 16 11 18 12 19 13 22 14 23 15 24 19 25 16 26
REMARK SMILES IDX 18 27 17 28 20 29 22 30 21 31 23 32 24 33 28 34 25 35 27 36
REMARK SMILES IDX 26 37
REMARK H PARENT 9 6 1 17 12 20 12 21
ROOT
ATOM     1   N1  UNL     1       2.976  -0.869   0.631  1.00  0.00    -0.212 N   
ATOM     2   C7  UNL     1       2.574  -0.877  -0.675  1.00  0.00     0.045 A   
ATOM     3   C8  UNL     1       1.210  -1.065  -0.605  1.00  0.00     0.127 A   
ATOM     4   N3  UNL     1       0.853  -1.212   0.713  1.00  0.00    -0.132 NA  
ATOM     5   N4  UNL     1       1.942  -1.118   1.454  1.00  0.00    -0.076 NA  
ATOM     6   H8  UNL     1       3.261  -0.702  -1.492  1.00  0.00     0.083 HD  
ENDROOT
BRANCH   1   7
ATOM     7   C6  UNL     1       4.287  -0.554   1.163  1.00  0.00     0.139 C   
BRANCH   7   8
ATOM     8   C5  UNL     1       4.315   0.743   1.980  1.00  0.00     0.057 C   
BRANCH   8   9
ATOM     9   C4  UNL     1       3.907   1.956   1.176  1.00  0.00    -0.043 A   
ATOM     10  C1  UNL     1       3.106   4.124  -0.411  1.00  0.00     0.107 A   
ATOM     11  C2  UNL     1       4.444   3.740  -0.391  1.00  0.00     0.036 A   
ATOM     12  C25 UNL     1       2.176   3.442   0.367  1.00  0.00     0.153 A   
ATOM     13  C3  UNL     1       4.841   2.652   0.395  1.00  0.00     0.006 A   
ATOM     14  C24 UNL     1       2.569   2.374   1.165  1.00  0.00     0.045 A   
ATOM     15  F1  UNL     1       0.879   3.781   0.333  1.00  0.00    -0.204 F   
BRANCH  10  16
ATOM     16  O1  UNL     1       2.682   5.155  -1.196  1.00  0.00    -0.358 OA  
ATOM     17  H1  UNL     1       3.451   5.647  -1.520  1.00  0.00     0.218 HD  
ENDBRANCH  10  16
ENDBRANCH   8   9
ENDBRANCH   7   8
ENDBRANCH   1   7
BRANCH   3  18
ATOM     18  C9  UNL     1       0.141  -1.094  -1.662  1.00  0.00     0.117 C   
BRANCH  18  19
ATOM     19  N2  UNL     1      -1.212  -0.882  -1.030  1.00  0.00     0.249 N   
ATOM     20  H10 UNL     1      -1.854  -0.348  -1.622  1.00  0.00     0.199 HD  
ATOM     21  H11 UNL     1      -1.055  -0.296  -0.196  1.00  0.00     0.199 HD  
BRANCH  19  22
ATOM     22  C10 UNL     1      -1.898  -2.117  -0.564  1.00  0.00     0.164 C   
BRANCH  22  23
ATOM     23  C11 UNL     1      -3.104  -1.759   0.257  1.00  0.00    -0.002 A   
ATOM     24  C12 UNL     1      -4.375  -1.630  -0.348  1.00  0.00     0.012 A   
ATOM     25  C16 UNL     1      -2.956  -1.486   1.627  1.00  0.00     0.045 A   
ATOM     26  C13 UNL     1      -5.490  -1.243   0.404  1.00  0.00     0.037 A   
ATOM     27  C15 UNL     1      -4.075  -1.106   2.338  1.00  0.00     0.109 A   
ATOM     28  C14 UNL     1      -5.307  -0.987   1.745  1.00  0.00     0.108 A   
ATOM     29  O2  UNL     1      -4.106  -0.805   3.662  1.00  0.00    -0.316 OA  
ATOM     30  O3  UNL     1      -6.269  -0.598   2.621  1.00  0.00    -0.316 OA  
ATOM     31  C17 UNL     1      -5.509  -0.509   3.844  1.00  0.00     0.337 C   
ENDBRANCH  22  23
ENDBRANCH  19  22
ENDBRANCH  18  19
BRANCH  18  32
ATOM     32  C18 UNL     1       0.367  -0.062  -2.800  1.00  0.00     0.043 C   
ATOM     33  C19 UNL     1      -0.556  -0.329  -4.007  1.00  0.00     0.010 C   
ATOM     34  C23 UNL     1       0.236   1.404  -2.343  1.00  0.00     0.010 C   
ATOM     35  C20 UNL     1      -0.283   0.651  -5.148  1.00  0.00     0.001 C   
ATOM     36  C22 UNL     1       0.509   2.377  -3.487  1.00  0.00     0.001 C   
ATOM     37  C21 UNL     1      -0.393   2.100  -4.685  1.00  0.00     0.000 C   
ENDBRANCH  18  32
ENDBRANCH   3  18
TORSDOF 9
