REMARK SMILES COc1ccc(CCn2cc([C@@H]([NH2+]Cc3ccc4c(c3)OCO4)C(C)(C)C)nn2)cc1O
REMARK SMILES IDX 9 1 10 2 11 3 28 4 29 5 8 7 7 8 6 9 3 10 4 11 31 12 5 13
REMARK SMILES IDX 30 14 2 15 1 16 32 17 12 19 13 20 14 23 15 24 16 25 20 26
REMARK SMILES IDX 17 27 19 28 18 29 21 30 23 31 22 32 24 33 25 34 26 35 27 36
REMARK H PARENT 10 6 32 18 13 21 13 22
ROOT
ATOM     1   N1  UNL     1      -2.752  -1.862   0.695  1.00  0.00    -0.212 N   
ATOM     2   C8  UNL     1      -1.912  -1.945   1.772  1.00  0.00     0.045 A   
ATOM     3   C9  UNL     1      -1.357  -0.688   1.853  1.00  0.00     0.127 A   
ATOM     4   N3  UNL     1      -1.933   0.120   0.905  1.00  0.00    -0.132 NA  
ATOM     5   N4  UNL     1      -2.798  -0.607   0.215  1.00  0.00    -0.076 NA  
ATOM     6   H10 UNL     1      -1.715  -2.877   2.284  1.00  0.00     0.083 HD  
ENDROOT
BRANCH   1   7
ATOM     7   C7  UNL     1      -3.369  -2.958  -0.026  1.00  0.00     0.139 C   
BRANCH   7   8
ATOM     8   C6  UNL     1      -2.804  -3.155  -1.442  1.00  0.00     0.057 C   
BRANCH   8   9
ATOM     9   C5  UNL     1      -1.293  -3.196  -1.552  1.00  0.00    -0.044 A   
ATOM     10  C2  UNL     1       1.526  -3.126  -1.758  1.00  0.00     0.104 A   
ATOM     11  C3  UNL     1       0.740  -2.466  -2.699  1.00  0.00     0.036 A   
ATOM     12  C24 UNL     1       0.889  -3.836  -0.736  1.00  0.00     0.102 A   
ATOM     13  C4  UNL     1      -0.657  -2.496  -2.590  1.00  0.00     0.006 A   
ATOM     14  C23 UNL     1      -0.497  -3.907  -0.644  1.00  0.00     0.039 A   
BRANCH  10  15
ATOM     15  O1  UNL     1       2.895  -3.104  -1.693  1.00  0.00    -0.347 OA  
ATOM     16  C1  UNL     1       3.568  -2.665  -2.870  1.00  0.00     0.203 C   
ENDBRANCH  10  15
BRANCH  12  17
ATOM     17  O4  UNL     1       1.631  -4.455   0.235  1.00  0.00    -0.358 OA  
ATOM     18  H31 UNL     1       2.549  -4.461  -0.105  1.00  0.00     0.218 HD  
ENDBRANCH  12  17
ENDBRANCH   8   9
ENDBRANCH   7   8
ENDBRANCH   1   7
BRANCH   3  19
ATOM     19  C10 UNL     1      -0.174  -0.199   2.632  1.00  0.00     0.120 C   
BRANCH  19  20
ATOM     20  N2  UNL     1       0.758   0.513   1.676  1.00  0.00     0.250 N   
ATOM     21  H12 UNL     1       0.184   1.187   1.151  1.00  0.00     0.199 HD  
ATOM     22  H13 UNL     1       1.480   1.051   2.158  1.00  0.00     0.199 HD  
BRANCH  20  23
ATOM     23  C11 UNL     1       1.417  -0.377   0.674  1.00  0.00     0.164 C   
BRANCH  23  24
ATOM     24  C12 UNL     1       2.182   0.426  -0.340  1.00  0.00    -0.002 A   
ATOM     25  C13 UNL     1       1.505   1.001  -1.442  1.00  0.00     0.012 A   
ATOM     26  C17 UNL     1       3.562   0.637  -0.188  1.00  0.00     0.045 A   
ATOM     27  C14 UNL     1       2.193   1.758  -2.395  1.00  0.00     0.037 A   
ATOM     28  C16 UNL     1       4.212   1.388  -1.146  1.00  0.00     0.109 A   
ATOM     29  C15 UNL     1       3.547   1.929  -2.220  1.00  0.00     0.108 A   
ATOM     30  O2  UNL     1       5.539   1.682  -1.154  1.00  0.00    -0.316 OA  
ATOM     31  O3  UNL     1       4.374   2.623  -3.044  1.00  0.00    -0.316 OA  
ATOM     32  C18 UNL     1       5.637   2.469  -2.363  1.00  0.00     0.337 C   
ENDBRANCH  23  24
ENDBRANCH  20  23
ENDBRANCH  19  20
BRANCH  19  33
ATOM     33  C19 UNL     1      -0.525   0.714   3.855  1.00  0.00     0.010 C   
ATOM     34  C20 UNL     1      -1.505  -0.024   4.798  1.00  0.00     0.017 C   
ATOM     35  C21 UNL     1       0.748   1.023   4.677  1.00  0.00     0.017 C   
ATOM     36  C22 UNL     1      -1.166   2.053   3.444  1.00  0.00     0.017 C   
ENDBRANCH  19  33
ENDBRANCH   3  19
TORSDOF 10
