REMARK SMILES CC(C)[C@H]([NH2+]Cc1ccc2c(c1)OCO2)c1cn(Cc2ccc(N)nc2)nn1
REMARK SMILES IDX 16 1 17 2 18 3 27 4 28 5 4 7 2 8 1 9 3 10 5 11 6 14 7 15
REMARK SMILES IDX 8 16 12 17 9 18 11 19 10 20 13 21 15 22 14 23 19 24 20 25
REMARK SMILES IDX 21 26 26 27 22 28 25 29 23 30 24 31
REMARK H PARENT 17 6 5 12 5 13 24 32 24 33
ROOT
ATOM     1   C13 UNL     1      -0.414   1.123  -0.823  1.00  0.00     0.127 A   
ATOM     2   C14 UNL     1      -0.676   2.287  -0.135  1.00  0.00     0.046 A   
ATOM     3   N2  UNL     1      -2.036   2.280   0.022  1.00  0.00    -0.208 N   
ATOM     4   N5  UNL     1      -2.579   1.187  -0.547  1.00  0.00    -0.076 NA  
ATOM     5   N6  UNL     1      -1.597   0.473  -1.071  1.00  0.00    -0.132 NA  
ATOM     6   H18 UNL     1      -0.051   3.068   0.276  1.00  0.00     0.083 HD  
ENDROOT
BRANCH   1   7
ATOM     7   C4  UNL     1       0.874   0.479  -1.223  1.00  0.00     0.117 C   
BRANCH   7   8
ATOM     8   C2  UNL     1       1.353   0.845  -2.651  1.00  0.00     0.037 C   
ATOM     9   C1  UNL     1       0.373   0.457  -3.764  1.00  0.00     0.014 C   
ATOM     10  C3  UNL     1       1.703   2.333  -2.764  1.00  0.00     0.014 C   
ENDBRANCH   7   8
BRANCH   7  11
ATOM     11  N1  UNL     1       0.744  -1.022  -1.131  1.00  0.00     0.249 N   
ATOM     12  H9  UNL     1      -0.154  -1.271  -1.571  1.00  0.00     0.199 HD  
ATOM     13  H10 UNL     1       1.474  -1.498  -1.670  1.00  0.00     0.199 HD  
BRANCH  11  14
ATOM     14  C5  UNL     1       0.718  -1.576   0.253  1.00  0.00     0.164 C   
BRANCH  14  15
ATOM     15  C6  UNL     1       0.525  -3.066   0.214  1.00  0.00    -0.002 A   
ATOM     16  C7  UNL     1       1.641  -3.936   0.245  1.00  0.00     0.012 A   
ATOM     17  C11 UNL     1      -0.769  -3.602   0.093  1.00  0.00     0.045 A   
ATOM     18  C8  UNL     1       1.472  -5.322   0.166  1.00  0.00     0.037 A   
ATOM     19  C10 UNL     1      -0.900  -4.973   0.017  1.00  0.00     0.109 A   
ATOM     20  C9  UNL     1       0.189  -5.809   0.052  1.00  0.00     0.108 A   
ATOM     21  O1  UNL     1      -2.071  -5.650  -0.104  1.00  0.00    -0.316 OA  
ATOM     22  O2  UNL     1      -0.161  -7.118  -0.039  1.00  0.00    -0.316 OA  
ATOM     23  C12 UNL     1      -1.599  -7.016  -0.113  1.00  0.00     0.337 C   
ENDBRANCH  14  15
ENDBRANCH  11  14
ENDBRANCH   7  11
ENDBRANCH   1   7
BRANCH   3  24
ATOM     24  C15 UNL     1      -2.862   3.210   0.776  1.00  0.00     0.171 C   
BRANCH  24  25
ATOM     25  C16 UNL     1      -2.638   3.033   2.251  1.00  0.00    -0.010 A   
ATOM     26  C17 UNL     1      -2.036   4.022   3.030  1.00  0.00     0.010 A   
ATOM     27  C20 UNL     1      -2.995   1.851   2.893  1.00  0.00     0.118 A   
ATOM     28  C18 UNL     1      -1.806   3.784   4.383  1.00  0.00     0.044 A   
ATOM     29  N4  UNL     1      -2.764   1.597   4.199  1.00  0.00    -0.242 NA  
ATOM     30  C19 UNL     1      -2.186   2.566   4.927  1.00  0.00     0.115 A   
BRANCH  30  31
ATOM     31  N3  UNL     1      -1.928   2.275   6.261  1.00  0.00    -0.343 N   
ATOM     32  H23 UNL     1      -2.334   1.363   6.457  1.00  0.00     0.144 HD  
ATOM     33  H24 UNL     1      -2.299   2.985   6.883  1.00  0.00     0.144 HD  
ENDBRANCH  30  31
ENDBRANCH  24  25
ENDBRANCH   3  24
TORSDOF 8
