REMARK SMILES [O-]N([O-])c1ccc(F)c(Cn2cc([C@@H]([NH2+]Cc3ccc4c(c3)OCO4)C3CCCC3)nn2)c1
REMARK SMILES IDX 11 1 12 2 13 3 31 4 32 5 10 7 9 8 4 9 5 10 33 11 6 12 7 13
REMARK SMILES IDX 8 14 2 15 1 16 3 17 14 18 15 19 16 22 17 23 18 24 22 25
REMARK SMILES IDX 19 26 21 27 20 28 23 29 25 30 24 31 26 32 27 33 30 34 28 35
REMARK SMILES IDX 29 36
REMARK H PARENT 12 6 15 20 15 21
ROOT
ATOM     1   N2  UNL     1      -2.107  -1.023  -1.352  1.00  0.00    -0.208 N   
ATOM     2   C7  UNL     1      -1.545  -2.125  -0.767  1.00  0.00     0.046 A   
ATOM     3   C8  UNL     1      -0.915  -1.623   0.351  1.00  0.00     0.127 A   
ATOM     4   N4  UNL     1      -1.098  -0.264   0.398  1.00  0.00    -0.132 NA  
ATOM     5   N5  UNL     1      -1.819   0.091  -0.652  1.00  0.00    -0.076 NA  
ATOM     6   H5  UNL     1      -1.647  -3.117  -1.185  1.00  0.00     0.083 HD  
ENDROOT
BRANCH   1   7
ATOM     7   C6  UNL     1      -2.922  -0.954  -2.552  1.00  0.00     0.172 C   
BRANCH   7   8
ATOM     8   C5  UNL     1      -2.076  -0.668  -3.763  1.00  0.00     0.009 A   
ATOM     9   C1  UNL     1      -1.070   0.882  -5.344  1.00  0.00     0.118 A   
ATOM     10  C2  UNL     1      -0.457  -0.183  -6.019  1.00  0.00     0.034 A   
ATOM     11  C23 UNL     1      -1.877   0.646  -4.218  1.00  0.00     0.039 A   
ATOM     12  C3  UNL     1      -0.648  -1.487  -5.560  1.00  0.00     0.042 A   
ATOM     13  C4  UNL     1      -1.446  -1.716  -4.441  1.00  0.00     0.128 A   
ATOM     14  F1  UNL     1      -1.599  -2.972  -4.000  1.00  0.00    -0.207 F   
BRANCH   9  15
ATOM     15  N1  UNL     1      -0.856   2.260  -5.809  1.00  0.00     0.092 N   
ATOM     16  O1  UNL     1      -1.432   3.167  -5.194  1.00  0.00    -0.138 OA  
ATOM     17  O2  UNL     1      -0.103   2.428  -6.778  1.00  0.00    -0.138 OA  
ENDBRANCH   9  15
ENDBRANCH   7   8
ENDBRANCH   1   7
BRANCH   3  18
ATOM     18  C9  UNL     1      -0.088  -2.287   1.407  1.00  0.00     0.117 C   
BRANCH  18  19
ATOM     19  N3  UNL     1       0.983  -1.333   1.877  1.00  0.00     0.249 N   
ATOM     20  H7  UNL     1       0.518  -0.428   2.049  1.00  0.00     0.199 HD  
ATOM     21  H8  UNL     1       1.390  -1.619   2.772  1.00  0.00     0.199 HD  
BRANCH  19  22
ATOM     22  C10 UNL     1       2.088  -1.086   0.910  1.00  0.00     0.164 C   
BRANCH  22  23
ATOM     23  C11 UNL     1       3.047  -0.070   1.459  1.00  0.00    -0.002 A   
ATOM     24  C12 UNL     1       2.806   1.312   1.264  1.00  0.00     0.012 A   
ATOM     25  C16 UNL     1       4.158  -0.479   2.216  1.00  0.00     0.045 A   
ATOM     26  C13 UNL     1       3.667   2.274   1.802  1.00  0.00     0.037 A   
ATOM     27  C15 UNL     1       4.986   0.496   2.732  1.00  0.00     0.109 A   
ATOM     28  C14 UNL     1       4.749   1.833   2.531  1.00  0.00     0.108 A   
ATOM     29  O3  UNL     1       6.098   0.272   3.481  1.00  0.00    -0.316 OA  
ATOM     30  O4  UNL     1       5.684   2.620   3.122  1.00  0.00    -0.316 OA  
ATOM     31  C17 UNL     1       6.552   1.627   3.708  1.00  0.00     0.337 C   
ENDBRANCH  22  23
ENDBRANCH  19  22
ENDBRANCH  18  19
BRANCH  18  32
ATOM     32  C18 UNL     1      -0.935  -2.708   2.625  1.00  0.00     0.043 C   
ATOM     33  C19 UNL     1      -0.143  -3.418   3.729  1.00  0.00     0.010 C   
ATOM     34  C22 UNL     1      -2.006  -3.752   2.292  1.00  0.00     0.010 C   
ATOM     35  C20 UNL     1      -1.180  -4.199   4.532  1.00  0.00     0.001 C   
ATOM     36  C21 UNL     1      -2.423  -4.293   3.652  1.00  0.00     0.001 C   
ENDBRANCH  18  32
ENDBRANCH   3  18
TORSDOF 8
