REMARK SMILES CC(=O)c1ccc(-n2cc([C@@H]([NH2+]Cc3ccc4c(c3)OCO4)C3CCCCC3)nn2)cc1
REMARK SMILES IDX 8 1 9 2 10 3 29 4 30 5 7 6 4 7 5 8 32 9 6 10 31 11 2 12 1 13
REMARK SMILES IDX 3 14 11 15 12 16 13 19 14 20 15 21 19 22 16 23 18 24 17 25
REMARK SMILES IDX 20 26 22 27 21 28 23 29 24 30 28 31 25 32 27 33 26 34
REMARK H PARENT 12 17 12 18
ROOT
ATOM     1   N1  UNL     1       0.809  -0.525   2.696  1.00  0.00    -0.181 N   
ATOM     2   C7  UNL     1       0.722  -0.821   1.349  1.00  0.00     0.135 A   
ATOM     3   C8  UNL     1       0.207   0.316   0.763  1.00  0.00     0.127 A   
ATOM     4   N3  UNL     1      -0.045   1.241   1.736  1.00  0.00    -0.131 NA  
ATOM     5   N4  UNL     1       0.312   0.723   2.899  1.00  0.00    -0.071 NA  
ENDROOT
BRANCH   1   6
ATOM     6   C6  UNL     1       1.303  -1.321   3.761  1.00  0.00     0.058 A   
ATOM     7   C3  UNL     1       2.276  -2.867   5.905  1.00  0.00     0.017 A   
ATOM     8   C4  UNL     1       1.787  -1.573   6.126  1.00  0.00     0.014 A   
ATOM     9   C25 UNL     1       2.280  -3.381   4.604  1.00  0.00     0.014 A   
ATOM     10  C5  UNL     1       1.302  -0.804   5.064  1.00  0.00     0.027 A   
ATOM     11  C24 UNL     1       1.796  -2.613   3.534  1.00  0.00     0.027 A   
BRANCH   7  12
ATOM     12  C2  UNL     1       2.775  -3.646   7.078  1.00  0.00     0.159 C   
ATOM     13  C1  UNL     1       3.246  -5.060   6.873  1.00  0.00     0.093 C   
ATOM     14  O1  UNL     1       2.799  -3.121   8.189  1.00  0.00    -0.295 OA  
ENDBRANCH   7  12
ENDBRANCH   1   6
BRANCH   3  15
ATOM     15  C9  UNL     1      -0.129   0.644  -0.658  1.00  0.00     0.117 C   
BRANCH  15  16
ATOM     16  N2  UNL     1      -1.250   1.665  -0.690  1.00  0.00     0.249 N   
ATOM     17  H8  UNL     1      -1.065   2.320   0.086  1.00  0.00     0.199 HD  
ATOM     18  H9  UNL     1      -1.214   2.216  -1.555  1.00  0.00     0.199 HD  
BRANCH  16  19
ATOM     19  C10 UNL     1      -2.630   1.130  -0.511  1.00  0.00     0.164 C   
BRANCH  19  20
ATOM     20  C11 UNL     1      -3.127   0.416  -1.740  1.00  0.00    -0.002 A   
ATOM     21  C12 UNL     1      -3.307  -0.986  -1.733  1.00  0.00     0.012 A   
ATOM     22  C16 UNL     1      -3.392   1.139  -2.918  1.00  0.00     0.045 A   
ATOM     23  C13 UNL     1      -3.733  -1.663  -2.883  1.00  0.00     0.037 A   
ATOM     24  C15 UNL     1      -3.805   0.440  -4.035  1.00  0.00     0.109 A   
ATOM     25  C14 UNL     1      -3.970  -0.922  -4.019  1.00  0.00     0.108 A   
ATOM     26  O2  UNL     1      -4.085   0.983  -5.248  1.00  0.00    -0.316 OA  
ATOM     27  O3  UNL     1      -4.379  -1.410  -5.221  1.00  0.00    -0.316 OA  
ATOM     28  C17 UNL     1      -4.482  -0.193  -5.993  1.00  0.00     0.337 C   
ENDBRANCH  19  20
ENDBRANCH  16  19
ENDBRANCH  15  16
BRANCH  15  29
ATOM     29  C18 UNL     1       1.058   1.206  -1.486  1.00  0.00     0.043 C   
ATOM     30  C19 UNL     1       2.161   0.150  -1.699  1.00  0.00     0.010 C   
ATOM     31  C23 UNL     1       1.666   2.503  -0.919  1.00  0.00     0.010 C   
ATOM     32  C20 UNL     1       3.279   0.682  -2.594  1.00  0.00     0.001 C   
ATOM     33  C22 UNL     1       2.792   3.030  -1.810  1.00  0.00     0.001 C   
ATOM     34  C21 UNL     1       3.869   1.977  -2.045  1.00  0.00     0.000 C   
ENDBRANCH  15  29
ENDBRANCH   3  15
TORSDOF 7
