REMARK SMILES COc1cc(-n2cc([C@@H]([NH2+]Cc3ccc4c(c3)OCO4)C(C)C)nn2)ccc1N
REMARK SMILES IDX 6 1 7 2 8 3 24 4 25 5 5 6 3 7 4 8 28 9 27 10 26 11 2 12 1 13
REMARK SMILES IDX 29 14 9 17 10 18 11 21 12 22 13 23 17 24 14 25 16 26 15 27
REMARK SMILES IDX 18 28 20 29 19 30 21 31 22 32 23 33
REMARK H PARENT 29 15 29 16 10 19 10 20
ROOT
ATOM     1   N1  UNL     1       1.831  -1.437   1.746  1.00  0.00    -0.181 N   
ATOM     2   C5  UNL     1       0.706  -2.155   1.384  1.00  0.00     0.135 A   
ATOM     3   C6  UNL     1       0.191  -1.492   0.292  1.00  0.00     0.127 A   
ATOM     4   N3  UNL     1       0.974  -0.406   0.021  1.00  0.00    -0.131 NA  
ATOM     5   N4  UNL     1       1.953  -0.374   0.909  1.00  0.00    -0.071 NA  
ENDROOT
BRANCH   1   6
ATOM     6   C4  UNL     1       2.746  -1.677   2.801  1.00  0.00     0.060 A   
ATOM     7   C2  UNL     1       4.740  -1.019   4.029  1.00  0.00     0.097 A   
ATOM     8   C3  UNL     1       3.828  -0.799   2.992  1.00  0.00     0.061 A   
ATOM     9   C21 UNL     1       4.552  -2.102   4.910  1.00  0.00     0.054 A   
ATOM     10  C20 UNL     1       3.501  -2.994   4.686  1.00  0.00     0.028 A   
ATOM     11  C19 UNL     1       2.590  -2.780   3.648  1.00  0.00     0.028 A   
BRANCH   7  12
ATOM     12  O1  UNL     1       5.829  -0.228   4.305  1.00  0.00    -0.347 OA  
ATOM     13  C1  UNL     1       6.127   0.823   3.396  1.00  0.00     0.203 C   
ENDBRANCH   7  12
BRANCH   9  14
ATOM     14  N5  UNL     1       5.524  -2.411   5.877  1.00  0.00    -0.356 N   
ATOM     15  H25 UNL     1       6.105  -1.599   6.090  1.00  0.00     0.143 HD  
ATOM     16  H26 UNL     1       5.172  -2.877   6.706  1.00  0.00     0.143 HD  
ENDBRANCH   9  14
ENDBRANCH   1   6
BRANCH   3  17
ATOM     17  C7  UNL     1      -1.015  -1.764  -0.553  1.00  0.00     0.117 C   
BRANCH  17  18
ATOM     18  N2  UNL     1      -1.451  -0.515  -1.270  1.00  0.00     0.249 N   
ATOM     19  H7  UNL     1      -2.018  -0.720  -2.098  1.00  0.00     0.199 HD  
ATOM     20  H8  UNL     1      -0.595  -0.057  -1.617  1.00  0.00     0.199 HD  
BRANCH  18  21
ATOM     21  C8  UNL     1      -2.168   0.488  -0.432  1.00  0.00     0.164 C   
BRANCH  21  22
ATOM     22  C9  UNL     1      -2.458   1.725  -1.234  1.00  0.00    -0.002 A   
ATOM     23  C10 UNL     1      -3.695   1.874  -1.904  1.00  0.00     0.012 A   
ATOM     24  C14 UNL     1      -1.472   2.719  -1.367  1.00  0.00     0.045 A   
ATOM     25  C11 UNL     1      -3.953   3.002  -2.693  1.00  0.00     0.037 A   
ATOM     26  C13 UNL     1      -1.759   3.817  -2.152  1.00  0.00     0.109 A   
ATOM     27  C12 UNL     1      -2.964   3.955  -2.796  1.00  0.00     0.108 A   
ATOM     28  O2  UNL     1      -0.922   4.861  -2.386  1.00  0.00    -0.316 OA  
ATOM     29  O3  UNL     1      -3.038   5.104  -3.515  1.00  0.00    -0.316 OA  
ATOM     30  C15 UNL     1      -1.752   5.694  -3.228  1.00  0.00     0.337 C   
ENDBRANCH  21  22
ENDBRANCH  18  21
ENDBRANCH  17  18
BRANCH  17  31
ATOM     31  C16 UNL     1      -0.769  -2.909  -1.571  1.00  0.00     0.037 C   
ATOM     32  C17 UNL     1      -2.081  -3.412  -2.184  1.00  0.00     0.014 C   
ATOM     33  C18 UNL     1       0.218  -2.546  -2.686  1.00  0.00     0.014 C   
ENDBRANCH  17  31
ENDBRANCH   3  17
TORSDOF 8
