REMARK SMILES CC(=O)n1ccc(C(=O)n2cc([C@@H]([NH2+]Cc3ccc4c(c3)OCO4)C3CCCC3)nn2)c1
REMARK SMILES IDX 10 1 11 2 12 3 30 4 31 5 8 6 9 7 7 8 4 9 5 10 32 11 6 12
REMARK SMILES IDX 2 13 1 14 3 15 13 16 14 17 15 20 16 21 17 22 21 23 18 24
REMARK SMILES IDX 20 25 19 26 22 27 24 28 23 29 25 30 26 31 29 32 27 33 28 34
REMARK H PARENT 14 18 14 19
ROOT
ATOM     1   N2  UNL     1      -2.204  -1.662  -0.441  1.00  0.00    -0.143 N   
ATOM     2   C7  UNL     1      -1.310  -1.442   0.598  1.00  0.00     0.139 A   
ATOM     3   C8  UNL     1      -0.415  -0.515   0.119  1.00  0.00     0.128 A   
ATOM     4   N4  UNL     1      -0.737  -0.224  -1.179  1.00  0.00    -0.131 NA  
ATOM     5   N5  UNL     1      -1.810  -0.923  -1.510  1.00  0.00    -0.068 NA  
ENDROOT
BRANCH   1   6
ATOM     6   C6  UNL     1      -3.343  -2.494  -0.448  1.00  0.00     0.272 C   
ATOM     7   O2  UNL     1      -3.559  -3.075   0.615  1.00  0.00    -0.269 OA  
BRANCH   6   8
ATOM     8   C5  UNL     1      -4.241  -2.696  -1.592  1.00  0.00     0.055 A   
ATOM     9   N1  UNL     1      -5.195  -2.671  -3.661  1.00  0.00    -0.254 N   
ATOM     10  C3  UNL     1      -6.015  -3.403  -2.826  1.00  0.00     0.084 A   
ATOM     11  C23 UNL     1      -4.116  -2.245  -2.893  1.00  0.00     0.096 A   
ATOM     12  C4  UNL     1      -5.457  -3.440  -1.567  1.00  0.00     0.031 A   
BRANCH   9  13
ATOM     13  C2  UNL     1      -5.365  -2.384  -5.031  1.00  0.00     0.219 C   
ATOM     14  C1  UNL     1      -6.608  -2.937  -5.657  1.00  0.00     0.112 C   
ATOM     15  O1  UNL     1      -4.514  -1.725  -5.614  1.00  0.00    -0.277 OA  
ENDBRANCH   9  13
ENDBRANCH   6   8
ENDBRANCH   1   6
BRANCH   3  16
ATOM     16  C9  UNL     1       0.784   0.125   0.746  1.00  0.00     0.117 C   
BRANCH  16  17
ATOM     17  N3  UNL     1       1.824   0.435  -0.314  1.00  0.00     0.249 N   
ATOM     18  H8  UNL     1       1.330   0.915  -1.079  1.00  0.00     0.199 HD  
ATOM     19  H9  UNL     1       2.519   1.092   0.054  1.00  0.00     0.199 HD  
BRANCH  17  20
ATOM     20  C10 UNL     1       2.536  -0.736  -0.910  1.00  0.00     0.164 C   
BRANCH  20  21
ATOM     21  C11 UNL     1       3.411  -1.454   0.079  1.00  0.00    -0.002 A   
ATOM     22  C12 UNL     1       3.055  -2.745   0.538  1.00  0.00     0.012 A   
ATOM     23  C16 UNL     1       4.573  -0.839   0.577  1.00  0.00     0.045 A   
ATOM     24  C13 UNL     1       3.838  -3.412   1.487  1.00  0.00     0.037 A   
ATOM     25  C15 UNL     1       5.321  -1.524   1.512  1.00  0.00     0.109 A   
ATOM     26  C14 UNL     1       4.964  -2.773   1.957  1.00  0.00     0.108 A   
ATOM     27  O3  UNL     1       6.460  -1.071   2.098  1.00  0.00    -0.316 OA  
ATOM     28  O4  UNL     1       5.833  -3.264   2.877  1.00  0.00    -0.316 OA  
ATOM     29  C17 UNL     1       6.798  -2.192   2.946  1.00  0.00     0.337 C   
ENDBRANCH  20  21
ENDBRANCH  17  20
ENDBRANCH  16  17
BRANCH  16  30
ATOM     30  C18 UNL     1       0.488   1.440   1.497  1.00  0.00     0.043 C   
ATOM     31  C19 UNL     1      -0.419   1.296   2.729  1.00  0.00     0.010 C   
ATOM     32  C22 UNL     1      -0.173   2.555   0.683  1.00  0.00     0.010 C   
ATOM     33  C20 UNL     1      -1.148   2.635   2.875  1.00  0.00     0.001 C   
ATOM     34  C21 UNL     1      -0.621   3.530   1.761  1.00  0.00     0.001 C   
ENDBRANCH  16  30
ENDBRANCH   3  16
TORSDOF 8
