REMARK SMILES CC(C)(C)[C@H]([NH2+]Cc1ccc2c(c1)OCO2)c1cn(CCc2cncs2)nn1
REMARK SMILES IDX 17 1 18 2 19 3 27 4 28 5 5 7 2 8 1 9 3 10 4 11 6 12 7 15
REMARK SMILES IDX 8 16 9 17 13 18 10 19 12 20 11 21 14 22 16 23 15 24 20 25
REMARK SMILES IDX 21 26 22 27 23 28 26 29 24 30 25 31
REMARK H PARENT 18 6 6 13 6 14
ROOT
ATOM     1   C14 UNL     1       2.002  -0.014  -0.727  1.00  0.00     0.127 A   
ATOM     2   C15 UNL     1       2.725  -0.369   0.390  1.00  0.00     0.045 A   
ATOM     3   N2  UNL     1       3.559   0.695   0.594  1.00  0.00    -0.212 N   
ATOM     4   N4  UNL     1       3.382   1.635  -0.353  1.00  0.00    -0.076 NA  
ATOM     5   N5  UNL     1       2.420   1.219  -1.160  1.00  0.00    -0.132 NA  
ATOM     6   H20 UNL     1       2.692  -1.219   1.058  1.00  0.00     0.083 HD  
ENDROOT
BRANCH   1   7
ATOM     7   C5  UNL     1       0.842  -0.683  -1.399  1.00  0.00     0.120 C   
BRANCH   7   8
ATOM     8   C2  UNL     1       1.221  -1.491  -2.689  1.00  0.00     0.010 C   
ATOM     9   C1  UNL     1       1.733  -0.593  -3.832  1.00  0.00     0.017 C   
ATOM     10  C3  UNL     1       2.317  -2.530  -2.358  1.00  0.00     0.017 C   
ATOM     11  C4  UNL     1      -0.006  -2.280  -3.204  1.00  0.00     0.017 C   
ENDBRANCH   7   8
BRANCH   7  12
ATOM     12  N1  UNL     1      -0.204   0.368  -1.718  1.00  0.00     0.250 N   
ATOM     13  H11 UNL     1       0.309   1.165  -2.120  1.00  0.00     0.199 HD  
ATOM     14  H12 UNL     1      -0.857   0.041  -2.432  1.00  0.00     0.199 HD  
BRANCH  12  15
ATOM     15  C6  UNL     1      -0.990   0.884  -0.554  1.00  0.00     0.164 C   
BRANCH  15  16
ATOM     16  C7  UNL     1      -1.954  -0.137  -0.015  1.00  0.00    -0.002 A   
ATOM     17  C8  UNL     1      -3.121  -0.478  -0.740  1.00  0.00     0.012 A   
ATOM     18  C12 UNL     1      -1.683  -0.784   1.203  1.00  0.00     0.045 A   
ATOM     19  C9  UNL     1      -4.001  -1.457  -0.264  1.00  0.00     0.037 A   
ATOM     20  C11 UNL     1      -2.570  -1.743   1.645  1.00  0.00     0.109 A   
ATOM     21  C10 UNL     1      -3.696  -2.072   0.931  1.00  0.00     0.108 A   
ATOM     22  O1  UNL     1      -2.453  -2.462   2.792  1.00  0.00    -0.316 OA  
ATOM     23  O2  UNL     1      -4.429  -3.041   1.538  1.00  0.00    -0.316 OA  
ATOM     24  C13 UNL     1      -3.652  -3.268   2.733  1.00  0.00     0.337 C   
ENDBRANCH  15  16
ENDBRANCH  12  15
ENDBRANCH   7  12
ENDBRANCH   1   7
BRANCH   3  25
ATOM     25  C16 UNL     1       4.418   0.944   1.734  1.00  0.00     0.139 C   
BRANCH  25  26
ATOM     26  C17 UNL     1       3.894   2.056   2.649  1.00  0.00     0.066 C   
BRANCH  26  27
ATOM     27  C18 UNL     1       2.473   1.831   3.071  1.00  0.00     0.011 A   
ATOM     28  C19 UNL     1       1.321   2.344   2.506  1.00  0.00     0.122 A   
ATOM     29  S1  UNL     1       2.059   0.811   4.383  1.00  0.00    -0.081 S   
ATOM     30  N3  UNL     1       0.134   1.874   3.030  1.00  0.00    -0.257 NA  
ATOM     31  C20 UNL     1       0.398   1.107   4.068  1.00  0.00     0.156 A   
ENDBRANCH  26  27
ENDBRANCH  25  26
ENDBRANCH   3  25
TORSDOF 8
