REMARK SMILES Cn1cc(Cn2cc([C@@H]([NH2+]Cc3ccc4c(c3)OCO4)C(C)(C)C)nn2)c(C(C)(C)C)n1
REMARK SMILES IDX 6 1 7 2 8 3 25 4 26 5 5 7 4 8 2 9 3 10 32 11 27 12 1 13
REMARK SMILES IDX 28 14 29 15 30 16 31 17 9 18 10 19 11 22 12 23 13 24 17 25
REMARK SMILES IDX 14 26 16 27 15 28 18 29 20 30 19 31 21 32 22 33 23 34 24 35
REMARK H PARENT 7 6 10 20 10 21
ROOT
ATOM     1   N2  UNL     1       0.215   3.176   0.057  1.00  0.00    -0.208 N   
ATOM     2   C5  UNL     1       0.916   2.125   0.584  1.00  0.00     0.046 A   
ATOM     3   C6  UNL     1       1.937   1.915  -0.315  1.00  0.00     0.127 A   
ATOM     4   N4  UNL     1       1.865   2.859  -1.304  1.00  0.00    -0.132 NA  
ATOM     5   N5  UNL     1       0.823   3.637  -1.054  1.00  0.00    -0.076 NA  
ATOM     6   H7  UNL     1       0.600   1.604   1.477  1.00  0.00     0.083 HD  
ENDROOT
BRANCH   1   7
ATOM     7   C4  UNL     1      -1.044   3.754   0.515  1.00  0.00     0.172 C   
BRANCH   7   8
ATOM     8   C3  UNL     1      -2.056   2.686   0.771  1.00  0.00     0.011 A   
ATOM     9   N1  UNL     1      -3.251   1.139   1.783  1.00  0.00    -0.235 N   
ATOM     10  C2  UNL     1      -2.267   2.054   1.986  1.00  0.00     0.102 A   
ATOM     11  N6  UNL     1      -3.673   1.099   0.516  1.00  0.00    -0.186 NA  
ATOM     12  C20 UNL     1      -3.018   2.087  -0.111  1.00  0.00     0.070 A   
ATOM     13  C1  UNL     1      -3.836   0.249   2.757  1.00  0.00     0.159 C   
BRANCH  12  14
ATOM     14  C21 UNL     1      -3.393   2.420  -1.558  1.00  0.00     0.006 C   
ATOM     15  C22 UNL     1      -4.091   3.794  -1.613  1.00  0.00     0.017 C   
ATOM     16  C23 UNL     1      -4.378   1.377  -2.148  1.00  0.00     0.017 C   
ATOM     17  C24 UNL     1      -2.162   2.438  -2.480  1.00  0.00     0.017 C   
ENDBRANCH  12  14
ENDBRANCH   7   8
ENDBRANCH   1   7
BRANCH   3  18
ATOM     18  C7  UNL     1       2.936   0.805  -0.402  1.00  0.00     0.120 C   
BRANCH  18  19
ATOM     19  N3  UNL     1       3.002   0.291  -1.829  1.00  0.00     0.250 N   
ATOM     20  H9  UNL     1       3.734  -0.416  -1.923  1.00  0.00     0.199 HD  
ATOM     21  H10 UNL     1       3.264   1.091  -2.419  1.00  0.00     0.199 HD  
BRANCH  19  22
ATOM     22  C8  UNL     1       1.732  -0.263  -2.401  1.00  0.00     0.164 C   
BRANCH  22  23
ATOM     23  C9  UNL     1       1.154  -1.399  -1.604  1.00  0.00    -0.002 A   
ATOM     24  C10 UNL     1      -0.056  -1.222  -0.889  1.00  0.00     0.012 A   
ATOM     25  C14 UNL     1       1.820  -2.634  -1.539  1.00  0.00     0.045 A   
ATOM     26  C11 UNL     1      -0.591  -2.253  -0.110  1.00  0.00     0.037 A   
ATOM     27  C13 UNL     1       1.265  -3.629  -0.760  1.00  0.00     0.109 A   
ATOM     28  C12 UNL     1       0.096  -3.444  -0.064  1.00  0.00     0.108 A   
ATOM     29  O1  UNL     1       1.783  -4.872  -0.584  1.00  0.00    -0.316 OA  
ATOM     30  O2  UNL     1      -0.269  -4.548   0.639  1.00  0.00    -0.316 OA  
ATOM     31  C15 UNL     1       0.785  -5.466   0.277  1.00  0.00     0.337 C   
ENDBRANCH  22  23
ENDBRANCH  19  22
ENDBRANCH  18  19
BRANCH  18  32
ATOM     32  C16 UNL     1       4.368   1.182   0.115  1.00  0.00     0.010 C   
ATOM     33  C17 UNL     1       4.282   1.701   1.570  1.00  0.00     0.017 C   
ATOM     34  C18 UNL     1       5.276  -0.070   0.135  1.00  0.00     0.017 C   
ATOM     35  C19 UNL     1       5.058   2.261  -0.742  1.00  0.00     0.017 C   
ENDBRANCH  18  32
ENDBRANCH   3  18
TORSDOF 8
