REMARK SMILES C[C@H](c1ccc(F)nc1)n1cc([C@@H]([NH2+]Cc2ccc3c(c2)OCO3)C2CCCC2)nn1
REMARK SMILES IDX 10 1 11 2 12 3 30 4 31 5 2 7 1 8 3 9 4 10 9 11 5 12 8 13
REMARK SMILES IDX 6 14 7 15 13 16 14 17 15 20 16 21 17 22 21 23 18 24 20 25
REMARK SMILES IDX 19 26 22 27 24 28 23 29 25 30 26 31 29 32 27 33 28 34
REMARK H PARENT 11 6 14 18 14 19
ROOT
ATOM     1   N2  UNL     1       1.724  -0.843  -0.921  1.00  0.00    -0.205 N   
ATOM     2   C8  UNL     1       1.100   0.194  -0.279  1.00  0.00     0.046 A   
ATOM     3   C9  UNL     1       0.750  -0.332   0.944  1.00  0.00     0.127 A   
ATOM     4   N4  UNL     1       1.182  -1.632   1.016  1.00  0.00    -0.132 NA  
ATOM     5   N5  UNL     1       1.771  -1.934  -0.129  1.00  0.00    -0.075 NA  
ATOM     6   H8  UNL     1       0.955   1.161  -0.740  1.00  0.00     0.083 HD  
ENDROOT
BRANCH   1   7
ATOM     7   C2  UNL     1       2.325  -0.883  -2.259  1.00  0.00     0.128 C   
ATOM     8   C1  UNL     1       3.751  -0.329  -2.204  1.00  0.00     0.036 C   
BRANCH   7   9
ATOM     9   C3  UNL     1       1.405  -0.238  -3.280  1.00  0.00    -0.007 A   
ATOM     10  C4  UNL     1       1.661   0.993  -3.897  1.00  0.00     0.012 A   
ATOM     11  C7  UNL     1       0.215  -0.881  -3.630  1.00  0.00     0.120 A   
ATOM     12  C5  UNL     1       0.745   1.515  -4.809  1.00  0.00     0.061 A   
ATOM     13  N1  UNL     1      -0.692  -0.389  -4.500  1.00  0.00    -0.228 NA  
ATOM     14  C6  UNL     1      -0.404   0.794  -5.074  1.00  0.00     0.212 A   
ATOM     15  F1  UNL     1      -1.296   1.301  -5.935  1.00  0.00    -0.185 F   
ENDBRANCH   7   9
ENDBRANCH   1   7
BRANCH   3  16
ATOM     16  C10 UNL     1       0.004   0.253   2.101  1.00  0.00     0.117 C   
BRANCH  16  17
ATOM     17  N3  UNL     1      -0.702  -0.848   2.860  1.00  0.00     0.249 N   
ATOM     18  H10 UNL     1      -0.605  -0.728   3.871  1.00  0.00     0.199 HD  
ATOM     19  H11 UNL     1      -0.190  -1.716   2.633  1.00  0.00     0.199 HD  
BRANCH  17  20
ATOM     20  C11 UNL     1      -2.141  -1.058   2.537  1.00  0.00     0.164 C   
BRANCH  20  21
ATOM     21  C12 UNL     1      -2.403  -1.466   1.115  1.00  0.00    -0.002 A   
ATOM     22  C13 UNL     1      -2.022  -2.749   0.654  1.00  0.00     0.012 A   
ATOM     23  C17 UNL     1      -3.017  -0.569   0.224  1.00  0.00     0.045 A   
ATOM     24  C14 UNL     1      -2.245  -3.134  -0.672  1.00  0.00     0.037 A   
ATOM     25  C16 UNL     1      -3.227  -0.981  -1.075  1.00  0.00     0.109 A   
ATOM     26  C15 UNL     1      -2.852  -2.228  -1.511  1.00  0.00     0.108 A   
ATOM     27  O1  UNL     1      -3.810  -0.241  -2.054  1.00  0.00    -0.316 OA  
ATOM     28  O2  UNL     1      -3.152  -2.432  -2.820  1.00  0.00    -0.316 OA  
ATOM     29  C18 UNL     1      -3.802  -1.185  -3.152  1.00  0.00     0.337 C   
ENDBRANCH  20  21
ENDBRANCH  17  20
ENDBRANCH  16  17
BRANCH  16  30
ATOM     30  C19 UNL     1       0.944   1.049   3.029  1.00  0.00     0.043 C   
ATOM     31  C20 UNL     1       1.981   0.237   3.808  1.00  0.00     0.010 C   
ATOM     32  C23 UNL     1       0.234   1.828   4.139  1.00  0.00     0.010 C   
ATOM     33  C21 UNL     1       2.499   1.224   4.847  1.00  0.00     0.001 C   
ATOM     34  C22 UNL     1       1.344   2.187   5.126  1.00  0.00     0.001 C   
ENDBRANCH  16  30
ENDBRANCH   3  16
TORSDOF 7
