REMARK SMILES C[C@@H](c1ccc(F)nc1)n1cc([C@@H]([NH2+]Cc2ccc3c(c2)OCO3)C2CCCC2)nn1
REMARK SMILES IDX 10 1 11 2 12 3 30 4 31 5 2 7 1 8 3 9 4 10 9 11 5 12 8 13
REMARK SMILES IDX 6 14 7 15 13 16 14 17 15 20 16 21 17 22 21 23 18 24 20 25
REMARK SMILES IDX 19 26 22 27 24 28 23 29 25 30 26 31 29 32 27 33 28 34
REMARK H PARENT 11 6 14 18 14 19
ROOT
ATOM     1   N2  UNL     1       2.006   1.011   0.264  1.00  0.00    -0.205 N   
ATOM     2   C8  UNL     1       0.891   1.066   1.060  1.00  0.00     0.046 A   
ATOM     3   C9  UNL     1       0.269  -0.143   0.847  1.00  0.00     0.127 A   
ATOM     4   N4  UNL     1       1.005  -0.878  -0.047  1.00  0.00    -0.132 NA  
ATOM     5   N5  UNL     1       2.060  -0.163  -0.398  1.00  0.00    -0.075 NA  
ATOM     6   H8  UNL     1       0.650   1.931   1.663  1.00  0.00     0.083 HD  
ENDROOT
BRANCH   1   7
ATOM     7   C2  UNL     1       3.037   2.035   0.100  1.00  0.00     0.128 C   
ATOM     8   C1  UNL     1       4.455   1.454   0.067  1.00  0.00     0.036 C   
BRANCH   7   9
ATOM     9   C3  UNL     1       2.716   2.911  -1.092  1.00  0.00    -0.007 A   
ATOM     10  C4  UNL     1       2.894   2.489  -2.416  1.00  0.00     0.012 A   
ATOM     11  C7  UNL     1       2.203   4.194  -0.902  1.00  0.00     0.120 A   
ATOM     12  C5  UNL     1       2.576   3.348  -3.464  1.00  0.00     0.061 A   
ATOM     13  N1  UNL     1       1.874   5.041  -1.900  1.00  0.00    -0.228 NA  
ATOM     14  C6  UNL     1       2.078   4.600  -3.158  1.00  0.00     0.212 A   
ATOM     15  F1  UNL     1       1.755   5.426  -4.162  1.00  0.00    -0.185 F   
ENDBRANCH   7   9
ENDBRANCH   1   7
BRANCH   3  16
ATOM     16  C10 UNL     1      -1.014  -0.706   1.370  1.00  0.00     0.117 C   
BRANCH  16  17
ATOM     17  N3  UNL     1      -1.643  -1.598   0.322  1.00  0.00     0.249 N   
ATOM     18  H10 UNL     1      -1.993  -2.467   0.735  1.00  0.00     0.199 HD  
ATOM     19  H11 UNL     1      -0.870  -1.882  -0.302  1.00  0.00     0.199 HD  
BRANCH  17  20
ATOM     20  C11 UNL     1      -2.713  -0.985  -0.513  1.00  0.00     0.164 C   
BRANCH  20  21
ATOM     21  C12 UNL     1      -2.249   0.180  -1.340  1.00  0.00    -0.002 A   
ATOM     22  C13 UNL     1      -1.416  -0.027  -2.466  1.00  0.00     0.012 A   
ATOM     23  C17 UNL     1      -2.616   1.490  -0.986  1.00  0.00     0.045 A   
ATOM     24  C14 UNL     1      -0.956   1.052  -3.229  1.00  0.00     0.037 A   
ATOM     25  C16 UNL     1      -2.143   2.531  -1.758  1.00  0.00     0.109 A   
ATOM     26  C15 UNL     1      -1.339   2.318  -2.850  1.00  0.00     0.108 A   
ATOM     27  O1  UNL     1      -2.398   3.849  -1.549  1.00  0.00    -0.316 OA  
ATOM     28  O2  UNL     1      -0.998   3.473  -3.475  1.00  0.00    -0.316 OA  
ATOM     29  C18 UNL     1      -1.684   4.446  -2.657  1.00  0.00     0.337 C   
ENDBRANCH  20  21
ENDBRANCH  17  20
ENDBRANCH  16  17
BRANCH  16  30
ATOM     30  C19 UNL     1      -0.802  -1.481   2.685  1.00  0.00     0.043 C   
ATOM     31  C20 UNL     1       0.013  -2.786   2.583  1.00  0.00     0.010 C   
ATOM     32  C23 UNL     1      -2.104  -1.884   3.389  1.00  0.00     0.010 C   
ATOM     33  C21 UNL     1      -0.696  -3.802   3.478  1.00  0.00     0.001 C   
ATOM     34  C22 UNL     1      -1.657  -2.990   4.331  1.00  0.00     0.001 C   
ENDBRANCH  16  30
ENDBRANCH   3  16
TORSDOF 7
