REMARK SMILES Cc1ccc(Cn2cc([C@H](CC(C)C)[NH2+]Cc3ccc4c(c3)OCO4)nn2)cc1N([O-])[O-]
REMARK SMILES IDX 7 1 8 2 9 3 26 4 27 5 6 7 5 8 2 9 3 10 29 11 4 12 28 13 1 14
REMARK SMILES IDX 30 15 31 16 32 17 10 18 11 19 12 20 13 21 14 22 15 23 16 26
REMARK SMILES IDX 17 27 18 28 22 29 19 30 21 31 20 32 23 33 25 34 24 35
REMARK H PARENT 8 6 15 24 15 25
ROOT
ATOM     1   N1  UNL     1      -1.215   1.137   0.945  1.00  0.00    -0.208 N   
ATOM     2   C7  UNL     1      -0.557   0.222   1.720  1.00  0.00     0.046 A   
ATOM     3   C8  UNL     1       0.774   0.519   1.523  1.00  0.00     0.127 A   
ATOM     4   N3  UNL     1       0.876   1.579   0.658  1.00  0.00    -0.132 NA  
ATOM     5   N4  UNL     1      -0.345   1.956   0.322  1.00  0.00    -0.076 NA  
ATOM     6   H8  UNL     1      -1.076  -0.530   2.298  1.00  0.00     0.083 HD  
ENDROOT
BRANCH   1   7
ATOM     7   C6  UNL     1      -2.648   1.313   0.776  1.00  0.00     0.169 C   
BRANCH   7   8
ATOM     8   C5  UNL     1      -3.188   0.424  -0.318  1.00  0.00    -0.026 A   
ATOM     9   C2  UNL     1      -4.210  -1.253  -2.376  1.00  0.00    -0.022 A   
ATOM     10  C3  UNL     1      -4.501  -1.501  -1.026  1.00  0.00     0.006 A   
ATOM     11  C23 UNL     1      -3.415  -0.133  -2.677  1.00  0.00     0.121 A   
ATOM     12  C4  UNL     1      -3.995  -0.680  -0.011  1.00  0.00     0.006 A   
ATOM     13  C22 UNL     1      -2.901   0.695  -1.664  1.00  0.00     0.037 A   
ATOM     14  C1  UNL     1      -4.773  -2.175  -3.422  1.00  0.00     0.046 C   
BRANCH  11  15
ATOM     15  N5  UNL     1      -3.082   0.218  -4.058  1.00  0.00     0.092 N   
ATOM     16  O3  UNL     1      -3.991   0.186  -4.897  1.00  0.00    -0.138 OA  
ATOM     17  O4  UNL     1      -1.911   0.556  -4.287  1.00  0.00    -0.138 OA  
ENDBRANCH  11  15
ENDBRANCH   7   8
ENDBRANCH   1   7
BRANCH   3  18
ATOM     18  C9  UNL     1       2.021  -0.119   2.033  1.00  0.00     0.114 C   
BRANCH  18  19
ATOM     19  C10 UNL     1       2.501   0.468   3.377  1.00  0.00     0.064 C   
BRANCH  19  20
ATOM     20  C11 UNL     1       2.632   2.003   3.512  1.00  0.00    -0.012 C   
ATOM     21  C12 UNL     1       3.709   2.617   2.620  1.00  0.00     0.007 C   
ATOM     22  C13 UNL     1       2.935   2.354   4.975  1.00  0.00     0.007 C   
ENDBRANCH  19  20
ENDBRANCH  18  19
BRANCH  18  23
ATOM     23  N2  UNL     1       3.119  -0.029   1.002  1.00  0.00     0.249 N   
ATOM     24  H19 UNL     1       4.008   0.233   1.438  1.00  0.00     0.199 HD  
ATOM     25  H20 UNL     1       2.861   0.757   0.383  1.00  0.00     0.199 HD  
BRANCH  23  26
ATOM     26  C14 UNL     1       3.336  -1.234   0.153  1.00  0.00     0.164 C   
BRANCH  26  27
ATOM     27  C15 UNL     1       2.136  -1.643  -0.654  1.00  0.00    -0.002 A   
ATOM     28  C16 UNL     1       1.724  -0.873  -1.768  1.00  0.00     0.012 A   
ATOM     29  C20 UNL     1       1.399  -2.784  -0.296  1.00  0.00     0.045 A   
ATOM     30  C17 UNL     1       0.597  -1.233  -2.514  1.00  0.00     0.037 A   
ATOM     31  C19 UNL     1       0.291  -3.109  -1.050  1.00  0.00     0.109 A   
ATOM     32  C18 UNL     1      -0.100  -2.356  -2.130  1.00  0.00     0.108 A   
ATOM     33  O1  UNL     1      -0.526  -4.173  -0.835  1.00  0.00    -0.316 OA  
ATOM     34  O2  UNL     1      -1.210  -2.855  -2.734  1.00  0.00    -0.316 OA  
ATOM     35  C21 UNL     1      -1.445  -4.038  -1.942  1.00  0.00     0.337 C   
ENDBRANCH  26  27
ENDBRANCH  23  26
ENDBRANCH  18  23
ENDBRANCH   3  18
TORSDOF 9
