REMARK SMILES CC(C)C[C@H]([NH2+]Cc1ccc2c(c1)OCO2)c1cn([C@H](CO)c2ncc[nH]2)nn1
REMARK SMILES IDX 17 1 18 2 19 3 28 4 29 5 5 7 4 8 2 9 1 10 3 11 6 12 7 15
REMARK SMILES IDX 8 16 9 17 13 18 10 19 12 20 11 21 14 22 16 23 15 24 20 25
REMARK SMILES IDX 21 26 22 27 23 29 24 30 27 31 25 32 26 33
REMARK H PARENT 18 6 6 13 6 14 22 28 27 34
ROOT
ATOM     1   C14 UNL     1       1.699  -0.396  -0.093  1.00  0.00     0.127 A   
ATOM     2   C15 UNL     1       1.478   0.386   1.017  1.00  0.00     0.046 A   
ATOM     3   N2  UNL     1       2.625   1.129   1.133  1.00  0.00    -0.199 N   
ATOM     4   N5  UNL     1       3.531   0.747   0.210  1.00  0.00    -0.075 NA  
ATOM     5   N6  UNL     1       2.966  -0.167  -0.564  1.00  0.00    -0.132 NA  
ATOM     6   H20 UNL     1       0.619   0.546   1.655  1.00  0.00     0.083 HD  
ENDROOT
BRANCH   1   7
ATOM     7   C5  UNL     1       0.769  -1.266  -0.863  1.00  0.00     0.114 C   
BRANCH   7   8
ATOM     8   C4  UNL     1       1.220  -2.739  -0.947  1.00  0.00     0.064 C   
BRANCH   8   9
ATOM     9   C2  UNL     1       1.165  -3.582   0.348  1.00  0.00    -0.012 C   
ATOM     10  C1  UNL     1      -0.197  -3.517   1.040  1.00  0.00     0.007 C   
ATOM     11  C3  UNL     1       2.286  -3.262   1.336  1.00  0.00     0.007 C   
ENDBRANCH   8   9
ENDBRANCH   7   8
BRANCH   7  12
ATOM     12  N1  UNL     1       0.689  -0.755  -2.294  1.00  0.00     0.249 N   
ATOM     13  H11 UNL     1       1.654  -0.729  -2.645  1.00  0.00     0.199 HD  
ATOM     14  H12 UNL     1       0.171  -1.421  -2.874  1.00  0.00     0.199 HD  
BRANCH  12  15
ATOM     15  C6  UNL     1       0.110   0.612  -2.480  1.00  0.00     0.164 C   
BRANCH  15  16
ATOM     16  C7  UNL     1      -1.323   0.714  -2.036  1.00  0.00    -0.002 A   
ATOM     17  C8  UNL     1      -1.662   1.508  -0.914  1.00  0.00     0.012 A   
ATOM     18  C12 UNL     1      -2.335   0.012  -2.715  1.00  0.00     0.045 A   
ATOM     19  C9  UNL     1      -2.984   1.599  -0.466  1.00  0.00     0.037 A   
ATOM     20  C11 UNL     1      -3.628   0.121  -2.245  1.00  0.00     0.109 A   
ATOM     21  C10 UNL     1      -3.944   0.889  -1.151  1.00  0.00     0.108 A   
ATOM     22  O1  UNL     1      -4.718  -0.487  -2.783  1.00  0.00    -0.316 OA  
ATOM     23  O2  UNL     1      -5.271   0.860  -0.861  1.00  0.00    -0.316 OA  
ATOM     24  C13 UNL     1      -5.763  -0.007  -1.905  1.00  0.00     0.337 C   
ENDBRANCH  15  16
ENDBRANCH  12  15
ENDBRANCH   7  12
ENDBRANCH   1   7
BRANCH   3  25
ATOM     25  C16 UNL     1       2.926   2.214   2.062  1.00  0.00     0.189 C   
BRANCH  25  26
ATOM     26  C17 UNL     1       3.100   1.670   3.489  1.00  0.00     0.189 C   
BRANCH  26  27
ATOM     27  O3  UNL     1       3.633   2.678   4.353  1.00  0.00    -0.394 OA  
ATOM     28  H24 UNL     1       3.835   2.247   5.208  1.00  0.00     0.210 HD  
ENDBRANCH  26  27
ENDBRANCH  25  26
BRANCH  25  29
ATOM     29  C18 UNL     1       1.869   3.288   1.986  1.00  0.00     0.123 A   
ATOM     30  N3  UNL     1       0.849   3.380   1.150  1.00  0.00    -0.242 NA  
ATOM     31  N4  UNL     1       1.895   4.376   2.834  1.00  0.00    -0.306 N   
ATOM     32  C19 UNL     1       0.209   4.551   1.471  1.00  0.00     0.128 A   
ATOM     33  C20 UNL     1       0.837   5.177   2.519  1.00  0.00     0.093 A   
ATOM     34  H27 UNL     1       2.575   4.522   3.575  1.00  0.00     0.154 HD  
ENDBRANCH  25  29
ENDBRANCH   3  25
TORSDOF 10
