REMARK SMILES CC(C)C[C@H]([NH2+]Cc1ccc2c(c1)OCO2)c1cn([C@@H](CO)c2ncc[nH]2)nn1
REMARK SMILES IDX 17 1 18 2 19 3 28 4 29 5 5 7 4 8 2 9 1 10 3 11 6 12 7 15
REMARK SMILES IDX 8 16 9 17 13 18 10 19 12 20 11 21 14 22 16 23 15 24 20 25
REMARK SMILES IDX 21 26 22 27 23 29 24 30 27 31 25 32 26 33
REMARK H PARENT 18 6 6 13 6 14 22 28 27 34
ROOT
ATOM     1   C14 UNL     1       0.807  -1.252  -1.394  1.00  0.00     0.127 A   
ATOM     2   C15 UNL     1       0.238  -2.120  -0.492  1.00  0.00     0.046 A   
ATOM     3   N2  UNL     1       1.265  -2.965  -0.154  1.00  0.00    -0.199 N   
ATOM     4   N5  UNL     1       2.364  -2.692  -0.890  1.00  0.00    -0.075 NA  
ATOM     5   N6  UNL     1       2.096  -1.641  -1.648  1.00  0.00    -0.132 NA  
ATOM     6   H20 UNL     1      -0.723  -2.160   0.002  1.00  0.00     0.083 HD  
ENDROOT
BRANCH   1   7
ATOM     7   C5  UNL     1       0.291   0.022  -1.974  1.00  0.00     0.114 C   
BRANCH   7   8
ATOM     8   C4  UNL     1      -0.077  -0.159  -3.461  1.00  0.00     0.064 C   
BRANCH   8   9
ATOM     9   C2  UNL     1      -0.659   1.076  -4.180  1.00  0.00    -0.012 C   
ATOM     10  C1  UNL     1      -1.887   1.648  -3.472  1.00  0.00     0.007 C   
ATOM     11  C3  UNL     1      -1.021   0.707  -5.622  1.00  0.00     0.007 C   
ENDBRANCH   8   9
ENDBRANCH   7   8
BRANCH   7  12
ATOM     12  N1  UNL     1       1.337   1.105  -1.849  1.00  0.00     0.249 N   
ATOM     13  H11 UNL     1       2.182   0.748  -2.314  1.00  0.00     0.199 HD  
ATOM     14  H12 UNL     1       1.043   1.949  -2.345  1.00  0.00     0.199 HD  
BRANCH  12  15
ATOM     15  C6  UNL     1       1.730   1.483  -0.453  1.00  0.00     0.164 C   
BRANCH  15  16
ATOM     16  C7  UNL     1       0.596   2.074   0.338  1.00  0.00    -0.002 A   
ATOM     17  C8  UNL     1       0.015   1.341   1.400  1.00  0.00     0.012 A   
ATOM     18  C12 UNL     1       0.083   3.341   0.012  1.00  0.00     0.045 A   
ATOM     19  C9  UNL     1      -1.064   1.856   2.126  1.00  0.00     0.037 A   
ATOM     20  C11 UNL     1      -0.982   3.819   0.747  1.00  0.00     0.109 A   
ATOM     21  C10 UNL     1      -1.540   3.098   1.773  1.00  0.00     0.108 A   
ATOM     22  O1  UNL     1      -1.598   5.014   0.557  1.00  0.00    -0.316 OA  
ATOM     23  O2  UNL     1      -2.575   3.751   2.363  1.00  0.00    -0.316 OA  
ATOM     24  C13 UNL     1      -2.596   4.977   1.603  1.00  0.00     0.337 C   
ENDBRANCH  15  16
ENDBRANCH  12  15
ENDBRANCH   7  12
ENDBRANCH   1   7
BRANCH   3  25
ATOM     25  C16 UNL     1       1.268  -3.978   0.895  1.00  0.00     0.189 C   
BRANCH  25  26
ATOM     26  C17 UNL     1       2.386  -5.020   0.716  1.00  0.00     0.189 C   
BRANCH  26  27
ATOM     27  O3  UNL     1       2.176  -6.134   1.597  1.00  0.00    -0.394 OA  
ATOM     28  H24 UNL     1       2.897  -6.770   1.419  1.00  0.00     0.210 HD  
ENDBRANCH  26  27
ENDBRANCH  25  26
BRANCH  25  29
ATOM     29  C18 UNL     1       1.336  -3.308   2.247  1.00  0.00     0.123 A   
ATOM     30  N3  UNL     1       1.264  -2.017   2.525  1.00  0.00    -0.242 NA  
ATOM     31  N4  UNL     1       1.438  -4.044   3.408  1.00  0.00    -0.306 N   
ATOM     32  C19 UNL     1       1.344  -1.927   3.892  1.00  0.00     0.128 A   
ATOM     33  C20 UNL     1       1.452  -3.173   4.457  1.00  0.00     0.093 A   
ATOM     34  H27 UNL     1       1.507  -5.057   3.450  1.00  0.00     0.154 HD  
ENDBRANCH  25  29
ENDBRANCH   3  25
TORSDOF 10
