REMARK SMILES CC(C)C[C@H]([NH2+]Cc1ccc2c(c1)OCO2)c1cn(CCCOc2ccccc2)nn1
REMARK SMILES IDX 17 1 18 2 19 3 30 4 31 5 5 7 4 8 2 9 1 10 3 11 6 12 7 15
REMARK SMILES IDX 8 16 9 17 13 18 10 19 12 20 11 21 14 22 16 23 15 24 20 25
REMARK SMILES IDX 21 26 22 27 23 28 24 29 25 30 29 31 26 32 28 33 27 34
REMARK H PARENT 18 6 6 13 6 14
ROOT
ATOM     1   C14 UNL     1      -0.494  -1.260   1.099  1.00  0.00     0.127 A   
ATOM     2   C15 UNL     1       0.820  -1.610   0.892  1.00  0.00     0.045 A   
ATOM     3   N2  UNL     1       0.780  -2.968   0.740  1.00  0.00    -0.212 N   
ATOM     4   N3  UNL     1      -0.483  -3.424   0.813  1.00  0.00    -0.076 NA  
ATOM     5   N4  UNL     1      -1.275  -2.386   1.035  1.00  0.00    -0.132 NA  
ATOM     6   H20 UNL     1       1.742  -1.048   0.826  1.00  0.00     0.083 HD  
ENDROOT
BRANCH   1   7
ATOM     7   C5  UNL     1      -1.145   0.071   1.255  1.00  0.00     0.114 C   
BRANCH   7   8
ATOM     8   C4  UNL     1      -1.688   0.340   2.673  1.00  0.00     0.064 C   
BRANCH   8   9
ATOM     9   C2  UNL     1      -0.661   0.547   3.811  1.00  0.00    -0.012 C   
ATOM     10  C1  UNL     1      -0.106  -0.763   4.370  1.00  0.00     0.007 C   
ATOM     11  C3  UNL     1       0.472   1.501   3.436  1.00  0.00     0.007 C   
ENDBRANCH   8   9
ENDBRANCH   7   8
BRANCH   7  12
ATOM     12  N1  UNL     1      -2.336   0.130   0.314  1.00  0.00     0.249 N   
ATOM     13  H11 UNL     1      -2.996   0.855   0.612  1.00  0.00     0.199 HD  
ATOM     14  H12 UNL     1      -2.819  -0.775   0.416  1.00  0.00     0.199 HD  
BRANCH  12  15
ATOM     15  C6  UNL     1      -2.017   0.326  -1.129  1.00  0.00     0.164 C   
BRANCH  15  16
ATOM     16  C7  UNL     1      -1.687   1.759  -1.444  1.00  0.00    -0.002 A   
ATOM     17  C8  UNL     1      -2.722   2.718  -1.574  1.00  0.00     0.012 A   
ATOM     18  C12 UNL     1      -0.347   2.166  -1.572  1.00  0.00     0.045 A   
ATOM     19  C9  UNL     1      -2.427   4.062  -1.826  1.00  0.00     0.037 A   
ATOM     20  C11 UNL     1      -0.090   3.498  -1.822  1.00  0.00     0.109 A   
ATOM     21  C10 UNL     1      -1.101   4.420  -1.944  1.00  0.00     0.108 A   
ATOM     22  O1  UNL     1       1.143   4.053  -1.970  1.00  0.00    -0.316 OA  
ATOM     23  O2  UNL     1      -0.634   5.671  -2.186  1.00  0.00    -0.316 OA  
ATOM     24  C13 UNL     1       0.791   5.433  -2.221  1.00  0.00     0.337 C   
ENDBRANCH  15  16
ENDBRANCH  12  15
ENDBRANCH   7  12
ENDBRANCH   1   7
BRANCH   3  25
ATOM     25  C16 UNL     1       1.880  -3.866   0.461  1.00  0.00     0.136 C   
BRANCH  25  26
ATOM     26  C17 UNL     1       1.804  -4.533  -0.915  1.00  0.00     0.050 C   
BRANCH  26  27
ATOM     27  C18 UNL     1       1.577  -3.554  -2.069  1.00  0.00     0.169 C   
BRANCH  27  28
ATOM     28  O3  UNL     1       2.488  -2.462  -1.934  1.00  0.00    -0.346 OA  
BRANCH  28  29
ATOM     29  C19 UNL     1       2.280  -1.379  -2.743  1.00  0.00     0.075 A   
ATOM     30  C20 UNL     1       3.041  -0.252  -2.419  1.00  0.00     0.033 A   
ATOM     31  C24 UNL     1       1.405  -1.325  -3.830  1.00  0.00     0.033 A   
ATOM     32  C21 UNL     1       2.918   0.924  -3.160  1.00  0.00     0.003 A   
ATOM     33  C23 UNL     1       1.282  -0.146  -4.573  1.00  0.00     0.003 A   
ATOM     34  C22 UNL     1       2.034   0.978  -4.234  1.00  0.00     0.000 A   
ENDBRANCH  28  29
ENDBRANCH  27  28
ENDBRANCH  26  27
ENDBRANCH  25  26
ENDBRANCH   3  25
TORSDOF 11
