REMARK SMILES CC(C)C[C@H]([NH2+]Cc1ccc2c(c1)OCO2)c1cn(Cc2conc2C2CC2)nn1
REMARK SMILES IDX 17 1 18 2 19 3 29 4 30 5 5 7 4 8 2 9 1 10 3 11 6 12 7 15
REMARK SMILES IDX 8 16 9 17 13 18 10 19 12 20 11 21 14 22 16 23 15 24 20 25
REMARK SMILES IDX 21 26 22 27 25 28 23 29 24 30 26 31 27 32 28 33
REMARK H PARENT 18 6 6 13 6 14
ROOT
ATOM     1   C14 UNL     1       1.645   0.713  -0.130  1.00  0.00     0.127 A   
ATOM     2   C15 UNL     1       1.221  -0.564   0.168  1.00  0.00     0.046 A   
ATOM     3   N2  UNL     1       1.942  -0.898   1.281  1.00  0.00    -0.208 N   
ATOM     4   N4  UNL     1       2.783   0.097   1.625  1.00  0.00    -0.076 NA  
ATOM     5   N5  UNL     1       2.611   1.089   0.766  1.00  0.00    -0.132 NA  
ATOM     6   H20 UNL     1       0.476  -1.218  -0.262  1.00  0.00     0.083 HD  
ENDROOT
BRANCH   1   7
ATOM     7   C5  UNL     1       1.166   1.689  -1.150  1.00  0.00     0.114 C   
BRANCH   7   8
ATOM     8   C4  UNL     1       2.157   1.862  -2.318  1.00  0.00     0.064 C   
BRANCH   8   9
ATOM     9   C2  UNL     1       2.404   0.592  -3.161  1.00  0.00    -0.012 C   
ATOM     10  C1  UNL     1       3.456   0.882  -4.235  1.00  0.00     0.007 C   
ATOM     11  C3  UNL     1       1.126   0.071  -3.820  1.00  0.00     0.007 C   
ENDBRANCH   8   9
ENDBRANCH   7   8
BRANCH   7  12
ATOM     12  N1  UNL     1       0.981   3.061  -0.527  1.00  0.00     0.249 N   
ATOM     13  H11 UNL     1       1.895   3.333  -0.140  1.00  0.00     0.199 HD  
ATOM     14  H12 UNL     1       0.742   3.741  -1.254  1.00  0.00     0.199 HD  
BRANCH  12  15
ATOM     15  C6  UNL     1      -0.013   3.166   0.588  1.00  0.00     0.164 C   
BRANCH  15  16
ATOM     16  C7  UNL     1      -1.393   2.709   0.205  1.00  0.00    -0.002 A   
ATOM     17  C8  UNL     1      -2.179   3.463  -0.699  1.00  0.00     0.012 A   
ATOM     18  C12 UNL     1      -1.898   1.502   0.721  1.00  0.00     0.045 A   
ATOM     19  C9  UNL     1      -3.445   3.016  -1.094  1.00  0.00     0.037 A   
ATOM     20  C11 UNL     1      -3.145   1.087   0.305  1.00  0.00     0.109 A   
ATOM     21  C10 UNL     1      -3.897   1.822  -0.576  1.00  0.00     0.108 A   
ATOM     22  O1  UNL     1      -3.765  -0.060   0.686  1.00  0.00    -0.316 OA  
ATOM     23  O2  UNL     1      -5.091   1.236  -0.852  1.00  0.00    -0.316 OA  
ATOM     24  C13 UNL     1      -5.030   0.071  -0.002  1.00  0.00     0.337 C   
ENDBRANCH  15  16
ENDBRANCH  12  15
ENDBRANCH   7  12
ENDBRANCH   1   7
BRANCH   3  25
ATOM     25  C16 UNL     1       1.814  -2.084   2.114  1.00  0.00     0.173 C   
BRANCH  25  26
ATOM     26  C17 UNL     1       0.797  -1.843   3.164  1.00  0.00     0.021 A   
ATOM     27  C18 UNL     1       0.993  -1.299   4.414  1.00  0.00     0.171 A   
ATOM     28  C19 UNL     1      -0.597  -2.079   3.137  1.00  0.00     0.078 A   
ATOM     29  O3  UNL     1      -0.191  -1.189   5.064  1.00  0.00    -0.221 OA  
ATOM     30  N3  UNL     1      -1.203  -1.666   4.251  1.00  0.00    -0.134 NA  
BRANCH  28  31
ATOM     31  C20 UNL     1      -1.387  -2.693   1.950  1.00  0.00     0.041 C   
ATOM     32  C21 UNL     1      -2.387  -3.786   2.228  1.00  0.00     0.011 C   
ATOM     33  C22 UNL     1      -1.107  -4.109   1.516  1.00  0.00     0.011 C   
ENDBRANCH  28  31
ENDBRANCH  25  26
ENDBRANCH   3  25
TORSDOF 9
