REMARK SMILES CC(C)C[C@H]([NH2+]Cc1ccc2c(c1)OCO2)c1cn(C[C@@H](O)c2cc(F)cc(F)c2)nn1
REMARK SMILES IDX 17 1 18 2 19 3 31 4 32 5 5 7 4 8 2 9 1 10 3 11 6 12 7 15
REMARK SMILES IDX 8 16 9 17 13 18 10 19 12 20 11 21 14 22 16 23 15 24 20 25
REMARK SMILES IDX 21 26 22 27 23 29 24 30 30 31 25 32 28 33 27 34 26 35 29 36
REMARK H PARENT 18 6 6 13 6 14 22 28
ROOT
ATOM     1   C14 UNL     1      -0.697  -0.879  -1.208  1.00  0.00     0.127 A   
ATOM     2   C15 UNL     1      -1.607  -1.664  -1.881  1.00  0.00     0.045 A   
ATOM     3   N2  UNL     1      -2.511  -0.767  -2.380  1.00  0.00    -0.209 N   
ATOM     4   N3  UNL     1      -2.132   0.498  -2.111  1.00  0.00    -0.076 NA  
ATOM     5   N4  UNL     1      -1.038   0.443  -1.370  1.00  0.00    -0.132 NA  
ATOM     6   H20 UNL     1      -1.727  -2.732  -2.006  1.00  0.00     0.083 HD  
ENDROOT
BRANCH   1   7
ATOM     7   C5  UNL     1       0.502  -1.231  -0.383  1.00  0.00     0.114 C   
BRANCH   7   8
ATOM     8   C4  UNL     1       0.078  -1.821   0.978  1.00  0.00     0.064 C   
BRANCH   8   9
ATOM     9   C2  UNL     1       1.217  -2.316   1.895  1.00  0.00    -0.012 C   
ATOM     10  C1  UNL     1       2.100  -3.369   1.224  1.00  0.00     0.007 C   
ATOM     11  C3  UNL     1       0.622  -2.889   3.186  1.00  0.00     0.007 C   
ENDBRANCH   8   9
ENDBRANCH   7   8
BRANCH   7  12
ATOM     12  N1  UNL     1       1.338   0.001  -0.149  1.00  0.00     0.249 N   
ATOM     13  H11 UNL     1       1.872  -0.039   0.723  1.00  0.00     0.199 HD  
ATOM     14  H12 UNL     1       0.672   0.781  -0.045  1.00  0.00     0.199 HD  
BRANCH  12  15
ATOM     15  C6  UNL     1       2.255   0.361  -1.266  1.00  0.00     0.164 C   
BRANCH  15  16
ATOM     16  C7  UNL     1       2.940   1.668  -0.986  1.00  0.00    -0.002 A   
ATOM     17  C8  UNL     1       2.449   2.864  -1.563  1.00  0.00     0.012 A   
ATOM     18  C12 UNL     1       4.039   1.722  -0.107  1.00  0.00     0.045 A   
ATOM     19  C9  UNL     1       3.054   4.095  -1.292  1.00  0.00     0.037 A   
ATOM     20  C11 UNL     1       4.600   2.954   0.156  1.00  0.00     0.109 A   
ATOM     21  C10 UNL     1       4.128   4.105  -0.428  1.00  0.00     0.108 A   
ATOM     22  O1  UNL     1       5.648   3.186   0.989  1.00  0.00    -0.316 OA  
ATOM     23  O2  UNL     1       4.829   5.203  -0.050  1.00  0.00    -0.316 OA  
ATOM     24  C13 UNL     1       5.773   4.623   0.879  1.00  0.00     0.337 C   
ENDBRANCH  15  16
ENDBRANCH  12  15
ENDBRANCH   7  12
ENDBRANCH   1   7
BRANCH   3  25
ATOM     25  C16 UNL     1      -3.735  -1.032  -3.111  1.00  0.00     0.170 C   
BRANCH  25  26
ATOM     26  C17 UNL     1      -4.905  -1.473  -2.216  1.00  0.00     0.164 C   
BRANCH  26  27
ATOM     27  O3  UNL     1      -4.643  -2.773  -1.680  1.00  0.00    -0.387 OA  
ATOM     28  H24 UNL     1      -5.423  -3.018  -1.143  1.00  0.00     0.211 HD  
ENDBRANCH  26  27
BRANCH  26  29
ATOM     29  C18 UNL     1      -5.247  -0.493  -1.111  1.00  0.00    -0.012 A   
ATOM     30  C19 UNL     1      -6.093   0.597  -1.373  1.00  0.00     0.046 A   
ATOM     31  C23 UNL     1      -4.698  -0.612   0.177  1.00  0.00     0.046 A   
ATOM     32  C20 UNL     1      -6.371   1.528  -0.371  1.00  0.00     0.126 A   
ATOM     33  C22 UNL     1      -4.987   0.335   1.160  1.00  0.00     0.126 A   
ATOM     34  C21 UNL     1      -5.824   1.409   0.899  1.00  0.00     0.078 A   
ATOM     35  F1  UNL     1      -7.174   2.565  -0.646  1.00  0.00    -0.207 F   
ATOM     36  F2  UNL     1      -4.433   0.206   2.374  1.00  0.00    -0.207 F   
ENDBRANCH  26  29
ENDBRANCH  25  26
ENDBRANCH   3  25
TORSDOF 10
