REMARK SMILES c1cc2c(cc1C[NH2+][C@H](c1cn(CCc3csc(C4CC4)n3)nn1)C1CCCCC1)OCO2
REMARK SMILES IDX 10 1 11 2 12 3 23 4 24 5 9 7 8 8 7 11 6 12 1 13 2 14 3 15
REMARK SMILES IDX 5 16 4 17 33 18 31 19 32 20 25 21 26 22 30 23 27 24 29 25
REMARK SMILES IDX 28 26 13 27 14 28 15 29 16 30 22 31 17 32 18 33 19 34 20 35
REMARK SMILES IDX 21 36
REMARK H PARENT 11 6 8 9 8 10
ROOT
ATOM     1   C9  UNL     1      -0.751   0.862  -1.104  1.00  0.00     0.127 A   
ATOM     2   C10 UNL     1      -0.024   1.564  -0.173  1.00  0.00     0.045 A   
ATOM     3   N2  UNL     1      -0.305   2.874  -0.438  1.00  0.00    -0.212 N   
ATOM     4   N4  UNL     1      -1.198   2.973  -1.443  1.00  0.00    -0.076 NA  
ATOM     5   N5  UNL     1      -1.468   1.750  -1.868  1.00  0.00    -0.132 NA  
ATOM     6   H9  UNL     1       0.659   1.268   0.608  1.00  0.00     0.083 HD  
ENDROOT
BRANCH   1   7
ATOM     7   C8  UNL     1      -0.895  -0.607  -1.344  1.00  0.00     0.117 C   
BRANCH   7   8
ATOM     8   N1  UNL     1      -2.148  -0.868  -2.155  1.00  0.00     0.249 N   
ATOM     9   H6  UNL     1      -2.192  -0.116  -2.859  1.00  0.00     0.199 HD  
ATOM     10  H7  UNL     1      -2.079  -1.754  -2.663  1.00  0.00     0.199 HD  
BRANCH   8  11
ATOM     11  C7  UNL     1      -3.431  -0.830  -1.394  1.00  0.00     0.164 C   
BRANCH  11  12
ATOM     12  C6  UNL     1      -3.690  -2.118  -0.661  1.00  0.00    -0.002 A   
ATOM     13  C1  UNL     1      -3.510  -2.200   0.741  1.00  0.00     0.012 A   
ATOM     14  C2  UNL     1      -3.711  -3.406   1.422  1.00  0.00     0.037 A   
ATOM     15  C3  UNL     1      -4.090  -4.506   0.685  1.00  0.00     0.108 A   
ATOM     16  C5  UNL     1      -4.087  -3.263  -1.375  1.00  0.00     0.045 A   
ATOM     17  C4  UNL     1      -4.277  -4.435  -0.673  1.00  0.00     0.109 A   
ATOM     18  O2  UNL     1      -4.322  -5.752   1.175  1.00  0.00    -0.316 OA  
ATOM     19  O1  UNL     1      -4.653  -5.625  -1.210  1.00  0.00    -0.316 OA  
ATOM     20  C25 UNL     1      -4.726  -6.449  -0.023  1.00  0.00     0.337 C   
ENDBRANCH  11  12
ENDBRANCH   8  11
ENDBRANCH   7   8
BRANCH   7  21
ATOM     21  C19 UNL     1       0.305  -1.269  -2.075  1.00  0.00     0.043 C   
ATOM     22  C20 UNL     1       1.586  -1.252  -1.217  1.00  0.00     0.010 C   
ATOM     23  C24 UNL     1       0.595  -0.685  -3.471  1.00  0.00     0.010 C   
ATOM     24  C21 UNL     1       2.735  -1.991  -1.900  1.00  0.00     0.001 C   
ATOM     25  C23 UNL     1       1.756  -1.412  -4.153  1.00  0.00     0.001 C   
ATOM     26  C22 UNL     1       3.013  -1.421  -3.288  1.00  0.00     0.000 C   
ENDBRANCH   7  21
ENDBRANCH   1   7
BRANCH   3  27
ATOM     27  C11 UNL     1       0.284   4.064   0.144  1.00  0.00     0.140 C   
BRANCH  27  28
ATOM     28  C12 UNL     1      -0.298   4.426   1.507  1.00  0.00     0.078 C   
BRANCH  28  29
ATOM     29  C13 UNL     1       0.238   3.624   2.654  1.00  0.00     0.050 A   
ATOM     30  C14 UNL     1      -0.251   3.632   3.949  1.00  0.00     0.071 A   
ATOM     31  N3  UNL     1       1.341   2.805   2.464  1.00  0.00    -0.250 NA  
ATOM     32  S1  UNL     1       0.688   2.595   4.946  1.00  0.00    -0.080 S   
ATOM     33  C15 UNL     1       1.668   2.223   3.598  1.00  0.00     0.081 A   
BRANCH  33  34
ATOM     34  C16 UNL     1       2.899   1.264   3.705  1.00  0.00     0.045 C   
ATOM     35  C17 UNL     1       3.219   0.340   2.557  1.00  0.00     0.011 C   
ATOM     36  C18 UNL     1       2.664  -0.219   3.835  1.00  0.00     0.011 C   
ENDBRANCH  33  34
ENDBRANCH  28  29
ENDBRANCH  27  28
ENDBRANCH   3  27
TORSDOF 9
