REMARK SMILES Cc1cccc([C@@H](CO)n2cc([C@@H]([NH2+]Cc3ccc4c(c3)OCO4)C3CCCCC3)nn2)c1C
REMARK SMILES IDX 10 1 11 2 12 3 31 4 32 5 7 7 6 8 2 9 3 10 33 11 4 12 5 13
REMARK SMILES IDX 1 14 34 15 8 16 9 17 13 19 14 20 15 23 16 24 17 25 21 26
REMARK SMILES IDX 18 27 20 28 19 29 22 30 24 31 23 32 25 33 26 34 30 35 27 36
REMARK SMILES IDX 29 37 28 38
REMARK H PARENT 11 6 9 18 14 21 14 22
ROOT
ATOM     1   N1  UNL     1      -1.005   1.853   1.010  1.00  0.00    -0.202 N   
ATOM     2   C9  UNL     1      -0.234   0.748   0.757  1.00  0.00     0.046 A   
ATOM     3   C10 UNL     1      -1.141  -0.223   0.394  1.00  0.00     0.127 A   
ATOM     4   N3  UNL     1      -2.409   0.293   0.487  1.00  0.00    -0.132 NA  
ATOM     5   N4  UNL     1      -2.316   1.552   0.880  1.00  0.00    -0.075 NA  
ATOM     6   H11 UNL     1       0.843   0.764   0.847  1.00  0.00     0.083 HD  
ENDROOT
BRANCH   1   7
ATOM     7   C7  UNL     1      -0.551   3.191   1.398  1.00  0.00     0.155 C   
BRANCH   7   8
ATOM     8   C6  UNL     1      -0.869   4.204   0.296  1.00  0.00    -0.020 A   
ATOM     9   C2  UNL     1      -0.243   5.590  -1.629  1.00  0.00    -0.048 A   
ATOM     10  C3  UNL     1      -1.557   6.078  -1.686  1.00  0.00     0.004 A   
ATOM     11  C26 UNL     1       0.110   4.632  -0.646  1.00  0.00    -0.043 A   
ATOM     12  C4  UNL     1      -2.519   5.642  -0.784  1.00  0.00     0.001 A   
ATOM     13  C5  UNL     1      -2.179   4.717   0.196  1.00  0.00     0.006 A   
ATOM     14  C1  UNL     1       0.745   6.109  -2.643  1.00  0.00     0.044 C   
ATOM     15  C27 UNL     1       1.520   4.095  -0.581  1.00  0.00     0.045 C   
ENDBRANCH   7   8
BRANCH   7  16
ATOM     16  C8  UNL     1      -1.081   3.583   2.790  1.00  0.00     0.185 C   
BRANCH  16  17
ATOM     17  O1  UNL     1      -0.429   2.807   3.802  1.00  0.00    -0.394 OA  
ATOM     18  H10 UNL     1      -0.738   3.148   4.662  1.00  0.00     0.210 HD  
ENDBRANCH  16  17
ENDBRANCH   7  16
ENDBRANCH   1   7
BRANCH   3  19
ATOM     19  C11 UNL     1      -0.962  -1.660   0.007  1.00  0.00     0.117 C   
BRANCH  19  20
ATOM     20  N2  UNL     1      -2.248  -2.381   0.349  1.00  0.00     0.249 N   
ATOM     21  H13 UNL     1      -2.475  -2.106   1.314  1.00  0.00     0.199 HD  
ATOM     22  H14 UNL     1      -3.003  -1.946  -0.198  1.00  0.00     0.199 HD  
BRANCH  20  23
ATOM     23  C12 UNL     1      -2.308  -3.859   0.255  1.00  0.00     0.164 C   
BRANCH  23  24
ATOM     24  C13 UNL     1      -1.355  -4.547   1.190  1.00  0.00    -0.002 A   
ATOM     25  C14 UNL     1      -1.618  -4.577   2.582  1.00  0.00     0.012 A   
ATOM     26  C18 UNL     1      -0.179  -5.137   0.696  1.00  0.00     0.045 A   
ATOM     27  C15 UNL     1      -0.721  -5.180   3.470  1.00  0.00     0.037 A   
ATOM     28  C17 UNL     1       0.685  -5.721   1.599  1.00  0.00     0.109 A   
ATOM     29  C16 UNL     1       0.423  -5.741   2.947  1.00  0.00     0.108 A   
ATOM     30  O2  UNL     1       1.863  -6.323   1.290  1.00  0.00    -0.316 OA  
ATOM     31  O3  UNL     1       1.402  -6.360   3.656  1.00  0.00    -0.316 OA  
ATOM     32  C19 UNL     1       2.308  -6.745   2.600  1.00  0.00     0.337 C   
ENDBRANCH  23  24
ENDBRANCH  20  23
ENDBRANCH  19  20
BRANCH  19  33
ATOM     33  C20 UNL     1      -0.586  -1.873  -1.484  1.00  0.00     0.043 C   
ATOM     34  C21 UNL     1      -1.626  -1.331  -2.484  1.00  0.00     0.010 C   
ATOM     35  C25 UNL     1       0.810  -1.301  -1.806  1.00  0.00     0.010 C   
ATOM     36  C22 UNL     1      -1.210  -1.598  -3.931  1.00  0.00     0.001 C   
ATOM     37  C24 UNL     1       1.216  -1.583  -3.251  1.00  0.00     0.001 C   
ATOM     38  C23 UNL     1       0.180  -1.050  -4.234  1.00  0.00     0.000 C   
ENDBRANCH  19  33
ENDBRANCH   3  19
TORSDOF 9
