REMARK SMILES CC(C)[C@H]([NH2+]Cc1ccc2c(c1)OCO2)c1cn(Cc2ccc3ccn(C)c3c2)nn1
REMARK SMILES IDX 16 1 17 2 18 3 30 4 31 5 4 7 2 8 1 9 3 10 5 11 6 14 7 15
REMARK SMILES IDX 8 16 12 17 9 18 11 19 10 20 13 21 15 22 14 23 19 24 20 25
REMARK SMILES IDX 21 26 29 27 22 28 28 29 23 30 26 31 24 32 25 33 27 34
REMARK H PARENT 17 6 5 12 5 13
ROOT
ATOM     1   C13 UNL     1      -2.127  -0.409   1.824  1.00  0.00     0.127 A   
ATOM     2   C14 UNL     1      -0.919  -0.115   2.417  1.00  0.00     0.046 A   
ATOM     3   N2  UNL     1      -0.520  -1.310   2.954  1.00  0.00    -0.208 N   
ATOM     4   N4  UNL     1      -1.465  -2.254   2.779  1.00  0.00    -0.076 NA  
ATOM     5   N5  UNL     1      -2.451  -1.715   2.081  1.00  0.00    -0.132 NA  
ATOM     6   H18 UNL     1      -0.288   0.762   2.424  1.00  0.00     0.083 HD  
ENDROOT
BRANCH   1   7
ATOM     7   C4  UNL     1      -2.968   0.395   0.890  1.00  0.00     0.117 C   
BRANCH   7   8
ATOM     8   C2  UNL     1      -4.203   1.028   1.585  1.00  0.00     0.037 C   
ATOM     9   C1  UNL     1      -5.277   0.023   2.014  1.00  0.00     0.014 C   
ATOM     10  C3  UNL     1      -4.842   2.115   0.710  1.00  0.00     0.014 C   
ENDBRANCH   7   8
BRANCH   7  11
ATOM     11  N1  UNL     1      -3.395  -0.448  -0.290  1.00  0.00     0.249 N   
ATOM     12  H9  UNL     1      -4.071   0.058  -0.868  1.00  0.00     0.199 HD  
ATOM     13  H10 UNL     1      -3.873  -1.272   0.099  1.00  0.00     0.199 HD  
BRANCH  11  14
ATOM     14  C5  UNL     1      -2.296  -0.970  -1.165  1.00  0.00     0.164 C   
BRANCH  14  15
ATOM     15  C6  UNL     1      -1.481   0.115  -1.813  1.00  0.00    -0.002 A   
ATOM     16  C7  UNL     1      -2.039   0.918  -2.836  1.00  0.00     0.012 A   
ATOM     17  C11 UNL     1      -0.162   0.355  -1.385  1.00  0.00     0.045 A   
ATOM     18  C8  UNL     1      -1.300   1.952  -3.420  1.00  0.00     0.037 A   
ATOM     19  C10 UNL     1       0.537   1.386  -1.977  1.00  0.00     0.109 A   
ATOM     20  C9  UNL     1      -0.015   2.160  -2.967  1.00  0.00     0.108 A   
ATOM     21  O1  UNL     1       1.805   1.764  -1.671  1.00  0.00    -0.316 OA  
ATOM     22  O2  UNL     1       0.840   3.115  -3.417  1.00  0.00    -0.316 OA  
ATOM     23  C12 UNL     1       2.016   2.821  -2.634  1.00  0.00     0.337 C   
ENDBRANCH  14  15
ENDBRANCH  11  14
ENDBRANCH   7  11
ENDBRANCH   1   7
BRANCH   3  24
ATOM     24  C15 UNL     1       0.796  -1.657   3.466  1.00  0.00     0.169 C   
BRANCH  24  25
ATOM     25  C16 UNL     1       1.754  -1.835   2.309  1.00  0.00    -0.027 A   
ATOM     26  C17 UNL     1       1.757  -3.036   1.587  1.00  0.00     0.006 A   
ATOM     27  C24 UNL     1       2.586  -0.773   1.910  1.00  0.00     0.030 A   
ATOM     28  C18 UNL     1       2.569  -3.199   0.459  1.00  0.00     0.010 A   
ATOM     29  C23 UNL     1       3.390  -0.948   0.771  1.00  0.00     0.040 A   
ATOM     30  C19 UNL     1       3.391  -2.138   0.039  1.00  0.00    -0.003 A   
ATOM     31  N3  UNL     1       4.284  -0.098   0.151  1.00  0.00    -0.310 N   
ATOM     32  C20 UNL     1       4.303  -1.972  -1.038  1.00  0.00     0.025 A   
ATOM     33  C21 UNL     1       4.833  -0.706  -0.947  1.00  0.00     0.075 A   
ATOM     34  C22 UNL     1       4.608   1.239   0.596  1.00  0.00     0.136 C   
ENDBRANCH  24  25
ENDBRANCH   3  24
TORSDOF 7
