REMARK SMILES Cc1c(F)cccc1Cn1cc([C@@H]([NH2+]Cc2ccc3c(c2)OCO3)C2CCCCC2)nn1
REMARK SMILES IDX 10 1 11 2 12 3 31 4 32 5 9 7 8 8 2 9 3 10 5 11 7 12 6 13
REMARK SMILES IDX 1 14 4 15 13 16 14 17 15 20 16 21 17 22 21 23 18 24 20 25
REMARK SMILES IDX 19 26 22 27 24 28 23 29 25 30 26 31 30 32 27 33 29 34 28 35
REMARK H PARENT 11 6 14 18 14 19
ROOT
ATOM     1   N1  UNL     1      -0.692  -1.308   2.564  1.00  0.00    -0.208 N   
ATOM     2   C9  UNL     1      -0.173  -1.498   1.313  1.00  0.00     0.046 A   
ATOM     3   C10 UNL     1       0.812  -0.542   1.213  1.00  0.00     0.127 A   
ATOM     4   N3  UNL     1       0.881   0.160   2.388  1.00  0.00    -0.132 NA  
ATOM     5   N4  UNL     1      -0.042  -0.317   3.207  1.00  0.00    -0.076 NA  
ATOM     6   H9  UNL     1      -0.564  -2.236   0.627  1.00  0.00     0.083 HD  
ENDROOT
BRANCH   1   7
ATOM     7   C8  UNL     1      -1.827  -1.978   3.182  1.00  0.00     0.169 C   
BRANCH   7   8
ATOM     8   C7  UNL     1      -3.129  -1.361   2.717  1.00  0.00    -0.023 A   
ATOM     9   C2  UNL     1      -3.980  -1.984   1.777  1.00  0.00    -0.010 A   
ATOM     10  C3  UNL     1      -5.149  -1.317   1.383  1.00  0.00     0.126 A   
ATOM     11  C4  UNL     1      -5.493  -0.072   1.897  1.00  0.00     0.039 A   
ATOM     12  C6  UNL     1      -3.491  -0.099   3.234  1.00  0.00     0.006 A   
ATOM     13  C5  UNL     1      -4.663   0.540   2.829  1.00  0.00     0.003 A   
ATOM     14  C1  UNL     1      -3.688  -3.339   1.195  1.00  0.00     0.048 C   
ATOM     15  F1  UNL     1      -5.965  -1.877   0.479  1.00  0.00    -0.207 F   
ENDBRANCH   7   8
ENDBRANCH   1   7
BRANCH   3  16
ATOM     16  C11 UNL     1       1.676  -0.149   0.059  1.00  0.00     0.117 C   
BRANCH  16  17
ATOM     17  N2  UNL     1       1.863   1.349   0.009  1.00  0.00     0.249 N   
ATOM     18  H11 UNL     1       2.544   1.601  -0.712  1.00  0.00     0.199 HD  
ATOM     19  H12 UNL     1       2.255   1.630   0.918  1.00  0.00     0.199 HD  
BRANCH  17  20
ATOM     20  C12 UNL     1       0.626   2.169  -0.188  1.00  0.00     0.164 C   
BRANCH  20  21
ATOM     21  C13 UNL     1      -0.127   1.831  -1.445  1.00  0.00    -0.002 A   
ATOM     22  C14 UNL     1      -1.373   1.162  -1.367  1.00  0.00     0.012 A   
ATOM     23  C18 UNL     1       0.412   2.144  -2.704  1.00  0.00     0.045 A   
ATOM     24  C15 UNL     1      -2.070   0.799  -2.525  1.00  0.00     0.037 A   
ATOM     25  C17 UNL     1      -0.303   1.773  -3.825  1.00  0.00     0.109 A   
ATOM     26  C16 UNL     1      -1.506   1.118  -3.739  1.00  0.00     0.108 A   
ATOM     27  O1  UNL     1       0.076   1.995  -5.111  1.00  0.00    -0.316 OA  
ATOM     28  O2  UNL     1      -2.036   0.844  -4.960  1.00  0.00    -0.316 OA  
ATOM     29  C19 UNL     1      -1.051   1.441  -5.829  1.00  0.00     0.337 C   
ENDBRANCH  20  21
ENDBRANCH  17  20
ENDBRANCH  16  17
BRANCH  16  30
ATOM     30  C20 UNL     1       3.051  -0.873   0.080  1.00  0.00     0.043 C   
ATOM     31  C21 UNL     1       3.779  -0.751  -1.275  1.00  0.00     0.010 C   
ATOM     32  C25 UNL     1       3.988  -0.430   1.221  1.00  0.00     0.010 C   
ATOM     33  C22 UNL     1       5.087  -1.542  -1.283  1.00  0.00     0.001 C   
ATOM     34  C24 UNL     1       5.297  -1.220   1.209  1.00  0.00     0.001 C   
ATOM     35  C23 UNL     1       6.003  -1.123  -0.139  1.00  0.00     0.000 C   
ENDBRANCH  16  30
ENDBRANCH   3  16
TORSDOF 7
