REMARK SMILES O=C(Cn1cc([C@@H]([NH2+]Cc2ccc3c(c2)OCO3)C2CCCC2)nn1)c1ccc(F)c(F)c1
REMARK SMILES IDX 4 1 5 2 6 3 24 4 25 5 3 7 2 8 1 9 26 10 27 11 33 12 28 13
REMARK SMILES IDX 31 14 29 15 32 16 30 17 7 18 8 19 9 22 10 23 11 24 15 25
REMARK SMILES IDX 12 26 14 27 13 28 16 29 18 30 17 31 19 32 20 33 23 34 21 35
REMARK SMILES IDX 22 36
REMARK H PARENT 5 6 8 20 8 21
ROOT
ATOM     1   N1  UNL     1       1.659  -0.543   0.011  1.00  0.00    -0.204 N   
ATOM     2   C3  UNL     1       0.781  -0.997   0.954  1.00  0.00     0.046 A   
ATOM     3   C4  UNL     1      -0.240  -1.553   0.216  1.00  0.00     0.127 A   
ATOM     4   N3  UNL     1       0.058  -1.441  -1.118  1.00  0.00    -0.132 NA  
ATOM     5   N4  UNL     1       1.227  -0.830  -1.230  1.00  0.00    -0.076 NA  
ATOM     6   H3  UNL     1       0.941  -0.843   2.013  1.00  0.00     0.083 HD  
ENDROOT
BRANCH   1   7
ATOM     7   C2  UNL     1       2.874   0.208   0.212  1.00  0.00     0.214 C   
BRANCH   7   8
ATOM     8   C1  UNL     1       2.545   1.658   0.458  1.00  0.00     0.182 C   
ATOM     9   O1  UNL     1       2.022   2.016   1.515  1.00  0.00    -0.292 OA  
BRANCH   8  10
ATOM     10  C19 UNL     1       2.843   2.679  -0.586  1.00  0.00     0.022 A   
ATOM     11  C20 UNL     1       2.968   2.356  -1.946  1.00  0.00     0.015 A   
ATOM     12  C24 UNL     1       2.972   4.015  -0.176  1.00  0.00     0.054 A   
ATOM     13  C21 UNL     1       3.240   3.361  -2.882  1.00  0.00     0.043 A   
ATOM     14  C23 UNL     1       3.236   5.006  -1.117  1.00  0.00     0.159 A   
ATOM     15  C22 UNL     1       3.373   4.681  -2.461  1.00  0.00     0.158 A   
ATOM     16  F2  UNL     1       3.361   6.277  -0.712  1.00  0.00    -0.204 F   
ATOM     17  F1  UNL     1       3.620   5.637  -3.366  1.00  0.00    -0.204 F   
ENDBRANCH   8  10
ENDBRANCH   7   8
ENDBRANCH   1   7
BRANCH   3  18
ATOM     18  C5  UNL     1      -1.552  -2.122   0.642  1.00  0.00     0.117 C   
BRANCH  18  19
ATOM     19  N2  UNL     1      -2.641  -1.717  -0.331  1.00  0.00     0.249 N   
ATOM     20  H5  UNL     1      -2.190  -1.656  -1.258  1.00  0.00     0.199 HD  
ATOM     21  H6  UNL     1      -3.346  -2.457  -0.402  1.00  0.00     0.199 HD  
BRANCH  19  22
ATOM     22  C6  UNL     1      -3.329  -0.424  -0.054  1.00  0.00     0.164 C   
BRANCH  22  23
ATOM     23  C7  UNL     1      -2.527   0.789  -0.433  1.00  0.00    -0.002 A   
ATOM     24  C8  UNL     1      -1.861   1.554   0.553  1.00  0.00     0.012 A   
ATOM     25  C12 UNL     1      -2.417   1.161  -1.784  1.00  0.00     0.045 A   
ATOM     26  C9  UNL     1      -1.096   2.673   0.202  1.00  0.00     0.037 A   
ATOM     27  C11 UNL     1      -1.662   2.273  -2.095  1.00  0.00     0.109 A   
ATOM     28  C10 UNL     1      -1.019   3.008  -1.130  1.00  0.00     0.108 A   
ATOM     29  O2  UNL     1      -1.468   2.771  -3.344  1.00  0.00    -0.316 OA  
ATOM     30  O3  UNL     1      -0.336   4.060  -1.651  1.00  0.00    -0.316 OA  
ATOM     31  C13 UNL     1      -0.674   3.942  -3.050  1.00  0.00     0.337 C   
ENDBRANCH  22  23
ENDBRANCH  19  22
ENDBRANCH  18  19
BRANCH  18  32
ATOM     32  C14 UNL     1      -1.576  -3.659   0.771  1.00  0.00     0.043 C   
ATOM     33  C15 UNL     1      -0.541  -4.246   1.732  1.00  0.00     0.010 C   
ATOM     34  C18 UNL     1      -1.344  -4.463  -0.514  1.00  0.00     0.010 C   
ATOM     35  C16 UNL     1      -0.640  -5.739   1.455  1.00  0.00     0.001 C   
ATOM     36  C17 UNL     1      -0.870  -5.843  -0.051  1.00  0.00     0.001 C   
ENDBRANCH  18  32
ENDBRANCH   3  18
TORSDOF 8
