REMARK SMILES COc1cc(CCn2cc([C@@H]([NH2+]Cc3ccc4c(c3)OCO4)C(C)(C)C)nn2)cc(C)n1
REMARK SMILES IDX 8 1 9 2 10 3 27 4 28 5 7 7 6 8 5 9 3 10 4 11 32 12 30 13
REMARK SMILES IDX 29 14 31 15 2 16 1 17 11 18 12 19 13 22 14 23 15 24 19 25
REMARK SMILES IDX 16 26 18 27 17 28 20 29 22 30 21 31 23 32 24 33 25 34 26 35
REMARK H PARENT 9 6 12 20 12 21
ROOT
ATOM     1   N1  UNL     1      -1.152   1.477   3.582  1.00  0.00    -0.212 N   
ATOM     2   C7  UNL     1      -1.806   0.400   3.052  1.00  0.00     0.045 A   
ATOM     3   C8  UNL     1      -0.797  -0.498   2.779  1.00  0.00     0.127 A   
ATOM     4   N3  UNL     1       0.404   0.049   3.154  1.00  0.00    -0.132 NA  
ATOM     5   N4  UNL     1       0.172   1.252   3.653  1.00  0.00    -0.076 NA  
ATOM     6   H9  UNL     1      -2.874   0.392   2.885  1.00  0.00     0.083 HD  
ENDROOT
BRANCH   1   7
ATOM     7   C6  UNL     1      -1.704   2.774   3.920  1.00  0.00     0.139 C   
BRANCH   7   8
ATOM     8   C5  UNL     1      -1.289   3.880   2.941  1.00  0.00     0.057 C   
BRANCH   8   9
ATOM     9   C4  UNL     1      -1.642   3.558   1.508  1.00  0.00    -0.040 A   
ATOM     10  C2  UNL     1      -1.044   2.683  -0.637  1.00  0.00     0.167 A   
ATOM     11  C3  UNL     1      -0.670   3.046   0.645  1.00  0.00     0.058 A   
ATOM     12  N5  UNL     1      -2.306   2.767  -1.101  1.00  0.00    -0.230 NA  
ATOM     13  C23 UNL     1      -3.235   3.307  -0.277  1.00  0.00     0.041 A   
ATOM     14  C22 UNL     1      -2.946   3.704   1.028  1.00  0.00     0.027 A   
ATOM     15  C24 UNL     1      -4.626   3.461  -0.819  1.00  0.00     0.067 C   
BRANCH  10  16
ATOM     16  O1  UNL     1      -0.062   2.112  -1.423  1.00  0.00    -0.333 OA  
ATOM     17  C1  UNL     1      -0.411   2.100  -2.806  1.00  0.00     0.205 C   
ENDBRANCH  10  16
ENDBRANCH   8   9
ENDBRANCH   7   8
ENDBRANCH   1   7
BRANCH   3  18
ATOM     18  C9  UNL     1      -0.824  -1.822   2.077  1.00  0.00     0.120 C   
BRANCH  18  19
ATOM     19  N2  UNL     1       0.338  -1.883   1.113  1.00  0.00     0.250 N   
ATOM     20  H11 UNL     1       0.545  -2.837   0.808  1.00  0.00     0.199 HD  
ATOM     21  H12 UNL     1       1.170  -1.554   1.625  1.00  0.00     0.199 HD  
BRANCH  19  22
ATOM     22  C10 UNL     1       0.200  -1.016  -0.093  1.00  0.00     0.164 C   
BRANCH  22  23
ATOM     23  C11 UNL     1       1.416  -1.129  -0.967  1.00  0.00    -0.002 A   
ATOM     24  C12 UNL     1       2.500  -0.235  -0.792  1.00  0.00     0.012 A   
ATOM     25  C16 UNL     1       1.505  -2.147  -1.931  1.00  0.00     0.045 A   
ATOM     26  C13 UNL     1       3.651  -0.340  -1.579  1.00  0.00     0.037 A   
ATOM     27  C15 UNL     1       2.656  -2.224  -2.689  1.00  0.00     0.109 A   
ATOM     28  C14 UNL     1       3.698  -1.345  -2.520  1.00  0.00     0.108 A   
ATOM     29  O2  UNL     1       2.901  -3.141  -3.662  1.00  0.00    -0.316 OA  
ATOM     30  O3  UNL     1       4.729  -1.595  -3.368  1.00  0.00    -0.316 OA  
ATOM     31  C17 UNL     1       4.208  -2.717  -4.113  1.00  0.00     0.337 C   
ENDBRANCH  22  23
ENDBRANCH  19  22
ENDBRANCH  18  19
BRANCH  18  32
ATOM     32  C18 UNL     1      -0.810  -3.061   3.037  1.00  0.00     0.010 C   
ATOM     33  C19 UNL     1      -1.981  -2.967   4.042  1.00  0.00     0.017 C   
ATOM     34  C20 UNL     1       0.504  -3.187   3.834  1.00  0.00     0.017 C   
ATOM     35  C21 UNL     1      -1.013  -4.365   2.231  1.00  0.00     0.017 C   
ENDBRANCH  18  32
ENDBRANCH   3  18
TORSDOF 9
