REMARK SMILES Cc1cccc(CCn2cc([C@@H]([NH2+]Cc3ccc4c(c3)OCO4)C3CCCCC3)nn2)c1
REMARK SMILES IDX 9 1 10 2 11 3 30 4 31 5 8 7 7 8 6 9 2 10 3 11 32 12 4 13
REMARK SMILES IDX 5 14 1 15 12 16 13 17 14 20 15 21 16 22 20 23 17 24 19 25
REMARK SMILES IDX 18 26 21 27 23 28 22 29 24 30 25 31 29 32 26 33 28 34 27 35
REMARK H PARENT 10 6 13 18 13 19
ROOT
ATOM     1   N1  UNL     1       0.129   1.512  -2.774  1.00  0.00    -0.212 N   
ATOM     2   C9  UNL     1       0.373   0.286  -2.218  1.00  0.00     0.045 A   
ATOM     3   C10 UNL     1      -0.782   0.006  -1.524  1.00  0.00     0.127 A   
ATOM     4   N3  UNL     1      -1.696   1.008  -1.740  1.00  0.00    -0.132 NA  
ATOM     5   N4  UNL     1      -1.130   1.918  -2.514  1.00  0.00    -0.076 NA  
ATOM     6   H11 UNL     1       1.327  -0.218  -2.311  1.00  0.00     0.083 HD  
ENDROOT
BRANCH   1   7
ATOM     7   C8  UNL     1       1.050   2.399  -3.452  1.00  0.00     0.139 C   
BRANCH   7   8
ATOM     8   C7  UNL     1       2.361   2.623  -2.692  1.00  0.00     0.057 C   
BRANCH   8   9
ATOM     9   C6  UNL     1       2.229   3.054  -1.244  1.00  0.00    -0.046 A   
ATOM     10  C2  UNL     1       3.042   2.918   1.059  1.00  0.00    -0.051 A   
ATOM     11  C3  UNL     1       2.105   3.884   1.440  1.00  0.00     0.003 A   
ATOM     12  C26 UNL     1       3.103   2.518  -0.284  1.00  0.00     0.007 A   
ATOM     13  C4  UNL     1       1.235   4.429   0.497  1.00  0.00     0.001 A   
ATOM     14  C5  UNL     1       1.299   4.019  -0.836  1.00  0.00     0.004 A   
ATOM     15  C1  UNL     1       4.035   2.392   2.054  1.00  0.00     0.044 C   
ENDBRANCH   8   9
ENDBRANCH   7   8
ENDBRANCH   1   7
BRANCH   3  16
ATOM     16  C11 UNL     1      -1.116  -1.081  -0.552  1.00  0.00     0.117 C   
BRANCH  16  17
ATOM     17  N2  UNL     1      -2.030  -0.527   0.515  1.00  0.00     0.249 N   
ATOM     18  H13 UNL     1      -2.490  -1.273   1.039  1.00  0.00     0.199 HD  
ATOM     19  H14 UNL     1      -2.763  -0.003   0.012  1.00  0.00     0.199 HD  
BRANCH  17  20
ATOM     20  C12 UNL     1      -1.400   0.433   1.473  1.00  0.00     0.164 C   
BRANCH  20  21
ATOM     21  C13 UNL     1      -0.551  -0.255   2.505  1.00  0.00    -0.002 A   
ATOM     22  C14 UNL     1      -1.158  -1.010   3.540  1.00  0.00     0.012 A   
ATOM     23  C18 UNL     1       0.850  -0.156   2.447  1.00  0.00     0.045 A   
ATOM     24  C15 UNL     1      -0.382  -1.662   4.503  1.00  0.00     0.037 A   
ATOM     25  C17 UNL     1       1.587  -0.808   3.415  1.00  0.00     0.109 A   
ATOM     26  C16 UNL     1       0.988  -1.541   4.412  1.00  0.00     0.108 A   
ATOM     27  O1  UNL     1       2.943  -0.818   3.509  1.00  0.00    -0.316 OA  
ATOM     28  O2  UNL     1       1.889  -2.103   5.257  1.00  0.00    -0.316 OA  
ATOM     29  C19 UNL     1       3.129  -1.606   4.709  1.00  0.00     0.337 C   
ENDBRANCH  20  21
ENDBRANCH  17  20
ENDBRANCH  16  17
BRANCH  16  30
ATOM     30  C20 UNL     1      -1.759  -2.312  -1.244  1.00  0.00     0.043 C   
ATOM     31  C21 UNL     1      -3.156  -2.044  -1.838  1.00  0.00     0.010 C   
ATOM     32  C25 UNL     1      -1.806  -3.532  -0.302  1.00  0.00     0.010 C   
ATOM     33  C22 UNL     1      -3.723  -3.283  -2.531  1.00  0.00     0.001 C   
ATOM     34  C24 UNL     1      -2.374  -4.765  -1.006  1.00  0.00     0.001 C   
ATOM     35  C23 UNL     1      -3.751  -4.487  -1.595  1.00  0.00     0.000 C   
ENDBRANCH  16  30
ENDBRANCH   3  16
TORSDOF 8
