REMARK SMILES COc1cncc(Cn2cc([C@H](CC(C)C)[NH2+]Cc3ccc4c(c3)OCO4)nn2)c1
REMARK SMILES IDX 9 1 10 2 11 3 28 4 29 5 8 7 7 8 3 9 4 10 30 11 5 12 6 13
REMARK SMILES IDX 2 14 1 15 12 16 13 17 14 18 15 19 16 20 17 21 18 24 19 25
REMARK SMILES IDX 20 26 24 27 21 28 23 29 22 30 25 31 27 32 26 33
REMARK H PARENT 10 6 17 22 17 23
ROOT
ATOM     1   N2  UNL     1       2.446   0.343   1.099  1.00  0.00    -0.208 N   
ATOM     2   C7  UNL     1       1.530   0.678   0.139  1.00  0.00     0.046 A   
ATOM     3   C8  UNL     1       0.427   1.078   0.862  1.00  0.00     0.127 A   
ATOM     4   N4  UNL     1       0.707   0.983   2.200  1.00  0.00    -0.132 NA  
ATOM     5   N5  UNL     1       1.946   0.547   2.332  1.00  0.00    -0.076 NA  
ATOM     6   H8  UNL     1       1.730   0.570  -0.919  1.00  0.00     0.083 HD  
ENDROOT
BRANCH   1   7
ATOM     7   C6  UNL     1       3.768  -0.238   0.930  1.00  0.00     0.171 C   
BRANCH   7   8
ATOM     8   C5  UNL     1       3.674  -1.735   0.883  1.00  0.00    -0.008 A   
ATOM     9   C2  UNL     1       3.545  -3.829  -0.335  1.00  0.00     0.093 A   
ATOM     10  C3  UNL     1       3.416  -4.464   0.893  1.00  0.00     0.144 A   
ATOM     11  C22 UNL     1       3.680  -2.441  -0.328  1.00  0.00     0.042 A   
ATOM     12  N1  UNL     1       3.393  -3.817   2.078  1.00  0.00    -0.262 NA  
ATOM     13  C4  UNL     1       3.530  -2.474   2.048  1.00  0.00     0.116 A   
BRANCH   9  14
ATOM     14  O1  UNL     1       3.540  -4.414  -1.568  1.00  0.00    -0.348 OA  
ATOM     15  C1  UNL     1       3.382  -5.829  -1.601  1.00  0.00     0.203 C   
ENDBRANCH   9  14
ENDBRANCH   7   8
ENDBRANCH   1   7
BRANCH   3  16
ATOM     16  C9  UNL     1      -0.957   1.462   0.449  1.00  0.00     0.114 C   
BRANCH  16  17
ATOM     17  C10 UNL     1      -1.182   2.982   0.429  1.00  0.00     0.064 C   
BRANCH  17  18
ATOM     18  C11 UNL     1      -0.341   3.758  -0.607  1.00  0.00    -0.012 C   
ATOM     19  C12 UNL     1      -0.638   3.324  -2.044  1.00  0.00     0.007 C   
ATOM     20  C13 UNL     1      -0.602   5.261  -0.452  1.00  0.00     0.007 C   
ENDBRANCH  17  18
ENDBRANCH  16  17
BRANCH  16  21
ATOM     21  N3  UNL     1      -1.925   0.882   1.461  1.00  0.00     0.249 N   
ATOM     22  H19 UNL     1      -1.451   0.962   2.375  1.00  0.00     0.199 HD  
ATOM     23  H20 UNL     1      -2.780   1.446   1.526  1.00  0.00     0.199 HD  
BRANCH  21  24
ATOM     24  C14 UNL     1      -2.293  -0.550   1.261  1.00  0.00     0.164 C   
BRANCH  24  25
ATOM     25  C15 UNL     1      -3.500  -0.678   0.373  1.00  0.00    -0.002 A   
ATOM     26  C16 UNL     1      -3.360  -0.937  -1.009  1.00  0.00     0.012 A   
ATOM     27  C20 UNL     1      -4.783  -0.479   0.910  1.00  0.00     0.045 A   
ATOM     28  C17 UNL     1      -4.480  -0.987  -1.851  1.00  0.00     0.037 A   
ATOM     29  C19 UNL     1      -5.864  -0.538   0.057  1.00  0.00     0.109 A   
ATOM     30  C18 UNL     1      -5.719  -0.778  -1.286  1.00  0.00     0.108 A   
ATOM     31  O2  UNL     1      -7.159  -0.366   0.413  1.00  0.00    -0.316 OA  
ATOM     32  O3  UNL     1      -6.907  -0.773  -1.947  1.00  0.00    -0.316 OA  
ATOM     33  C21 UNL     1      -7.825  -0.546  -0.857  1.00  0.00     0.337 C   
ENDBRANCH  24  25
ENDBRANCH  21  24
ENDBRANCH  16  21
ENDBRANCH   3  16
TORSDOF 9
