REMARK SMILES COc1ccc(Cn2cc([C@H](CC(C)C)[NH2+]Cc3ccc4c(c3)OCO4)nn2)cc1OC
REMARK SMILES IDX 8 1 9 2 10 3 27 4 28 5 7 7 6 8 3 9 4 10 30 11 5 12 29 13
REMARK SMILES IDX 2 14 1 15 31 16 32 17 11 18 12 19 13 20 14 21 15 22 16 23
REMARK SMILES IDX 17 26 18 27 19 28 23 29 20 30 22 31 21 32 24 33 26 34 25 35
REMARK H PARENT 9 6 16 24 16 25
ROOT
ATOM     1   N1  UNL     1      -2.557  -1.689   0.364  1.00  0.00    -0.208 N   
ATOM     2   C7  UNL     1      -1.589  -1.464  -0.579  1.00  0.00     0.046 A   
ATOM     3   C8  UNL     1      -0.720  -2.519  -0.416  1.00  0.00     0.127 A   
ATOM     4   N3  UNL     1      -1.181  -3.336   0.585  1.00  0.00    -0.132 NA  
ATOM     5   N4  UNL     1      -2.308  -2.824   1.047  1.00  0.00    -0.076 NA  
ATOM     6   H8  UNL     1      -1.593  -0.591  -1.217  1.00  0.00     0.083 HD  
ENDROOT
BRANCH   1   7
ATOM     7   C6  UNL     1      -3.684  -0.840   0.725  1.00  0.00     0.169 C   
BRANCH   7   8
ATOM     8   C5  UNL     1      -3.223   0.419   1.421  1.00  0.00    -0.026 A   
ATOM     9   C2  UNL     1      -2.363   2.781   2.726  1.00  0.00     0.105 A   
ATOM     10  C3  UNL     1      -3.186   2.844   1.595  1.00  0.00     0.036 A   
ATOM     11  C23 UNL     1      -1.980   1.521   3.211  1.00  0.00     0.105 A   
ATOM     12  C4  UNL     1      -3.617   1.677   0.951  1.00  0.00     0.008 A   
ATOM     13  C22 UNL     1      -2.406   0.357   2.559  1.00  0.00     0.041 A   
BRANCH   9  14
ATOM     14  O1  UNL     1      -1.858   3.888   3.356  1.00  0.00    -0.347 OA  
ATOM     15  C1  UNL     1      -2.556   5.112   3.164  1.00  0.00     0.203 C   
ENDBRANCH   9  14
BRANCH  11  16
ATOM     16  O4  UNL     1      -1.147   1.293   4.278  1.00  0.00    -0.347 OA  
ATOM     17  C24 UNL     1      -1.446   2.070   5.437  1.00  0.00     0.203 C   
ENDBRANCH  11  16
ENDBRANCH   7   8
ENDBRANCH   1   7
BRANCH   3  18
ATOM     18  C9  UNL     1       0.601  -2.818  -1.042  1.00  0.00     0.114 C   
BRANCH  18  19
ATOM     19  C10 UNL     1       0.534  -3.956  -2.076  1.00  0.00     0.064 C   
BRANCH  19  20
ATOM     20  C11 UNL     1      -0.311  -3.641  -3.331  1.00  0.00    -0.012 C   
ATOM     21  C12 UNL     1      -0.344  -4.865  -4.252  1.00  0.00     0.007 C   
ATOM     22  C13 UNL     1       0.216  -2.430  -4.104  1.00  0.00     0.007 C   
ENDBRANCH  19  20
ENDBRANCH  18  19
BRANCH  18  23
ATOM     23  N2  UNL     1       1.562  -3.248   0.048  1.00  0.00     0.249 N   
ATOM     24  H19 UNL     1       1.009  -3.825   0.701  1.00  0.00     0.199 HD  
ATOM     25  H20 UNL     1       2.297  -3.854  -0.331  1.00  0.00     0.199 HD  
BRANCH  23  26
ATOM     26  C14 UNL     1       2.193  -2.139   0.825  1.00  0.00     0.164 C   
BRANCH  26  27
ATOM     27  C15 UNL     1       3.367  -1.551   0.087  1.00  0.00    -0.002 A   
ATOM     28  C16 UNL     1       4.622  -2.208   0.118  1.00  0.00     0.012 A   
ATOM     29  C20 UNL     1       3.212  -0.392  -0.696  1.00  0.00     0.045 A   
ATOM     30  C17 UNL     1       5.703  -1.728  -0.630  1.00  0.00     0.037 A   
ATOM     31  C19 UNL     1       4.296   0.050  -1.426  1.00  0.00     0.109 A   
ATOM     32  C18 UNL     1       5.506  -0.600  -1.397  1.00  0.00     0.108 A   
ATOM     33  O2  UNL     1       4.304   1.126  -2.258  1.00  0.00    -0.316 OA  
ATOM     34  O3  UNL     1       6.429  -0.015  -2.204  1.00  0.00    -0.316 OA  
ATOM     35  C21 UNL     1       5.670   1.092  -2.736  1.00  0.00     0.337 C   
ENDBRANCH  26  27
ENDBRANCH  23  26
ENDBRANCH  18  23
ENDBRANCH   3  18
TORSDOF 10
