REMARK SMILES OCc1ccc(Cn2cc([C@@H]([NH2+]Cc3ccc4c(c3)OCO4)C3CCCCC3)nn2)cc1
REMARK SMILES IDX 8 1 9 2 10 3 29 4 30 5 7 7 6 8 3 9 4 10 32 11 5 12 31 13
REMARK SMILES IDX 2 14 1 15 11 17 12 18 13 21 14 22 15 23 19 24 16 25 18 26
REMARK SMILES IDX 17 27 20 28 22 29 21 30 23 31 24 32 28 33 25 34 27 35 26 36
REMARK H PARENT 9 6 1 16 12 19 12 20
ROOT
ATOM     1   N1  UNL     1      -1.305  -1.052   2.174  1.00  0.00    -0.208 N   
ATOM     2   C7  UNL     1      -0.525   0.056   1.977  1.00  0.00     0.046 A   
ATOM     3   C8  UNL     1      -1.165   0.737   0.965  1.00  0.00     0.127 A   
ATOM     4   N3  UNL     1      -2.279   0.033   0.583  1.00  0.00    -0.132 NA  
ATOM     5   N4  UNL     1      -2.357  -1.054   1.331  1.00  0.00    -0.076 NA  
ATOM     6   H8  UNL     1       0.378   0.234   2.545  1.00  0.00     0.083 HD  
ENDROOT
BRANCH   1   7
ATOM     7   C6  UNL     1      -1.104  -2.145   3.112  1.00  0.00     0.169 C   
BRANCH   7   8
ATOM     8   C5  UNL     1      -0.153  -3.169   2.544  1.00  0.00    -0.029 A   
ATOM     9   C2  UNL     1       1.625  -5.059   1.439  1.00  0.00    -0.023 A   
ATOM     10  C3  UNL     1       2.054  -4.180   2.441  1.00  0.00     0.006 A   
ATOM     11  C25 UNL     1       0.301  -4.981   0.990  1.00  0.00     0.006 A   
ATOM     12  C4  UNL     1       1.174  -3.244   2.990  1.00  0.00     0.006 A   
ATOM     13  C24 UNL     1      -0.581  -4.050   1.541  1.00  0.00     0.006 A   
BRANCH   9  14
ATOM     14  C1  UNL     1       2.578  -6.039   0.809  1.00  0.00     0.191 C   
BRANCH  14  15
ATOM     15  O1  UNL     1       3.104  -5.480  -0.387  1.00  0.00    -0.392 OA  
ATOM     16  H1  UNL     1       3.208  -4.526  -0.235  1.00  0.00     0.211 HD  
ENDBRANCH  14  15
ENDBRANCH   9  14
ENDBRANCH   7   8
ENDBRANCH   1   7
BRANCH   3  17
ATOM     17  C9  UNL     1      -0.813   1.986   0.220  1.00  0.00     0.117 C   
BRANCH  17  18
ATOM     18  N2  UNL     1      -1.067   1.721  -1.249  1.00  0.00     0.249 N   
ATOM     19  H10 UNL     1      -1.895   1.102  -1.291  1.00  0.00     0.199 HD  
ATOM     20  H11 UNL     1      -1.335   2.562  -1.766  1.00  0.00     0.199 HD  
BRANCH  18  21
ATOM     21  C10 UNL     1       0.039   1.037  -1.971  1.00  0.00     0.164 C   
BRANCH  21  22
ATOM     22  C11 UNL     1      -0.400   0.622  -3.346  1.00  0.00    -0.002 A   
ATOM     23  C12 UNL     1      -0.768  -0.722  -3.597  1.00  0.00     0.012 A   
ATOM     24  C16 UNL     1      -0.505   1.574  -4.377  1.00  0.00     0.045 A   
ATOM     25  C13 UNL     1      -1.211  -1.121  -4.863  1.00  0.00     0.037 A   
ATOM     26  C15 UNL     1      -0.960   1.150  -5.609  1.00  0.00     0.109 A   
ATOM     27  C14 UNL     1      -1.296  -0.161  -5.847  1.00  0.00     0.108 A   
ATOM     28  O2  UNL     1      -1.138   1.940  -6.701  1.00  0.00    -0.316 OA  
ATOM     29  O3  UNL     1      -1.712  -0.365  -7.124  1.00  0.00    -0.316 OA  
ATOM     30  C17 UNL     1      -1.635   0.975  -7.658  1.00  0.00     0.337 C   
ENDBRANCH  21  22
ENDBRANCH  18  21
ENDBRANCH  17  18
BRANCH  17  31
ATOM     31  C18 UNL     1      -1.643   3.226   0.662  1.00  0.00     0.043 C   
ATOM     32  C19 UNL     1      -1.158   4.513  -0.045  1.00  0.00     0.010 C   
ATOM     33  C23 UNL     1      -1.585   3.437   2.193  1.00  0.00     0.010 C   
ATOM     34  C20 UNL     1      -1.931   5.750   0.406  1.00  0.00     0.001 C   
ATOM     35  C22 UNL     1      -2.347   4.683   2.640  1.00  0.00     0.001 C   
ATOM     36  C21 UNL     1      -1.866   5.932   1.916  1.00  0.00     0.000 C   
ENDBRANCH  17  31
ENDBRANCH   3  17
TORSDOF 9
