REMARK SMILES c1ccc2[nH]c(-n3cc([C@@H]([NH2+]Cc4ccc5c(c4)OCO5)C4CCCC4)nn3)nc2c1
REMARK SMILES IDX 10 1 9 2 7 3 8 4 28 5 27 6 6 7 1 8 2 9 31 10 3 11 30 12 4 13
REMARK SMILES IDX 29 14 5 15 11 17 12 20 13 21 14 22 18 23 15 24 17 25 16 26
REMARK SMILES IDX 19 27 21 28 20 29 22 30 23 31 26 32 24 33 25 34
REMARK H PARENT 5 16 11 18 11 19
ROOT
ATOM     1   C8  UNL     1      -0.788  -1.825   0.881  1.00  0.00     0.117 C   
ENDROOT
BRANCH   1   2
ATOM     2   C7  UNL     1       0.405  -1.132   0.300  1.00  0.00     0.128 A   
ATOM     3   N2  UNL     1       2.354  -0.316  -0.221  1.00  0.00    -0.149 N   
ATOM     4   C6  UNL     1       1.725  -1.135   0.686  1.00  0.00     0.138 A   
ATOM     5   N5  UNL     1       1.451   0.182  -1.099  1.00  0.00    -0.068 NA  
ATOM     6   N4  UNL     1       0.261  -0.315  -0.794  1.00  0.00    -0.131 NA  
BRANCH   3   7
ATOM     7   C5  UNL     1       3.685   0.037  -0.318  1.00  0.00     0.212 A   
ATOM     8   C1  UNL     1       8.105   0.811  -0.117  1.00  0.00     0.002 A   
ATOM     9   C2  UNL     1       7.825   1.593  -1.241  1.00  0.00     0.002 A   
ATOM     10  C23 UNL     1       7.088   0.107   0.540  1.00  0.00     0.030 A   
ATOM     11  C3  UNL     1       6.525   1.701  -1.748  1.00  0.00     0.026 A   
ATOM     12  C22 UNL     1       5.779   0.203   0.047  1.00  0.00     0.088 A   
ATOM     13  C4  UNL     1       5.530   0.990  -1.075  1.00  0.00     0.059 A   
ATOM     14  N6  UNL     1       4.621  -0.383   0.507  1.00  0.00    -0.215 NA  
ATOM     15  N1  UNL     1       4.180   0.866  -1.287  1.00  0.00    -0.284 N   
ATOM     16  H4  UNL     1       3.645   1.301  -2.026  1.00  0.00     0.156 HD  
ENDBRANCH   3   7
ENDBRANCH   1   2
BRANCH   1  17
ATOM     17  N3  UNL     1      -2.043  -1.062   0.556  1.00  0.00     0.249 N   
ATOM     18  H7  UNL     1      -1.976  -0.774  -0.432  1.00  0.00     0.199 HD  
ATOM     19  H8  UNL     1      -2.881  -1.647   0.623  1.00  0.00     0.199 HD  
BRANCH  17  20
ATOM     20  C9  UNL     1      -2.262   0.174   1.360  1.00  0.00     0.164 C   
BRANCH  20  21
ATOM     21  C10 UNL     1      -3.491   0.894   0.882  1.00  0.00    -0.002 A   
ATOM     22  C11 UNL     1      -3.399   1.828  -0.178  1.00  0.00     0.012 A   
ATOM     23  C15 UNL     1      -4.746   0.603   1.442  1.00  0.00     0.045 A   
ATOM     24  C12 UNL     1      -4.539   2.474  -0.667  1.00  0.00     0.037 A   
ATOM     25  C14 UNL     1      -5.850   1.257   0.935  1.00  0.00     0.109 A   
ATOM     26  C13 UNL     1      -5.751   2.166  -0.089  1.00  0.00     0.108 A   
ATOM     27  O1  UNL     1      -7.130   1.091   1.361  1.00  0.00    -0.316 OA  
ATOM     28  O2  UNL     1      -6.955   2.689  -0.436  1.00  0.00    -0.316 OA  
ATOM     29  C16 UNL     1      -7.827   2.022   0.501  1.00  0.00     0.337 C   
ENDBRANCH  20  21
ENDBRANCH  17  20
ENDBRANCH   1  17
BRANCH   1  30
ATOM     30  C17 UNL     1      -0.891  -3.281   0.384  1.00  0.00     0.043 C   
ATOM     31  C18 UNL     1      -1.289  -3.473  -1.081  1.00  0.00     0.010 C   
ATOM     32  C21 UNL     1      -1.919  -4.140   1.129  1.00  0.00     0.010 C   
ATOM     33  C19 UNL     1      -1.594  -4.962  -1.155  1.00  0.00     0.001 C   
ATOM     34  C20 UNL     1      -2.226  -5.309   0.191  1.00  0.00     0.001 C   
ENDBRANCH   1  30
TORSDOF 6
