REMARK SMILES CN(C)c1cccc(-n2cc([C@@H]([NH2+]Cc3ccc4c(c3)OCO4)C3CCCC3)nn2)c1
REMARK SMILES IDX 9 1 10 2 11 3 29 4 30 5 8 6 4 7 5 8 31 9 6 10 7 11 2 12 1 13
REMARK SMILES IDX 3 14 12 15 13 16 14 19 15 20 16 21 20 22 17 23 19 24 18 25
REMARK SMILES IDX 21 26 23 27 22 28 24 29 25 30 28 31 26 32 27 33
REMARK H PARENT 13 17 13 18
ROOT
ATOM     1   N2  UNL     1      -0.836  -0.580  -1.804  1.00  0.00    -0.181 N   
ATOM     2   C8  UNL     1      -0.648  -0.312  -0.462  1.00  0.00     0.135 A   
ATOM     3   C9  UNL     1      -0.586   1.061  -0.380  1.00  0.00     0.127 A   
ATOM     4   N4  UNL     1      -0.808   1.596  -1.616  1.00  0.00    -0.131 NA  
ATOM     5   N5  UNL     1      -0.984   0.599  -2.466  1.00  0.00    -0.071 NA  
ENDROOT
BRANCH   1   6
ATOM     6   C7  UNL     1      -0.823  -1.826  -2.475  1.00  0.00     0.059 A   
ATOM     7   C3  UNL     1      -0.474  -4.253  -2.443  1.00  0.00     0.030 A   
ATOM     8   C4  UNL     1      -0.680  -4.262  -3.829  1.00  0.00     0.023 A   
ATOM     9   C24 UNL     1      -0.557  -3.015  -1.779  1.00  0.00     0.049 A   
ATOM     10  C5  UNL     1      -0.964  -3.086  -4.529  1.00  0.00     0.004 A   
ATOM     11  C6  UNL     1      -1.034  -1.868  -3.857  1.00  0.00     0.026 A   
BRANCH   7  12
ATOM     12  N1  UNL     1      -0.166  -5.402  -1.690  1.00  0.00    -0.337 N   
ATOM     13  C1  UNL     1      -1.267  -5.795  -0.800  1.00  0.00     0.129 C   
ATOM     14  C2  UNL     1       0.429  -6.529  -2.415  1.00  0.00     0.129 C   
ENDBRANCH   7  12
ENDBRANCH   1   6
BRANCH   3  15
ATOM     15  C10 UNL     1      -0.216   1.964   0.752  1.00  0.00     0.117 C   
BRANCH  15  16
ATOM     16  N3  UNL     1       0.868   2.916   0.279  1.00  0.00     0.249 N   
ATOM     17  H12 UNL     1       0.697   3.063  -0.729  1.00  0.00     0.199 HD  
ATOM     18  H13 UNL     1       0.761   3.837   0.712  1.00  0.00     0.199 HD  
BRANCH  16  19
ATOM     19  C11 UNL     1       2.280   2.464   0.459  1.00  0.00     0.164 C   
BRANCH  19  20
ATOM     20  C12 UNL     1       2.623   1.206  -0.288  1.00  0.00    -0.002 A   
ATOM     21  C13 UNL     1       2.757   1.223  -1.698  1.00  0.00     0.012 A   
ATOM     22  C17 UNL     1       2.751  -0.014   0.401  1.00  0.00     0.045 A   
ATOM     23  C14 UNL     1       2.991   0.044  -2.414  1.00  0.00     0.037 A   
ATOM     24  C16 UNL     1       2.971  -1.159  -0.337  1.00  0.00     0.109 A   
ATOM     25  C15 UNL     1       3.086  -1.132  -1.704  1.00  0.00     0.108 A   
ATOM     26  O1  UNL     1       3.070  -2.416   0.168  1.00  0.00    -0.316 OA  
ATOM     27  O2  UNL     1       3.284  -2.367  -2.233  1.00  0.00    -0.316 OA  
ATOM     28  C18 UNL     1       3.280  -3.183  -1.042  1.00  0.00     0.337 C   
ENDBRANCH  19  20
ENDBRANCH  16  19
ENDBRANCH  15  16
BRANCH  15  29
ATOM     29  C19 UNL     1      -1.419   2.788   1.251  1.00  0.00     0.043 C   
ATOM     30  C20 UNL     1      -1.108   3.686   2.455  1.00  0.00     0.010 C   
ATOM     31  C23 UNL     1      -2.563   1.923   1.789  1.00  0.00     0.010 C   
ATOM     32  C21 UNL     1      -2.451   3.928   3.143  1.00  0.00     0.001 C   
ATOM     33  C22 UNL     1      -3.426   2.914   2.554  1.00  0.00     0.001 C   
ENDBRANCH  15  29
ENDBRANCH   3  15
TORSDOF 7
