REMARK SMILES Cc1nc(Cn2cc([C@@H]([NH2+]Cc3ccc4c(c3)OCO4)C(C)C)nn2)oc1C
REMARK SMILES IDX 6 1 7 2 8 3 24 4 25 5 5 7 4 8 2 9 3 10 27 11 26 12 1 13
REMARK SMILES IDX 28 14 9 15 10 16 11 19 12 20 13 21 17 22 14 23 16 24 15 25
REMARK SMILES IDX 18 26 20 27 19 28 21 29 22 30 23 31
REMARK H PARENT 7 6 10 17 10 18
ROOT
ATOM     1   N2  UNL     1      -1.772  -0.546  -1.654  1.00  0.00    -0.204 N   
ATOM     2   C5  UNL     1      -0.433  -0.463  -1.380  1.00  0.00     0.046 A   
ATOM     3   C6  UNL     1      -0.102  -1.731  -0.959  1.00  0.00     0.127 A   
ATOM     4   N4  UNL     1      -1.206  -2.540  -1.053  1.00  0.00    -0.132 NA  
ATOM     5   N5  UNL     1      -2.217  -1.807  -1.488  1.00  0.00    -0.075 NA  
ATOM     6   H6  UNL     1       0.111   0.471  -1.432  1.00  0.00     0.083 HD  
ENDROOT
BRANCH   1   7
ATOM     7   C4  UNL     1      -2.679   0.526  -2.017  1.00  0.00     0.217 C   
BRANCH   7   8
ATOM     8   C3  UNL     1      -3.068   1.285  -0.804  1.00  0.00     0.167 A   
ATOM     9   C2  UNL     1      -3.209   2.342   1.038  1.00  0.00     0.066 A   
ATOM     10  N1  UNL     1      -2.342   1.614   0.251  1.00  0.00    -0.229 NA  
ATOM     11  C19 UNL     1      -4.439   2.418   0.419  1.00  0.00     0.079 A   
ATOM     12  O3  UNL     1      -4.354   1.747  -0.768  1.00  0.00    -0.297 OA  
ATOM     13  C1  UNL     1      -2.780   2.911   2.333  1.00  0.00     0.069 C   
ATOM     14  C20 UNL     1      -5.734   3.041   0.746  1.00  0.00     0.075 C   
ENDBRANCH   7   8
ENDBRANCH   1   7
BRANCH   3  15
ATOM     15  C7  UNL     1       1.154  -2.254  -0.345  1.00  0.00     0.117 C   
BRANCH  15  16
ATOM     16  N3  UNL     1       0.838  -3.168   0.816  1.00  0.00     0.249 N   
ATOM     17  H8  UNL     1       0.220  -3.904   0.450  1.00  0.00     0.199 HD  
ATOM     18  H9  UNL     1       1.689  -3.620   1.159  1.00  0.00     0.199 HD  
BRANCH  16  19
ATOM     19  C8  UNL     1       0.118  -2.544   1.972  1.00  0.00     0.164 C   
BRANCH  19  20
ATOM     20  C9  UNL     1       0.884  -1.424   2.618  1.00  0.00    -0.002 A   
ATOM     21  C10 UNL     1       0.456  -0.084   2.454  1.00  0.00     0.012 A   
ATOM     22  C14 UNL     1       2.047  -1.692   3.361  1.00  0.00     0.045 A   
ATOM     23  C11 UNL     1       1.178   0.976   3.012  1.00  0.00     0.037 A   
ATOM     24  C13 UNL     1       2.735  -0.624   3.898  1.00  0.00     0.109 A   
ATOM     25  C12 UNL     1       2.314   0.672   3.728  1.00  0.00     0.108 A   
ATOM     26  O1  UNL     1       3.875  -0.708   4.632  1.00  0.00    -0.316 OA  
ATOM     27  O2  UNL     1       3.136   1.567   4.335  1.00  0.00    -0.316 OA  
ATOM     28  C15 UNL     1       4.111   0.686   4.933  1.00  0.00     0.337 C   
ENDBRANCH  19  20
ENDBRANCH  16  19
ENDBRANCH  15  16
BRANCH  15  29
ATOM     29  C16 UNL     1       2.065  -2.976  -1.374  1.00  0.00     0.037 C   
ATOM     30  C17 UNL     1       3.477  -3.198  -0.816  1.00  0.00     0.014 C   
ATOM     31  C18 UNL     1       1.507  -4.306  -1.893  1.00  0.00     0.014 C   
ENDBRANCH  15  29
ENDBRANCH   3  15
TORSDOF 7
