REMARK SMILES CC(C)C[C@H]([NH2+]Cc1ccc2c(c1)OCO2)c1cn(-c2ccc(N([O-])[O-])cc2F)nn1
REMARK SMILES IDX 17 1 18 2 19 3 30 4 31 5 5 6 4 7 2 8 1 9 3 10 6 11 7 14 8 15
REMARK SMILES IDX 9 16 13 17 10 18 12 19 11 20 14 21 16 22 15 23 20 24 21 25
REMARK SMILES IDX 28 26 22 27 27 28 23 29 29 30 24 31 25 32 26 33
REMARK H PARENT 6 12 6 13
ROOT
ATOM     1   C14 UNL     1       0.658   0.477  -0.059  1.00  0.00     0.127 A   
ATOM     2   C15 UNL     1       1.798  -0.249  -0.326  1.00  0.00     0.135 A   
ATOM     3   N2  UNL     1       1.917  -1.141   0.724  1.00  0.00    -0.178 N   
ATOM     4   N4  UNL     1       0.852  -0.970   1.552  1.00  0.00    -0.071 NA  
ATOM     5   N5  UNL     1       0.095   0.011   1.093  1.00  0.00    -0.131 NA  
ENDROOT
BRANCH   1   6
ATOM     6   C5  UNL     1      -0.009   1.582  -0.814  1.00  0.00     0.114 C   
BRANCH   6   7
ATOM     7   C4  UNL     1       0.435   2.978  -0.335  1.00  0.00     0.064 C   
BRANCH   7   8
ATOM     8   C2  UNL     1       1.923   3.317  -0.568  1.00  0.00    -0.012 C   
ATOM     9   C1  UNL     1       2.235   4.696   0.022  1.00  0.00     0.007 C   
ATOM     10  C3  UNL     1       2.300   3.294  -2.050  1.00  0.00     0.007 C   
ENDBRANCH   7   8
ENDBRANCH   6   7
BRANCH   6  11
ATOM     11  N1  UNL     1      -1.505   1.511  -0.613  1.00  0.00     0.249 N   
ATOM     12  H11 UNL     1      -1.957   2.398  -0.861  1.00  0.00     0.199 HD  
ATOM     13  H12 UNL     1      -1.668   1.379   0.397  1.00  0.00     0.199 HD  
BRANCH  11  14
ATOM     14  C6  UNL     1      -2.200   0.404  -1.327  1.00  0.00     0.164 C   
BRANCH  14  15
ATOM     15  C7  UNL     1      -3.663   0.404  -0.986  1.00  0.00    -0.002 A   
ATOM     16  C8  UNL     1      -4.125  -0.294   0.156  1.00  0.00     0.012 A   
ATOM     17  C12 UNL     1      -4.571   1.147  -1.759  1.00  0.00     0.045 A   
ATOM     18  C9  UNL     1      -5.475  -0.259   0.521  1.00  0.00     0.037 A   
ATOM     19  C11 UNL     1      -5.894   1.161  -1.370  1.00  0.00     0.109 A   
ATOM     20  C10 UNL     1      -6.334   0.479  -0.263  1.00  0.00     0.108 A   
ATOM     21  O1  UNL     1      -6.895   1.830  -2.001  1.00  0.00    -0.316 OA  
ATOM     22  O2  UNL     1      -7.667   0.634  -0.056  1.00  0.00    -0.316 OA  
ATOM     23  C13 UNL     1      -8.026   1.475  -1.173  1.00  0.00     0.337 C   
ENDBRANCH  14  15
ENDBRANCH  11  14
ENDBRANCH   6  11
ENDBRANCH   1   6
BRANCH   3  24
ATOM     24  C16 UNL     1       2.910  -2.115   0.992  1.00  0.00     0.093 A   
ATOM     25  C17 UNL     1       2.809  -2.902   2.154  1.00  0.00     0.031 A   
ATOM     26  C21 UNL     1       3.994  -2.315   0.132  1.00  0.00     0.148 A   
ATOM     27  C18 UNL     1       3.779  -3.870   2.441  1.00  0.00     0.033 A   
ATOM     28  C20 UNL     1       4.966  -3.277   0.406  1.00  0.00     0.072 A   
ATOM     29  C19 UNL     1       4.855  -4.054   1.564  1.00  0.00     0.121 A   
ATOM     30  F1  UNL     1       4.141  -1.597  -0.989  1.00  0.00    -0.205 F   
BRANCH  29  31
ATOM     31  N3  UNL     1       5.872  -5.071   1.858  1.00  0.00     0.092 N   
ATOM     32  O3  UNL     1       6.734  -5.282   0.995  1.00  0.00    -0.138 OA  
ATOM     33  O4  UNL     1       5.801  -5.653   2.948  1.00  0.00    -0.138 OA  
ENDBRANCH  29  31
ENDBRANCH   3  24
TORSDOF 8
