REMARK SMILES Cc1ccnc(Cn2cc([C@@H]([NH2+]Cc3ccc4c(c3)OCO4)C(C)C)nn2)c1
REMARK SMILES IDX 8 1 9 2 10 3 26 4 27 5 7 7 6 8 2 9 3 10 28 11 4 12 5 13 1 14
REMARK SMILES IDX 11 15 12 16 13 19 14 20 15 21 19 22 16 23 18 24 17 25 20 26
REMARK SMILES IDX 22 27 21 28 23 29 24 30 25 31
REMARK H PARENT 9 6 12 17 12 18
ROOT
ATOM     1   N2  UNL     1       1.520  -1.367  -0.448  1.00  0.00    -0.206 N   
ATOM     2   C7  UNL     1       0.343  -1.643   0.195  1.00  0.00     0.046 A   
ATOM     3   C8  UNL     1      -0.609  -1.522  -0.789  1.00  0.00     0.127 A   
ATOM     4   N4  UNL     1       0.004  -1.196  -1.974  1.00  0.00    -0.132 NA  
ATOM     5   N5  UNL     1       1.305  -1.106  -1.753  1.00  0.00    -0.076 NA  
ATOM     6   H8  UNL     1       0.306  -1.869   1.253  1.00  0.00     0.083 HD  
ENDROOT
BRANCH   1   7
ATOM     7   C6  UNL     1       2.863  -1.376   0.097  1.00  0.00     0.190 C   
BRANCH   7   8
ATOM     8   C5  UNL     1       3.082  -0.179   0.980  1.00  0.00     0.060 A   
ATOM     9   C2  UNL     1       3.651   2.141   1.282  1.00  0.00    -0.048 A   
ATOM     10  C3  UNL     1       3.499   1.954   2.655  1.00  0.00     0.023 A   
ATOM     11  C21 UNL     1       3.444   1.051   0.433  1.00  0.00     0.029 A   
ATOM     12  C4  UNL     1       3.116   0.705   3.116  1.00  0.00     0.111 A   
ATOM     13  N1  UNL     1       2.893  -0.357   2.312  1.00  0.00    -0.260 NA  
ATOM     14  C1  UNL     1       4.063   3.469   0.722  1.00  0.00     0.044 C   
ENDBRANCH   7   8
ENDBRANCH   1   7
BRANCH   3  15
ATOM     15  C9  UNL     1      -2.098  -1.645  -0.748  1.00  0.00     0.117 C   
BRANCH  15  16
ATOM     16  N3  UNL     1      -2.707  -0.793  -1.841  1.00  0.00     0.249 N   
ATOM     17  H10 UNL     1      -3.442  -1.299  -2.340  1.00  0.00     0.199 HD  
ATOM     18  H11 UNL     1      -1.952  -0.646  -2.531  1.00  0.00     0.199 HD  
BRANCH  16  19
ATOM     19  C10 UNL     1      -3.229   0.539  -1.429  1.00  0.00     0.164 C   
BRANCH  19  20
ATOM     20  C11 UNL     1      -2.201   1.449  -0.818  1.00  0.00    -0.002 A   
ATOM     21  C12 UNL     1      -1.160   1.996  -1.608  1.00  0.00     0.012 A   
ATOM     22  C16 UNL     1      -2.256   1.754   0.553  1.00  0.00     0.045 A   
ATOM     23  C13 UNL     1      -0.182   2.820  -1.040  1.00  0.00     0.037 A   
ATOM     24  C15 UNL     1      -1.280   2.574   1.079  1.00  0.00     0.109 A   
ATOM     25  C14 UNL     1      -0.270   3.091   0.307  1.00  0.00     0.108 A   
ATOM     26  O1  UNL     1      -1.195   2.965   2.377  1.00  0.00    -0.316 OA  
ATOM     27  O2  UNL     1       0.579   3.874   1.021  1.00  0.00    -0.316 OA  
ATOM     28  C17 UNL     1      -0.021   3.806   2.332  1.00  0.00     0.337 C   
ENDBRANCH  19  20
ENDBRANCH  16  19
ENDBRANCH  15  16
BRANCH  15  29
ATOM     29  C18 UNL     1      -2.568  -3.118  -0.879  1.00  0.00     0.037 C   
ATOM     30  C19 UNL     1      -4.066  -3.260  -0.586  1.00  0.00     0.014 C   
ATOM     31  C20 UNL     1      -2.239  -3.766  -2.230  1.00  0.00     0.014 C   
ENDBRANCH  15  29
ENDBRANCH   3  15
TORSDOF 7
