REMARK SMILES CC(C)C[C@H]([NH2+]Cc1ccc2c(c1)OCO2)c1cn([C@@H](CO)c2ccncc2)nn1
REMARK SMILES IDX 17 1 18 2 19 3 29 4 30 5 5 7 4 8 2 9 1 10 3 11 6 12 7 15
REMARK SMILES IDX 8 16 9 17 13 18 10 19 12 20 11 21 14 22 16 23 15 24 20 25
REMARK SMILES IDX 21 26 22 27 23 29 24 30 28 31 25 32 27 33 26 34
REMARK H PARENT 18 6 6 13 6 14 22 28
ROOT
ATOM     1   C14 UNL     1      -0.527  -0.139  -0.577  1.00  0.00     0.127 A   
ATOM     2   C15 UNL     1      -1.341   0.365   0.411  1.00  0.00     0.046 A   
ATOM     3   N2  UNL     1      -2.351  -0.555   0.517  1.00  0.00    -0.202 N   
ATOM     4   N4  UNL     1      -2.142  -1.587  -0.329  1.00  0.00    -0.075 NA  
ATOM     5   N5  UNL     1      -1.038  -1.335  -1.014  1.00  0.00    -0.132 NA  
ATOM     6   H20 UNL     1      -1.311   1.258   1.020  1.00  0.00     0.083 HD  
ENDROOT
BRANCH   1   7
ATOM     7   C5  UNL     1       0.741   0.389  -1.169  1.00  0.00     0.114 C   
BRANCH   7   8
ATOM     8   C4  UNL     1       0.435   1.344  -2.341  1.00  0.00     0.064 C   
BRANCH   8   9
ATOM     9   C2  UNL     1       1.647   2.022  -3.014  1.00  0.00    -0.012 C   
ATOM     10  C1  UNL     1       1.160   2.955  -4.127  1.00  0.00     0.007 C   
ATOM     11  C3  UNL     1       2.507   2.806  -2.022  1.00  0.00     0.007 C   
ENDBRANCH   8   9
ENDBRANCH   7   8
BRANCH   7  12
ATOM     12  N1  UNL     1       1.593  -0.747  -1.664  1.00  0.00     0.249 N   
ATOM     13  H11 UNL     1       0.972  -1.371  -2.202  1.00  0.00     0.199 HD  
ATOM     14  H12 UNL     1       2.318  -0.432  -2.313  1.00  0.00     0.199 HD  
BRANCH  12  15
ATOM     15  C6  UNL     1       2.234  -1.569  -0.600  1.00  0.00     0.164 C   
BRANCH  15  16
ATOM     16  C7  UNL     1       2.985  -2.718  -1.210  1.00  0.00    -0.002 A   
ATOM     17  C8  UNL     1       2.316  -3.936  -1.483  1.00  0.00     0.012 A   
ATOM     18  C12 UNL     1       4.335  -2.573  -1.570  1.00  0.00     0.045 A   
ATOM     19  C9  UNL     1       2.986  -5.002  -2.093  1.00  0.00     0.037 A   
ATOM     20  C11 UNL     1       4.965  -3.643  -2.172  1.00  0.00     0.109 A   
ATOM     21  C10 UNL     1       4.310  -4.823  -2.426  1.00  0.00     0.108 A   
ATOM     22  O1  UNL     1       6.260  -3.669  -2.583  1.00  0.00    -0.316 OA  
ATOM     23  O2  UNL     1       5.111  -5.742  -3.026  1.00  0.00    -0.316 OA  
ATOM     24  C13 UNL     1       6.355  -5.013  -3.107  1.00  0.00     0.337 C   
ENDBRANCH  15  16
ENDBRANCH  12  15
ENDBRANCH   7  12
ENDBRANCH   1   7
BRANCH   3  25
ATOM     25  C16 UNL     1      -3.540  -0.530   1.370  1.00  0.00     0.155 C   
BRANCH  25  26
ATOM     26  C17 UNL     1      -3.208  -1.006   2.800  1.00  0.00     0.185 C   
BRANCH  26  27
ATOM     27  O3  UNL     1      -2.182  -0.232   3.424  1.00  0.00    -0.394 OA  
ATOM     28  H24 UNL     1      -2.088  -0.570   4.335  1.00  0.00     0.210 HD  
ENDBRANCH  26  27
ENDBRANCH  25  26
BRANCH  25  29
ATOM     29  C18 UNL     1      -4.276   0.796   1.228  1.00  0.00    -0.020 A   
ATOM     30  C19 UNL     1      -4.197   1.826   2.174  1.00  0.00     0.026 A   
ATOM     31  C22 UNL     1      -5.055   1.024   0.082  1.00  0.00     0.026 A   
ATOM     32  C20 UNL     1      -4.884   3.008   1.938  1.00  0.00     0.111 A   
ATOM     33  C21 UNL     1      -5.705   2.240  -0.064  1.00  0.00     0.111 A   
ATOM     34  N3  UNL     1      -5.628   3.237   0.838  1.00  0.00    -0.265 NA  
ENDBRANCH  25  29
ENDBRANCH   3  25
TORSDOF 10
