REMARK SMILES CC(C)C[C@H]([NH2+]Cc1ccc2c(c1)OCO2)c1cn([C@H](CO)c2ccncc2)nn1
REMARK SMILES IDX 17 1 18 2 19 3 29 4 30 5 5 7 4 8 2 9 1 10 3 11 6 12 7 15
REMARK SMILES IDX 8 16 9 17 13 18 10 19 12 20 11 21 14 22 16 23 15 24 20 25
REMARK SMILES IDX 21 26 22 27 23 29 24 30 28 31 25 32 27 33 26 34
REMARK H PARENT 18 6 6 13 6 14 22 28
ROOT
ATOM     1   C14 UNL     1       0.421  -1.927  -0.420  1.00  0.00     0.127 A   
ATOM     2   C15 UNL     1      -0.550  -1.327   0.349  1.00  0.00     0.046 A   
ATOM     3   N2  UNL     1      -0.462  -1.965   1.556  1.00  0.00    -0.202 N   
ATOM     4   N4  UNL     1       0.508  -2.907   1.528  1.00  0.00    -0.075 NA  
ATOM     5   N5  UNL     1       1.048  -2.898   0.322  1.00  0.00    -0.132 NA  
ATOM     6   H20 UNL     1      -1.257  -0.527   0.170  1.00  0.00     0.083 HD  
ENDROOT
BRANCH   1   7
ATOM     7   C5  UNL     1       0.900  -1.643  -1.810  1.00  0.00     0.114 C   
BRANCH   7   8
ATOM     8   C4  UNL     1       0.065  -2.393  -2.866  1.00  0.00     0.064 C   
BRANCH   8   9
ATOM     9   C2  UNL     1       0.168  -1.807  -4.296  1.00  0.00    -0.012 C   
ATOM     10  C1  UNL     1       1.406  -2.283  -5.058  1.00  0.00     0.007 C   
ATOM     11  C3  UNL     1      -1.085  -2.185  -5.101  1.00  0.00     0.007 C   
ENDBRANCH   8   9
ENDBRANCH   7   8
BRANCH   7  12
ATOM     12  N1  UNL     1       2.353  -2.049  -1.905  1.00  0.00     0.249 N   
ATOM     13  H11 UNL     1       2.517  -2.679  -2.696  1.00  0.00     0.199 HD  
ATOM     14  H12 UNL     1       2.527  -2.634  -1.069  1.00  0.00     0.199 HD  
BRANCH  12  15
ATOM     15  C6  UNL     1       3.349  -0.941  -1.901  1.00  0.00     0.164 C   
BRANCH  15  16
ATOM     16  C7  UNL     1       3.256  -0.038  -0.698  1.00  0.00    -0.002 A   
ATOM     17  C8  UNL     1       3.602  -0.512   0.591  1.00  0.00     0.012 A   
ATOM     18  C12 UNL     1       2.780   1.276  -0.844  1.00  0.00     0.045 A   
ATOM     19  C9  UNL     1       3.460   0.302   1.720  1.00  0.00     0.037 A   
ATOM     20  C11 UNL     1       2.643   2.049   0.293  1.00  0.00     0.109 A   
ATOM     21  C10 UNL     1       2.975   1.577   1.537  1.00  0.00     0.108 A   
ATOM     22  O1  UNL     1       2.181   3.326   0.325  1.00  0.00    -0.316 OA  
ATOM     23  O2  UNL     1       2.770   2.499   2.512  1.00  0.00    -0.316 OA  
ATOM     24  C13 UNL     1       2.237   3.600   1.743  1.00  0.00     0.337 C   
ENDBRANCH  15  16
ENDBRANCH  12  15
ENDBRANCH   7  12
ENDBRANCH   1   7
BRANCH   3  25
ATOM     25  C16 UNL     1      -1.219  -1.724   2.785  1.00  0.00     0.155 C   
BRANCH  25  26
ATOM     26  C17 UNL     1      -2.622  -2.361   2.707  1.00  0.00     0.185 C   
BRANCH  26  27
ATOM     27  O3  UNL     1      -3.403  -1.863   1.621  1.00  0.00    -0.394 OA  
ATOM     28  H24 UNL     1      -4.272  -2.304   1.674  1.00  0.00     0.210 HD  
ENDBRANCH  26  27
ENDBRANCH  25  26
BRANCH  25  29
ATOM     29  C18 UNL     1      -1.132  -0.258   3.190  1.00  0.00    -0.020 A   
ATOM     30  C19 UNL     1       0.039   0.209   3.810  1.00  0.00     0.026 A   
ATOM     31  C22 UNL     1      -2.155   0.669   2.955  1.00  0.00     0.026 A   
ATOM     32  C20 UNL     1       0.133   1.551   4.154  1.00  0.00     0.111 A   
ATOM     33  C21 UNL     1      -1.962   1.995   3.327  1.00  0.00     0.111 A   
ATOM     34  N3  UNL     1      -0.836   2.457   3.909  1.00  0.00    -0.265 NA  
ENDBRANCH  25  29
ENDBRANCH   3  25
TORSDOF 10
