REMARK SMILES CCc1cccc([C@H](CO)n2cc([C@@H]([NH2+]Cc3ccc4c(c3)OCO4)C(C)C)nn2)c1
REMARK SMILES IDX 11 1 12 2 13 3 29 4 30 5 8 7 7 8 3 9 4 10 31 11 5 12 6 13
REMARK SMILES IDX 2 14 1 15 9 16 10 17 14 19 15 20 16 23 17 24 18 25 22 26
REMARK SMILES IDX 19 27 21 28 20 29 23 30 25 31 24 32 26 33 27 34 28 35
REMARK H PARENT 12 6 10 18 15 21 15 22
ROOT
ATOM     1   N1  UNL     1      -1.055   0.782   2.118  1.00  0.00    -0.202 N   
ATOM     2   C10 UNL     1      -0.148   0.047   1.403  1.00  0.00     0.046 A   
ATOM     3   C11 UNL     1       0.511   0.977   0.634  1.00  0.00     0.127 A   
ATOM     4   N3  UNL     1      -0.013   2.219   0.881  1.00  0.00    -0.132 NA  
ATOM     5   N4  UNL     1      -0.975   2.089   1.780  1.00  0.00    -0.075 NA  
ATOM     6   H13 UNL     1      -0.073  -1.028   1.500  1.00  0.00     0.083 HD  
ENDROOT
BRANCH   1   7
ATOM     7   C8  UNL     1      -2.050   0.332   3.091  1.00  0.00     0.155 C   
BRANCH   7   8
ATOM     8   C7  UNL     1      -1.443  -0.669   4.069  1.00  0.00    -0.023 A   
ATOM     9   C3  UNL     1      -1.032  -2.948   4.861  1.00  0.00    -0.048 A   
ATOM     10  C4  UNL     1      -0.248  -2.440   5.903  1.00  0.00     0.004 A   
ATOM     11  C24 UNL     1      -1.626  -2.057   3.953  1.00  0.00     0.009 A   
ATOM     12  C5  UNL     1      -0.052  -1.067   6.030  1.00  0.00     0.001 A   
ATOM     13  C6  UNL     1      -0.641  -0.189   5.120  1.00  0.00     0.006 A   
BRANCH   9  14
ATOM     14  C2  UNL     1      -1.259  -4.434   4.732  1.00  0.00     0.032 C   
ATOM     15  C1  UNL     1      -2.558  -4.867   5.393  1.00  0.00     0.009 C   
ENDBRANCH   9  14
ENDBRANCH   7   8
BRANCH   7  16
ATOM     16  C9  UNL     1      -3.361  -0.078   2.387  1.00  0.00     0.185 C   
BRANCH  16  17
ATOM     17  O1  UNL     1      -3.172  -1.067   1.372  1.00  0.00    -0.394 OA  
ATOM     18  H12 UNL     1      -4.062  -1.342   1.080  1.00  0.00     0.210 HD  
ENDBRANCH  16  17
ENDBRANCH   7  16
ENDBRANCH   1   7
BRANCH   3  19
ATOM     19  C12 UNL     1       1.574   0.803  -0.399  1.00  0.00     0.117 C   
BRANCH  19  20
ATOM     20  N2  UNL     1       1.383   1.780  -1.536  1.00  0.00     0.249 N   
ATOM     21  H15 UNL     1       1.331   2.714  -1.109  1.00  0.00     0.199 HD  
ATOM     22  H16 UNL     1       2.193   1.767  -2.160  1.00  0.00     0.199 HD  
BRANCH  20  23
ATOM     23  C13 UNL     1       0.140   1.610  -2.350  1.00  0.00     0.164 C   
BRANCH  23  24
ATOM     24  C14 UNL     1       0.066   0.284  -3.054  1.00  0.00    -0.002 A   
ATOM     25  C15 UNL     1      -0.838  -0.710  -2.602  1.00  0.00     0.012 A   
ATOM     26  C19 UNL     1       0.914   0.005  -4.140  1.00  0.00     0.045 A   
ATOM     27  C16 UNL     1      -0.895  -1.964  -3.218  1.00  0.00     0.037 A   
ATOM     28  C18 UNL     1       0.831  -1.242  -4.724  1.00  0.00     0.109 A   
ATOM     29  C17 UNL     1      -0.046  -2.199  -4.276  1.00  0.00     0.108 A   
ATOM     30  O2  UNL     1       1.580  -1.673  -5.773  1.00  0.00    -0.316 OA  
ATOM     31  O3  UNL     1       0.037  -3.353  -4.989  1.00  0.00    -0.316 OA  
ATOM     32  C20 UNL     1       1.049  -3.006  -5.959  1.00  0.00     0.337 C   
ENDBRANCH  23  24
ENDBRANCH  20  23
ENDBRANCH  19  20
BRANCH  19  33
ATOM     33  C21 UNL     1       3.003   0.939   0.195  1.00  0.00     0.037 C   
ATOM     34  C22 UNL     1       4.070   0.429  -0.782  1.00  0.00     0.014 C   
ATOM     35  C23 UNL     1       3.365   2.356   0.653  1.00  0.00     0.014 C   
ENDBRANCH  19  33
ENDBRANCH   3  19
TORSDOF 10
