REMARK SMILES CCc1cccc([C@@H](CO)n2cc([C@@H]([NH2+]Cc3ccc4c(c3)OCO4)C(C)C)nn2)c1
REMARK SMILES IDX 11 1 12 2 13 3 29 4 30 5 8 7 7 8 3 9 4 10 31 11 5 12 6 13
REMARK SMILES IDX 2 14 1 15 9 16 10 17 14 19 15 20 16 23 17 24 18 25 22 26
REMARK SMILES IDX 19 27 21 28 20 29 23 30 25 31 24 32 26 33 27 34 28 35
REMARK H PARENT 12 6 10 18 15 21 15 22
ROOT
ATOM     1   N1  UNL     1      -3.029   0.161   0.308  1.00  0.00    -0.202 N   
ATOM     2   C10 UNL     1      -2.288   0.742  -0.688  1.00  0.00     0.046 A   
ATOM     3   C11 UNL     1      -1.619  -0.309  -1.270  1.00  0.00     0.127 A   
ATOM     4   N3  UNL     1      -1.960  -1.471  -0.628  1.00  0.00    -0.132 NA  
ATOM     5   N4  UNL     1      -2.817  -1.174   0.336  1.00  0.00    -0.075 NA  
ATOM     6   H13 UNL     1      -2.311   1.808  -0.873  1.00  0.00     0.083 HD  
ENDROOT
BRANCH   1   7
ATOM     7   C8  UNL     1      -3.908   0.791   1.293  1.00  0.00     0.155 C   
BRANCH   7   8
ATOM     8   C7  UNL     1      -3.129   1.800   2.131  1.00  0.00    -0.023 A   
ATOM     9   C3  UNL     1      -2.318   4.061   2.596  1.00  0.00    -0.048 A   
ATOM     10  C4  UNL     1      -1.627   3.579   3.713  1.00  0.00     0.004 A   
ATOM     11  C24 UNL     1      -3.069   3.167   1.816  1.00  0.00     0.009 A   
ATOM     12  C5  UNL     1      -1.669   2.224   4.036  1.00  0.00     0.001 A   
ATOM     13  C6  UNL     1      -2.409   1.342   3.250  1.00  0.00     0.006 A   
BRANCH   9  14
ATOM     14  C2  UNL     1      -2.285   5.531   2.255  1.00  0.00     0.032 C   
ATOM     15  C1  UNL     1      -3.453   6.284   2.876  1.00  0.00     0.009 C   
ENDBRANCH   9  14
ENDBRANCH   7   8
BRANCH   7  16
ATOM     16  C9  UNL     1      -5.230   1.277   0.661  1.00  0.00     0.185 C   
BRANCH  16  17
ATOM     17  O1  UNL     1      -5.042   2.189  -0.423  1.00  0.00    -0.394 OA  
ATOM     18  H12 UNL     1      -5.929   2.496  -0.690  1.00  0.00     0.210 HD  
ENDBRANCH  16  17
ENDBRANCH   7  16
ENDBRANCH   1   7
BRANCH   3  19
ATOM     19  C12 UNL     1      -0.620  -0.334  -2.379  1.00  0.00     0.117 C   
BRANCH  19  20
ATOM     20  N2  UNL     1       0.354  -1.465  -2.187  1.00  0.00     0.249 N   
ATOM     21  H15 UNL     1       0.875  -1.667  -3.045  1.00  0.00     0.199 HD  
ATOM     22  H16 UNL     1      -0.203  -2.304  -1.978  1.00  0.00     0.199 HD  
BRANCH  20  23
ATOM     23  C13 UNL     1       1.319  -1.288  -1.066  1.00  0.00     0.164 C   
BRANCH  23  24
ATOM     24  C14 UNL     1       2.303  -2.426  -1.033  1.00  0.00    -0.002 A   
ATOM     25  C15 UNL     1       3.632  -2.232  -1.480  1.00  0.00     0.012 A   
ATOM     26  C19 UNL     1       1.899  -3.701  -0.596  1.00  0.00     0.045 A   
ATOM     27  C16 UNL     1       4.549  -3.288  -1.490  1.00  0.00     0.037 A   
ATOM     28  C18 UNL     1       2.825  -4.723  -0.628  1.00  0.00     0.109 A   
ATOM     29  C17 UNL     1       4.113  -4.522  -1.060  1.00  0.00     0.108 A   
ATOM     30  O2  UNL     1       2.595  -6.009  -0.255  1.00  0.00    -0.316 OA  
ATOM     31  O3  UNL     1       4.860  -5.654  -1.008  1.00  0.00    -0.316 OA  
ATOM     32  C20 UNL     1       3.895  -6.597  -0.490  1.00  0.00     0.337 C   
ENDBRANCH  23  24
ENDBRANCH  20  23
ENDBRANCH  19  20
BRANCH  19  33
ATOM     33  C21 UNL     1      -1.294  -0.433  -3.773  1.00  0.00     0.037 C   
ATOM     34  C22 UNL     1      -0.314  -0.083  -4.898  1.00  0.00     0.014 C   
ATOM     35  C23 UNL     1      -1.945  -1.791  -4.059  1.00  0.00     0.014 C   
ENDBRANCH  19  33
ENDBRANCH   3  19
TORSDOF 10
