REMARK SMILES CC(C)(C)c1nocc1Cn1cc([C@@H]([NH2+]Cc2ccc3c(c2)OCO3)C(C)(C)C)nn1
REMARK SMILES IDX 11 1 12 2 13 3 30 4 31 5 10 7 9 8 5 9 6 10 7 11 8 12 2 13
REMARK SMILES IDX 1 14 3 15 4 16 14 17 15 18 16 21 17 22 18 23 22 24 19 25
REMARK SMILES IDX 21 26 20 27 23 28 25 29 24 30 26 31 27 32 28 33 29 34
REMARK H PARENT 12 6 15 19 15 20
ROOT
ATOM     1   N2  UNL     1      -0.443   0.284   1.790  1.00  0.00    -0.208 N   
ATOM     2   C9  UNL     1      -0.966  -0.630   0.915  1.00  0.00     0.046 A   
ATOM     3   C10 UNL     1       0.104  -0.984   0.121  1.00  0.00     0.127 A   
ATOM     4   N4  UNL     1       1.213  -0.287   0.530  1.00  0.00    -0.132 NA  
ATOM     5   N5  UNL     1       0.866   0.487   1.543  1.00  0.00    -0.076 NA  
ATOM     6   H13 UNL     1      -2.010  -0.912   0.923  1.00  0.00     0.083 HD  
ENDROOT
BRANCH   1   7
ATOM     7   C8  UNL     1      -1.130   1.052   2.822  1.00  0.00     0.173 C   
BRANCH   7   8
ATOM     8   C7  UNL     1      -1.901   2.161   2.203  1.00  0.00     0.021 A   
ATOM     9   C5  UNL     1      -3.308   2.445   2.206  1.00  0.00     0.081 A   
ATOM     10  N1  UNL     1      -3.558   3.539   1.470  1.00  0.00    -0.133 NA  
ATOM     11  O1  UNL     1      -2.346   4.010   1.028  1.00  0.00    -0.221 OA  
ATOM     12  C6  UNL     1      -1.364   3.201   1.474  1.00  0.00     0.171 A   
BRANCH   9  13
ATOM     13  C2  UNL     1      -4.467   1.726   2.895  1.00  0.00     0.007 C   
ATOM     14  C1  UNL     1      -5.830   2.393   2.580  1.00  0.00     0.017 C   
ATOM     15  C3  UNL     1      -4.567   0.262   2.427  1.00  0.00     0.017 C   
ATOM     16  C4  UNL     1      -4.284   1.766   4.426  1.00  0.00     0.017 C   
ENDBRANCH   9  13
ENDBRANCH   7   8
ENDBRANCH   1   7
BRANCH   3  17
ATOM     17  C11 UNL     1       0.203  -1.874  -1.085  1.00  0.00     0.120 C   
BRANCH  17  18
ATOM     18  N3  UNL     1       1.216  -1.279  -2.035  1.00  0.00     0.250 N   
ATOM     19  H15 UNL     1       1.591  -1.962  -2.698  1.00  0.00     0.199 HD  
ATOM     20  H16 UNL     1       2.015  -0.980  -1.455  1.00  0.00     0.199 HD  
BRANCH  18  21
ATOM     21  C12 UNL     1       0.759  -0.081  -2.796  1.00  0.00     0.164 C   
BRANCH  21  22
ATOM     22  C13 UNL     1       1.911   0.529  -3.543  1.00  0.00    -0.002 A   
ATOM     23  C14 UNL     1       2.144   0.207  -4.900  1.00  0.00     0.012 A   
ATOM     24  C18 UNL     1       2.802   1.385  -2.869  1.00  0.00     0.045 A   
ATOM     25  C15 UNL     1       3.247   0.735  -5.582  1.00  0.00     0.037 A   
ATOM     26  C17 UNL     1       3.878   1.887  -3.572  1.00  0.00     0.109 A   
ATOM     27  C16 UNL     1       4.097   1.569  -4.889  1.00  0.00     0.108 A   
ATOM     28  O2  UNL     1       4.827   2.722  -3.073  1.00  0.00    -0.316 OA  
ATOM     29  O3  UNL     1       5.213   2.164  -5.387  1.00  0.00    -0.316 OA  
ATOM     30  C19 UNL     1       5.669   2.904  -4.235  1.00  0.00     0.337 C   
ENDBRANCH  21  22
ENDBRANCH  18  21
ENDBRANCH  17  18
BRANCH  17  31
ATOM     31  C20 UNL     1       0.574  -3.363  -0.757  1.00  0.00     0.010 C   
ATOM     32  C21 UNL     1       0.502  -4.228  -2.037  1.00  0.00     0.017 C   
ATOM     33  C22 UNL     1      -0.443  -3.960   0.242  1.00  0.00     0.017 C   
ATOM     34  C23 UNL     1       1.986  -3.505  -0.153  1.00  0.00     0.017 C   
ENDBRANCH  17  31
ENDBRANCH   3  17
TORSDOF 8
