REMARK SMILES Cc1nccnc1CCn1cc([C@@H]([NH2+]Cc2ccc3c(c2)OCO3)C2CCCC2)nn1
REMARK SMILES IDX 10 1 11 2 12 3 30 4 31 5 9 7 8 8 7 9 2 10 3 11 4 12 6 13
REMARK SMILES IDX 5 14 1 15 13 16 14 17 15 20 16 21 17 22 21 23 18 24 20 25
REMARK SMILES IDX 19 26 22 27 24 28 23 29 25 30 26 31 29 32 27 33 28 34
REMARK H PARENT 11 6 14 18 14 19
ROOT
ATOM     1   N3  UNL     1      -1.338  -3.735  -0.885  1.00  0.00    -0.212 N   
ATOM     2   C8  UNL     1      -1.519  -2.651  -0.067  1.00  0.00     0.045 A   
ATOM     3   C9  UNL     1      -0.241  -2.182   0.151  1.00  0.00     0.127 A   
ATOM     4   N5  UNL     1       0.652  -3.058  -0.411  1.00  0.00    -0.132 NA  
ATOM     5   N6  UNL     1      -0.030  -4.001  -1.042  1.00  0.00    -0.076 NA  
ATOM     6   H10 UNL     1      -2.503  -2.260   0.153  1.00  0.00     0.083 HD  
ENDROOT
BRANCH   1   7
ATOM     7   C7  UNL     1      -2.323  -4.320  -1.778  1.00  0.00     0.140 C   
BRANCH   7   8
ATOM     8   C6  UNL     1      -2.314  -3.661  -3.168  1.00  0.00     0.079 C   
BRANCH   8   9
ATOM     9   C5  UNL     1      -2.439  -2.158  -3.059  1.00  0.00     0.063 A   
ATOM     10  C2  UNL     1      -1.352  -1.287  -3.227  1.00  0.00     0.059 A   
ATOM     11  N1  UNL     1      -1.409   0.013  -2.806  1.00  0.00    -0.258 NA  
ATOM     12  C3  UNL     1      -2.639   0.455  -2.435  1.00  0.00     0.131 A   
ATOM     13  N2  UNL     1      -3.636  -1.705  -2.600  1.00  0.00    -0.258 NA  
ATOM     14  C4  UNL     1      -3.731  -0.383  -2.346  1.00  0.00     0.131 A   
ATOM     15  C1  UNL     1      -0.064  -1.727  -3.858  1.00  0.00     0.069 C   
ENDBRANCH   8   9
ENDBRANCH   7   8
ENDBRANCH   1   7
BRANCH   3  16
ATOM     16  C10 UNL     1       0.246  -0.880   0.712  1.00  0.00     0.117 C   
BRANCH  16  17
ATOM     17  N4  UNL     1       0.460   0.104  -0.424  1.00  0.00     0.249 N   
ATOM     18  H12 UNL     1      -0.302  -0.002  -1.117  1.00  0.00     0.199 HD  
ATOM     19  H13 UNL     1       0.404   1.069  -0.093  1.00  0.00     0.199 HD  
BRANCH  17  20
ATOM     20  C11 UNL     1       1.743  -0.036  -1.173  1.00  0.00     0.164 C   
BRANCH  20  21
ATOM     21  C12 UNL     1       2.932   0.445  -0.388  1.00  0.00    -0.002 A   
ATOM     22  C13 UNL     1       3.836  -0.483   0.183  1.00  0.00     0.012 A   
ATOM     23  C17 UNL     1       3.140   1.822  -0.197  1.00  0.00     0.045 A   
ATOM     24  C14 UNL     1       4.934  -0.048   0.933  1.00  0.00     0.037 A   
ATOM     25  C16 UNL     1       4.236   2.216   0.543  1.00  0.00     0.109 A   
ATOM     26  C15 UNL     1       5.108   1.309   1.093  1.00  0.00     0.108 A   
ATOM     27  O1  UNL     1       4.583   3.501   0.812  1.00  0.00    -0.316 OA  
ATOM     28  O2  UNL     1       6.116   1.909   1.778  1.00  0.00    -0.316 OA  
ATOM     29  C18 UNL     1       5.818   3.301   1.541  1.00  0.00     0.337 C   
ENDBRANCH  20  21
ENDBRANCH  17  20
ENDBRANCH  16  17
BRANCH  16  30
ATOM     30  C19 UNL     1      -0.707  -0.244   1.743  1.00  0.00     0.043 C   
ATOM     31  C20 UNL     1      -0.170   1.045   2.378  1.00  0.00     0.010 C   
ATOM     32  C23 UNL     1      -0.928  -1.119   2.983  1.00  0.00     0.010 C   
ATOM     33  C21 UNL     1      -0.987   1.221   3.653  1.00  0.00     0.001 C   
ATOM     34  C22 UNL     1      -1.493  -0.166   4.030  1.00  0.00     0.001 C   
ENDBRANCH  16  30
ENDBRANCH   3  16
TORSDOF 8
