REMARK SMILES CC(C)(C)[C@H]([NH2+]Cc1ccc2c(c1)OCO2)c1cn(CCc2ccc(Cl)o2)nn1
REMARK SMILES IDX 17 1 18 2 19 3 28 4 29 5 5 7 2 8 1 9 3 10 4 11 6 12 7 15
REMARK SMILES IDX 8 16 9 17 13 18 10 19 12 20 11 21 14 22 16 23 15 24 20 25
REMARK SMILES IDX 21 26 22 27 23 28 27 29 24 30 25 31 26 32
REMARK H PARENT 18 6 6 13 6 14
ROOT
ATOM     1   C14 UNL     1      -1.682  -1.792  -0.033  1.00  0.00     0.127 A   
ATOM     2   C15 UNL     1      -2.811  -1.811   0.755  1.00  0.00     0.045 A   
ATOM     3   N2  UNL     1      -2.325  -2.046   2.011  1.00  0.00    -0.212 N   
ATOM     4   N3  UNL     1      -0.992  -2.223   1.990  1.00  0.00    -0.076 NA  
ATOM     5   N4  UNL     1      -0.584  -2.060   0.745  1.00  0.00    -0.132 NA  
ATOM     6   H20 UNL     1      -3.857  -1.616   0.564  1.00  0.00     0.083 HD  
ENDROOT
BRANCH   1   7
ATOM     7   C5  UNL     1      -1.486  -1.409  -1.468  1.00  0.00     0.120 C   
BRANCH   7   8
ATOM     8   C2  UNL     1      -1.375  -2.624  -2.451  1.00  0.00     0.010 C   
ATOM     9   C1  UNL     1      -0.137  -3.503  -2.180  1.00  0.00     0.017 C   
ATOM     10  C3  UNL     1      -1.302  -2.128  -3.914  1.00  0.00     0.017 C   
ATOM     11  C4  UNL     1      -2.637  -3.511  -2.339  1.00  0.00     0.017 C   
ENDBRANCH   7   8
BRANCH   7  12
ATOM     12  N1  UNL     1      -0.254  -0.538  -1.556  1.00  0.00     0.250 N   
ATOM     13  H11 UNL     1       0.473  -1.004  -0.992  1.00  0.00     0.199 HD  
ATOM     14  H12 UNL     1       0.120  -0.472  -2.506  1.00  0.00     0.199 HD  
BRANCH  12  15
ATOM     15  C6  UNL     1      -0.412   0.838  -1.003  1.00  0.00     0.164 C   
BRANCH  15  16
ATOM     16  C7  UNL     1       0.904   1.563  -1.016  1.00  0.00    -0.002 A   
ATOM     17  C8  UNL     1       1.293   2.332  -2.137  1.00  0.00     0.012 A   
ATOM     18  C12 UNL     1       1.784   1.429   0.073  1.00  0.00     0.045 A   
ATOM     19  C9  UNL     1       2.536   2.973  -2.171  1.00  0.00     0.037 A   
ATOM     20  C11 UNL     1       3.000   2.075   0.008  1.00  0.00     0.109 A   
ATOM     21  C10 UNL     1       3.367   2.825  -1.082  1.00  0.00     0.108 A   
ATOM     22  O1  UNL     1       3.960   2.051   0.968  1.00  0.00    -0.316 OA  
ATOM     23  O2  UNL     1       4.605   3.368  -0.946  1.00  0.00    -0.316 OA  
ATOM     24  C13 UNL     1       4.967   2.900   0.372  1.00  0.00     0.337 C   
ENDBRANCH  15  16
ENDBRANCH  12  15
ENDBRANCH   7  12
ENDBRANCH   1   7
BRANCH   3  25
ATOM     25  C16 UNL     1      -3.041  -2.017   3.271  1.00  0.00     0.141 C   
BRANCH  25  26
ATOM     26  C17 UNL     1      -2.788  -0.733   4.064  1.00  0.00     0.083 C   
BRANCH  26  27
ATOM     27  C18 UNL     1      -3.426   0.462   3.441  1.00  0.00     0.062 A   
ATOM     28  C19 UNL     1      -4.513   1.240   3.781  1.00  0.00     0.033 A   
ATOM     29  O3  UNL     1      -2.850   0.939   2.299  1.00  0.00    -0.303 OA  
ATOM     30  C20 UNL     1      -4.612   2.242   2.784  1.00  0.00     0.049 A   
ATOM     31  C21 UNL     1      -3.577   2.020   1.900  1.00  0.00     0.147 A   
ATOM     32  CL1 UNL     1      -3.214   2.913   0.478  1.00  0.00    -0.056 Cl  
ENDBRANCH  26  27
ENDBRANCH  25  26
ENDBRANCH   3  25
TORSDOF 8
