REMARK SMILES Cc1cncc(CCn2cc([C@H](CC(C)C)[NH2+]Cc3ccc4c(c3)OCO4)nn2)c1
REMARK SMILES IDX 9 1 10 2 11 3 28 4 29 5 8 7 7 8 6 9 2 10 3 11 30 12 4 13
REMARK SMILES IDX 5 14 1 15 12 16 13 17 14 18 15 19 16 20 17 21 18 24 19 25
REMARK SMILES IDX 20 26 24 27 21 28 23 29 22 30 25 31 27 32 26 33
REMARK H PARENT 10 6 17 22 17 23
ROOT
ATOM     1   N2  UNL     1      -2.938   2.313   2.218  1.00  0.00    -0.212 N   
ATOM     2   C8  UNL     1      -2.494   1.256   1.466  1.00  0.00     0.045 A   
ATOM     3   C9  UNL     1      -1.240   1.000   1.976  1.00  0.00     0.127 A   
ATOM     4   N4  UNL     1      -1.024   1.801   3.068  1.00  0.00    -0.132 NA  
ATOM     5   N5  UNL     1      -2.083   2.580   3.223  1.00  0.00    -0.076 NA  
ATOM     6   H10 UNL     1      -3.023   0.905   0.591  1.00  0.00     0.083 HD  
ENDROOT
BRANCH   1   7
ATOM     7   C7  UNL     1      -3.928   3.300   1.827  1.00  0.00     0.139 C   
BRANCH   7   8
ATOM     8   C6  UNL     1      -3.287   4.580   1.258  1.00  0.00     0.058 C   
BRANCH   8   9
ATOM     9   C5  UNL     1      -2.334   4.301   0.118  1.00  0.00    -0.028 A   
ATOM     10  C2  UNL     1      -1.878   3.828  -2.205  1.00  0.00    -0.032 A   
ATOM     11  C3  UNL     1      -0.564   3.561  -1.833  1.00  0.00     0.114 A   
ATOM     12  C23 UNL     1      -2.777   4.191  -1.199  1.00  0.00     0.010 A   
ATOM     13  N1  UNL     1      -0.104   3.586  -0.556  1.00  0.00    -0.264 NA  
ATOM     14  C4  UNL     1      -0.987   4.040   0.368  1.00  0.00     0.114 A   
ATOM     15  C1  UNL     1      -2.297   3.788  -3.642  1.00  0.00     0.046 C   
ENDBRANCH   8   9
ENDBRANCH   7   8
ENDBRANCH   1   7
BRANCH   3  16
ATOM     16  C10 UNL     1      -0.121   0.176   1.424  1.00  0.00     0.114 C   
BRANCH  16  17
ATOM     17  C11 UNL     1       0.515  -0.739   2.487  1.00  0.00     0.064 C   
BRANCH  17  18
ATOM     18  C12 UNL     1      -0.445  -1.790   3.089  1.00  0.00    -0.012 C   
ATOM     19  C13 UNL     1       0.280  -2.587   4.178  1.00  0.00     0.007 C   
ATOM     20  C14 UNL     1      -0.994  -2.748   2.030  1.00  0.00     0.007 C   
ENDBRANCH  17  18
ENDBRANCH  16  17
BRANCH  16  21
ATOM     21  N3  UNL     1       0.917   1.141   0.887  1.00  0.00     0.249 N   
ATOM     22  H21 UNL     1       0.447   1.805   0.242  1.00  0.00     0.199 HD  
ATOM     23  H22 UNL     1       1.207   1.747   1.666  1.00  0.00     0.199 HD  
BRANCH  21  24
ATOM     24  C15 UNL     1       2.119   0.604   0.199  1.00  0.00     0.164 C   
BRANCH  24  25
ATOM     25  C16 UNL     1       1.817  -0.383  -0.895  1.00  0.00    -0.002 A   
ATOM     26  C17 UNL     1       2.208  -1.738  -0.768  1.00  0.00     0.012 A   
ATOM     27  C21 UNL     1       1.129   0.025  -2.049  1.00  0.00     0.045 A   
ATOM     28  C18 UNL     1       1.906  -2.674  -1.763  1.00  0.00     0.037 A   
ATOM     29  C20 UNL     1       0.842  -0.922  -3.011  1.00  0.00     0.109 A   
ATOM     30  C19 UNL     1       1.218  -2.234  -2.871  1.00  0.00     0.108 A   
ATOM     31  O1  UNL     1       0.174  -0.692  -4.171  1.00  0.00    -0.316 OA  
ATOM     32  O2  UNL     1       0.840  -2.998  -3.928  1.00  0.00    -0.316 OA  
ATOM     33  C22 UNL     1       0.189  -2.013  -4.761  1.00  0.00     0.337 C   
ENDBRANCH  24  25
ENDBRANCH  21  24
ENDBRANCH  16  21
ENDBRANCH   3  16
TORSDOF 9
