REMARK SMILES Cc1c[nH]c(C)c1CCn1cc([C@@H]([NH2+]Cc2ccc3c(c2)OCO3)C(C)(C)C)nn1
REMARK SMILES IDX 10 1 11 2 12 3 29 4 30 5 9 7 8 8 7 9 2 10 3 11 4 12 5 13
REMARK SMILES IDX 1 14 6 16 13 17 14 18 15 21 16 22 17 23 21 24 18 25 20 26
REMARK SMILES IDX 19 27 22 28 24 29 23 30 25 31 26 32 27 33 28 34
REMARK H PARENT 11 6 4 15 14 19 14 20
ROOT
ATOM     1   N2  UNL     1      -2.109   2.030   0.059  1.00  0.00    -0.212 N   
ATOM     2   C9  UNL     1      -2.045   0.959  -0.788  1.00  0.00     0.045 A   
ATOM     3   C10 UNL     1      -1.622  -0.074   0.016  1.00  0.00     0.127 A   
ATOM     4   N4  UNL     1      -1.454   0.391   1.296  1.00  0.00    -0.132 NA  
ATOM     5   N5  UNL     1      -1.762   1.677   1.311  1.00  0.00    -0.076 NA  
ATOM     6   H13 UNL     1      -2.257   1.045  -1.844  1.00  0.00     0.083 HD  
ENDROOT
BRANCH   1   7
ATOM     7   C8  UNL     1      -2.441   3.401  -0.260  1.00  0.00     0.139 C   
BRANCH   7   8
ATOM     8   C7  UNL     1      -1.209   4.293  -0.402  1.00  0.00     0.059 C   
BRANCH   8   9
ATOM     9   C6  UNL     1      -0.285   3.863  -1.508  1.00  0.00    -0.025 A   
ATOM     10  C2  UNL     1       1.006   3.256  -1.351  1.00  0.00    -0.032 A   
ATOM     11  C3  UNL     1       1.498   3.030  -2.620  1.00  0.00     0.075 A   
ATOM     12  N1  UNL     1       0.589   3.498  -3.529  1.00  0.00    -0.324 N   
ATOM     13  C4  UNL     1      -0.504   4.004  -2.871  1.00  0.00     0.007 A   
ATOM     14  C1  UNL     1       1.710   2.962  -0.073  1.00  0.00     0.046 C   
ATOM     15  H5  UNL     1       0.723   3.505  -4.534  1.00  0.00     0.152 HD  
ATOM     16  C5  UNL     1      -1.643   4.602  -3.620  1.00  0.00     0.062 C   
ENDBRANCH   8   9
ENDBRANCH   7   8
ENDBRANCH   1   7
BRANCH   3  17
ATOM     17  C11 UNL     1      -1.232  -1.484  -0.308  1.00  0.00     0.120 C   
BRANCH  17  18
ATOM     18  N3  UNL     1       0.003  -1.822   0.494  1.00  0.00     0.250 N   
ATOM     19  H15 UNL     1       0.155  -2.829   0.590  1.00  0.00     0.199 HD  
ATOM     20  H16 UNL     1      -0.169  -1.469   1.448  1.00  0.00     0.199 HD  
BRANCH  18  21
ATOM     21  C12 UNL     1       1.260  -1.187   0.010  1.00  0.00     0.164 C   
BRANCH  21  22
ATOM     22  C13 UNL     1       2.370  -1.401   0.997  1.00  0.00    -0.002 A   
ATOM     23  C14 UNL     1       2.505  -0.534   2.108  1.00  0.00     0.012 A   
ATOM     24  C18 UNL     1       3.247  -2.489   0.857  1.00  0.00     0.045 A   
ATOM     25  C15 UNL     1       3.509  -0.737   3.060  1.00  0.00     0.037 A   
ATOM     26  C17 UNL     1       4.226  -2.660   1.814  1.00  0.00     0.109 A   
ATOM     27  C16 UNL     1       4.355  -1.809   2.883  1.00  0.00     0.108 A   
ATOM     28  O1  UNL     1       5.150  -3.655   1.829  1.00  0.00    -0.316 OA  
ATOM     29  O2  UNL     1       5.381  -2.156   3.702  1.00  0.00    -0.316 OA  
ATOM     30  C19 UNL     1       5.900  -3.316   3.018  1.00  0.00     0.337 C   
ENDBRANCH  21  22
ENDBRANCH  18  21
ENDBRANCH  17  18
BRANCH  17  31
ATOM     31  C20 UNL     1      -2.361  -2.542  -0.056  1.00  0.00     0.010 C   
ATOM     32  C21 UNL     1      -1.911  -3.936  -0.553  1.00  0.00     0.017 C   
ATOM     33  C22 UNL     1      -2.746  -2.663   1.433  1.00  0.00     0.017 C   
ATOM     34  C23 UNL     1      -3.628  -2.167  -0.858  1.00  0.00     0.017 C   
ENDBRANCH  17  31
ENDBRANCH   3  17
TORSDOF 8
