REMARK SMILES COc1ccccc1[C@H](CO)n1cc([C@H](CC(C)C)[NH2+]Cc2ccc3c(c2)OCO3)nn1
REMARK SMILES IDX 12 1 13 2 14 3 31 4 32 5 9 7 8 8 3 9 4 10 5 11 7 12 6 13
REMARK SMILES IDX 2 14 1 15 10 16 11 17 15 19 16 20 17 21 18 22 19 23 20 24
REMARK SMILES IDX 21 27 22 28 23 29 27 30 24 31 26 32 25 33 28 34 30 35 29 36
REMARK H PARENT 13 6 11 18 20 25 20 26
ROOT
ATOM     1   N1  UNL     1       0.306   1.695  -1.928  1.00  0.00    -0.202 N   
ATOM     2   C10 UNL     1      -0.573   0.643  -1.938  1.00  0.00     0.046 A   
ATOM     3   C11 UNL     1      -1.171   0.696  -0.700  1.00  0.00     0.127 A   
ATOM     4   N3  UNL     1      -0.643   1.740   0.015  1.00  0.00    -0.132 NA  
ATOM     5   N4  UNL     1       0.262   2.340  -0.741  1.00  0.00    -0.075 NA  
ATOM     6   H12 UNL     1      -0.673  -0.011  -2.793  1.00  0.00     0.083 HD  
ENDROOT
BRANCH   1   7
ATOM     7   C8  UNL     1       1.219   2.110  -2.994  1.00  0.00     0.158 C   
BRANCH   7   8
ATOM     8   C7  UNL     1       2.660   1.844  -2.573  1.00  0.00     0.007 A   
ATOM     9   C2  UNL     1       3.265   0.598  -2.848  1.00  0.00     0.080 A   
ATOM     10  C3  UNL     1       4.584   0.358  -2.445  1.00  0.00     0.034 A   
ATOM     11  C4  UNL     1       5.310   1.345  -1.776  1.00  0.00     0.003 A   
ATOM     12  C6  UNL     1       3.404   2.819  -1.880  1.00  0.00     0.008 A   
ATOM     13  C5  UNL     1       4.720   2.573  -1.492  1.00  0.00     0.001 A   
BRANCH   9  14
ATOM     14  O1  UNL     1       2.478  -0.332  -3.481  1.00  0.00    -0.349 OA  
ATOM     15  C1  UNL     1       3.158  -1.408  -4.123  1.00  0.00     0.203 C   
ENDBRANCH   9  14
ENDBRANCH   7   8
BRANCH   7  16
ATOM     16  C9  UNL     1       0.927   3.551  -3.449  1.00  0.00     0.186 C   
BRANCH  16  17
ATOM     17  O2  UNL     1      -0.301   3.597  -4.182  1.00  0.00    -0.394 OA  
ATOM     18  H11 UNL     1      -0.405   4.511  -4.507  1.00  0.00     0.210 HD  
ENDBRANCH  16  17
ENDBRANCH   7  16
ENDBRANCH   1   7
BRANCH   3  19
ATOM     19  C12 UNL     1      -2.172  -0.197  -0.051  1.00  0.00     0.114 C   
BRANCH  19  20
ATOM     20  C13 UNL     1      -3.600   0.379  -0.095  1.00  0.00     0.064 C   
BRANCH  20  21
ATOM     21  C14 UNL     1      -4.203   0.530  -1.508  1.00  0.00    -0.012 C   
ATOM     22  C15 UNL     1      -4.296  -0.803  -2.249  1.00  0.00     0.007 C   
ATOM     23  C16 UNL     1      -5.595   1.162  -1.409  1.00  0.00     0.007 C   
ENDBRANCH  20  21
ENDBRANCH  19  20
BRANCH  19  24
ATOM     24  N2  UNL     1      -1.812  -0.371   1.407  1.00  0.00     0.249 N   
ATOM     25  H23 UNL     1      -2.603  -0.736   1.948  1.00  0.00     0.199 HD  
ATOM     26  H24 UNL     1      -1.613   0.572   1.776  1.00  0.00     0.199 HD  
BRANCH  24  27
ATOM     27  C17 UNL     1      -0.610  -1.211   1.665  1.00  0.00     0.164 C   
BRANCH  27  28
ATOM     28  C18 UNL     1      -0.311  -1.260   3.137  1.00  0.00    -0.002 A   
ATOM     29  C19 UNL     1       0.497  -0.260   3.729  1.00  0.00     0.012 A   
ATOM     30  C23 UNL     1      -0.874  -2.264   3.942  1.00  0.00     0.045 A   
ATOM     31  C20 UNL     1       0.755  -0.266   5.104  1.00  0.00     0.037 A   
ATOM     32  C22 UNL     1      -0.601  -2.240   5.295  1.00  0.00     0.109 A   
ATOM     33  C21 UNL     1       0.191  -1.270   5.859  1.00  0.00     0.108 A   
ATOM     34  O3  UNL     1      -1.063  -3.132   6.210  1.00  0.00    -0.316 OA  
ATOM     35  O4  UNL     1       0.331  -1.431   7.200  1.00  0.00    -0.316 OA  
ATOM     36  C24 UNL     1      -0.453  -2.624   7.419  1.00  0.00     0.337 C   
ENDBRANCH  27  28
ENDBRANCH  24  27
ENDBRANCH  19  24
ENDBRANCH   3  19
TORSDOF 11
