REMARK SMILES COc1ccccc1[C@@H](CO)n1cc([C@H](CC(C)C)[NH2+]Cc2ccc3c(c2)OCO3)nn1
REMARK SMILES IDX 12 1 13 2 14 3 31 4 32 5 9 7 8 8 3 9 4 10 5 11 7 12 6 13
REMARK SMILES IDX 2 14 1 15 10 16 11 17 15 19 16 20 17 21 18 22 19 23 20 24
REMARK SMILES IDX 21 27 22 28 23 29 27 30 24 31 26 32 25 33 28 34 30 35 29 36
REMARK H PARENT 13 6 11 18 20 25 20 26
ROOT
ATOM     1   N1  UNL     1      -0.794  -1.337   2.299  1.00  0.00    -0.202 N   
ATOM     2   C10 UNL     1      -0.662  -0.255   1.470  1.00  0.00     0.046 A   
ATOM     3   C11 UNL     1      -1.003  -0.737   0.228  1.00  0.00     0.127 A   
ATOM     4   N3  UNL     1      -1.317  -2.069   0.330  1.00  0.00    -0.132 NA  
ATOM     5   N4  UNL     1      -1.184  -2.426   1.596  1.00  0.00    -0.075 NA  
ATOM     6   H12 UNL     1      -0.372   0.721   1.837  1.00  0.00     0.083 HD  
ENDROOT
BRANCH   1   7
ATOM     7   C8  UNL     1      -0.643  -1.417   3.754  1.00  0.00     0.158 C   
BRANCH   7   8
ATOM     8   C7  UNL     1       0.523  -0.554   4.247  1.00  0.00     0.007 A   
ATOM     9   C2  UNL     1       1.854  -0.967   3.999  1.00  0.00     0.080 A   
ATOM     10  C3  UNL     1       2.926  -0.179   4.432  1.00  0.00     0.034 A   
ATOM     11  C4  UNL     1       2.696   1.009   5.129  1.00  0.00     0.003 A   
ATOM     12  C6  UNL     1       0.315   0.651   4.947  1.00  0.00     0.008 A   
ATOM     13  C5  UNL     1       1.393   1.421   5.389  1.00  0.00     0.001 A   
BRANCH   9  14
ATOM     14  O1  UNL     1       1.998  -2.141   3.306  1.00  0.00    -0.349 OA  
ATOM     15  C1  UNL     1       3.280  -2.761   3.345  1.00  0.00     0.203 C   
ENDBRANCH   9  14
ENDBRANCH   7   8
BRANCH   7  16
ATOM     16  C9  UNL     1      -2.014  -1.213   4.438  1.00  0.00     0.186 C   
BRANCH  16  17
ATOM     17  O2  UNL     1      -2.629   0.030   4.091  1.00  0.00    -0.394 OA  
ATOM     18  H11 UNL     1      -3.471   0.075   4.578  1.00  0.00     0.210 HD  
ENDBRANCH  16  17
ENDBRANCH   7  16
ENDBRANCH   1   7
BRANCH   3  19
ATOM     19  C12 UNL     1      -1.082  -0.063  -1.099  1.00  0.00     0.114 C   
BRANCH  19  20
ATOM     20  C13 UNL     1      -2.239   0.953  -1.192  1.00  0.00     0.064 C   
BRANCH  20  21
ATOM     21  C14 UNL     1      -3.667   0.469  -0.848  1.00  0.00    -0.012 C   
ATOM     22  C15 UNL     1      -4.564   1.693  -0.607  1.00  0.00     0.007 C   
ATOM     23  C16 UNL     1      -4.298  -0.402  -1.939  1.00  0.00     0.007 C   
ENDBRANCH  20  21
ENDBRANCH  19  20
BRANCH  19  24
ATOM     24  N2  UNL     1      -1.192  -1.074  -2.208  1.00  0.00     0.249 N   
ATOM     25  H23 UNL     1      -1.674  -0.679  -3.020  1.00  0.00     0.199 HD  
ATOM     26  H24 UNL     1      -1.777  -1.831  -1.831  1.00  0.00     0.199 HD  
BRANCH  24  27
ATOM     27  C17 UNL     1       0.092  -1.702  -2.637  1.00  0.00     0.164 C   
BRANCH  27  28
ATOM     28  C18 UNL     1       0.910  -0.798  -3.518  1.00  0.00    -0.002 A   
ATOM     29  C19 UNL     1       0.524  -0.566  -4.862  1.00  0.00     0.012 A   
ATOM     30  C23 UNL     1       2.057  -0.162  -3.009  1.00  0.00     0.045 A   
ATOM     31  C20 UNL     1       1.268   0.283  -5.689  1.00  0.00     0.037 A   
ATOM     32  C22 UNL     1       2.771   0.667  -3.850  1.00  0.00     0.109 A   
ATOM     33  C21 UNL     1       2.390   0.881  -5.154  1.00  0.00     0.108 A   
ATOM     34  O3  UNL     1       3.902   1.345  -3.521  1.00  0.00    -0.316 OA  
ATOM     35  O4  UNL     1       3.240   1.713  -5.811  1.00  0.00    -0.316 OA  
ATOM     36  C24 UNL     1       4.217   1.983  -4.781  1.00  0.00     0.337 C   
ENDBRANCH  27  28
ENDBRANCH  24  27
ENDBRANCH  19  24
ENDBRANCH   3  19
TORSDOF 11
