REMARK SMILES Cc1cc(F)ccc1Cn1cc([C@H](CC(C)C)[NH2+]Cc2ccc3c(c2)OCO3)nn1
REMARK SMILES IDX 10 1 11 2 12 3 29 4 30 5 9 7 8 8 2 9 3 10 4 11 7 12 6 13
REMARK SMILES IDX 1 14 5 15 13 16 14 17 15 18 16 19 17 20 18 21 19 24 20 25
REMARK SMILES IDX 21 26 25 27 22 28 24 29 23 30 26 31 28 32 27 33
REMARK H PARENT 11 6 18 22 18 23
ROOT
ATOM     1   N1  UNL     1       1.302  -1.460   2.292  1.00  0.00    -0.208 N   
ATOM     2   C9  UNL     1       1.786  -0.616   1.331  1.00  0.00     0.046 A   
ATOM     3   C10 UNL     1       0.754   0.271   1.115  1.00  0.00     0.127 A   
ATOM     4   N3  UNL     1      -0.297  -0.054   1.935  1.00  0.00    -0.132 NA  
ATOM     5   N4  UNL     1       0.047  -1.115   2.645  1.00  0.00    -0.076 NA  
ATOM     6   H9  UNL     1       2.771  -0.731   0.900  1.00  0.00     0.083 HD  
ENDROOT
BRANCH   1   7
ATOM     7   C8  UNL     1       1.956  -2.608   2.902  1.00  0.00     0.169 C   
BRANCH   7   8
ATOM     8   C7  UNL     1       1.943  -3.799   1.966  1.00  0.00    -0.025 A   
ATOM     9   C2  UNL     1       3.102  -4.262   1.302  1.00  0.00    -0.043 A   
ATOM     10  C3  UNL     1       2.999  -5.365   0.437  1.00  0.00     0.043 A   
ATOM     11  C4  UNL     1       1.776  -5.995   0.238  1.00  0.00     0.123 A   
ATOM     12  C6  UNL     1       0.717  -4.464   1.750  1.00  0.00     0.009 A   
ATOM     13  C5  UNL     1       0.634  -5.556   0.889  1.00  0.00     0.039 A   
ATOM     14  C1  UNL     1       4.455  -3.634   1.505  1.00  0.00     0.045 C   
ATOM     15  F1  UNL     1       1.701  -7.041  -0.595  1.00  0.00    -0.207 F   
ENDBRANCH   7   8
ENDBRANCH   1   7
BRANCH   3  16
ATOM     16  C11 UNL     1       0.604   1.399   0.150  1.00  0.00     0.114 C   
BRANCH  16  17
ATOM     17  C12 UNL     1       0.898   2.770   0.788  1.00  0.00     0.064 C   
BRANCH  17  18
ATOM     18  C13 UNL     1       2.348   2.972   1.278  1.00  0.00    -0.012 C   
ATOM     19  C14 UNL     1       3.367   2.861   0.144  1.00  0.00     0.007 C   
ATOM     20  C15 UNL     1       2.477   4.340   1.955  1.00  0.00     0.007 C   
ENDBRANCH  17  18
ENDBRANCH  16  17
BRANCH  16  21
ATOM     21  N2  UNL     1      -0.819   1.447  -0.357  1.00  0.00     0.249 N   
ATOM     22  H20 UNL     1      -1.027   2.345  -0.805  1.00  0.00     0.199 HD  
ATOM     23  H21 UNL     1      -1.432   1.385   0.469  1.00  0.00     0.199 HD  
BRANCH  21  24
ATOM     24  C16 UNL     1      -1.204   0.342  -1.279  1.00  0.00     0.164 C   
BRANCH  24  25
ATOM     25  C17 UNL     1      -2.646   0.473  -1.679  1.00  0.00    -0.002 A   
ATOM     26  C18 UNL     1      -3.663  -0.078  -0.862  1.00  0.00     0.012 A   
ATOM     27  C22 UNL     1      -2.998   1.190  -2.836  1.00  0.00     0.045 A   
ATOM     28  C19 UNL     1      -5.013   0.070  -1.197  1.00  0.00     0.037 A   
ATOM     29  C21 UNL     1      -4.339   1.317  -3.137  1.00  0.00     0.109 A   
ATOM     30  C20 UNL     1      -5.318   0.773  -2.342  1.00  0.00     0.108 A   
ATOM     31  O1  UNL     1      -4.848   1.975  -4.211  1.00  0.00    -0.316 OA  
ATOM     32  O2  UNL     1      -6.566   1.017  -2.817  1.00  0.00    -0.316 OA  
ATOM     33  C23 UNL     1      -6.265   1.758  -4.019  1.00  0.00     0.337 C   
ENDBRANCH  24  25
ENDBRANCH  21  24
ENDBRANCH  16  21
ENDBRANCH   3  16
TORSDOF 8
