REMARK SMILES Cc1ccncc1[C@H](CO)n1cc([C@H](CC(C)C)[NH2+]Cc2ccc3c(c2)OCO3)nn1
REMARK SMILES IDX 11 1 12 2 13 3 30 4 31 5 8 7 7 8 2 9 3 10 4 11 6 12 5 13
REMARK SMILES IDX 1 14 9 15 10 16 14 18 15 19 16 20 17 21 18 22 19 23 20 26
REMARK SMILES IDX 21 27 22 28 26 29 23 30 25 31 24 32 27 33 29 34 28 35
REMARK H PARENT 12 6 10 17 19 24 19 25
ROOT
ATOM     1   N2  UNL     1      -2.046   0.154  -0.865  1.00  0.00    -0.202 N   
ATOM     2   C9  UNL     1      -0.851  -0.045  -1.506  1.00  0.00     0.046 A   
ATOM     3   C10 UNL     1      -0.220  -1.002  -0.744  1.00  0.00     0.127 A   
ATOM     4   N4  UNL     1      -1.027  -1.351   0.308  1.00  0.00    -0.132 NA  
ATOM     5   N5  UNL     1      -2.139  -0.642   0.223  1.00  0.00    -0.075 NA  
ATOM     6   H11 UNL     1      -0.568   0.511  -2.388  1.00  0.00     0.083 HD  
ENDROOT
BRANCH   1   7
ATOM     7   C7  UNL     1      -3.100   1.113  -1.207  1.00  0.00     0.157 C   
BRANCH   7   8
ATOM     8   C6  UNL     1      -3.070   2.296  -0.253  1.00  0.00    -0.002 A   
ATOM     9   C2  UNL     1      -2.674   3.589  -0.648  1.00  0.00    -0.043 A   
ATOM     10  C3  UNL     1      -2.692   4.619   0.302  1.00  0.00     0.024 A   
ATOM     11  C4  UNL     1      -3.080   4.336   1.600  1.00  0.00     0.111 A   
ATOM     12  C5  UNL     1      -3.442   2.128   1.085  1.00  0.00     0.117 A   
ATOM     13  N1  UNL     1      -3.446   3.109   2.013  1.00  0.00    -0.264 NA  
ATOM     14  C1  UNL     1      -2.234   3.913  -2.049  1.00  0.00     0.045 C   
ENDBRANCH   7   8
BRANCH   7  15
ATOM     15  C8  UNL     1      -4.483   0.443  -1.301  1.00  0.00     0.186 C   
BRANCH  15  16
ATOM     16  O1  UNL     1      -4.551  -0.370  -2.475  1.00  0.00    -0.394 OA  
ATOM     17  H10 UNL     1      -5.440  -0.772  -2.494  1.00  0.00     0.210 HD  
ENDBRANCH  15  16
ENDBRANCH   7  15
ENDBRANCH   1   7
BRANCH   3  18
ATOM     18  C11 UNL     1       1.148  -1.598  -0.827  1.00  0.00     0.114 C   
BRANCH  18  19
ATOM     19  C12 UNL     1       1.105  -3.008  -1.445  1.00  0.00     0.064 C   
BRANCH  19  20
ATOM     20  C13 UNL     1       2.477  -3.672  -1.695  1.00  0.00    -0.012 C   
ATOM     21  C14 UNL     1       2.268  -5.084  -2.251  1.00  0.00     0.007 C   
ATOM     22  C15 UNL     1       3.351  -2.865  -2.657  1.00  0.00     0.007 C   
ENDBRANCH  19  20
ENDBRANCH  18  19
BRANCH  18  23
ATOM     23  N3  UNL     1       1.718  -1.680   0.573  1.00  0.00     0.249 N   
ATOM     24  H22 UNL     1       2.136  -2.597   0.752  1.00  0.00     0.199 HD  
ATOM     25  H23 UNL     1       0.904  -1.634   1.207  1.00  0.00     0.199 HD  
BRANCH  23  26
ATOM     26  C16 UNL     1       2.677  -0.610   0.965  1.00  0.00     0.164 C   
BRANCH  26  27
ATOM     27  C17 UNL     1       2.142   0.788   0.814  1.00  0.00    -0.002 A   
ATOM     28  C18 UNL     1       1.096   1.257   1.646  1.00  0.00     0.012 A   
ATOM     29  C22 UNL     1       2.662   1.635  -0.180  1.00  0.00     0.045 A   
ATOM     30  C19 UNL     1       0.571   2.544   1.486  1.00  0.00     0.037 A   
ATOM     31  C21 UNL     1       2.123   2.898  -0.309  1.00  0.00     0.109 A   
ATOM     32  C20 UNL     1       1.107   3.342   0.500  1.00  0.00     0.108 A   
ATOM     33  O2  UNL     1       2.506   3.829  -1.222  1.00  0.00    -0.316 OA  
ATOM     34  O3  UNL     1       0.728   4.612   0.203  1.00  0.00    -0.316 OA  
ATOM     35  C23 UNL     1       1.650   4.935  -0.858  1.00  0.00     0.337 C   
ENDBRANCH  26  27
ENDBRANCH  23  26
ENDBRANCH  18  23
ENDBRANCH   3  18
TORSDOF 10
