REMARK SMILES Cc1ccncc1[C@@H](CO)n1cc([C@H](CC(C)C)[NH2+]Cc2ccc3c(c2)OCO3)nn1
REMARK SMILES IDX 11 1 12 2 13 3 30 4 31 5 8 7 7 8 2 9 3 10 4 11 6 12 5 13
REMARK SMILES IDX 1 14 9 15 10 16 14 18 15 19 16 20 17 21 18 22 19 23 20 26
REMARK SMILES IDX 21 27 22 28 26 29 23 30 25 31 24 32 27 33 29 34 28 35
REMARK H PARENT 12 6 10 17 19 24 19 25
ROOT
ATOM     1   N2  UNL     1       0.036  -0.482   2.978  1.00  0.00    -0.202 N   
ATOM     2   C9  UNL     1       0.590  -1.345   2.068  1.00  0.00     0.046 A   
ATOM     3   C10 UNL     1       0.501  -0.679   0.867  1.00  0.00     0.127 A   
ATOM     4   N4  UNL     1      -0.102   0.534   1.073  1.00  0.00    -0.132 NA  
ATOM     5   N5  UNL     1      -0.377   0.646   2.363  1.00  0.00    -0.075 NA  
ATOM     6   H11 UNL     1       0.980  -2.314   2.349  1.00  0.00     0.083 HD  
ENDROOT
BRANCH   1   7
ATOM     7   C7  UNL     1      -0.179  -0.660   4.417  1.00  0.00     0.157 C   
BRANCH   7   8
ATOM     8   C6  UNL     1      -1.225  -1.742   4.666  1.00  0.00    -0.002 A   
ATOM     9   C2  UNL     1      -2.592  -1.443   4.854  1.00  0.00    -0.043 A   
ATOM     10  C3  UNL     1      -3.498  -2.496   5.037  1.00  0.00     0.024 A   
ATOM     11  C4  UNL     1      -3.034  -3.800   5.005  1.00  0.00     0.111 A   
ATOM     12  C5  UNL     1      -0.873  -3.098   4.666  1.00  0.00     0.117 A   
ATOM     13  N1  UNL     1      -1.741  -4.122   4.814  1.00  0.00    -0.264 NA  
ATOM     14  C1  UNL     1      -3.126  -0.031   4.863  1.00  0.00     0.045 C   
ENDBRANCH   7   8
BRANCH   7  15
ATOM     15  C8  UNL     1       1.150  -0.792   5.207  1.00  0.00     0.186 C   
BRANCH  15  16
ATOM     16  O1  UNL     1       1.958  -1.884   4.778  1.00  0.00    -0.394 OA  
ATOM     17  H10 UNL     1       2.693  -1.967   5.415  1.00  0.00     0.210 HD  
ENDBRANCH  15  16
ENDBRANCH   7  15
ENDBRANCH   1   7
BRANCH   3  18
ATOM     18  C11 UNL     1       0.903  -1.111  -0.501  1.00  0.00     0.114 C   
BRANCH  18  19
ATOM     19  C12 UNL     1       2.430  -1.111  -0.735  1.00  0.00     0.064 C   
BRANCH  19  20
ATOM     20  C13 UNL     1       3.135   0.233  -1.032  1.00  0.00    -0.012 C   
ATOM     21  C14 UNL     1       4.611  -0.034  -1.354  1.00  0.00     0.007 C   
ATOM     22  C15 UNL     1       3.047   1.237   0.115  1.00  0.00     0.007 C   
ENDBRANCH  19  20
ENDBRANCH  18  19
BRANCH  18  23
ATOM     23  N3  UNL     1       0.232  -0.324  -1.591  1.00  0.00     0.249 N   
ATOM     24  H22 UNL     1       0.378   0.675  -1.396  1.00  0.00     0.199 HD  
ATOM     25  H23 UNL     1       0.672  -0.522  -2.496  1.00  0.00     0.199 HD  
BRANCH  23  26
ATOM     26  C16 UNL     1      -1.242  -0.533  -1.721  1.00  0.00     0.164 C   
BRANCH  26  27
ATOM     27  C17 UNL     1      -1.738   0.051  -3.016  1.00  0.00    -0.002 A   
ATOM     28  C18 UNL     1      -1.971  -0.789  -4.134  1.00  0.00     0.012 A   
ATOM     29  C22 UNL     1      -1.921   1.439  -3.146  1.00  0.00     0.045 A   
ATOM     30  C19 UNL     1      -2.383  -0.257  -5.362  1.00  0.00     0.037 A   
ATOM     31  C21 UNL     1      -2.328   1.930  -4.371  1.00  0.00     0.109 A   
ATOM     32  C20 UNL     1      -2.551   1.106  -5.449  1.00  0.00     0.108 A   
ATOM     33  O2  UNL     1      -2.541   3.239  -4.667  1.00  0.00    -0.316 OA  
ATOM     34  O3  UNL     1      -2.937   1.791  -6.557  1.00  0.00    -0.316 OA  
ATOM     35  C23 UNL     1      -2.956   3.144  -6.051  1.00  0.00     0.337 C   
ENDBRANCH  26  27
ENDBRANCH  23  26
ENDBRANCH  18  23
ENDBRANCH   3  18
TORSDOF 10
