REMARK SMILES Cc1nn(C)c(C)c1Cn1cc([C@@H]([NH2+]Cc2ccc3c(c2)OCO3)C(C)(C)C)nn1
REMARK SMILES IDX 10 1 11 2 12 3 29 4 30 5 9 7 8 8 2 9 3 10 4 11 6 12 1 13
REMARK SMILES IDX 5 14 7 15 13 16 14 17 15 20 16 21 17 22 21 23 18 24 20 25
REMARK SMILES IDX 19 26 22 27 24 28 23 29 25 30 26 31 27 32 28 33
REMARK H PARENT 11 6 14 18 14 19
ROOT
ATOM     1   N3  UNL     1      -2.293   0.382  -1.174  1.00  0.00    -0.208 N   
ATOM     2   C8  UNL     1      -1.747   0.563   0.068  1.00  0.00     0.046 A   
ATOM     3   C9  UNL     1      -0.940   1.669  -0.078  1.00  0.00     0.127 A   
ATOM     4   N5  UNL     1      -1.010   2.108  -1.377  1.00  0.00    -0.132 NA  
ATOM     5   N6  UNL     1      -1.845   1.321  -2.034  1.00  0.00    -0.076 NA  
ATOM     6   H12 UNL     1      -1.967  -0.090   0.900  1.00  0.00     0.083 HD  
ENDROOT
BRANCH   1   7
ATOM     7   C7  UNL     1      -3.302  -0.582  -1.587  1.00  0.00     0.173 C   
BRANCH   7   8
ATOM     8   C6  UNL     1      -2.737  -1.957  -1.686  1.00  0.00     0.013 A   
ATOM     9   C2  UNL     1      -2.809  -2.993  -0.712  1.00  0.00     0.062 A   
ATOM     10  N1  UNL     1      -2.200  -4.105  -1.128  1.00  0.00    -0.187 NA  
ATOM     11  N2  UNL     1      -1.812  -3.829  -2.384  1.00  0.00    -0.232 N   
ATOM     12  C4  UNL     1      -2.067  -2.534  -2.756  1.00  0.00     0.031 A   
ATOM     13  C1  UNL     1      -3.452  -2.967   0.625  1.00  0.00     0.069 C   
ATOM     14  C3  UNL     1      -1.219  -4.879  -3.180  1.00  0.00     0.159 C   
ATOM     15  C5  UNL     1      -1.684  -1.988  -4.084  1.00  0.00     0.064 C   
ENDBRANCH   7   8
ENDBRANCH   1   7
BRANCH   3  16
ATOM     16  C10 UNL     1      -0.008   2.359   0.873  1.00  0.00     0.120 C   
BRANCH  16  17
ATOM     17  N4  UNL     1       1.209   2.817   0.086  1.00  0.00     0.250 N   
ATOM     18  H14 UNL     1       0.905   2.843  -0.903  1.00  0.00     0.199 HD  
ATOM     19  H15 UNL     1       1.464   3.782   0.309  1.00  0.00     0.199 HD  
BRANCH  17  20
ATOM     20  C11 UNL     1       2.419   1.951   0.178  1.00  0.00     0.164 C   
BRANCH  20  21
ATOM     21  C12 UNL     1       2.199   0.550  -0.318  1.00  0.00    -0.002 A   
ATOM     22  C13 UNL     1       2.051   0.295  -1.702  1.00  0.00     0.012 A   
ATOM     23  C17 UNL     1       2.090  -0.513   0.593  1.00  0.00     0.045 A   
ATOM     24  C14 UNL     1       1.800  -0.998  -2.174  1.00  0.00     0.037 A   
ATOM     25  C16 UNL     1       1.835  -1.774   0.097  1.00  0.00     0.109 A   
ATOM     26  C15 UNL     1       1.698  -2.011  -1.247  1.00  0.00     0.108 A   
ATOM     27  O1  UNL     1       1.699  -2.901   0.843  1.00  0.00    -0.316 OA  
ATOM     28  O2  UNL     1       1.475  -3.322  -1.520  1.00  0.00    -0.316 OA  
ATOM     29  C18 UNL     1       1.426  -3.877  -0.187  1.00  0.00     0.337 C   
ENDBRANCH  20  21
ENDBRANCH  17  20
ENDBRANCH  16  17
BRANCH  16  30
ATOM     30  C19 UNL     1      -0.650   3.559   1.652  1.00  0.00     0.010 C   
ATOM     31  C20 UNL     1       0.366   4.147   2.658  1.00  0.00     0.017 C   
ATOM     32  C21 UNL     1      -1.857   3.063   2.478  1.00  0.00     0.017 C   
ATOM     33  C22 UNL     1      -1.131   4.689   0.721  1.00  0.00     0.017 C   
ENDBRANCH  16  30
ENDBRANCH   3  16
TORSDOF 7
