REMARK SMILES CC(C)(C)[C@H]([NH2+]Cc1ccc2c(c1)OCO2)c1cn(-c2ccc(F)cc2)nn1
REMARK SMILES IDX 5 1 2 2 1 3 3 4 4 5 6 6 7 9 8 10 9 11 13 12 10 13 12 14
REMARK SMILES IDX 11 15 14 16 16 17 15 18 17 19 18 20 28 21 19 22 27 23 20 24
REMARK SMILES IDX 21 25 26 26 22 27 25 28 23 29 24 30
REMARK H PARENT 6 7 6 8
ROOT
ATOM     1   C5  UNL     1       0.643   0.694   0.996  1.00  0.00     0.120 C   
ENDROOT
BRANCH   1   2
ATOM     2   C2  UNL     1       0.573   2.022   1.829  1.00  0.00     0.010 C   
ATOM     3   C1  UNL     1      -0.566   2.953   1.368  1.00  0.00     0.017 C   
ATOM     4   C3  UNL     1       1.908   2.797   1.720  1.00  0.00     0.017 C   
ATOM     5   C4  UNL     1       0.364   1.705   3.328  1.00  0.00     0.017 C   
ENDBRANCH   1   2
BRANCH   1   6
ATOM     6   N1  UNL     1       0.827   1.007  -0.472  1.00  0.00     0.250 N   
ATOM     7   H11 UNL     1      -0.105   1.245  -0.845  1.00  0.00     0.199 HD  
ATOM     8   H12 UNL     1       1.411   1.832  -0.629  1.00  0.00     0.199 HD  
BRANCH   6   9
ATOM     9   C6  UNL     1       1.357  -0.109  -1.305  1.00  0.00     0.164 C   
BRANCH   9  10
ATOM     10  C7  UNL     1       1.407   0.297  -2.750  1.00  0.00    -0.002 A   
ATOM     11  C8  UNL     1       0.266   0.138  -3.572  1.00  0.00     0.012 A   
ATOM     12  C12 UNL     1       2.565   0.891  -3.279  1.00  0.00     0.045 A   
ATOM     13  C9  UNL     1       0.280   0.553  -4.908  1.00  0.00     0.037 A   
ATOM     14  C11 UNL     1       2.544   1.290  -4.600  1.00  0.00     0.109 A   
ATOM     15  C10 UNL     1       1.435   1.125  -5.392  1.00  0.00     0.108 A   
ATOM     16  O1  UNL     1       3.574   1.878  -5.263  1.00  0.00    -0.316 OA  
ATOM     17  O2  UNL     1       1.626   1.587  -6.655  1.00  0.00    -0.316 OA  
ATOM     18  C13 UNL     1       2.994   2.044  -6.578  1.00  0.00     0.337 C   
ENDBRANCH   9  10
ENDBRANCH   6   9
ENDBRANCH   1   6
BRANCH   1  19
ATOM     19  C14 UNL     1      -0.558  -0.193   1.152  1.00  0.00     0.128 A   
ATOM     20  C15 UNL     1      -0.835  -1.213   2.037  1.00  0.00     0.135 A   
ATOM     21  N4  UNL     1      -1.589  -0.087   0.261  1.00  0.00    -0.131 NA  
ATOM     22  N2  UNL     1      -2.082  -1.682   1.668  1.00  0.00    -0.181 N   
ATOM     23  N3  UNL     1      -2.497  -0.995   0.572  1.00  0.00    -0.071 NA  
BRANCH  22  24
ATOM     24  C16 UNL     1      -2.863  -2.711   2.253  1.00  0.00     0.058 A   
ATOM     25  C17 UNL     1      -4.112  -3.032   1.693  1.00  0.00     0.029 A   
ATOM     26  C21 UNL     1      -2.409  -3.410   3.382  1.00  0.00     0.029 A   
ATOM     27  C18 UNL     1      -4.894  -4.043   2.257  1.00  0.00     0.041 A   
ATOM     28  C20 UNL     1      -3.199  -4.421   3.939  1.00  0.00     0.041 A   
ATOM     29  C19 UNL     1      -4.431  -4.728   3.373  1.00  0.00     0.123 A   
ATOM     30  F1  UNL     1      -5.180  -5.697   3.912  1.00  0.00    -0.207 F   
ENDBRANCH  22  24
ENDBRANCH   1  19
TORSDOF 6
