REMARK SMILES Cn1nc2ccccc2c1Cn1cc([C@@H]([NH2+]Cc2ccc3c(c2)OCO3)C2CCCC2)nn1
REMARK SMILES IDX 12 1 13 2 14 3 32 4 33 5 11 7 10 8 2 9 3 10 4 11 9 12 5 13
REMARK SMILES IDX 8 14 6 15 7 16 1 17 15 18 16 19 17 22 18 23 19 24 23 25
REMARK SMILES IDX 20 26 22 27 21 28 24 29 26 30 25 31 27 32 28 33 31 34 29 35
REMARK SMILES IDX 30 36
REMARK H PARENT 13 6 16 20 16 21
ROOT
ATOM     1   N3  UNL     1      -1.188   1.172   2.031  1.00  0.00    -0.206 N   
ATOM     2   C10 UNL     1      -0.921   1.062   0.694  1.00  0.00     0.046 A   
ATOM     3   C11 UNL     1      -2.013   0.391   0.191  1.00  0.00     0.127 A   
ATOM     4   N5  UNL     1      -2.888   0.124   1.212  1.00  0.00    -0.132 NA  
ATOM     5   N6  UNL     1      -2.380   0.617   2.329  1.00  0.00    -0.076 NA  
ATOM     6   H10 UNL     1      -0.001   1.419   0.255  1.00  0.00     0.083 HD  
ENDROOT
BRANCH   1   7
ATOM     7   C9  UNL     1      -0.356   1.746   3.078  1.00  0.00     0.187 C   
BRANCH   7   8
ATOM     8   C8  UNL     1       0.628   0.744   3.568  1.00  0.00     0.057 A   
ATOM     9   N1  UNL     1       0.310  -0.301   4.407  1.00  0.00    -0.230 N   
ATOM     10  N2  UNL     1       1.333  -1.140   4.655  1.00  0.00    -0.181 NA  
ATOM     11  C2  UNL     1       2.398  -0.587   4.057  1.00  0.00     0.090 A   
ATOM     12  C7  UNL     1       1.980   0.600   3.355  1.00  0.00     0.022 A   
ATOM     13  C3  UNL     1       3.738  -1.004   4.039  1.00  0.00     0.031 A   
ATOM     14  C6  UNL     1       2.792   1.447   2.604  1.00  0.00     0.012 A   
ATOM     15  C4  UNL     1       4.588  -0.158   3.294  1.00  0.00     0.002 A   
ATOM     16  C5  UNL     1       4.133   1.010   2.609  1.00  0.00     0.001 A   
ATOM     17  C1  UNL     1      -0.967  -0.609   5.016  1.00  0.00     0.159 C   
ENDBRANCH   7   8
ENDBRANCH   1   7
BRANCH   3  18
ATOM     18  C12 UNL     1      -2.314  -0.137  -1.174  1.00  0.00     0.117 C   
BRANCH  18  19
ATOM     19  N4  UNL     1      -2.798  -1.568  -1.026  1.00  0.00     0.249 N   
ATOM     20  H12 UNL     1      -3.004  -1.698  -0.022  1.00  0.00     0.199 HD  
ATOM     21  H13 UNL     1      -3.703  -1.698  -1.490  1.00  0.00     0.199 HD  
BRANCH  19  22
ATOM     22  C13 UNL     1      -1.856  -2.637  -1.456  1.00  0.00     0.164 C   
BRANCH  22  23
ATOM     23  C14 UNL     1      -0.524  -2.597  -0.761  1.00  0.00    -0.002 A   
ATOM     24  C15 UNL     1      -0.414  -2.909   0.616  1.00  0.00     0.012 A   
ATOM     25  C19 UNL     1       0.627  -2.228  -1.477  1.00  0.00     0.045 A   
ATOM     26  C16 UNL     1       0.824  -2.858   1.267  1.00  0.00     0.037 A   
ATOM     27  C18 UNL     1       1.829  -2.184  -0.805  1.00  0.00     0.109 A   
ATOM     28  C17 UNL     1       1.928  -2.496   0.527  1.00  0.00     0.108 A   
ATOM     29  O1  UNL     1       3.025  -1.842  -1.350  1.00  0.00    -0.316 OA  
ATOM     30  O2  UNL     1       3.203  -2.413   0.984  1.00  0.00    -0.316 OA  
ATOM     31  C20 UNL     1       3.896  -1.982  -0.204  1.00  0.00     0.337 C   
ENDBRANCH  22  23
ENDBRANCH  19  22
ENDBRANCH  18  19
BRANCH  18  32
ATOM     32  C21 UNL     1      -3.397   0.681  -1.897  1.00  0.00     0.043 C   
ATOM     33  C22 UNL     1      -3.701   0.192  -3.318  1.00  0.00     0.010 C   
ATOM     34  C25 UNL     1      -2.991   2.136  -2.151  1.00  0.00     0.010 C   
ATOM     35  C23 UNL     1      -4.357   1.381  -4.015  1.00  0.00     0.001 C   
ATOM     36  C24 UNL     1      -3.990   2.616  -3.194  1.00  0.00     0.001 C   
ENDBRANCH  18  32
ENDBRANCH   3  18
TORSDOF 7
