REMARK SMILES Cc1ccc(CCn2cc([C@@H]([NH2+]Cc3ccc4c(c3)OCO4)C(C)C)nn2)c(Cl)n1
REMARK SMILES IDX 8 1 9 2 10 3 26 4 27 5 7 7 6 8 5 9 2 10 3 11 30 12 4 13
REMARK SMILES IDX 28 14 1 15 29 16 11 17 12 18 13 21 14 22 15 23 19 24 16 25
REMARK SMILES IDX 18 26 17 27 20 28 22 29 21 30 23 31 24 32 25 33
REMARK H PARENT 9 6 12 19 12 20
ROOT
ATOM     1   N1  UNL     1       3.672   1.637   1.020  1.00  0.00    -0.212 N   
ATOM     2   C8  UNL     1       2.364   1.857   0.688  1.00  0.00     0.045 A   
ATOM     3   C9  UNL     1       1.679   1.601   1.855  1.00  0.00     0.127 A   
ATOM     4   N3  UNL     1       2.576   1.260   2.835  1.00  0.00    -0.132 NA  
ATOM     5   N4  UNL     1       3.792   1.302   2.315  1.00  0.00    -0.076 NA  
ATOM     6   H10 UNL     1       2.054   2.123  -0.314  1.00  0.00     0.083 HD  
ENDROOT
BRANCH   1   7
ATOM     7   C7  UNL     1       4.827   1.639   0.147  1.00  0.00     0.139 C   
BRANCH   7   8
ATOM     8   C6  UNL     1       5.262   0.233  -0.287  1.00  0.00     0.060 C   
BRANCH   8   9
ATOM     9   C5  UNL     1       4.193  -0.497  -1.064  1.00  0.00    -0.009 A   
ATOM     10  C2  UNL     1       2.123  -1.706  -2.448  1.00  0.00     0.039 A   
ATOM     11  C3  UNL     1       2.932  -0.789  -3.108  1.00  0.00     0.024 A   
ATOM     12  N5  UNL     1       2.307  -2.028  -1.147  1.00  0.00    -0.241 NA  
ATOM     13  C4  UNL     1       3.967  -0.174  -2.406  1.00  0.00     0.009 A   
ATOM     14  C22 UNL     1       3.349  -1.455  -0.505  1.00  0.00     0.132 A   
ATOM     15  C1  UNL     1       1.002  -2.385  -3.177  1.00  0.00     0.067 C   
ATOM     16  CL1 UNL     1       3.488  -2.007   1.118  1.00  0.00    -0.062 Cl  
ENDBRANCH   8   9
ENDBRANCH   7   8
ENDBRANCH   1   7
BRANCH   3  17
ATOM     17  C10 UNL     1       0.215   1.558   2.148  1.00  0.00     0.117 C   
BRANCH  17  18
ATOM     18  N2  UNL     1      -0.093   0.370   3.033  1.00  0.00     0.249 N   
ATOM     19  H12 UNL     1      -0.977   0.509   3.530  1.00  0.00     0.199 HD  
ATOM     20  H13 UNL     1       0.656   0.341   3.741  1.00  0.00     0.199 HD  
BRANCH  18  21
ATOM     21  C11 UNL     1      -0.113  -0.961   2.356  1.00  0.00     0.164 C   
BRANCH  21  22
ATOM     22  C12 UNL     1      -1.310  -1.139   1.463  1.00  0.00    -0.002 A   
ATOM     23  C13 UNL     1      -2.602  -1.310   2.016  1.00  0.00     0.012 A   
ATOM     24  C17 UNL     1      -1.154  -1.109   0.066  1.00  0.00     0.045 A   
ATOM     25  C14 UNL     1      -3.724  -1.439   1.191  1.00  0.00     0.037 A   
ATOM     26  C16 UNL     1      -2.281  -1.237  -0.719  1.00  0.00     0.109 A   
ATOM     27  C15 UNL     1      -3.530  -1.396  -0.172  1.00  0.00     0.108 A   
ATOM     28  O1  UNL     1      -2.306  -1.219  -2.077  1.00  0.00    -0.316 OA  
ATOM     29  O2  UNL     1      -4.500  -1.500  -1.117  1.00  0.00    -0.316 OA  
ATOM     30  C18 UNL     1      -3.716  -1.419  -2.327  1.00  0.00     0.337 C   
ENDBRANCH  21  22
ENDBRANCH  18  21
ENDBRANCH  17  18
BRANCH  17  31
ATOM     31  C19 UNL     1      -0.336   2.838   2.827  1.00  0.00     0.037 C   
ATOM     32  C20 UNL     1       0.293   3.158   4.188  1.00  0.00     0.014 C   
ATOM     33  C21 UNL     1      -0.221   4.057   1.905  1.00  0.00     0.014 C   
ENDBRANCH  17  31
ENDBRANCH   3  17
TORSDOF 8
