REMARK SMILES CC(C)C[C@H]([NH2+]Cc1ccc2c(c1)OCO2)c1cn(Cc2cnc[nH]2)nn1
REMARK SMILES IDX 17 1 18 2 19 3 26 4 27 5 5 7 4 8 2 9 1 10 3 11 6 12 7 15
REMARK SMILES IDX 8 16 9 17 13 18 10 19 12 20 11 21 14 22 16 23 15 24 20 25
REMARK SMILES IDX 21 26 22 27 25 28 23 29 24 30
REMARK H PARENT 18 6 6 13 6 14 25 31
ROOT
ATOM     1   C14 UNL     1      -0.541   0.492  -1.611  1.00  0.00     0.127 A   
ATOM     2   C15 UNL     1       0.017   1.588  -0.990  1.00  0.00     0.046 A   
ATOM     3   N2  UNL     1      -0.858   1.875   0.023  1.00  0.00    -0.206 N   
ATOM     4   N5  UNL     1      -1.895   1.015   0.020  1.00  0.00    -0.076 NA  
ATOM     5   N6  UNL     1      -1.716   0.168  -0.981  1.00  0.00    -0.132 NA  
ATOM     6   H20 UNL     1       0.922   2.157  -1.150  1.00  0.00     0.083 HD  
ENDROOT
BRANCH   1   7
ATOM     7   C5  UNL     1      -0.059  -0.344  -2.748  1.00  0.00     0.114 C   
BRANCH   7   8
ATOM     8   C4  UNL     1      -0.719   0.050  -4.085  1.00  0.00     0.064 C   
BRANCH   8   9
ATOM     9   C2  UNL     1      -0.420   1.484  -4.575  1.00  0.00    -0.012 C   
ATOM     10  C1  UNL     1      -1.189   1.756  -5.871  1.00  0.00     0.007 C   
ATOM     11  C3  UNL     1       1.074   1.722  -4.804  1.00  0.00     0.007 C   
ENDBRANCH   8   9
ENDBRANCH   7   8
BRANCH   7  12
ATOM     12  N1  UNL     1      -0.399  -1.803  -2.503  1.00  0.00     0.249 N   
ATOM     13  H11 UNL     1      -0.578  -2.280  -3.391  1.00  0.00     0.199 HD  
ATOM     14  H12 UNL     1      -1.293  -1.805  -1.987  1.00  0.00     0.199 HD  
BRANCH  12  15
ATOM     15  C6  UNL     1       0.597  -2.596  -1.726  1.00  0.00     0.164 C   
BRANCH  15  16
ATOM     16  C7  UNL     1       0.596  -2.299  -0.254  1.00  0.00    -0.002 A   
ATOM     17  C8  UNL     1       1.628  -1.526   0.327  1.00  0.00     0.012 A   
ATOM     18  C12 UNL     1      -0.455  -2.767   0.555  1.00  0.00     0.045 A   
ATOM     19  C9  UNL     1       1.609  -1.209   1.690  1.00  0.00     0.037 A   
ATOM     20  C11 UNL     1      -0.442  -2.440   1.894  1.00  0.00     0.109 A   
ATOM     21  C10 UNL     1       0.557  -1.677   2.446  1.00  0.00     0.108 A   
ATOM     22  O1  UNL     1      -1.379  -2.811   2.806  1.00  0.00    -0.316 OA  
ATOM     23  O2  UNL     1       0.362  -1.455   3.773  1.00  0.00    -0.316 OA  
ATOM     24  C13 UNL     1      -0.828  -2.238   4.011  1.00  0.00     0.337 C   
ENDBRANCH  15  16
ENDBRANCH  12  15
ENDBRANCH   7  12
ENDBRANCH   1   7
BRANCH   3  25
ATOM     25  C16 UNL     1      -0.774   2.941   1.010  1.00  0.00     0.186 C   
BRANCH  25  26
ATOM     26  C17 UNL     1       0.349   2.699   1.948  1.00  0.00     0.046 A   
ATOM     27  C18 UNL     1       1.648   3.160   1.964  1.00  0.00     0.133 A   
ATOM     28  N4  UNL     1       0.252   1.895   3.060  1.00  0.00    -0.307 N   
ATOM     29  N3  UNL     1       2.339   2.632   3.019  1.00  0.00    -0.248 NA  
ATOM     30  C19 UNL     1       1.473   1.893   3.672  1.00  0.00     0.185 A   
ATOM     31  H25 UNL     1      -0.558   1.373   3.370  1.00  0.00     0.153 HD  
ENDBRANCH  25  26
ENDBRANCH   3  25
TORSDOF 8
