REMARK SMILES Cc1cnccc1[C@@H](CO)n1cc([C@@H]([NH2+]Cc2ccc3c(c2)OCO3)C(C)(C)C)nn1
REMARK SMILES IDX 11 1 12 2 13 3 30 4 31 5 8 7 7 8 2 9 3 10 4 11 6 12 5 13
REMARK SMILES IDX 1 14 9 15 10 16 14 18 15 19 16 22 17 23 18 24 22 25 19 26
REMARK SMILES IDX 21 27 20 28 23 29 25 30 24 31 26 32 27 33 28 34 29 35
REMARK H PARENT 12 6 10 17 15 20 15 21
ROOT
ATOM     1   N2  UNL     1      -0.008  -0.378  -2.705  1.00  0.00    -0.202 N   
ATOM     2   C9  UNL     1       1.007   0.334  -2.123  1.00  0.00     0.046 A   
ATOM     3   C10 UNL     1       1.379  -0.428  -1.040  1.00  0.00     0.127 A   
ATOM     4   N4  UNL     1       0.586  -1.545  -0.985  1.00  0.00    -0.132 NA  
ATOM     5   N5  UNL     1      -0.247  -1.512  -2.011  1.00  0.00    -0.075 NA  
ATOM     6   H11 UNL     1       1.348   1.280  -2.522  1.00  0.00     0.083 HD  
ENDROOT
BRANCH   1   7
ATOM     7   C7  UNL     1      -0.827  -0.036  -3.869  1.00  0.00     0.155 C   
BRANCH   7   8
ATOM     8   C6  UNL     1      -1.540   1.299  -3.645  1.00  0.00    -0.017 A   
ATOM     9   C2  UNL     1      -2.744   1.375  -2.905  1.00  0.00    -0.028 A   
ATOM     10  C3  UNL     1      -3.311   2.635  -2.706  1.00  0.00     0.114 A   
ATOM     11  N1  UNL     1      -2.787   3.788  -3.166  1.00  0.00    -0.264 NA  
ATOM     12  C5  UNL     1      -1.002   2.500  -4.134  1.00  0.00     0.026 A   
ATOM     13  C4  UNL     1      -1.651   3.697  -3.878  1.00  0.00     0.111 A   
ATOM     14  C1  UNL     1      -3.440   0.175  -2.329  1.00  0.00     0.046 C   
ENDBRANCH   7   8
BRANCH   7  15
ATOM     15  C8  UNL     1      -0.036  -0.205  -5.186  1.00  0.00     0.185 C   
BRANCH  15  16
ATOM     16  O1  UNL     1       1.166   0.566  -5.234  1.00  0.00    -0.394 OA  
ATOM     17  H10 UNL     1       1.537   0.450  -6.130  1.00  0.00     0.210 HD  
ENDBRANCH  15  16
ENDBRANCH   7  15
ENDBRANCH   1   7
BRANCH   3  18
ATOM     18  C11 UNL     1       2.374  -0.171   0.050  1.00  0.00     0.120 C   
BRANCH  18  19
ATOM     19  N3  UNL     1       1.755  -0.580   1.367  1.00  0.00     0.250 N   
ATOM     20  H13 UNL     1       1.324  -1.504   1.213  1.00  0.00     0.199 HD  
ATOM     21  H14 UNL     1       2.451  -0.709   2.104  1.00  0.00     0.199 HD  
BRANCH  19  22
ATOM     22  C12 UNL     1       0.685   0.327   1.871  1.00  0.00     0.164 C   
BRANCH  22  23
ATOM     23  C13 UNL     1       0.086  -0.216   3.136  1.00  0.00    -0.002 A   
ATOM     24  C14 UNL     1       0.550   0.222   4.399  1.00  0.00     0.012 A   
ATOM     25  C18 UNL     1      -0.913  -1.204   3.069  1.00  0.00     0.045 A   
ATOM     26  C15 UNL     1       0.021  -0.307   5.582  1.00  0.00     0.037 A   
ATOM     27  C17 UNL     1      -1.411  -1.706   4.253  1.00  0.00     0.109 A   
ATOM     28  C16 UNL     1      -0.957  -1.271   5.474  1.00  0.00     0.108 A   
ATOM     29  O2  UNL     1      -2.372  -2.659   4.365  1.00  0.00    -0.316 OA  
ATOM     30  O3  UNL     1      -1.577  -1.894   6.509  1.00  0.00    -0.316 OA  
ATOM     31  C19 UNL     1      -2.492  -2.760   5.802  1.00  0.00     0.337 C   
ENDBRANCH  22  23
ENDBRANCH  19  22
ENDBRANCH  18  19
BRANCH  18  32
ATOM     32  C20 UNL     1       3.755  -0.885  -0.155  1.00  0.00     0.010 C   
ATOM     33  C21 UNL     1       4.358  -0.497  -1.524  1.00  0.00     0.017 C   
ATOM     34  C22 UNL     1       3.649  -2.422  -0.089  1.00  0.00     0.017 C   
ATOM     35  C23 UNL     1       4.761  -0.426   0.926  1.00  0.00     0.017 C   
ENDBRANCH  18  32
ENDBRANCH   3  18
TORSDOF 9
