REMARK SMILES Cc1cnccc1[C@H](CO)n1cc([C@@H]([NH2+]Cc2ccc3c(c2)OCO3)C(C)(C)C)nn1
REMARK SMILES IDX 11 1 12 2 13 3 30 4 31 5 8 7 7 8 2 9 3 10 4 11 6 12 5 13
REMARK SMILES IDX 1 14 9 15 10 16 14 18 15 19 16 22 17 23 18 24 22 25 19 26
REMARK SMILES IDX 21 27 20 28 23 29 25 30 24 31 26 32 27 33 28 34 29 35
REMARK H PARENT 12 6 10 17 15 20 15 21
ROOT
ATOM     1   N2  UNL     1      -0.685   2.439  -0.374  1.00  0.00    -0.202 N   
ATOM     2   C9  UNL     1      -0.852   1.083  -0.299  1.00  0.00     0.046 A   
ATOM     3   C10 UNL     1      -1.113   0.847   1.031  1.00  0.00     0.127 A   
ATOM     4   N4  UNL     1      -1.069   2.035   1.715  1.00  0.00    -0.132 NA  
ATOM     5   N5  UNL     1      -0.799   2.999   0.850  1.00  0.00    -0.075 NA  
ATOM     6   H11 UNL     1      -0.760   0.439  -1.163  1.00  0.00     0.083 HD  
ENDROOT
BRANCH   1   7
ATOM     7   C7  UNL     1      -0.372   3.271  -1.538  1.00  0.00     0.155 C   
BRANCH   7   8
ATOM     8   C6  UNL     1      -1.234   2.881  -2.740  1.00  0.00    -0.017 A   
ATOM     9   C2  UNL     1      -2.577   3.308  -2.848  1.00  0.00    -0.028 A   
ATOM     10  C3  UNL     1      -3.310   2.892  -3.960  1.00  0.00     0.114 A   
ATOM     11  N1  UNL     1      -2.827   2.100  -4.939  1.00  0.00    -0.264 NA  
ATOM     12  C5  UNL     1      -0.729   2.061  -3.763  1.00  0.00     0.026 A   
ATOM     13  C4  UNL     1      -1.548   1.706  -4.823  1.00  0.00     0.111 A   
ATOM     14  C1  UNL     1      -3.247   4.191  -1.833  1.00  0.00     0.046 C   
ENDBRANCH   7   8
BRANCH   7  15
ATOM     15  C8  UNL     1       1.156   3.342  -1.756  1.00  0.00     0.185 C   
BRANCH  15  16
ATOM     16  O1  UNL     1       1.769   2.055  -1.871  1.00  0.00    -0.394 OA  
ATOM     17  H10 UNL     1       2.710   2.209  -2.078  1.00  0.00     0.210 HD  
ENDBRANCH  15  16
ENDBRANCH   7  15
ENDBRANCH   1   7
BRANCH   3  18
ATOM     18  C11 UNL     1      -1.314  -0.438   1.772  1.00  0.00     0.120 C   
BRANCH  18  19
ATOM     19  N3  UNL     1      -0.554  -0.382   3.083  1.00  0.00     0.250 N   
ATOM     20  H13 UNL     1      -0.872   0.470   3.565  1.00  0.00     0.199 HD  
ATOM     21  H14 UNL     1      -0.790  -1.180   3.676  1.00  0.00     0.199 HD  
BRANCH  19  22
ATOM     22  C12 UNL     1       0.936  -0.289   2.983  1.00  0.00     0.164 C   
BRANCH  22  23
ATOM     23  C13 UNL     1       1.564  -1.504   2.361  1.00  0.00    -0.002 A   
ATOM     24  C14 UNL     1       1.651  -2.718   3.083  1.00  0.00     0.012 A   
ATOM     25  C18 UNL     1       2.044  -1.449   1.040  1.00  0.00     0.045 A   
ATOM     26  C15 UNL     1       2.204  -3.863   2.499  1.00  0.00     0.037 A   
ATOM     27  C17 UNL     1       2.582  -2.596   0.495  1.00  0.00     0.109 A   
ATOM     28  C16 UNL     1       2.659  -3.769   1.203  1.00  0.00     0.108 A   
ATOM     29  O2  UNL     1       3.082  -2.714  -0.763  1.00  0.00    -0.316 OA  
ATOM     30  O3  UNL     1       3.220  -4.774   0.481  1.00  0.00    -0.316 OA  
ATOM     31  C19 UNL     1       3.508  -4.096  -0.759  1.00  0.00     0.337 C   
ENDBRANCH  22  23
ENDBRANCH  19  22
ENDBRANCH  18  19
BRANCH  18  32
ATOM     32  C20 UNL     1      -2.821  -0.801   2.028  1.00  0.00     0.010 C   
ATOM     33  C21 UNL     1      -3.537   0.208   2.946  1.00  0.00     0.017 C   
ATOM     34  C22 UNL     1      -3.585  -0.861   0.685  1.00  0.00     0.017 C   
ATOM     35  C23 UNL     1      -2.932  -2.203   2.673  1.00  0.00     0.017 C   
ENDBRANCH  18  32
ENDBRANCH   3  18
TORSDOF 9
