REMARK SMILES Fc1cccc(Cn2cc([C@@H]([NH2+]Cc3ccc4c(c3)OCO4)C3CCCC3)nn2)c1F
REMARK SMILES IDX 8 1 9 2 10 3 28 4 29 5 7 7 6 8 2 9 3 10 30 11 4 12 5 13 1 14
REMARK SMILES IDX 31 15 11 16 12 17 13 20 14 21 15 22 19 23 16 24 18 25 17 26
REMARK SMILES IDX 20 27 22 28 21 29 23 30 24 31 27 32 25 33 26 34
REMARK H PARENT 9 6 12 18 12 19
ROOT
ATOM     1   N1  UNL     1      -1.390   0.643   0.487  1.00  0.00    -0.208 N   
ATOM     2   C7  UNL     1      -0.387   0.897  -0.407  1.00  0.00     0.046 A   
ATOM     3   C8  UNL     1      -0.137  -0.328  -0.982  1.00  0.00     0.127 A   
ATOM     4   N3  UNL     1      -0.977  -1.264  -0.431  1.00  0.00    -0.132 NA  
ATOM     5   N4  UNL     1      -1.737  -0.659   0.465  1.00  0.00    -0.076 NA  
ATOM     6   H6  UNL     1       0.045   1.882  -0.528  1.00  0.00     0.083 HD  
ENDROOT
BRANCH   1   7
ATOM     7   C6  UNL     1      -2.077   1.579   1.360  1.00  0.00     0.172 C   
BRANCH   7   8
ATOM     8   C5  UNL     1      -1.379   1.701   2.685  1.00  0.00     0.010 A   
ATOM     9   C1  UNL     1       0.337   2.726   4.058  1.00  0.00     0.159 A   
ATOM     10  C2  UNL     1      -0.045   1.952   5.147  1.00  0.00     0.042 A   
ATOM     11  C23 UNL     1      -0.317   2.597   2.838  1.00  0.00     0.163 A   
ATOM     12  C3  UNL     1      -1.092   1.041   5.008  1.00  0.00     0.004 A   
ATOM     13  C4  UNL     1      -1.756   0.913   3.784  1.00  0.00     0.009 A   
ATOM     14  F1  UNL     1       1.351   3.592   4.186  1.00  0.00    -0.204 F   
ATOM     15  F2  UNL     1       0.078   3.336   1.790  1.00  0.00    -0.203 F   
ENDBRANCH   7   8
ENDBRANCH   1   7
BRANCH   3  16
ATOM     16  C9  UNL     1       0.878  -0.768  -1.986  1.00  0.00     0.117 C   
BRANCH  16  17
ATOM     17  N2  UNL     1       1.350  -2.160  -1.607  1.00  0.00     0.249 N   
ATOM     18  H8  UNL     1       1.351  -2.785  -2.418  1.00  0.00     0.199 HD  
ATOM     19  H9  UNL     1       0.621  -2.540  -0.981  1.00  0.00     0.199 HD  
BRANCH  17  20
ATOM     20  C10 UNL     1       2.662  -2.250  -0.912  1.00  0.00     0.164 C   
BRANCH  20  21
ATOM     21  C11 UNL     1       2.741  -1.466   0.369  1.00  0.00    -0.002 A   
ATOM     22  C12 UNL     1       1.956  -1.829   1.490  1.00  0.00     0.012 A   
ATOM     23  C16 UNL     1       3.591  -0.350   0.457  1.00  0.00     0.045 A   
ATOM     24  C13 UNL     1       2.012  -1.091   2.678  1.00  0.00     0.037 A   
ATOM     25  C15 UNL     1       3.625   0.352   1.643  1.00  0.00     0.109 A   
ATOM     26  C14 UNL     1       2.860  -0.008   2.723  1.00  0.00     0.108 A   
ATOM     27  O1  UNL     1       4.391   1.447   1.889  1.00  0.00    -0.316 OA  
ATOM     28  O2  UNL     1       3.052   0.810   3.790  1.00  0.00    -0.316 OA  
ATOM     29  C17 UNL     1       4.035   1.727   3.262  1.00  0.00     0.337 C   
ENDBRANCH  20  21
ENDBRANCH  17  20
ENDBRANCH  16  17
BRANCH  16  30
ATOM     30  C18 UNL     1       0.306  -0.813  -3.416  1.00  0.00     0.043 C   
ATOM     31  C19 UNL     1       1.332  -1.208  -4.485  1.00  0.00     0.010 C   
ATOM     32  C22 UNL     1      -0.164   0.552  -3.929  1.00  0.00     0.010 C   
ATOM     33  C20 UNL     1       0.758  -0.690  -5.802  1.00  0.00     0.001 C   
ATOM     34  C21 UNL     1      -0.294   0.351  -5.432  1.00  0.00     0.001 C   
ENDBRANCH  16  30
ENDBRANCH   3  16
TORSDOF 7
