REMARK SMILES COc1ncc(CCn2cc([C@@H]([NH2+]Cc3ccc4c(c3)OCO4)C(C)C)nn2)cc1C
REMARK SMILES IDX 9 1 10 2 11 3 27 4 28 5 8 7 7 8 6 9 3 10 4 11 30 12 5 13
REMARK SMILES IDX 29 14 31 15 2 16 1 17 12 18 13 19 14 22 15 23 16 24 20 25
REMARK SMILES IDX 17 26 19 27 18 28 21 29 23 30 22 31 24 32 25 33 26 34
REMARK H PARENT 10 6 13 20 13 21
ROOT
ATOM     1   N2  UNL     1      -0.961   2.189   3.284  1.00  0.00    -0.212 N   
ATOM     2   C7  UNL     1      -1.154   0.836   3.378  1.00  0.00     0.045 A   
ATOM     3   C8  UNL     1       0.018   0.305   2.885  1.00  0.00     0.127 A   
ATOM     4   N4  UNL     1       0.912   1.320   2.662  1.00  0.00    -0.132 NA  
ATOM     5   N5  UNL     1       0.311   2.467   2.940  1.00  0.00    -0.076 NA  
ATOM     6   H9  UNL     1      -2.116   0.405   3.615  1.00  0.00     0.083 HD  
ENDROOT
BRANCH   1   7
ATOM     7   C6  UNL     1      -1.996   3.196   3.122  1.00  0.00     0.139 C   
BRANCH   7   8
ATOM     8   C5  UNL     1      -2.240   3.555   1.641  1.00  0.00     0.058 C   
BRANCH   8   9
ATOM     9   C4  UNL     1      -2.401   2.334   0.763  1.00  0.00    -0.028 A   
ATOM     10  C2  UNL     1      -2.487  -0.042  -0.586  1.00  0.00     0.169 A   
ATOM     11  N1  UNL     1      -1.285   0.571  -0.486  1.00  0.00    -0.232 NA  
ATOM     12  C22 UNL     1      -3.663   0.413   0.004  1.00  0.00    -0.001 A   
ATOM     13  C3  UNL     1      -1.294   1.784   0.116  1.00  0.00     0.117 A   
ATOM     14  C21 UNL     1      -3.605   1.630   0.691  1.00  0.00     0.013 A   
ATOM     15  C23 UNL     1      -4.952  -0.335  -0.133  1.00  0.00     0.049 C   
BRANCH  10  16
ATOM     16  O1  UNL     1      -2.489  -1.245  -1.252  1.00  0.00    -0.332 OA  
ATOM     17  C1  UNL     1      -2.309  -0.985  -2.649  1.00  0.00     0.205 C   
ENDBRANCH  10  16
ENDBRANCH   8   9
ENDBRANCH   7   8
ENDBRANCH   1   7
BRANCH   3  18
ATOM     18  C9  UNL     1       0.330  -1.088   2.435  1.00  0.00     0.117 C   
BRANCH  18  19
ATOM     19  N3  UNL     1       0.733  -1.037   0.982  1.00  0.00     0.249 N   
ATOM     20  H11 UNL     1       1.523  -0.388   0.891  1.00  0.00     0.199 HD  
ATOM     21  H12 UNL     1      -0.025  -0.557   0.452  1.00  0.00     0.199 HD  
BRANCH  19  22
ATOM     22  C10 UNL     1       1.003  -2.323   0.299  1.00  0.00     0.164 C   
BRANCH  22  23
ATOM     23  C11 UNL     1       1.303  -2.174  -1.167  1.00  0.00    -0.002 A   
ATOM     24  C12 UNL     1       0.588  -2.948  -2.114  1.00  0.00     0.012 A   
ATOM     25  C16 UNL     1       2.329  -1.320  -1.613  1.00  0.00     0.045 A   
ATOM     26  C13 UNL     1       0.871  -2.859  -3.482  1.00  0.00     0.037 A   
ATOM     27  C15 UNL     1       2.580  -1.254  -2.969  1.00  0.00     0.109 A   
ATOM     28  C14 UNL     1       1.871  -2.000  -3.877  1.00  0.00     0.108 A   
ATOM     29  O2  UNL     1       3.527  -0.482  -3.559  1.00  0.00    -0.316 OA  
ATOM     30  O3  UNL     1       2.278  -1.786  -5.154  1.00  0.00    -0.316 OA  
ATOM     31  C17 UNL     1       3.352  -0.845  -4.947  1.00  0.00     0.337 C   
ENDBRANCH  22  23
ENDBRANCH  19  22
ENDBRANCH  18  19
BRANCH  18  32
ATOM     32  C18 UNL     1       1.393  -1.806   3.308  1.00  0.00     0.037 C   
ATOM     33  C19 UNL     1       0.944  -1.898   4.773  1.00  0.00     0.014 C   
ATOM     34  C20 UNL     1       2.796  -1.199   3.239  1.00  0.00     0.014 C   
ENDBRANCH  18  32
ENDBRANCH   3  18
TORSDOF 9
