REMARK SMILES CC(C)C[C@H]([NH2+]Cc1ccc2c(c1)OCO2)c1cn(Cc2ccc3c(c2)ncn3C)nn1
REMARK SMILES IDX 17 1 18 2 19 3 31 4 32 5 5 7 4 8 2 9 1 10 3 11 6 12 7 15
REMARK SMILES IDX 8 16 9 17 13 18 10 19 12 20 11 21 14 22 16 23 15 24 20 25
REMARK SMILES IDX 21 26 22 27 26 28 23 29 25 30 24 31 27 32 29 33 28 34 30 35
REMARK H PARENT 18 6 6 13 6 14
ROOT
ATOM     1   C14 UNL     1      -1.267  -2.503   0.614  1.00  0.00     0.127 A   
ATOM     2   C15 UNL     1      -1.508  -1.609   1.632  1.00  0.00     0.046 A   
ATOM     3   N2  UNL     1      -0.787  -2.111   2.685  1.00  0.00    -0.208 N   
ATOM     4   N5  UNL     1      -0.233  -3.297   2.362  1.00  0.00    -0.076 NA  
ATOM     5   N6  UNL     1      -0.514  -3.543   1.093  1.00  0.00    -0.132 NA  
ATOM     6   H20 UNL     1      -2.002  -0.647   1.677  1.00  0.00     0.083 HD  
ENDROOT
BRANCH   1   7
ATOM     7   C5  UNL     1      -1.560  -2.421  -0.847  1.00  0.00     0.114 C   
BRANCH   7   8
ATOM     8   C4  UNL     1      -2.639  -3.445  -1.251  1.00  0.00     0.064 C   
BRANCH   8   9
ATOM     9   C2  UNL     1      -3.106  -3.401  -2.721  1.00  0.00    -0.012 C   
ATOM     10  C1  UNL     1      -4.167  -4.481  -2.953  1.00  0.00     0.007 C   
ATOM     11  C3  UNL     1      -3.670  -2.036  -3.118  1.00  0.00     0.007 C   
ENDBRANCH   8   9
ENDBRANCH   7   8
BRANCH   7  12
ATOM     12  N1  UNL     1      -0.297  -2.695  -1.630  1.00  0.00     0.249 N   
ATOM     13  H11 UNL     1       0.079  -3.583  -1.266  1.00  0.00     0.199 HD  
ATOM     14  H12 UNL     1      -0.506  -2.837  -2.619  1.00  0.00     0.199 HD  
BRANCH  12  15
ATOM     15  C6  UNL     1       0.792  -1.673  -1.511  1.00  0.00     0.164 C   
BRANCH  15  16
ATOM     16  C7  UNL     1       0.422  -0.348  -2.120  1.00  0.00    -0.002 A   
ATOM     17  C8  UNL     1       0.227  -0.225  -3.518  1.00  0.00     0.012 A   
ATOM     18  C12 UNL     1       0.255   0.780  -1.298  1.00  0.00     0.045 A   
ATOM     19  C9  UNL     1      -0.144   0.998  -4.086  1.00  0.00     0.037 A   
ATOM     20  C11 UNL     1      -0.107   1.972  -1.890  1.00  0.00     0.109 A   
ATOM     21  C10 UNL     1      -0.306   2.076  -3.244  1.00  0.00     0.108 A   
ATOM     22  O1  UNL     1      -0.305   3.150  -1.244  1.00  0.00    -0.316 OA  
ATOM     23  O2  UNL     1      -0.660   3.332  -3.621  1.00  0.00    -0.316 OA  
ATOM     24  C13 UNL     1      -0.632   4.018  -2.353  1.00  0.00     0.337 C   
ENDBRANCH  15  16
ENDBRANCH  12  15
ENDBRANCH   7  12
ENDBRANCH   1   7
BRANCH   3  25
ATOM     25  C16 UNL     1      -0.373  -1.406   3.892  1.00  0.00     0.169 C   
BRANCH  25  26
ATOM     26  C17 UNL     1       0.430  -0.176   3.522  1.00  0.00    -0.026 A   
ATOM     27  C18 UNL     1       0.049   1.093   3.982  1.00  0.00     0.007 A   
ATOM     28  C22 UNL     1       1.547  -0.299   2.669  1.00  0.00     0.035 A   
ATOM     29  C19 UNL     1       0.722   2.255   3.579  1.00  0.00     0.026 A   
ATOM     30  C21 UNL     1       2.194   0.855   2.213  1.00  0.00     0.086 A   
ATOM     31  C20 UNL     1       1.778   2.099   2.674  1.00  0.00     0.059 A   
ATOM     32  N3  UNL     1       3.210   0.974   1.299  1.00  0.00    -0.239 NA  
ATOM     33  N4  UNL     1       2.623   2.980   2.048  1.00  0.00    -0.293 N   
ATOM     34  C23 UNL     1       3.454   2.264   1.231  1.00  0.00     0.189 A   
ATOM     35  C24 UNL     1       2.634   4.412   2.212  1.00  0.00     0.137 C   
ENDBRANCH  25  26
ENDBRANCH   3  25
TORSDOF 8
