REMARK SMILES CC(=O)n1ccc(C(=O)n2cc([C@@H]([NH2+]Cc3ccc4c(c3)OCO4)C(C)(C)C)nn2)c1
REMARK SMILES IDX 10 1 11 2 12 3 29 4 30 5 8 6 9 7 7 8 4 9 5 10 31 11 6 12
REMARK SMILES IDX 2 13 1 14 3 15 13 16 14 17 15 20 16 21 17 22 21 23 18 24
REMARK SMILES IDX 20 25 19 26 22 27 24 28 23 29 25 30 26 31 27 32 28 33
REMARK H PARENT 14 18 14 19
ROOT
ATOM     1   N2  UNL     1       0.740   1.857  -0.552  1.00  0.00    -0.143 N   
ATOM     2   C7  UNL     1       1.089   0.593  -1.004  1.00  0.00     0.139 A   
ATOM     3   C8  UNL     1      -0.098  -0.029  -1.303  1.00  0.00     0.128 A   
ATOM     4   N4  UNL     1      -1.127   0.828  -1.026  1.00  0.00    -0.131 NA  
ATOM     5   N5  UNL     1      -0.615   1.966  -0.588  1.00  0.00    -0.068 NA  
ENDROOT
BRANCH   1   6
ATOM     6   C6  UNL     1       1.579   2.910  -0.139  1.00  0.00     0.272 C   
ATOM     7   O2  UNL     1       2.783   2.680  -0.233  1.00  0.00    -0.269 OA  
BRANCH   6   8
ATOM     8   C5  UNL     1       1.105   4.204   0.373  1.00  0.00     0.055 A   
ATOM     9   N1  UNL     1      -0.167   5.846   1.298  1.00  0.00    -0.254 N   
ATOM     10  C3  UNL     1       1.068   6.387   0.998  1.00  0.00     0.084 A   
ATOM     11  C22 UNL     1      -0.127   4.511   0.919  1.00  0.00     0.096 A   
ATOM     12  C4  UNL     1       1.869   5.407   0.450  1.00  0.00     0.031 A   
BRANCH   9  13
ATOM     13  C2  UNL     1      -1.290   6.477   1.874  1.00  0.00     0.219 C   
ATOM     14  C1  UNL     1      -1.141   7.941   2.154  1.00  0.00     0.112 C   
ATOM     15  O1  UNL     1      -2.300   5.820   2.093  1.00  0.00    -0.277 OA  
ENDBRANCH   9  13
ENDBRANCH   6   8
ENDBRANCH   1   6
BRANCH   3  16
ATOM     16  C9  UNL     1      -0.416  -1.429  -1.748  1.00  0.00     0.120 C   
BRANCH  16  17
ATOM     17  N3  UNL     1      -1.724  -1.841  -1.086  1.00  0.00     0.250 N   
ATOM     18  H8  UNL     1      -2.105  -0.984  -0.649  1.00  0.00     0.199 HD  
ATOM     19  H9  UNL     1      -2.433  -2.101  -1.778  1.00  0.00     0.199 HD  
BRANCH  17  20
ATOM     20  C10 UNL     1      -1.636  -2.904  -0.042  1.00  0.00     0.164 C   
BRANCH  20  21
ATOM     21  C11 UNL     1      -0.756  -2.542   1.123  1.00  0.00    -0.002 A   
ATOM     22  C12 UNL     1       0.430  -3.278   1.364  1.00  0.00     0.012 A   
ATOM     23  C16 UNL     1      -1.078  -1.469   1.970  1.00  0.00     0.045 A   
ATOM     24  C13 UNL     1       1.293  -2.945   2.421  1.00  0.00     0.037 A   
ATOM     25  C15 UNL     1      -0.207  -1.169   3.006  1.00  0.00     0.109 A   
ATOM     26  C14 UNL     1       0.946  -1.883   3.225  1.00  0.00     0.108 A   
ATOM     27  O3  UNL     1      -0.378  -0.169   3.913  1.00  0.00    -0.316 OA  
ATOM     28  O4  UNL     1       1.647  -1.424   4.300  1.00  0.00    -0.316 OA  
ATOM     29  C17 UNL     1       0.773  -0.374   4.772  1.00  0.00     0.337 C   
ENDBRANCH  20  21
ENDBRANCH  17  20
ENDBRANCH  16  17
BRANCH  16  30
ATOM     30  C18 UNL     1      -0.489  -1.624  -3.300  1.00  0.00     0.010 C   
ATOM     31  C19 UNL     1       0.877  -1.289  -3.941  1.00  0.00     0.017 C   
ATOM     32  C20 UNL     1      -1.563  -0.740  -3.966  1.00  0.00     0.017 C   
ATOM     33  C21 UNL     1      -0.787  -3.107  -3.631  1.00  0.00     0.017 C   
ENDBRANCH  16  30
ENDBRANCH   3  16
TORSDOF 8
