REMARK SMILES CC(C)[C@H]([NH2+]Cc1ccc2c(c1)OCO2)c1cn(CCc2cc(F)cc(F)c2O)nn1
REMARK SMILES IDX 16 1 17 2 18 3 30 4 31 5 4 7 2 8 1 9 3 10 5 11 6 14 7 15
REMARK SMILES IDX 8 16 12 17 9 18 11 19 10 20 13 21 15 22 14 23 19 24 20 25
REMARK SMILES IDX 21 26 22 27 28 28 23 29 26 30 25 31 24 32 27 33 29 34
REMARK H PARENT 17 6 5 12 5 13 29 35
ROOT
ATOM     1   C13 UNL     1       0.947   0.849   1.275  1.00  0.00     0.127 A   
ATOM     2   C14 UNL     1       1.732   1.298   0.237  1.00  0.00     0.045 A   
ATOM     3   N2  UNL     1       3.010   1.075   0.670  1.00  0.00    -0.212 N   
ATOM     4   N3  UNL     1       3.015   0.561   1.914  1.00  0.00    -0.076 NA  
ATOM     5   N4  UNL     1       1.756   0.407   2.291  1.00  0.00    -0.132 NA  
ATOM     6   H18 UNL     1       1.514   1.681  -0.750  1.00  0.00     0.083 HD  
ENDROOT
BRANCH   1   7
ATOM     7   C4  UNL     1      -0.536   0.675   1.382  1.00  0.00     0.117 C   
BRANCH   7   8
ATOM     8   C2  UNL     1      -1.272   1.868   2.041  1.00  0.00     0.037 C   
ATOM     9   C1  UNL     1      -1.157   3.135   1.184  1.00  0.00     0.014 C   
ATOM     10  C3  UNL     1      -0.828   2.176   3.475  1.00  0.00     0.014 C   
ENDBRANCH   7   8
BRANCH   7  11
ATOM     11  N1  UNL     1      -0.790  -0.609   2.142  1.00  0.00     0.249 N   
ATOM     12  H9  UNL     1      -0.140  -1.306   1.752  1.00  0.00     0.199 HD  
ATOM     13  H10 UNL     1      -0.449  -0.479   3.102  1.00  0.00     0.199 HD  
BRANCH  11  14
ATOM     14  C5  UNL     1      -2.154  -1.192   2.132  1.00  0.00     0.164 C   
BRANCH  14  15
ATOM     15  C6  UNL     1      -2.635  -1.536   0.752  1.00  0.00    -0.002 A   
ATOM     16  C7  UNL     1      -3.633  -0.750   0.128  1.00  0.00     0.012 A   
ATOM     17  C11 UNL     1      -2.069  -2.616   0.053  1.00  0.00     0.045 A   
ATOM     18  C8  UNL     1      -4.058  -1.026  -1.176  1.00  0.00     0.037 A   
ATOM     19  C10 UNL     1      -2.510  -2.860  -1.231  1.00  0.00     0.109 A   
ATOM     20  C9  UNL     1      -3.474  -2.086  -1.830  1.00  0.00     0.108 A   
ATOM     21  O1  UNL     1      -2.061  -3.852  -2.046  1.00  0.00    -0.316 OA  
ATOM     22  O2  UNL     1      -3.755  -2.492  -3.095  1.00  0.00    -0.316 OA  
ATOM     23  C12 UNL     1      -2.887  -3.641  -3.214  1.00  0.00     0.337 C   
ENDBRANCH  14  15
ENDBRANCH  11  14
ENDBRANCH   7  11
ENDBRANCH   1   7
BRANCH   3  24
ATOM     24  C15 UNL     1       4.234   1.150  -0.104  1.00  0.00     0.139 C   
BRANCH  24  25
ATOM     25  C16 UNL     1       4.786  -0.235  -0.459  1.00  0.00     0.060 C   
BRANCH  25  26
ATOM     26  C17 UNL     1       3.792  -1.081  -1.224  1.00  0.00    -0.010 A   
ATOM     27  C18 UNL     1       3.040  -2.058  -0.554  1.00  0.00     0.046 A   
ATOM     28  C22 UNL     1       3.537  -0.869  -2.583  1.00  0.00     0.111 A   
ATOM     29  C19 UNL     1       2.051  -2.774  -1.233  1.00  0.00     0.126 A   
ATOM     30  C21 UNL     1       2.565  -1.616  -3.253  1.00  0.00     0.156 A   
ATOM     31  C20 UNL     1       1.809  -2.568  -2.584  1.00  0.00     0.081 A   
ATOM     32  F1  UNL     1       1.295  -3.646  -0.552  1.00  0.00    -0.207 F   
ATOM     33  F2  UNL     1       2.337  -1.382  -4.553  1.00  0.00    -0.204 F   
BRANCH  28  34
ATOM     34  O3  UNL     1       4.227   0.108  -3.241  1.00  0.00    -0.358 OA  
ATOM     35  H25 UNL     1       4.048   0.011  -4.197  1.00  0.00     0.218 HD  
ENDBRANCH  28  34
ENDBRANCH  25  26
ENDBRANCH  24  25
ENDBRANCH   3  24
TORSDOF 9
