REMARK SMILES Cc1nn(C)c(C)c1Cn1cc([C@H](CC(C)C)[NH2+]Cc2ccc3c(c2)OCO3)nn1
REMARK SMILES IDX 10 1 11 2 12 3 29 4 30 5 9 7 8 8 2 9 3 10 4 11 6 12 1 13
REMARK SMILES IDX 5 14 7 15 13 16 14 17 15 18 16 19 17 20 18 21 19 24 20 25
REMARK SMILES IDX 21 26 25 27 22 28 24 29 23 30 26 31 28 32 27 33
REMARK H PARENT 11 6 18 22 18 23
ROOT
ATOM     1   N3  UNL     1       2.873   0.909   0.255  1.00  0.00    -0.208 N   
ATOM     2   C8  UNL     1       1.683   1.518   0.547  1.00  0.00     0.046 A   
ATOM     3   C9  UNL     1       1.373   1.053   1.806  1.00  0.00     0.127 A   
ATOM     4   N5  UNL     1       2.392   0.257   2.257  1.00  0.00    -0.132 NA  
ATOM     5   N6  UNL     1       3.303   0.174   1.300  1.00  0.00    -0.076 NA  
ATOM     6   H12 UNL     1       1.156   2.138  -0.164  1.00  0.00     0.083 HD  
ENDROOT
BRANCH   1   7
ATOM     7   C7  UNL     1       3.578   0.894  -1.018  1.00  0.00     0.173 C   
BRANCH   7   8
ATOM     8   C6  UNL     1       2.896  -0.050  -1.953  1.00  0.00     0.013 A   
ATOM     9   C2  UNL     1       1.885   0.255  -2.909  1.00  0.00     0.062 A   
ATOM     10  N1  UNL     1       1.433  -0.846  -3.513  1.00  0.00    -0.187 NA  
ATOM     11  N2  UNL     1       2.212  -1.834  -3.048  1.00  0.00    -0.232 N   
ATOM     12  C4  UNL     1       3.087  -1.420  -2.077  1.00  0.00     0.031 A   
ATOM     13  C1  UNL     1       1.289   1.570  -3.257  1.00  0.00     0.069 C   
ATOM     14  C3  UNL     1       2.049  -3.172  -3.570  1.00  0.00     0.159 C   
ATOM     15  C5  UNL     1       4.010  -2.352  -1.376  1.00  0.00     0.064 C   
ENDBRANCH   7   8
ENDBRANCH   1   7
BRANCH   3  16
ATOM     16  C10 UNL     1       0.128   1.202   2.609  1.00  0.00     0.114 C   
BRANCH  16  17
ATOM     17  C11 UNL     1       0.299   2.158   3.805  1.00  0.00     0.064 C   
BRANCH  17  18
ATOM     18  C12 UNL     1       0.627   3.620   3.432  1.00  0.00    -0.012 C   
ATOM     19  C13 UNL     1       0.843   4.441   4.707  1.00  0.00     0.007 C   
ATOM     20  C14 UNL     1      -0.470   4.266   2.584  1.00  0.00     0.007 C   
ENDBRANCH  17  18
ENDBRANCH  16  17
BRANCH  16  21
ATOM     21  N4  UNL     1      -0.309  -0.137   3.178  1.00  0.00     0.249 N   
ATOM     22  H23 UNL     1       0.443  -0.449   3.807  1.00  0.00     0.199 HD  
ATOM     23  H24 UNL     1      -1.151  -0.008   3.746  1.00  0.00     0.199 HD  
BRANCH  21  24
ATOM     24  C15 UNL     1      -0.539  -1.247   2.199  1.00  0.00     0.164 C   
BRANCH  24  25
ATOM     25  C16 UNL     1      -1.489  -0.903   1.087  1.00  0.00    -0.002 A   
ATOM     26  C17 UNL     1      -1.025  -0.859  -0.251  1.00  0.00     0.012 A   
ATOM     27  C21 UNL     1      -2.837  -0.610   1.358  1.00  0.00     0.045 A   
ATOM     28  C18 UNL     1      -1.880  -0.512  -1.302  1.00  0.00     0.037 A   
ATOM     29  C20 UNL     1      -3.652  -0.270   0.299  1.00  0.00     0.109 A   
ATOM     30  C19 UNL     1      -3.189  -0.220  -0.993  1.00  0.00     0.108 A   
ATOM     31  O1  UNL     1      -4.970   0.051   0.391  1.00  0.00    -0.316 OA  
ATOM     32  O2  UNL     1      -4.156   0.139  -1.877  1.00  0.00    -0.316 OA  
ATOM     33  C22 UNL     1      -5.294   0.278  -1.001  1.00  0.00     0.337 C   
ENDBRANCH  24  25
ENDBRANCH  21  24
ENDBRANCH  16  21
ENDBRANCH   3  16
TORSDOF 8
