REMARK SMILES CC(C)[C@H]([NH2+]Cc1ccc2c(c1)OCO2)c1cn(Cc2cc(C(F)(F)F)on2)nn1
REMARK SMILES IDX 16 1 17 2 18 3 29 4 30 5 4 7 2 8 1 9 3 10 5 11 6 14 7 15
REMARK SMILES IDX 8 16 12 17 9 18 11 19 10 20 13 21 15 22 14 23 19 24 20 25
REMARK SMILES IDX 21 26 28 27 22 28 27 29 23 30 24 31 25 32 26 33
REMARK H PARENT 17 6 5 12 5 13
ROOT
ATOM     1   C13 UNL     1      -1.378   0.494  -0.875  1.00  0.00     0.127 A   
ATOM     2   C14 UNL     1      -0.401   1.433  -0.634  1.00  0.00     0.046 A   
ATOM     3   N2  UNL     1      -0.531   1.709   0.700  1.00  0.00    -0.206 N   
ATOM     4   N4  UNL     1      -1.551   1.011   1.239  1.00  0.00    -0.076 NA  
ATOM     5   N5  UNL     1      -2.080   0.266   0.283  1.00  0.00    -0.132 NA  
ATOM     6   H18 UNL     1       0.369   1.885  -1.245  1.00  0.00     0.083 HD  
ENDROOT
BRANCH   1   7
ATOM     7   C4  UNL     1      -1.717  -0.285  -2.105  1.00  0.00     0.117 C   
BRANCH   7   8
ATOM     8   C2  UNL     1      -2.664   0.494  -3.053  1.00  0.00     0.037 C   
ATOM     9   C1  UNL     1      -2.784  -0.192  -4.420  1.00  0.00     0.014 C   
ATOM     10  C3  UNL     1      -4.060   0.751  -2.476  1.00  0.00     0.014 C   
ENDBRANCH   7   8
BRANCH   7  11
ATOM     11  N1  UNL     1      -2.319  -1.618  -1.724  1.00  0.00     0.249 N   
ATOM     12  H9  UNL     1      -3.095  -1.866  -2.343  1.00  0.00     0.199 HD  
ATOM     13  H10 UNL     1      -2.735  -1.482  -0.789  1.00  0.00     0.199 HD  
BRANCH  11  14
ATOM     14  C5  UNL     1      -1.373  -2.771  -1.648  1.00  0.00     0.164 C   
BRANCH  14  15
ATOM     15  C6  UNL     1      -0.362  -2.661  -0.542  1.00  0.00    -0.002 A   
ATOM     16  C7  UNL     1       0.963  -2.243  -0.816  1.00  0.00     0.012 A   
ATOM     17  C11 UNL     1      -0.736  -2.947   0.784  1.00  0.00     0.045 A   
ATOM     18  C8  UNL     1       1.902  -2.105   0.212  1.00  0.00     0.037 A   
ATOM     19  C10 UNL     1       0.217  -2.814   1.773  1.00  0.00     0.109 A   
ATOM     20  C9  UNL     1       1.498  -2.401   1.495  1.00  0.00     0.108 A   
ATOM     21  O1  UNL     1       0.027  -3.066   3.095  1.00  0.00    -0.316 OA  
ATOM     22  O2  UNL     1       2.271  -2.336   2.610  1.00  0.00    -0.316 OA  
ATOM     23  C12 UNL     1       1.354  -2.826   3.612  1.00  0.00     0.337 C   
ENDBRANCH  14  15
ENDBRANCH  11  14
ENDBRANCH   7  11
ENDBRANCH   1   7
BRANCH   3  24
ATOM     24  C15 UNL     1       0.263   2.613   1.512  1.00  0.00     0.192 C   
BRANCH  24  25
ATOM     25  C16 UNL     1       1.557   1.975   1.864  1.00  0.00     0.090 A   
ATOM     26  C17 UNL     1       1.891   1.237   3.023  1.00  0.00     0.069 A   
ATOM     27  N3  UNL     1       2.604   2.061   1.030  1.00  0.00    -0.132 NA  
ATOM     28  C18 UNL     1       3.211   0.891   2.842  1.00  0.00     0.190 A   
ATOM     29  O3  UNL     1       3.640   1.385   1.649  1.00  0.00    -0.208 OA  
BRANCH  28  30
ATOM     30  C19 UNL     1       4.200   0.142   3.641  1.00  0.00     0.440 C   
ATOM     31  F1  UNL     1       5.068   0.976   4.270  1.00  0.00    -0.164 F   
ATOM     32  F2  UNL     1       3.596  -0.598   4.612  1.00  0.00    -0.164 F   
ATOM     33  F3  UNL     1       4.937  -0.718   2.894  1.00  0.00    -0.164 F   
ENDBRANCH  28  30
ENDBRANCH  24  25
ENDBRANCH   3  24
TORSDOF 8
