REMARK SMILES CC(C)(C)[C@H]([NH2+]Cc1ccc2c(c1)OCO2)c1cn(Cc2ccc(F)nc2)nn1
REMARK SMILES IDX 17 1 18 2 19 3 28 4 29 5 5 7 2 8 1 9 3 10 4 11 6 12 7 15
REMARK SMILES IDX 8 16 9 17 13 18 10 19 12 20 11 21 14 22 16 23 15 24 20 25
REMARK SMILES IDX 21 26 22 27 27 28 23 29 26 30 24 31 25 32
REMARK H PARENT 18 6 6 13 6 14
ROOT
ATOM     1   C14 UNL     1      -0.656   1.708  -0.338  1.00  0.00     0.127 A   
ATOM     2   C15 UNL     1       0.629   1.694  -0.834  1.00  0.00     0.046 A   
ATOM     3   N2  UNL     1       1.360   2.337   0.127  1.00  0.00    -0.208 N   
ATOM     4   N4  UNL     1       0.577   2.716   1.155  1.00  0.00    -0.076 NA  
ATOM     5   N5  UNL     1      -0.659   2.331   0.885  1.00  0.00    -0.132 NA  
ATOM     6   H20 UNL     1       1.074   1.296  -1.735  1.00  0.00     0.083 HD  
ENDROOT
BRANCH   1   7
ATOM     7   C5  UNL     1      -1.934   1.117  -0.858  1.00  0.00     0.120 C   
BRANCH   7   8
ATOM     8   C2  UNL     1      -2.796   2.104  -1.720  1.00  0.00     0.010 C   
ATOM     9   C1  UNL     1      -4.029   1.369  -2.294  1.00  0.00     0.017 C   
ATOM     10  C3  UNL     1      -3.282   3.330  -0.922  1.00  0.00     0.017 C   
ATOM     11  C4  UNL     1      -1.974   2.609  -2.928  1.00  0.00     0.017 C   
ENDBRANCH   7   8
BRANCH   7  12
ATOM     12  N1  UNL     1      -2.734   0.608   0.329  1.00  0.00     0.250 N   
ATOM     13  H11 UNL     1      -3.718   0.880   0.266  1.00  0.00     0.199 HD  
ATOM     14  H12 UNL     1      -2.368   1.115   1.151  1.00  0.00     0.199 HD  
BRANCH  12  15
ATOM     15  C6  UNL     1      -2.650  -0.853   0.607  1.00  0.00     0.164 C   
BRANCH  15  16
ATOM     16  C7  UNL     1      -1.266  -1.335   0.937  1.00  0.00    -0.002 A   
ATOM     17  C8  UNL     1      -0.659  -0.989   2.168  1.00  0.00     0.012 A   
ATOM     18  C12 UNL     1      -0.552  -2.118   0.013  1.00  0.00     0.045 A   
ATOM     19  C9  UNL     1       0.637  -1.416   2.478  1.00  0.00     0.037 A   
ATOM     20  C11 UNL     1       0.724  -2.521   0.348  1.00  0.00     0.109 A   
ATOM     21  C10 UNL     1       1.300  -2.183   1.547  1.00  0.00     0.108 A   
ATOM     22  O1  UNL     1       1.543  -3.276  -0.429  1.00  0.00    -0.316 OA  
ATOM     23  O2  UNL     1       2.551  -2.694   1.683  1.00  0.00    -0.316 OA  
ATOM     24  C13 UNL     1       2.701  -3.399   0.431  1.00  0.00     0.337 C   
ENDBRANCH  15  16
ENDBRANCH  12  15
ENDBRANCH   7  12
ENDBRANCH   1   7
BRANCH   3  25
ATOM     25  C16 UNL     1       2.777   2.656   0.117  1.00  0.00     0.171 C   
BRANCH  25  26
ATOM     26  C17 UNL     1       3.599   1.499   0.606  1.00  0.00    -0.010 A   
ATOM     27  C18 UNL     1       3.813   1.277   1.970  1.00  0.00     0.012 A   
ATOM     28  C21 UNL     1       4.163   0.592  -0.287  1.00  0.00     0.119 A   
ATOM     29  C19 UNL     1       4.579   0.188   2.377  1.00  0.00     0.061 A   
ATOM     30  N3  UNL     1       4.897  -0.478   0.081  1.00  0.00    -0.228 NA  
ATOM     31  C20 UNL     1       5.095  -0.649   1.405  1.00  0.00     0.212 A   
ATOM     32  F1  UNL     1       5.820  -1.709   1.788  1.00  0.00    -0.185 F   
ENDBRANCH  25  26
ENDBRANCH   3  25
TORSDOF 7
