REMARK SMILES Cc1n[nH]c(C2CC2)c1Cn1cc([C@@H]([NH2+]Cc2ccc3c(c2)OCO3)C2CCCC2)nn1
REMARK SMILES IDX 11 1 12 2 13 3 31 4 32 5 10 7 9 8 2 9 3 10 4 11 5 12 1 13
REMARK SMILES IDX 6 15 7 16 8 17 14 18 15 19 16 22 17 23 18 24 22 25 19 26
REMARK SMILES IDX 21 27 20 28 23 29 25 30 24 31 26 32 27 33 30 34 28 35 29 36
REMARK H PARENT 12 6 4 14 15 20 15 21
ROOT
ATOM     1   N3  UNL     1       0.742  -2.010  -0.409  1.00  0.00    -0.208 N   
ATOM     2   C9  UNL     1       1.572  -0.927  -0.533  1.00  0.00     0.046 A   
ATOM     3   C10 UNL     1       1.319  -0.185   0.598  1.00  0.00     0.127 A   
ATOM     4   N5  UNL     1       0.381  -0.830   1.363  1.00  0.00    -0.132 NA  
ATOM     5   N6  UNL     1       0.046  -1.950   0.746  1.00  0.00    -0.076 NA  
ATOM     6   H12 UNL     1       2.213  -0.785  -1.390  1.00  0.00     0.083 HD  
ENDROOT
BRANCH   1   7
ATOM     7   C8  UNL     1       0.591  -3.136  -1.317  1.00  0.00     0.173 C   
BRANCH   7   8
ATOM     8   C7  UNL     1      -0.261  -2.763  -2.476  1.00  0.00     0.013 A   
ATOM     9   C2  UNL     1       0.157  -2.422  -3.796  1.00  0.00     0.062 A   
ATOM     10  N1  UNL     1      -0.878  -2.104  -4.582  1.00  0.00    -0.189 NA  
ATOM     11  N2  UNL     1      -1.954  -2.272  -3.798  1.00  0.00    -0.242 N   
ATOM     12  C3  UNL     1      -1.636  -2.669  -2.535  1.00  0.00     0.035 A   
ATOM     13  C1  UNL     1       1.536  -2.380  -4.347  1.00  0.00     0.069 C   
ATOM     14  H4  UNL     1      -2.874  -2.086  -4.184  1.00  0.00     0.175 HD  
BRANCH  12  15
ATOM     15  C4  UNL     1      -2.638  -2.924  -1.387  1.00  0.00     0.036 C   
ATOM     16  C5  UNL     1      -3.917  -3.666  -1.671  1.00  0.00     0.010 C   
ATOM     17  C6  UNL     1      -2.824  -4.332  -0.888  1.00  0.00     0.010 C   
ENDBRANCH  12  15
ENDBRANCH   7   8
ENDBRANCH   1   7
BRANCH   3  18
ATOM     18  C11 UNL     1       1.838   1.140   1.052  1.00  0.00     0.117 C   
BRANCH  18  19
ATOM     19  N4  UNL     1       0.737   1.896   1.762  1.00  0.00     0.249 N   
ATOM     20  H14 UNL     1       0.060   1.180   2.072  1.00  0.00     0.199 HD  
ATOM     21  H15 UNL     1       1.086   2.333   2.620  1.00  0.00     0.199 HD  
BRANCH  19  22
ATOM     22  C12 UNL     1       0.009   2.915   0.958  1.00  0.00     0.164 C   
BRANCH  22  23
ATOM     23  C13 UNL     1      -0.704   2.361  -0.242  1.00  0.00    -0.002 A   
ATOM     24  C14 UNL     1      -1.887   1.599  -0.089  1.00  0.00     0.012 A   
ATOM     25  C18 UNL     1      -0.188   2.579  -1.532  1.00  0.00     0.045 A   
ATOM     26  C15 UNL     1      -2.550   1.067  -1.201  1.00  0.00     0.037 A   
ATOM     27  C17 UNL     1      -0.862   2.034  -2.605  1.00  0.00     0.109 A   
ATOM     28  C16 UNL     1      -2.012   1.302  -2.446  1.00  0.00     0.108 A   
ATOM     29  O1  UNL     1      -0.494   2.151  -3.906  1.00  0.00    -0.316 OA  
ATOM     30  O2  UNL     1      -2.522   0.872  -3.630  1.00  0.00    -0.316 OA  
ATOM     31  C19 UNL     1      -1.557   1.418  -4.558  1.00  0.00     0.337 C   
ENDBRANCH  22  23
ENDBRANCH  19  22
ENDBRANCH  18  19
BRANCH  18  32
ATOM     32  C20 UNL     1       3.068   0.991   1.971  1.00  0.00     0.043 C   
ATOM     33  C21 UNL     1       3.731   2.330   2.352  1.00  0.00     0.010 C   
ATOM     34  C24 UNL     1       2.825   0.267   3.305  1.00  0.00     0.010 C   
ATOM     35  C22 UNL     1       3.953   2.283   3.861  1.00  0.00     0.001 C   
ATOM     36  C23 UNL     1       3.924   0.804   4.208  1.00  0.00     0.001 C   
ENDBRANCH  18  32
ENDBRANCH   3  18
TORSDOF 8
