REMARK SMILES OC[C@H](c1ccc(F)cn1)n1cc([C@@H]([NH2+]Cc2ccc3c(c2)OCO3)C2CCCC2)nn1
REMARK SMILES IDX 11 1 12 2 13 3 31 4 32 5 3 7 2 8 1 9 4 11 5 12 10 13 6 14
REMARK SMILES IDX 9 15 7 16 8 17 14 18 15 19 16 22 17 23 18 24 22 25 19 26
REMARK SMILES IDX 21 27 20 28 23 29 25 30 24 31 26 32 27 33 30 34 28 35 29 36
REMARK H PARENT 12 6 1 10 15 20 15 21
ROOT
ATOM     1   N2  UNL     1      -1.788  -2.376   2.387  1.00  0.00    -0.201 N   
ATOM     2   C8  UNL     1      -0.508  -2.358   1.896  1.00  0.00     0.046 A   
ATOM     3   C9  UNL     1      -0.348  -1.081   1.409  1.00  0.00     0.127 A   
ATOM     4   N4  UNL     1      -1.513  -0.383   1.593  1.00  0.00    -0.132 NA  
ATOM     5   N5  UNL     1      -2.393  -1.189   2.161  1.00  0.00    -0.075 NA  
ATOM     6   H8  UNL     1       0.136  -3.227   1.935  1.00  0.00     0.083 HD  
ENDROOT
BRANCH   1   7
ATOM     7   C2  UNL     1      -2.529  -3.474   2.999  1.00  0.00     0.174 C   
BRANCH   7   8
ATOM     8   C1  UNL     1      -1.783  -4.102   4.188  1.00  0.00     0.187 C   
BRANCH   8   9
ATOM     9   O1  UNL     1      -1.693  -3.178   5.273  1.00  0.00    -0.394 OA  
ATOM     10  H1  UNL     1      -1.334  -3.664   6.039  1.00  0.00     0.210 HD  
ENDBRANCH   8   9
ENDBRANCH   7   8
BRANCH   7  11
ATOM     11  C3  UNL     1      -2.854  -4.506   1.934  1.00  0.00     0.065 A   
ATOM     12  C4  UNL     1      -4.105  -4.503   1.308  1.00  0.00     0.029 A   
ATOM     13  N1  UNL     1      -1.879  -5.396   1.600  1.00  0.00    -0.256 NA  
ATOM     14  C5  UNL     1      -4.373  -5.455   0.325  1.00  0.00     0.043 A   
ATOM     15  C7  UNL     1      -2.174  -6.315   0.645  1.00  0.00     0.150 A   
ATOM     16  C6  UNL     1      -3.391  -6.374  -0.007  1.00  0.00     0.141 A   
ATOM     17  F1  UNL     1      -3.617  -7.299  -0.947  1.00  0.00    -0.205 F   
ENDBRANCH   7  11
ENDBRANCH   1   7
BRANCH   3  18
ATOM     18  C10 UNL     1       0.810  -0.420   0.732  1.00  0.00     0.117 C   
BRANCH  18  19
ATOM     19  N3  UNL     1       0.341   0.795  -0.020  1.00  0.00     0.249 N   
ATOM     20  H10 UNL     1       1.087   1.479  -0.175  1.00  0.00     0.199 HD  
ATOM     21  H11 UNL     1      -0.354   1.262   0.583  1.00  0.00     0.199 HD  
BRANCH  19  22
ATOM     22  C11 UNL     1      -0.339   0.514  -1.315  1.00  0.00     0.164 C   
BRANCH  22  23
ATOM     23  C12 UNL     1      -0.881   1.784  -1.907  1.00  0.00    -0.002 A   
ATOM     24  C13 UNL     1      -2.151   2.266  -1.505  1.00  0.00     0.012 A   
ATOM     25  C17 UNL     1      -0.112   2.530  -2.815  1.00  0.00     0.045 A   
ATOM     26  C14 UNL     1      -2.652   3.472  -2.009  1.00  0.00     0.037 A   
ATOM     27  C16 UNL     1      -0.638   3.713  -3.293  1.00  0.00     0.109 A   
ATOM     28  C15 UNL     1      -1.871   4.172  -2.901  1.00  0.00     0.108 A   
ATOM     29  O2  UNL     1      -0.030   4.548  -4.176  1.00  0.00    -0.316 OA  
ATOM     30  O3  UNL     1      -2.195   5.354  -3.486  1.00  0.00    -0.316 OA  
ATOM     31  C18 UNL     1      -1.038   5.575  -4.320  1.00  0.00     0.337 C   
ENDBRANCH  22  23
ENDBRANCH  19  22
ENDBRANCH  18  19
BRANCH  18  32
ATOM     32  C19 UNL     1       1.922  -0.048   1.733  1.00  0.00     0.043 C   
ATOM     33  C20 UNL     1       1.587   1.056   2.747  1.00  0.00     0.010 C   
ATOM     34  C23 UNL     1       3.227   0.431   1.092  1.00  0.00     0.010 C   
ATOM     35  C21 UNL     1       2.920   1.725   3.095  1.00  0.00     0.001 C   
ATOM     36  C22 UNL     1       3.987   1.005   2.279  1.00  0.00     0.001 C   
ENDBRANCH  18  32
ENDBRANCH   3  18
TORSDOF 9
