REMARK SMILES OC[C@@H](c1ccc(F)cn1)n1cc([C@@H]([NH2+]Cc2ccc3c(c2)OCO3)C2CCCC2)nn1
REMARK SMILES IDX 11 1 12 2 13 3 31 4 32 5 3 7 2 8 1 9 4 11 5 12 10 13 6 14
REMARK SMILES IDX 9 15 7 16 8 17 14 18 15 19 16 22 17 23 18 24 22 25 19 26
REMARK SMILES IDX 21 27 20 28 23 29 25 30 24 31 26 32 27 33 30 34 28 35 29 36
REMARK H PARENT 12 6 1 10 15 20 15 21
ROOT
ATOM     1   N2  UNL     1       3.005  -1.362  -0.741  1.00  0.00    -0.201 N   
ATOM     2   C8  UNL     1       2.120  -2.366  -0.454  1.00  0.00     0.046 A   
ATOM     3   C9  UNL     1       1.043  -1.726   0.119  1.00  0.00     0.127 A   
ATOM     4   N4  UNL     1       1.302  -0.377   0.169  1.00  0.00    -0.132 NA  
ATOM     5   N5  UNL     1       2.503  -0.167  -0.343  1.00  0.00    -0.075 NA  
ATOM     6   H8  UNL     1       2.318  -3.405  -0.692  1.00  0.00     0.083 HD  
ENDROOT
BRANCH   1   7
ATOM     7   C2  UNL     1       4.303  -1.409  -1.404  1.00  0.00     0.174 C   
BRANCH   7   8
ATOM     8   C1  UNL     1       5.160  -2.636  -1.031  1.00  0.00     0.187 C   
BRANCH   8   9
ATOM     9   O1  UNL     1       4.613  -3.882  -1.468  1.00  0.00    -0.394 OA  
ATOM     10  H1  UNL     1       4.517  -3.816  -2.448  1.00  0.00     0.210 HD  
ENDBRANCH   8   9
ENDBRANCH   7   8
BRANCH   7  11
ATOM     11  C3  UNL     1       4.120  -1.231  -2.907  1.00  0.00     0.065 A   
ATOM     12  C4  UNL     1       4.029   0.061  -3.445  1.00  0.00     0.029 A   
ATOM     13  N1  UNL     1       4.012  -2.353  -3.685  1.00  0.00    -0.256 NA  
ATOM     14  C5  UNL     1       3.843   0.217  -4.820  1.00  0.00     0.043 A   
ATOM     15  C7  UNL     1       3.828  -2.164  -5.022  1.00  0.00     0.150 A   
ATOM     16  C6  UNL     1       3.741  -0.914  -5.616  1.00  0.00     0.141 A   
ATOM     17  F1  UNL     1       3.549  -0.795  -6.937  1.00  0.00    -0.205 F   
ENDBRANCH   7  11
ENDBRANCH   1   7
BRANCH   3  18
ATOM     18  C10 UNL     1      -0.274  -2.247   0.620  1.00  0.00     0.117 C   
BRANCH  18  19
ATOM     19  N3  UNL     1      -1.233  -1.096   0.805  1.00  0.00     0.249 N   
ATOM     20  H10 UNL     1      -0.932  -0.361   0.146  1.00  0.00     0.199 HD  
ATOM     21  H11 UNL     1      -2.198  -1.323   0.542  1.00  0.00     0.199 HD  
BRANCH  19  22
ATOM     22  C11 UNL     1      -1.221  -0.481   2.163  1.00  0.00     0.164 C   
BRANCH  22  23
ATOM     23  C12 UNL     1      -1.966   0.826   2.153  1.00  0.00    -0.002 A   
ATOM     24  C13 UNL     1      -1.291   2.019   1.798  1.00  0.00     0.012 A   
ATOM     25  C17 UNL     1      -3.344   0.865   2.432  1.00  0.00     0.045 A   
ATOM     26  C14 UNL     1      -1.976   3.238   1.732  1.00  0.00     0.037 A   
ATOM     27  C16 UNL     1      -3.988   2.083   2.354  1.00  0.00     0.109 A   
ATOM     28  C15 UNL     1      -3.324   3.236   2.015  1.00  0.00     0.108 A   
ATOM     29  O2  UNL     1      -5.312   2.295   2.583  1.00  0.00    -0.316 OA  
ATOM     30  O3  UNL     1      -4.146   4.319   1.990  1.00  0.00    -0.316 OA  
ATOM     31  C18 UNL     1      -5.407   3.720   2.359  1.00  0.00     0.337 C   
ENDBRANCH  22  23
ENDBRANCH  19  22
ENDBRANCH  18  19
BRANCH  18  32
ATOM     32  C19 UNL     1      -0.890  -3.317  -0.305  1.00  0.00     0.043 C   
ATOM     33  C20 UNL     1      -2.135  -4.012   0.262  1.00  0.00     0.010 C   
ATOM     34  C23 UNL     1      -1.311  -2.838  -1.708  1.00  0.00     0.010 C   
ATOM     35  C21 UNL     1      -2.749  -4.654  -0.974  1.00  0.00     0.001 C   
ATOM     36  C22 UNL     1      -2.617  -3.564  -2.029  1.00  0.00     0.001 C   
ENDBRANCH  18  32
ENDBRANCH   3  18
TORSDOF 9
