REMARK SMILES CC(=O)c1cccc(Cn2cc([C@H](CC(C)C)[NH2+]Cc3ccc4c(c3)OCO4)nn2)c1
REMARK SMILES IDX 10 1 11 2 12 3 29 4 30 5 9 7 8 8 4 9 5 10 31 11 6 12 7 13
REMARK SMILES IDX 2 14 1 15 3 16 13 17 14 18 15 19 16 20 17 21 18 22 19 25
REMARK SMILES IDX 20 26 21 27 25 28 22 29 24 30 23 31 26 32 28 33 27 34
REMARK H PARENT 11 6 18 23 18 24
ROOT
ATOM     1   N1  UNL     1       2.489   1.069  -0.739  1.00  0.00    -0.208 N   
ATOM     2   C9  UNL     1       1.788  -0.091  -0.476  1.00  0.00     0.046 A   
ATOM     3   C10 UNL     1       0.916  -0.182  -1.544  1.00  0.00     0.127 A   
ATOM     4   N3  UNL     1       1.232   0.782  -2.471  1.00  0.00    -0.132 NA  
ATOM     5   N4  UNL     1       2.215   1.519  -1.981  1.00  0.00    -0.076 NA  
ATOM     6   H9  UNL     1       1.851  -0.598   0.482  1.00  0.00     0.083 HD  
ENDROOT
BRANCH   1   7
ATOM     7   C8  UNL     1       3.050   1.988   0.255  1.00  0.00     0.169 C   
BRANCH   7   8
ATOM     8   C7  UNL     1       1.973   2.759   1.012  1.00  0.00    -0.028 A   
ATOM     9   C3  UNL     1      -0.397   3.280   1.434  1.00  0.00     0.018 A   
ATOM     10  C4  UNL     1      -0.031   4.085   2.517  1.00  0.00     0.012 A   
ATOM     11  C24 UNL     1       0.607   2.679   0.667  1.00  0.00     0.017 A   
ATOM     12  C5  UNL     1       1.328   4.239   2.837  1.00  0.00     0.001 A   
ATOM     13  C6  UNL     1       2.321   3.571   2.106  1.00  0.00     0.005 A   
BRANCH   9  14
ATOM     14  C2  UNL     1      -1.805   2.947   1.055  1.00  0.00     0.159 C   
ATOM     15  C1  UNL     1      -2.926   3.754   1.655  1.00  0.00     0.093 C   
ATOM     16  O1  UNL     1      -2.017   2.003   0.278  1.00  0.00    -0.295 OA  
ENDBRANCH   9  14
ENDBRANCH   7   8
ENDBRANCH   1   7
BRANCH   3  17
ATOM     17  C11 UNL     1      -0.335  -0.987  -1.724  1.00  0.00     0.114 C   
BRANCH  17  18
ATOM     18  C12 UNL     1      -0.363  -1.705  -3.092  1.00  0.00     0.064 C   
BRANCH  18  19
ATOM     19  C13 UNL     1       0.750  -2.759  -3.290  1.00  0.00    -0.012 C   
ATOM     20  C14 UNL     1       0.711  -3.851  -2.217  1.00  0.00     0.007 C   
ATOM     21  C15 UNL     1       0.630  -3.394  -4.680  1.00  0.00     0.007 C   
ENDBRANCH  18  19
ENDBRANCH  17  18
BRANCH  17  22
ATOM     22  N2  UNL     1      -1.509  -0.030  -1.619  1.00  0.00     0.249 N   
ATOM     23  H20 UNL     1      -1.382   0.702  -2.332  1.00  0.00     0.199 HD  
ATOM     24  H21 UNL     1      -1.450   0.502  -0.729  1.00  0.00     0.199 HD  
BRANCH  22  25
ATOM     25  C16 UNL     1      -2.891  -0.560  -1.690  1.00  0.00     0.164 C   
BRANCH  25  26
ATOM     26  C17 UNL     1      -3.194  -1.624  -0.669  1.00  0.00    -0.002 A   
ATOM     27  C18 UNL     1      -3.459  -1.266   0.676  1.00  0.00     0.012 A   
ATOM     28  C22 UNL     1      -3.184  -2.984  -1.033  1.00  0.00     0.045 A   
ATOM     29  C19 UNL     1      -3.724  -2.245   1.640  1.00  0.00     0.037 A   
ATOM     30  C21 UNL     1      -3.431  -3.924  -0.055  1.00  0.00     0.109 A   
ATOM     31  C20 UNL     1      -3.705  -3.566   1.241  1.00  0.00     0.108 A   
ATOM     32  O2  UNL     1      -3.424  -5.272  -0.234  1.00  0.00    -0.316 OA  
ATOM     33  O3  UNL     1      -3.944  -4.640   2.032  1.00  0.00    -0.316 OA  
ATOM     34  C23 UNL     1      -3.766  -5.726   1.093  1.00  0.00     0.337 C   
ENDBRANCH  25  26
ENDBRANCH  22  25
ENDBRANCH  17  22
ENDBRANCH   3  17
TORSDOF 9
