REMARK SMILES Cn1cnc2cc(Cn3cc([C@@H]([NH2+]Cc4ccc5c(c4)OCO5)C4CCCCC4)nn3)ccc21
REMARK SMILES IDX 9 1 10 2 11 3 30 4 31 5 8 7 7 8 2 9 3 10 34 11 4 12 5 13
REMARK SMILES IDX 33 14 6 15 32 16 1 17 12 18 13 19 14 22 15 23 16 24 20 25
REMARK SMILES IDX 17 26 19 27 18 28 21 29 23 30 22 31 24 32 25 33 29 34 26 35
REMARK SMILES IDX 28 36 27 37
REMARK H PARENT 10 6 13 20 13 21
ROOT
ATOM     1   N3  UNL     1       1.932   1.486   1.516  1.00  0.00    -0.208 N   
ATOM     2   C7  UNL     1       1.026   0.466   1.394  1.00  0.00     0.046 A   
ATOM     3   C8  UNL     1       1.456  -0.234   0.288  1.00  0.00     0.127 A   
ATOM     4   N5  UNL     1       2.598   0.350  -0.197  1.00  0.00    -0.132 NA  
ATOM     5   N6  UNL     1       2.876   1.400   0.557  1.00  0.00    -0.076 NA  
ATOM     6   H8  UNL     1       0.190   0.346   2.070  1.00  0.00     0.083 HD  
ENDROOT
BRANCH   1   7
ATOM     7   C6  UNL     1       1.991   2.555   2.506  1.00  0.00     0.169 C   
BRANCH   7   8
ATOM     8   C5  UNL     1       0.626   3.095   2.861  1.00  0.00    -0.026 A   
ATOM     9   N1  UNL     1      -3.120   4.681   3.512  1.00  0.00    -0.293 N   
ATOM     10  C2  UNL     1      -3.379   5.079   2.231  1.00  0.00     0.189 A   
ATOM     11  C26 UNL     1      -1.881   4.087   3.532  1.00  0.00     0.059 A   
ATOM     12  N2  UNL     1      -2.386   4.788   1.421  1.00  0.00    -0.239 NA  
ATOM     13  C3  UNL     1      -1.441   4.192   2.216  1.00  0.00     0.086 A   
ATOM     14  C25 UNL     1      -1.113   3.499   4.542  1.00  0.00     0.026 A   
ATOM     15  C4  UNL     1      -0.170   3.707   1.872  1.00  0.00     0.035 A   
ATOM     16  C24 UNL     1       0.146   3.003   4.178  1.00  0.00     0.007 A   
ATOM     17  C1  UNL     1      -3.990   4.878   4.644  1.00  0.00     0.137 C   
ENDBRANCH   7   8
ENDBRANCH   1   7
BRANCH   3  18
ATOM     18  C9  UNL     1       0.870  -1.413  -0.420  1.00  0.00     0.117 C   
BRANCH  18  19
ATOM     19  N4  UNL     1       1.266  -1.402  -1.878  1.00  0.00     0.249 N   
ATOM     20  H10 UNL     1       2.281  -1.237  -1.899  1.00  0.00     0.199 HD  
ATOM     21  H11 UNL     1       1.095  -2.311  -2.312  1.00  0.00     0.199 HD  
BRANCH  19  22
ATOM     22  C10 UNL     1       0.639  -0.339  -2.720  1.00  0.00     0.164 C   
BRANCH  22  23
ATOM     23  C11 UNL     1      -0.836  -0.547  -2.931  1.00  0.00    -0.002 A   
ATOM     24  C12 UNL     1      -1.772   0.338  -2.343  1.00  0.00     0.012 A   
ATOM     25  C16 UNL     1      -1.297  -1.623  -3.709  1.00  0.00     0.045 A   
ATOM     26  C13 UNL     1      -3.146   0.160  -2.530  1.00  0.00     0.037 A   
ATOM     27  C15 UNL     1      -2.659  -1.770  -3.872  1.00  0.00     0.109 A   
ATOM     28  C14 UNL     1      -3.557  -0.902  -3.304  1.00  0.00     0.108 A   
ATOM     29  O1  UNL     1      -3.266  -2.749  -4.593  1.00  0.00    -0.316 OA  
ATOM     30  O2  UNL     1      -4.843  -1.219  -3.603  1.00  0.00    -0.316 OA  
ATOM     31  C17 UNL     1      -4.654  -2.367  -4.457  1.00  0.00     0.337 C   
ENDBRANCH  22  23
ENDBRANCH  19  22
ENDBRANCH  18  19
BRANCH  18  32
ATOM     32  C18 UNL     1       1.286  -2.755   0.243  1.00  0.00     0.043 C   
ATOM     33  C19 UNL     1       2.781  -3.099   0.086  1.00  0.00     0.010 C   
ATOM     34  C23 UNL     1       0.419  -3.930  -0.254  1.00  0.00     0.010 C   
ATOM     35  C20 UNL     1       3.135  -4.405   0.797  1.00  0.00     0.001 C   
ATOM     36  C22 UNL     1       0.774  -5.232   0.461  1.00  0.00     0.001 C   
ATOM     37  C21 UNL     1       2.258  -5.561   0.328  1.00  0.00     0.000 C   
ENDBRANCH  18  32
ENDBRANCH   3  18
TORSDOF 7
