REMARK SMILES CC(C)C[C@H]([NH2+]Cc1ccc2c(c1)OCO2)c1cn(Cc2cnc(C3CC3)nc2)nn1
REMARK SMILES IDX 17 1 18 2 19 3 30 4 31 5 5 7 4 8 2 9 1 10 3 11 6 12 7 15
REMARK SMILES IDX 8 16 9 17 13 18 10 19 12 20 11 21 14 22 16 23 15 24 20 25
REMARK SMILES IDX 21 26 22 27 29 28 23 29 28 30 24 31 25 32 26 33 27 34
REMARK H PARENT 18 6 6 13 6 14
ROOT
ATOM     1   C14 UNL     1      -0.121   2.158   0.525  1.00  0.00     0.127 A   
ATOM     2   C15 UNL     1       1.147   2.661   0.722  1.00  0.00     0.046 A   
ATOM     3   N2  UNL     1       1.520   2.146   1.935  1.00  0.00    -0.208 N   
ATOM     4   N5  UNL     1       0.535   1.393   2.461  1.00  0.00    -0.076 NA  
ATOM     5   N6  UNL     1      -0.480   1.404   1.613  1.00  0.00    -0.132 NA  
ATOM     6   H20 UNL     1       1.806   3.276   0.122  1.00  0.00     0.083 HD  
ENDROOT
BRANCH   1   7
ATOM     7   C5  UNL     1      -1.052   2.261  -0.642  1.00  0.00     0.114 C   
BRANCH   7   8
ATOM     8   C4  UNL     1      -2.010   3.457  -0.470  1.00  0.00     0.064 C   
BRANCH   8   9
ATOM     9   C2  UNL     1      -2.973   3.738  -1.643  1.00  0.00    -0.012 C   
ATOM     10  C1  UNL     1      -3.858   4.943  -1.306  1.00  0.00     0.007 C   
ATOM     11  C3  UNL     1      -2.237   3.997  -2.958  1.00  0.00     0.007 C   
ENDBRANCH   8   9
ENDBRANCH   7   8
BRANCH   7  12
ATOM     12  N1  UNL     1      -1.858   0.998  -0.783  1.00  0.00     0.249 N   
ATOM     13  H11 UNL     1      -2.639   1.114  -1.435  1.00  0.00     0.199 HD  
ATOM     14  H12 UNL     1      -2.278   0.803   0.138  1.00  0.00     0.199 HD  
BRANCH  12  15
ATOM     15  C6  UNL     1      -1.089  -0.215  -1.187  1.00  0.00     0.164 C   
BRANCH  15  16
ATOM     16  C7  UNL     1      -2.010  -1.394  -1.324  1.00  0.00    -0.002 A   
ATOM     17  C8  UNL     1      -2.514  -1.768  -2.593  1.00  0.00     0.012 A   
ATOM     18  C12 UNL     1      -2.419  -2.102  -0.179  1.00  0.00     0.045 A   
ATOM     19  C9  UNL     1      -3.407  -2.837  -2.723  1.00  0.00     0.037 A   
ATOM     20  C11 UNL     1      -3.303  -3.148  -0.343  1.00  0.00     0.109 A   
ATOM     21  C10 UNL     1      -3.783  -3.506  -1.579  1.00  0.00     0.108 A   
ATOM     22  O1  UNL     1      -3.802  -3.926   0.653  1.00  0.00    -0.316 OA  
ATOM     23  O2  UNL     1      -4.641  -4.558  -1.517  1.00  0.00    -0.316 OA  
ATOM     24  C13 UNL     1      -4.639  -4.833  -0.099  1.00  0.00     0.337 C   
ENDBRANCH  15  16
ENDBRANCH  12  15
ENDBRANCH   7  12
ENDBRANCH   1   7
BRANCH   3  25
ATOM     25  C16 UNL     1       2.817   2.232   2.590  1.00  0.00     0.172 C   
BRANCH  25  26
ATOM     26  C17 UNL     1       3.813   1.379   1.876  1.00  0.00     0.008 A   
ATOM     27  C18 UNL     1       3.736   0.002   1.859  1.00  0.00     0.120 A   
ATOM     28  C23 UNL     1       4.847   1.904   1.135  1.00  0.00     0.120 A   
ATOM     29  N3  UNL     1       4.577  -0.784   1.163  1.00  0.00    -0.241 NA  
ATOM     30  N4  UNL     1       5.710   1.157   0.424  1.00  0.00    -0.241 NA  
ATOM     31  C19 UNL     1       5.561  -0.185   0.464  1.00  0.00     0.131 A   
BRANCH  31  32
ATOM     32  C20 UNL     1       6.513  -1.045  -0.328  1.00  0.00     0.058 C   
ATOM     33  C21 UNL     1       7.370  -2.076   0.374  1.00  0.00     0.012 C   
ATOM     34  C22 UNL     1       8.008  -0.850  -0.207  1.00  0.00     0.012 C   
ENDBRANCH  31  32
ENDBRANCH  25  26
ENDBRANCH   3  25
TORSDOF 9
