REMARK SMILES CC(C)C[C@H]([NH2+]Cc1ccc2c(c1)OCO2)c1cn(-c2ccccc2S(N)(=O)=O)nn1
REMARK SMILES IDX 17 1 18 2 19 3 30 4 31 5 5 6 4 7 2 8 1 9 3 10 6 11 7 14 8 15
REMARK SMILES IDX 9 16 13 17 10 18 12 19 11 20 14 21 16 22 15 23 20 24 21 25
REMARK SMILES IDX 25 26 22 27 24 28 23 29 26 30 28 31 29 32 27 33
REMARK H PARENT 6 12 6 13 27 34 27 35
ROOT
ATOM     1   C14 UNL     1      -1.228   0.806  -0.510  1.00  0.00     0.127 A   
ATOM     2   C15 UNL     1      -2.242   1.709  -0.285  1.00  0.00     0.135 A   
ATOM     3   N2  UNL     1      -1.658   2.954  -0.402  1.00  0.00    -0.168 N   
ATOM     4   N4  UNL     1      -0.387   2.780  -0.857  1.00  0.00    -0.071 NA  
ATOM     5   N5  UNL     1      -0.104   1.488  -0.876  1.00  0.00    -0.131 NA  
ENDROOT
BRANCH   1   6
ATOM     6   C5  UNL     1      -1.220  -0.689  -0.490  1.00  0.00     0.114 C   
BRANCH   6   7
ATOM     7   C4  UNL     1      -1.640  -1.302   0.861  1.00  0.00     0.064 C   
BRANCH   7   8
ATOM     8   C2  UNL     1      -0.601  -1.355   2.005  1.00  0.00    -0.012 C   
ATOM     9   C1  UNL     1      -1.216  -2.072   3.213  1.00  0.00     0.007 C   
ATOM     10  C3  UNL     1      -0.095   0.019   2.438  1.00  0.00     0.007 C   
ENDBRANCH   7   8
ENDBRANCH   6   7
BRANCH   6  11
ATOM     11  N1  UNL     1       0.118  -1.205  -0.932  1.00  0.00     0.249 N   
ATOM     12  H11 UNL     1       0.823  -0.996  -0.215  1.00  0.00     0.199 HD  
ATOM     13  H12 UNL     1       0.418  -0.611  -1.721  1.00  0.00     0.199 HD  
BRANCH  11  14
ATOM     14  C6  UNL     1       0.195  -2.623  -1.350  1.00  0.00     0.164 C   
BRANCH  14  15
ATOM     15  C7  UNL     1       1.587  -2.967  -1.798  1.00  0.00    -0.002 A   
ATOM     16  C8  UNL     1       2.536  -3.454  -0.867  1.00  0.00     0.012 A   
ATOM     17  C12 UNL     1       1.972  -2.755  -3.133  1.00  0.00     0.045 A   
ATOM     18  C9  UNL     1       3.848  -3.738  -1.261  1.00  0.00     0.037 A   
ATOM     19  C11 UNL     1       3.273  -3.044  -3.487  1.00  0.00     0.109 A   
ATOM     20  C10 UNL     1       4.185  -3.522  -2.579  1.00  0.00     0.108 A   
ATOM     21  O1  UNL     1       3.805  -2.897  -4.729  1.00  0.00    -0.316 OA  
ATOM     22  O2  UNL     1       5.405  -3.738  -3.134  1.00  0.00    -0.316 OA  
ATOM     23  C13 UNL     1       5.158  -3.353  -4.504  1.00  0.00     0.337 C   
ENDBRANCH  14  15
ENDBRANCH  11  14
ENDBRANCH   6  11
ENDBRANCH   1   6
BRANCH   3  24
ATOM     24  C16 UNL     1      -2.210   4.254  -0.240  1.00  0.00     0.181 A   
ATOM     25  C17 UNL     1      -1.630   5.290  -1.002  1.00  0.00     0.039 A   
ATOM     26  C21 UNL     1      -3.302   4.564   0.593  1.00  0.00     0.362 A   
ATOM     27  C18 UNL     1      -2.167   6.579  -0.990  1.00  0.00     0.003 A   
ATOM     28  C20 UNL     1      -3.841   5.863   0.585  1.00  0.00     0.140 A   
ATOM     29  C19 UNL     1      -3.282   6.861  -0.211  1.00  0.00     0.013 A   
BRANCH  26  30
ATOM     30  S1  UNL     1      -3.908   3.444   1.827  1.00  0.00    -0.112 S   
ATOM     31  O3  UNL     1      -2.777   2.774   2.426  1.00  0.00    -0.479 OA  
ATOM     32  O4  UNL     1      -5.014   2.716   1.253  1.00  0.00    -0.479 OA  
BRANCH  30  33
ATOM     33  N3  UNL     1      -4.540   4.411   3.037  1.00  0.00    -0.094 NA  
ATOM     34  H25 UNL     1      -5.541   4.244   3.155  1.00  0.00     0.263 HD  
ATOM     35  H26 UNL     1      -4.006   4.308   3.902  1.00  0.00     0.263 HD  
ENDBRANCH  30  33
ENDBRANCH  26  30
ENDBRANCH   3  24
TORSDOF 9
