REMARK SMILES O=C(c1cccc(N([O-])[O-])c1)n1cc([C@@H]([NH2+]Cc2ccc3c(c2)OCO3)C2CCCC2)nn1
REMARK SMILES IDX 12 1 13 2 14 3 32 4 33 5 2 6 1 7 3 8 4 9 11 10 5 11 7 12
REMARK SMILES IDX 6 13 8 14 9 15 10 16 15 17 16 18 17 21 18 22 19 23 23 24
REMARK SMILES IDX 20 25 22 26 21 27 24 28 26 29 25 30 27 31 28 32 31 33 29 34
REMARK SMILES IDX 30 35
REMARK H PARENT 16 19 16 20
ROOT
ATOM     1   N2  UNL     1      -0.256   2.844  -0.650  1.00  0.00    -0.143 N   
ATOM     2   C8  UNL     1       0.565   2.222  -1.575  1.00  0.00     0.139 A   
ATOM     3   C9  UNL     1       0.646   0.914  -1.158  1.00  0.00     0.128 A   
ATOM     4   N4  UNL     1      -0.075   0.773  -0.002  1.00  0.00    -0.131 NA  
ATOM     5   N5  UNL     1      -0.597   1.948   0.309  1.00  0.00    -0.068 NA  
ENDROOT
BRANCH   1   6
ATOM     6   C1  UNL     1      -0.669   4.185  -0.607  1.00  0.00     0.271 C   
ATOM     7   O1  UNL     1      -0.176   4.926  -1.456  1.00  0.00    -0.269 OA  
BRANCH   6   8
ATOM     8   C2  UNL     1      -1.627   4.762   0.376  1.00  0.00     0.042 A   
ATOM     9   C3  UNL     1      -1.456   6.101   0.760  1.00  0.00     0.014 A   
ATOM     10  C7  UNL     1      -2.706   4.030   0.884  1.00  0.00     0.045 A   
ATOM     11  C4  UNL     1      -2.335   6.698   1.669  1.00  0.00     0.003 A   
ATOM     12  C6  UNL     1      -3.584   4.636   1.798  1.00  0.00     0.118 A   
ATOM     13  C5  UNL     1      -3.400   5.966   2.196  1.00  0.00     0.031 A   
BRANCH  12  14
ATOM     14  N1  UNL     1      -4.712   3.863   2.337  1.00  0.00     0.092 N   
ATOM     15  O2  UNL     1      -5.462   4.424   3.146  1.00  0.00    -0.138 OA  
ATOM     16  O3  UNL     1      -4.839   2.693   1.948  1.00  0.00    -0.138 OA  
ENDBRANCH  12  14
ENDBRANCH   6   8
ENDBRANCH   1   6
BRANCH   3  17
ATOM     17  C10 UNL     1       1.360  -0.268  -1.740  1.00  0.00     0.117 C   
BRANCH  17  18
ATOM     18  N3  UNL     1       1.522  -1.344  -0.699  1.00  0.00     0.249 N   
ATOM     19  H7  UNL     1       1.584  -2.280  -1.111  1.00  0.00     0.199 HD  
ATOM     20  H8  UNL     1       0.662  -1.348  -0.128  1.00  0.00     0.199 HD  
BRANCH  18  21
ATOM     21  C11 UNL     1       2.664  -1.155   0.237  1.00  0.00     0.164 C   
BRANCH  21  22
ATOM     22  C12 UNL     1       2.662  -2.229   1.288  1.00  0.00    -0.002 A   
ATOM     23  C13 UNL     1       2.009  -2.013   2.525  1.00  0.00     0.012 A   
ATOM     24  C17 UNL     1       3.255  -3.476   1.026  1.00  0.00     0.045 A   
ATOM     25  C14 UNL     1       1.959  -3.020   3.495  1.00  0.00     0.037 A   
ATOM     26  C16 UNL     1       3.180  -4.449   2.000  1.00  0.00     0.109 A   
ATOM     27  C15 UNL     1       2.553  -4.227   3.201  1.00  0.00     0.108 A   
ATOM     28  O4  UNL     1       3.689  -5.705   1.904  1.00  0.00    -0.316 OA  
ATOM     29  O5  UNL     1       2.592  -5.314   4.014  1.00  0.00    -0.316 OA  
ATOM     30  C18 UNL     1       3.320  -6.250   3.191  1.00  0.00     0.337 C   
ENDBRANCH  21  22
ENDBRANCH  18  21
ENDBRANCH  17  18
BRANCH  17  31
ATOM     31  C19 UNL     1       0.632  -0.821  -2.981  1.00  0.00     0.043 C   
ATOM     32  C20 UNL     1       1.422  -1.874  -3.766  1.00  0.00     0.010 C   
ATOM     33  C23 UNL     1      -0.739  -1.474  -2.731  1.00  0.00     0.010 C   
ATOM     34  C21 UNL     1       0.355  -2.510  -4.644  1.00  0.00     0.001 C   
ATOM     35  C22 UNL     1      -0.838  -2.646  -3.710  1.00  0.00     0.001 C   
ENDBRANCH  17  31
ENDBRANCH   3  17
TORSDOF 8
