REMARK SMILES COc1c(Cn2cc([C@@H]([NH2+]Cc3ccc4c(c3)OCO4)C3CCCC3)nn2)ccc(F)c1F
REMARK SMILES IDX 6 1 7 2 8 3 26 4 27 5 5 7 4 8 3 9 32 10 28 11 30 12 29 13
REMARK SMILES IDX 33 14 31 15 2 16 1 17 9 18 10 19 11 22 12 23 13 24 17 25
REMARK SMILES IDX 14 26 16 27 15 28 18 29 20 30 19 31 21 32 22 33 25 34 23 35
REMARK SMILES IDX 24 36
REMARK H PARENT 7 6 10 20 10 21
ROOT
ATOM     1   N1  UNL     1      -1.820   0.304   1.642  1.00  0.00    -0.208 N   
ATOM     2   C5  UNL     1      -1.298  -0.583   0.741  1.00  0.00     0.046 A   
ATOM     3   C6  UNL     1      -0.128  -1.003   1.330  1.00  0.00     0.127 A   
ATOM     4   N3  UNL     1       0.012  -0.388   2.550  1.00  0.00    -0.132 NA  
ATOM     5   N4  UNL     1      -1.030   0.405   2.732  1.00  0.00    -0.076 NA  
ATOM     6   H6  UNL     1      -1.780  -0.798  -0.203  1.00  0.00     0.083 HD  
ENDROOT
BRANCH   1   7
ATOM     7   C4  UNL     1      -3.060   1.055   1.554  1.00  0.00     0.172 C   
BRANCH   7   8
ATOM     8   C3  UNL     1      -2.842   2.394   0.887  1.00  0.00     0.005 A   
ATOM     9   C2  UNL     1      -2.934   2.539  -0.514  1.00  0.00     0.118 A   
ATOM     10  C24 UNL     1      -2.721   3.801  -1.081  1.00  0.00     0.189 A   
ATOM     11  C21 UNL     1      -2.523   3.511   1.683  1.00  0.00     0.011 A   
ATOM     12  C23 UNL     1      -2.418   4.896  -0.276  1.00  0.00     0.161 A   
ATOM     13  C22 UNL     1      -2.315   4.761   1.102  1.00  0.00     0.043 A   
ATOM     14  F2  UNL     1      -2.781   3.991  -2.408  1.00  0.00    -0.201 F   
ATOM     15  F1  UNL     1      -2.210   6.098  -0.832  1.00  0.00    -0.204 F   
BRANCH   9  16
ATOM     16  O1  UNL     1      -3.216   1.386  -1.202  1.00  0.00    -0.346 OA  
ATOM     17  C1  UNL     1      -3.520   1.508  -2.589  1.00  0.00     0.203 C   
ENDBRANCH   9  16
ENDBRANCH   7   8
ENDBRANCH   1   7
BRANCH   3  18
ATOM     18  C7  UNL     1       0.955  -1.912   0.848  1.00  0.00     0.117 C   
BRANCH  18  19
ATOM     19  N2  UNL     1       2.285  -1.437   1.392  1.00  0.00     0.249 N   
ATOM     20  H8  UNL     1       2.838  -2.217   1.755  1.00  0.00     0.199 HD  
ATOM     21  H9  UNL     1       2.056  -0.857   2.216  1.00  0.00     0.199 HD  
BRANCH  19  22
ATOM     22  C8  UNL     1       3.126  -0.624   0.469  1.00  0.00     0.164 C   
BRANCH  22  23
ATOM     23  C9  UNL     1       2.469   0.635  -0.026  1.00  0.00    -0.002 A   
ATOM     24  C10 UNL     1       2.175   1.695   0.865  1.00  0.00     0.012 A   
ATOM     25  C14 UNL     1       2.132   0.765  -1.384  1.00  0.00     0.045 A   
ATOM     26  C11 UNL     1       1.549   2.862   0.414  1.00  0.00     0.037 A   
ATOM     27  C13 UNL     1       1.522   1.931  -1.797  1.00  0.00     0.109 A   
ATOM     28  C12 UNL     1       1.239   2.951  -0.923  1.00  0.00     0.108 A   
ATOM     29  O2  UNL     1       1.139   2.215  -3.070  1.00  0.00    -0.316 OA  
ATOM     30  O3  UNL     1       0.650   4.009  -1.536  1.00  0.00    -0.316 OA  
ATOM     31  C15 UNL     1       0.642   3.565  -2.909  1.00  0.00     0.337 C   
ENDBRANCH  22  23
ENDBRANCH  19  22
ENDBRANCH  18  19
BRANCH  18  32
ATOM     32  C16 UNL     1       0.694  -3.376   1.251  1.00  0.00     0.043 C   
ATOM     33  C17 UNL     1       1.660  -4.384   0.619  1.00  0.00     0.010 C   
ATOM     34  C20 UNL     1       0.742  -3.690   2.757  1.00  0.00     0.010 C   
ATOM     35  C18 UNL     1       1.449  -5.629   1.465  1.00  0.00     0.001 C   
ATOM     36  C19 UNL     1       1.361  -5.084   2.883  1.00  0.00     0.001 C   
ENDBRANCH  18  32
ENDBRANCH   3  18
TORSDOF 8
