REMARK SMILES Fc1cncc(-n2cc([C@@H]([NH2+]Cc3ccc4c(c3)OCO4)C3CCCC3)nn2)c1
REMARK SMILES IDX 10 1 9 2 7 3 8 4 28 5 27 6 6 7 2 8 3 9 29 10 4 11 5 12 1 13
REMARK SMILES IDX 11 14 12 17 13 18 14 19 18 20 15 21 17 22 16 23 19 24 21 25
REMARK SMILES IDX 20 26 22 27 23 28 26 29 24 30 25 31
REMARK H PARENT 11 15 11 16
ROOT
ATOM     1   C7  UNL     1      -1.386   2.011  -0.143  1.00  0.00     0.117 C   
ENDROOT
BRANCH   1   2
ATOM     2   C6  UNL     1      -0.772   0.798   0.481  1.00  0.00     0.127 A   
ATOM     3   N2  UNL     1       0.499  -0.850   1.152  1.00  0.00    -0.179 N   
ATOM     4   C5  UNL     1       0.543   0.458   0.711  1.00  0.00     0.135 A   
ATOM     5   N5  UNL     1      -0.798  -1.239   1.243  1.00  0.00    -0.071 NA  
ATOM     6   N4  UNL     1      -1.574  -0.252   0.827  1.00  0.00    -0.131 NA  
BRANCH   3   7
ATOM     7   C4  UNL     1       1.565  -1.725   1.441  1.00  0.00     0.079 A   
ATOM     8   C1  UNL     1       3.897  -2.261   1.579  1.00  0.00     0.143 A   
ATOM     9   C2  UNL     1       3.547  -3.532   1.997  1.00  0.00     0.150 A   
ATOM     10  C21 UNL     1       2.900  -1.337   1.296  1.00  0.00     0.068 A   
ATOM     11  N1  UNL     1       2.264  -3.935   2.148  1.00  0.00    -0.260 NA  
ATOM     12  C3  UNL     1       1.298  -3.026   1.866  1.00  0.00     0.137 A   
ATOM     13  F1  UNL     1       5.183  -1.917   1.438  1.00  0.00    -0.205 F   
ENDBRANCH   3   7
ENDBRANCH   1   2
BRANCH   1  14
ATOM     14  N3  UNL     1      -2.400   1.568  -1.183  1.00  0.00     0.249 N   
ATOM     15  H5  UNL     1      -2.795   0.680  -0.836  1.00  0.00     0.199 HD  
ATOM     16  H6  UNL     1      -3.188   2.221  -1.228  1.00  0.00     0.199 HD  
BRANCH  14  17
ATOM     17  C8  UNL     1      -1.885   1.348  -2.569  1.00  0.00     0.164 C   
BRANCH  17  18
ATOM     18  C9  UNL     1      -0.839   0.273  -2.671  1.00  0.00    -0.002 A   
ATOM     19  C10 UNL     1      -1.197  -1.090  -2.534  1.00  0.00     0.012 A   
ATOM     20  C14 UNL     1       0.514   0.616  -2.845  1.00  0.00     0.045 A   
ATOM     21  C11 UNL     1      -0.223  -2.095  -2.543  1.00  0.00     0.037 A   
ATOM     22  C13 UNL     1       1.448  -0.399  -2.843  1.00  0.00     0.109 A   
ATOM     23  C12 UNL     1       1.092  -1.716  -2.694  1.00  0.00     0.108 A   
ATOM     24  O1  UNL     1       2.792  -0.236  -2.954  1.00  0.00    -0.316 OA  
ATOM     25  O2  UNL     1       2.165  -2.547  -2.700  1.00  0.00    -0.316 OA  
ATOM     26  C15 UNL     1       3.240  -1.611  -2.921  1.00  0.00     0.337 C   
ENDBRANCH  17  18
ENDBRANCH  14  17
ENDBRANCH   1  14
BRANCH   1  27
ATOM     27  C16 UNL     1      -2.096   2.897   0.899  1.00  0.00     0.043 C   
ATOM     28  C17 UNL     1      -1.149   3.448   1.971  1.00  0.00     0.010 C   
ATOM     29  C20 UNL     1      -2.724   4.175   0.319  1.00  0.00     0.010 C   
ATOM     30  C18 UNL     1      -1.963   4.562   2.608  1.00  0.00     0.001 C   
ATOM     31  C19 UNL     1      -2.694   5.213   1.441  1.00  0.00     0.001 C   
ENDBRANCH   1  27
TORSDOF 6
