REMARK SMILES CC(C)[C@H]([NH2+]Cc1ccc2c(c1)OCO2)c1cn(CCc2ccc3[nH]cnc3c2)nn1
REMARK SMILES IDX 16 1 17 2 18 3 30 4 31 5 4 7 2 8 1 9 3 10 5 11 6 14 7 15
REMARK SMILES IDX 8 16 12 17 9 18 11 19 10 20 13 21 15 22 14 23 19 24 20 25
REMARK SMILES IDX 21 26 22 27 29 28 23 29 28 30 24 31 27 32 25 33 26 34
REMARK H PARENT 17 6 5 12 5 13 25 35
ROOT
ATOM     1   C13 UNL     1      -0.724  -1.319  -1.115  1.00  0.00     0.127 A   
ATOM     2   C14 UNL     1      -0.014  -2.192  -1.914  1.00  0.00     0.045 A   
ATOM     3   N2  UNL     1      -0.605  -3.407  -1.687  1.00  0.00    -0.212 N   
ATOM     4   N5  UNL     1      -1.704  -3.269  -0.925  1.00  0.00    -0.076 NA  
ATOM     5   N6  UNL     1      -1.790  -1.996  -0.574  1.00  0.00    -0.132 NA  
ATOM     6   H18 UNL     1       0.889  -2.101  -2.501  1.00  0.00     0.083 HD  
ENDROOT
BRANCH   1   7
ATOM     7   C4  UNL     1      -0.485   0.106  -0.709  1.00  0.00     0.117 C   
BRANCH   7   8
ATOM     8   C2  UNL     1       0.387   0.919  -1.708  1.00  0.00     0.037 C   
ATOM     9   C1  UNL     1       0.100   2.423  -1.587  1.00  0.00     0.014 C   
ATOM     10  C3  UNL     1       1.898   0.690  -1.575  1.00  0.00     0.014 C   
ENDBRANCH   7   8
BRANCH   7  11
ATOM     11  N1  UNL     1       0.092   0.220   0.683  1.00  0.00     0.249 N   
ATOM     12  H9  UNL     1       0.428   1.170   0.851  1.00  0.00     0.199 HD  
ATOM     13  H10 UNL     1       0.932  -0.384   0.772  1.00  0.00     0.199 HD  
BRANCH  11  14
ATOM     14  C5  UNL     1      -0.795  -0.150   1.825  1.00  0.00     0.164 C   
BRANCH  14  15
ATOM     15  C6  UNL     1      -1.952   0.795   1.997  1.00  0.00    -0.002 A   
ATOM     16  C7  UNL     1      -3.261   0.394   1.639  1.00  0.00     0.012 A   
ATOM     17  C11 UNL     1      -1.738   2.095   2.486  1.00  0.00     0.045 A   
ATOM     18  C8  UNL     1      -4.342   1.273   1.759  1.00  0.00     0.037 A   
ATOM     19  C10 UNL     1      -2.825   2.938   2.592  1.00  0.00     0.109 A   
ATOM     20  C9  UNL     1      -4.090   2.539   2.238  1.00  0.00     0.108 A   
ATOM     21  O1  UNL     1      -2.789   4.221   3.037  1.00  0.00    -0.316 OA  
ATOM     22  O2  UNL     1      -5.011   3.521   2.418  1.00  0.00    -0.316 OA  
ATOM     23  C12 UNL     1      -4.188   4.578   2.953  1.00  0.00     0.337 C   
ENDBRANCH  14  15
ENDBRANCH  11  14
ENDBRANCH   7  11
ENDBRANCH   1   7
BRANCH   3  24
ATOM     24  C15 UNL     1      -0.040  -4.721  -1.933  1.00  0.00     0.139 C   
BRANCH  24  25
ATOM     25  C16 UNL     1       0.643  -5.323  -0.690  1.00  0.00     0.057 C   
BRANCH  25  26
ATOM     26  C17 UNL     1       1.770  -4.454  -0.166  1.00  0.00    -0.044 A   
ATOM     27  C18 UNL     1       3.090  -4.645  -0.598  1.00  0.00     0.006 A   
ATOM     28  C23 UNL     1       1.463  -3.373   0.682  1.00  0.00     0.034 A   
ATOM     29  C19 UNL     1       4.118  -3.764  -0.229  1.00  0.00     0.026 A   
ATOM     30  C22 UNL     1       2.452  -2.423   0.962  1.00  0.00     0.086 A   
ATOM     31  C20 UNL     1       3.750  -2.651   0.528  1.00  0.00     0.057 A   
ATOM     32  N4  UNL     1       2.336  -1.190   1.574  1.00  0.00    -0.239 NA  
ATOM     33  N3  UNL     1       4.460  -1.588   1.024  1.00  0.00    -0.304 N   
ATOM     34  C21 UNL     1       3.575  -0.745   1.643  1.00  0.00     0.186 A   
ATOM     35  H25 UNL     1       5.459  -1.451   0.943  1.00  0.00     0.154 HD  
ENDBRANCH  25  26
ENDBRANCH  24  25
ENDBRANCH   3  24
TORSDOF 8
