REMARK SMILES Cc1cnccc1CCn1cc([C@@H]([NH2+]Cc2ccc3c(c2)OCO3)C(C)(C)C)nn1
REMARK SMILES IDX 10 1 11 2 12 3 29 4 30 5 9 7 8 8 7 9 2 10 3 11 4 12 6 13
REMARK SMILES IDX 5 14 1 15 13 16 14 17 15 20 16 21 17 22 21 23 18 24 20 25
REMARK SMILES IDX 19 26 22 27 24 28 23 29 25 30 26 31 27 32 28 33
REMARK H PARENT 11 6 14 18 14 19
ROOT
ATOM     1   N2  UNL     1      -1.949  -0.591   2.640  1.00  0.00    -0.212 N   
ATOM     2   C9  UNL     1      -2.065  -0.330   1.304  1.00  0.00     0.045 A   
ATOM     3   C10 UNL     1      -1.524  -1.444   0.701  1.00  0.00     0.127 A   
ATOM     4   N4  UNL     1      -1.120  -2.328   1.670  1.00  0.00    -0.132 NA  
ATOM     5   N5  UNL     1      -1.406  -1.803   2.851  1.00  0.00    -0.076 NA  
ATOM     6   H11 UNL     1      -2.462   0.601   0.924  1.00  0.00     0.083 HD  
ENDROOT
BRANCH   1   7
ATOM     7   C8  UNL     1      -2.232   0.301   3.745  1.00  0.00     0.139 C   
BRANCH   7   8
ATOM     8   C7  UNL     1      -0.971   0.794   4.468  1.00  0.00     0.057 C   
BRANCH   8   9
ATOM     9   C6  UNL     1       0.076   1.376   3.538  1.00  0.00    -0.040 A   
ATOM     10  C2  UNL     1       1.349   0.796   3.376  1.00  0.00    -0.029 A   
ATOM     11  C3  UNL     1       2.203   1.365   2.434  1.00  0.00     0.114 A   
ATOM     12  N1  UNL     1       1.887   2.421   1.655  1.00  0.00    -0.264 NA  
ATOM     13  C5  UNL     1      -0.233   2.523   2.791  1.00  0.00     0.024 A   
ATOM     14  C4  UNL     1       0.692   3.002   1.877  1.00  0.00     0.111 A   
ATOM     15  C1  UNL     1       1.819  -0.388   4.170  1.00  0.00     0.046 C   
ENDBRANCH   8   9
ENDBRANCH   7   8
ENDBRANCH   1   7
BRANCH   3  16
ATOM     16  C11 UNL     1      -1.234  -1.735  -0.739  1.00  0.00     0.120 C   
BRANCH  16  17
ATOM     17  N3  UNL     1       0.169  -2.300  -0.837  1.00  0.00     0.250 N   
ATOM     18  H13 UNL     1       0.249  -2.991  -0.077  1.00  0.00     0.199 HD  
ATOM     19  H14 UNL     1       0.309  -2.802  -1.714  1.00  0.00     0.199 HD  
BRANCH  17  20
ATOM     20  C12 UNL     1       1.281  -1.315  -0.664  1.00  0.00     0.164 C   
BRANCH  20  21
ATOM     21  C13 UNL     1       1.408  -0.380  -1.834  1.00  0.00    -0.002 A   
ATOM     22  C14 UNL     1       1.874  -0.851  -3.086  1.00  0.00     0.012 A   
ATOM     23  C18 UNL     1       1.034   0.969  -1.700  1.00  0.00     0.045 A   
ATOM     24  C15 UNL     1       1.956   0.004  -4.190  1.00  0.00     0.037 A   
ATOM     25  C17 UNL     1       1.124   1.784  -2.808  1.00  0.00     0.109 A   
ATOM     26  C16 UNL     1       1.571   1.316  -4.019  1.00  0.00     0.108 A   
ATOM     27  O1  UNL     1       0.790   3.100  -2.852  1.00  0.00    -0.316 OA  
ATOM     28  O2  UNL     1       1.581   2.280  -4.976  1.00  0.00    -0.316 OA  
ATOM     29  C19 UNL     1       1.129   3.423  -4.219  1.00  0.00     0.337 C   
ENDBRANCH  20  21
ENDBRANCH  17  20
ENDBRANCH  16  17
BRANCH  16  30
ATOM     30  C20 UNL     1      -2.264  -2.697  -1.426  1.00  0.00     0.010 C   
ATOM     31  C21 UNL     1      -2.236  -4.124  -0.846  1.00  0.00     0.017 C   
ATOM     32  C22 UNL     1      -1.978  -2.785  -2.944  1.00  0.00     0.017 C   
ATOM     33  C23 UNL     1      -3.696  -2.136  -1.271  1.00  0.00     0.017 C   
ENDBRANCH  16  30
ENDBRANCH   3  16
TORSDOF 8
