REMARK SMILES OC[C@H](c1cccc(Cl)n1)n1cc([C@@H]([NH2+]Cc2ccc3c(c2)OCO3)C2CCCC2)nn1
REMARK SMILES IDX 11 1 12 2 13 3 31 4 32 5 3 7 2 8 1 9 4 11 5 12 10 13 6 14
REMARK SMILES IDX 8 15 7 16 9 17 14 18 15 19 16 22 17 23 18 24 22 25 19 26
REMARK SMILES IDX 21 27 20 28 23 29 25 30 24 31 26 32 27 33 30 34 28 35 29 36
REMARK H PARENT 12 6 1 10 15 20 15 21
ROOT
ATOM     1   N2  UNL     1       0.922   1.801   0.417  1.00  0.00    -0.201 N   
ATOM     2   C8  UNL     1       0.237   0.629   0.592  1.00  0.00     0.046 A   
ATOM     3   C9  UNL     1       1.062  -0.333   0.059  1.00  0.00     0.127 A   
ATOM     4   N4  UNL     1       2.174   0.274  -0.466  1.00  0.00    -0.132 NA  
ATOM     5   N5  UNL     1       2.073   1.577  -0.255  1.00  0.00    -0.075 NA  
ATOM     6   H8  UNL     1      -0.727   0.593   1.084  1.00  0.00     0.083 HD  
ENDROOT
BRANCH   1   7
ATOM     7   C2  UNL     1       0.566   3.153   0.833  1.00  0.00     0.174 C   
BRANCH   7   8
ATOM     8   C1  UNL     1       0.456   3.284   2.363  1.00  0.00     0.187 C   
BRANCH   8   9
ATOM     9   O1  UNL     1      -0.570   2.475   2.940  1.00  0.00    -0.394 OA  
ATOM     10  H1  UNL     1      -1.413   2.750   2.518  1.00  0.00     0.210 HD  
ENDBRANCH   8   9
ENDBRANCH   7   8
BRANCH   7  11
ATOM     11  C3  UNL     1      -0.681   3.613   0.099  1.00  0.00     0.067 A   
ATOM     12  C4  UNL     1      -0.574   4.348  -1.084  1.00  0.00     0.026 A   
ATOM     13  N1  UNL     1      -1.886   3.257   0.616  1.00  0.00    -0.239 NA  
ATOM     14  C5  UNL     1      -1.736   4.745  -1.745  1.00  0.00     0.005 A   
ATOM     15  C7  UNL     1      -2.992   3.657  -0.054  1.00  0.00     0.129 A   
ATOM     16  C6  UNL     1      -2.975   4.394  -1.222  1.00  0.00     0.041 A   
ATOM     17  CL1 UNL     1      -4.467   3.154   0.656  1.00  0.00    -0.062 Cl  
ENDBRANCH   7  11
ENDBRANCH   1   7
BRANCH   3  18
ATOM     18  C10 UNL     1       0.885  -1.810  -0.062  1.00  0.00     0.117 C   
BRANCH  18  19
ATOM     19  N3  UNL     1       1.548  -2.320  -1.326  1.00  0.00     0.249 N   
ATOM     20  H10 UNL     1       1.597  -3.343  -1.308  1.00  0.00     0.199 HD  
ATOM     21  H11 UNL     1       2.514  -1.963  -1.308  1.00  0.00     0.199 HD  
BRANCH  19  22
ATOM     22  C11 UNL     1       0.941  -1.880  -2.618  1.00  0.00     0.164 C   
BRANCH  22  23
ATOM     23  C12 UNL     1      -0.430  -2.452  -2.849  1.00  0.00    -0.002 A   
ATOM     24  C13 UNL     1      -0.588  -3.803  -3.238  1.00  0.00     0.012 A   
ATOM     25  C17 UNL     1      -1.569  -1.654  -2.647  1.00  0.00     0.045 A   
ATOM     26  C14 UNL     1      -1.862  -4.353  -3.424  1.00  0.00     0.037 A   
ATOM     27  C16 UNL     1      -2.810  -2.228  -2.835  1.00  0.00     0.109 A   
ATOM     28  C15 UNL     1      -2.952  -3.539  -3.213  1.00  0.00     0.108 A   
ATOM     29  O2  UNL     1      -4.006  -1.601  -2.672  1.00  0.00    -0.316 OA  
ATOM     30  O3  UNL     1      -4.256  -3.902  -3.342  1.00  0.00    -0.316 OA  
ATOM     31  C18 UNL     1      -4.923  -2.664  -3.018  1.00  0.00     0.337 C   
ENDBRANCH  22  23
ENDBRANCH  19  22
ENDBRANCH  18  19
BRANCH  18  32
ATOM     32  C19 UNL     1       1.449  -2.625   1.119  1.00  0.00     0.043 C   
ATOM     33  C20 UNL     1       0.837  -2.296   2.482  1.00  0.00     0.010 C   
ATOM     34  C23 UNL     1       2.955  -2.502   1.385  1.00  0.00     0.010 C   
ATOM     35  C21 UNL     1       1.747  -3.045   3.447  1.00  0.00     0.001 C   
ATOM     36  C22 UNL     1       3.145  -2.923   2.846  1.00  0.00     0.001 C   
ENDBRANCH  18  32
ENDBRANCH   3  18
TORSDOF 9
