REMARK SMILES OC[C@@H](c1cccc(Cl)n1)n1cc([C@@H]([NH2+]Cc2ccc3c(c2)OCO3)C2CCCC2)nn1
REMARK SMILES IDX 11 1 12 2 13 3 31 4 32 5 3 7 2 8 1 9 4 11 5 12 10 13 6 14
REMARK SMILES IDX 8 15 7 16 9 17 14 18 15 19 16 22 17 23 18 24 22 25 19 26
REMARK SMILES IDX 21 27 20 28 23 29 25 30 24 31 26 32 27 33 30 34 28 35 29 36
REMARK H PARENT 12 6 1 10 15 20 15 21
ROOT
ATOM     1   N2  UNL     1      -0.722  -2.824  -0.157  1.00  0.00    -0.201 N   
ATOM     2   C8  UNL     1       0.464  -2.158   0.019  1.00  0.00     0.046 A   
ATOM     3   C9  UNL     1       0.125  -0.829  -0.093  1.00  0.00     0.127 A   
ATOM     4   N4  UNL     1      -1.224  -0.725  -0.319  1.00  0.00    -0.132 NA  
ATOM     5   N5  UNL     1      -1.730  -1.946  -0.355  1.00  0.00    -0.075 NA  
ATOM     6   H8  UNL     1       1.395  -2.675   0.207  1.00  0.00     0.083 HD  
ENDROOT
BRANCH   1   7
ATOM     7   C2  UNL     1      -0.991  -4.259  -0.134  1.00  0.00     0.174 C   
BRANCH   7   8
ATOM     8   C1  UNL     1      -0.018  -5.063  -1.013  1.00  0.00     0.187 C   
BRANCH   8   9
ATOM     9   O1  UNL     1      -0.171  -4.716  -2.390  1.00  0.00    -0.394 OA  
ATOM     10  H1  UNL     1       0.360  -5.351  -2.907  1.00  0.00     0.210 HD  
ENDBRANCH   8   9
ENDBRANCH   7   8
BRANCH   7  11
ATOM     11  C3  UNL     1      -0.967  -4.748   1.300  1.00  0.00     0.067 A   
ATOM     12  C4  UNL     1      -2.155  -5.059   1.963  1.00  0.00     0.026 A   
ATOM     13  N1  UNL     1       0.245  -4.852   1.905  1.00  0.00    -0.239 NA  
ATOM     14  C5  UNL     1      -2.097  -5.503   3.283  1.00  0.00     0.005 A   
ATOM     15  C7  UNL     1       0.262  -5.282   3.186  1.00  0.00     0.129 A   
ATOM     16  C6  UNL     1      -0.863  -5.620   3.912  1.00  0.00     0.041 A   
ATOM     17  CL1 UNL     1       1.825  -5.365   3.880  1.00  0.00    -0.062 Cl  
ENDBRANCH   7  11
ENDBRANCH   1   7
BRANCH   3  18
ATOM     18  C10 UNL     1       0.961   0.407  -0.040  1.00  0.00     0.117 C   
BRANCH  18  19
ATOM     19  N3  UNL     1       0.302   1.507  -0.830  1.00  0.00     0.249 N   
ATOM     20  H10 UNL     1      -0.706   1.461  -0.613  1.00  0.00     0.199 HD  
ATOM     21  H11 UNL     1       0.612   2.439  -0.541  1.00  0.00     0.199 HD  
BRANCH  19  22
ATOM     22  C11 UNL     1       0.427   1.383  -2.308  1.00  0.00     0.164 C   
BRANCH  22  23
ATOM     23  C12 UNL     1      -0.336   2.483  -2.991  1.00  0.00    -0.002 A   
ATOM     24  C13 UNL     1      -1.721   2.332  -3.248  1.00  0.00     0.012 A   
ATOM     25  C17 UNL     1       0.304   3.687  -3.329  1.00  0.00     0.045 A   
ATOM     26  C14 UNL     1      -2.457   3.361  -3.844  1.00  0.00     0.037 A   
ATOM     27  C16 UNL     1      -0.451   4.679  -3.919  1.00  0.00     0.109 A   
ATOM     28  C15 UNL     1      -1.792   4.522  -4.170  1.00  0.00     0.108 A   
ATOM     29  O2  UNL     1       0.012   5.896  -4.310  1.00  0.00    -0.316 OA  
ATOM     30  O3  UNL     1      -2.343   5.620  -4.750  1.00  0.00    -0.316 OA  
ATOM     31  C18 UNL     1      -1.187   6.475  -4.875  1.00  0.00     0.337 C   
ENDBRANCH  22  23
ENDBRANCH  19  22
ENDBRANCH  18  19
BRANCH  18  32
ATOM     32  C19 UNL     1       1.225   0.865   1.409  1.00  0.00     0.043 C   
ATOM     33  C20 UNL     1       2.309   1.949   1.527  1.00  0.00     0.010 C   
ATOM     34  C23 UNL     1       0.008   1.418   2.179  1.00  0.00     0.010 C   
ATOM     35  C21 UNL     1       1.956   2.684   2.809  1.00  0.00     0.001 C   
ATOM     36  C22 UNL     1       0.441   2.769   2.742  1.00  0.00     0.001 C   
ENDBRANCH  18  32
ENDBRANCH   3  18
TORSDOF 9
