REMARK SMILES Fc1ccnc(F)c1-n1cc([C@@H]([NH2+]Cc2ccc3c(c2)OCO3)C2CCCC2)nn1
REMARK SMILES IDX 12 1 11 2 9 3 10 4 30 5 29 6 8 7 2 8 3 9 4 10 6 11 5 12 1 13
REMARK SMILES IDX 7 14 13 15 14 18 15 19 16 20 20 21 17 22 19 23 18 24 21 25
REMARK SMILES IDX 23 26 22 27 24 28 25 29 28 30 26 31 27 32
REMARK H PARENT 13 16 13 17
ROOT
ATOM     1   C8  UNL     1      -0.880  -1.026  -0.079  1.00  0.00     0.117 C   
ENDROOT
BRANCH   1   2
ATOM     2   C7  UNL     1       0.539  -1.118  -0.549  1.00  0.00     0.127 A   
ATOM     3   N2  UNL     1       2.656  -1.565  -0.950  1.00  0.00    -0.173 N   
ATOM     4   C6  UNL     1       1.567  -1.962  -0.191  1.00  0.00     0.135 A   
ATOM     5   N5  UNL     1       2.277  -0.488  -1.688  1.00  0.00    -0.071 NA  
ATOM     6   N4  UNL     1       1.001  -0.225  -1.469  1.00  0.00    -0.131 NA  
BRANCH   3   7
ATOM     7   C5  UNL     1       3.958  -2.094  -1.015  1.00  0.00     0.148 A   
ATOM     8   C1  UNL     1       4.936  -1.533  -1.835  1.00  0.00     0.152 A   
ATOM     9   C2  UNL     1       6.218  -2.066  -1.894  1.00  0.00     0.061 A   
ATOM     10  C3  UNL     1       6.491  -3.169  -1.115  1.00  0.00     0.117 A   
ATOM     11  C4  UNL     1       4.340  -3.199  -0.275  1.00  0.00     0.239 A   
ATOM     12  N1  UNL     1       5.577  -3.742  -0.307  1.00  0.00    -0.226 NA  
ATOM     13  F1  UNL     1       4.687  -0.457  -2.593  1.00  0.00    -0.205 F   
ATOM     14  F2  UNL     1       3.470  -3.810   0.541  1.00  0.00    -0.183 F   
ENDBRANCH   3   7
ENDBRANCH   1   2
BRANCH   1  15
ATOM     15  N3  UNL     1      -1.337   0.412  -0.129  1.00  0.00     0.249 N   
ATOM     16  H5  UNL     1      -1.062   0.783  -1.051  1.00  0.00     0.199 HD  
ATOM     17  H6  UNL     1      -2.357   0.493  -0.082  1.00  0.00     0.199 HD  
BRANCH  15  18
ATOM     18  C9  UNL     1      -0.747   1.309   0.904  1.00  0.00     0.164 C   
BRANCH  18  19
ATOM     19  C10 UNL     1      -1.229   2.718   0.708  1.00  0.00    -0.002 A   
ATOM     20  C11 UNL     1      -0.539   3.588  -0.171  1.00  0.00     0.012 A   
ATOM     21  C15 UNL     1      -2.399   3.162   1.347  1.00  0.00     0.045 A   
ATOM     22  C12 UNL     1      -1.001   4.888  -0.402  1.00  0.00     0.037 A   
ATOM     23  C14 UNL     1      -2.826   4.450   1.095  1.00  0.00     0.109 A   
ATOM     24  C13 UNL     1      -2.147   5.289   0.246  1.00  0.00     0.108 A   
ATOM     25  O1  UNL     1      -3.932   5.032   1.628  1.00  0.00    -0.316 OA  
ATOM     26  O2  UNL     1      -2.739   6.507   0.139  1.00  0.00    -0.316 OA  
ATOM     27  C16 UNL     1      -3.859   6.350   1.037  1.00  0.00     0.337 C   
ENDBRANCH  18  19
ENDBRANCH  15  18
ENDBRANCH   1  15
BRANCH   1  28
ATOM     28  C17 UNL     1      -1.832  -1.871  -0.951  1.00  0.00     0.043 C   
ATOM     29  C18 UNL     1      -1.527  -3.372  -0.907  1.00  0.00     0.010 C   
ATOM     30  C21 UNL     1      -3.296  -1.843  -0.498  1.00  0.00     0.010 C   
ATOM     31  C19 UNL     1      -2.787  -4.031  -1.455  1.00  0.00     0.001 C   
ATOM     32  C20 UNL     1      -3.930  -3.065  -1.155  1.00  0.00     0.001 C   
ENDBRANCH   1  28
TORSDOF 6
