REMARK SMILES O=c1cc(-c2ccccc2)oc2cc(-n3cc([C@@H]([NH2+]Cc4ccc5c(c4)OCO5)C4CCCCC4)nn3)ccc12
REMARK SMILES IDX 18 1 17 2 15 3 16 4 37 5 36 6 14 7 2 8 3 9 40 10 4 11 12 12
REMARK SMILES IDX 39 13 11 14 13 15 38 16 1 17 5 18 6 19 10 20 7 21 9 22 8 23
REMARK SMILES IDX 19 24 20 27 21 28 22 29 26 30 23 31 25 32 24 33 27 34 29 35
REMARK SMILES IDX 28 36 30 37 31 38 35 39 32 40 34 41 33 42
REMARK H PARENT 19 25 19 26
ROOT
ATOM     1   C15 UNL     1       2.583  -0.673  -1.707  1.00  0.00     0.117 C   
ENDROOT
BRANCH   1   2
ATOM     2   C14 UNL     1       1.471  -0.311  -0.769  1.00  0.00     0.127 A   
ATOM     3   N1  UNL     1      -0.222  -0.198   0.618  1.00  0.00    -0.181 N   
ATOM     4   C13 UNL     1       0.553  -1.089  -0.100  1.00  0.00     0.135 A   
ATOM     5   N4  UNL     1       0.208   1.062   0.351  1.00  0.00    -0.071 NA  
ATOM     6   N3  UNL     1       1.240   1.003  -0.473  1.00  0.00    -0.131 NA  
BRANCH   3   7
ATOM     7   C12 UNL     1      -1.300  -0.455   1.500  1.00  0.00     0.060 A   
ATOM     8   C1  UNL     1      -4.532  -1.144   4.200  1.00  0.00     0.191 A   
ATOM     9   C2  UNL     1      -5.138   0.055   4.795  1.00  0.00     0.087 A   
ATOM     10  C32 UNL     1      -3.420  -0.922   3.264  1.00  0.00     0.053 A   
ATOM     11  C3  UNL     1      -4.670   1.264   4.449  1.00  0.00     0.093 A   
ATOM     12  C10 UNL     1      -3.026   0.383   2.989  1.00  0.00     0.095 A   
ATOM     13  C31 UNL     1      -2.768  -2.001   2.660  1.00  0.00     0.017 A   
ATOM     14  O2  UNL     1      -3.638   1.477   3.546  1.00  0.00    -0.309 OA  
ATOM     15  C11 UNL     1      -1.966   0.622   2.111  1.00  0.00     0.060 A   
ATOM     16  C30 UNL     1      -1.708  -1.769   1.777  1.00  0.00     0.027 A   
ATOM     17  O1  UNL     1      -4.936  -2.266   4.470  1.00  0.00    -0.289 OA  
BRANCH  11  18
ATOM     18  C4  UNL     1      -5.258   2.500   4.998  1.00  0.00     0.005 A   
ATOM     19  C5  UNL     1      -5.577   3.564   4.142  1.00  0.00     0.011 A   
ATOM     20  C9  UNL     1      -5.499   2.647   6.373  1.00  0.00     0.011 A   
ATOM     21  C6  UNL     1      -6.139   4.740   4.647  1.00  0.00     0.001 A   
ATOM     22  C8  UNL     1      -6.057   3.825   6.876  1.00  0.00     0.001 A   
ATOM     23  C7  UNL     1      -6.380   4.869   6.013  1.00  0.00     0.000 A   
ENDBRANCH  11  18
ENDBRANCH   3   7
ENDBRANCH   1   2
BRANCH   1  24
ATOM     24  N2  UNL     1       3.031   0.544  -2.480  1.00  0.00     0.249 N   
ATOM     25  H10 UNL     1       4.001   0.453  -2.791  1.00  0.00     0.199 HD  
ATOM     26  H11 UNL     1       3.003   1.331  -1.815  1.00  0.00     0.199 HD  
BRANCH  24  27
ATOM     27  C16 UNL     1       2.184   0.925  -3.649  1.00  0.00     0.164 C   
BRANCH  27  28
ATOM     28  C17 UNL     1       2.428   0.039  -4.839  1.00  0.00    -0.002 A   
ATOM     29  C18 UNL     1       3.617   0.175  -5.597  1.00  0.00     0.012 A   
ATOM     30  C22 UNL     1       1.495  -0.952  -5.189  1.00  0.00     0.045 A   
ATOM     31  C19 UNL     1       3.876  -0.665  -6.685  1.00  0.00     0.037 A   
ATOM     32  C21 UNL     1       1.782  -1.764  -6.267  1.00  0.00     0.109 A   
ATOM     33  C20 UNL     1       2.938  -1.626  -6.994  1.00  0.00     0.108 A   
ATOM     34  O3  UNL     1       0.993  -2.769  -6.731  1.00  0.00    -0.316 OA  
ATOM     35  O4  UNL     1       3.022  -2.523  -8.009  1.00  0.00    -0.316 OA  
ATOM     36  C23 UNL     1       1.766  -3.221  -7.866  1.00  0.00     0.337 C   
ENDBRANCH  27  28
ENDBRANCH  24  27
ENDBRANCH   1  24
BRANCH   1  37
ATOM     37  C24 UNL     1       3.787  -1.317  -0.968  1.00  0.00     0.043 C   
ATOM     38  C25 UNL     1       4.748  -2.013  -1.952  1.00  0.00     0.010 C   
ATOM     39  C29 UNL     1       4.562  -0.338  -0.063  1.00  0.00     0.010 C   
ATOM     40  C26 UNL     1       5.898  -2.704  -1.222  1.00  0.00     0.001 C   
ATOM     41  C28 UNL     1       5.714  -1.036   0.660  1.00  0.00     0.001 C   
ATOM     42  C27 UNL     1       6.652  -1.736  -0.318  1.00  0.00     0.000 C   
ENDBRANCH   1  37
TORSDOF 7
