REMARK SMILES Cc1ccccc1CCn1cc([C@@H]([NH2+]Cc2ccc3c(c2)OCO3)C(C)(C)C)nn1
REMARK SMILES IDX 10 1 11 2 12 3 29 4 30 5 9 7 8 8 7 9 2 10 3 11 4 12 6 13
REMARK SMILES IDX 5 14 1 15 13 16 14 17 15 20 16 21 17 22 21 23 18 24 20 25
REMARK SMILES IDX 19 26 22 27 24 28 23 29 25 30 26 31 27 32 28 33
REMARK H PARENT 11 6 14 18 14 19
ROOT
ATOM     1   N1  UNL     1       0.630  -1.683   3.278  1.00  0.00    -0.212 N   
ATOM     2   C10 UNL     1      -0.173  -1.781   2.178  1.00  0.00     0.045 A   
ATOM     3   C11 UNL     1       0.702  -2.060   1.152  1.00  0.00     0.127 A   
ATOM     4   N3  UNL     1       1.978  -2.115   1.653  1.00  0.00    -0.132 NA  
ATOM     5   N4  UNL     1       1.919  -1.893   2.955  1.00  0.00    -0.076 NA  
ATOM     6   H12 UNL     1      -1.242  -1.621   2.222  1.00  0.00     0.083 HD  
ENDROOT
BRANCH   1   7
ATOM     7   C9  UNL     1       0.248  -1.358   4.635  1.00  0.00     0.139 C   
BRANCH   7   8
ATOM     8   C8  UNL     1       0.611   0.075   5.035  1.00  0.00     0.057 C   
BRANCH   8   9
ATOM     9   C7  UNL     1      -0.059   1.138   4.184  1.00  0.00    -0.043 A   
ATOM     10  C2  UNL     1       0.667   2.010   3.344  1.00  0.00    -0.048 A   
ATOM     11  C3  UNL     1      -0.025   2.983   2.603  1.00  0.00     0.004 A   
ATOM     12  C4  UNL     1      -1.413   3.091   2.678  1.00  0.00     0.000 A   
ATOM     13  C6  UNL     1      -1.459   1.269   4.254  1.00  0.00     0.004 A   
ATOM     14  C5  UNL     1      -2.130   2.233   3.503  1.00  0.00     0.000 A   
ATOM     15  C1  UNL     1       2.168   1.964   3.243  1.00  0.00     0.044 C   
ENDBRANCH   8   9
ENDBRANCH   7   8
ENDBRANCH   1   7
BRANCH   3  16
ATOM     16  C12 UNL     1       0.479  -2.182  -0.323  1.00  0.00     0.120 C   
BRANCH  16  17
ATOM     17  N2  UNL     1       1.575  -1.422  -1.044  1.00  0.00     0.250 N   
ATOM     18  H14 UNL     1       2.464  -1.760  -0.650  1.00  0.00     0.199 HD  
ATOM     19  H15 UNL     1       1.580  -1.639  -2.043  1.00  0.00     0.199 HD  
BRANCH  17  20
ATOM     20  C13 UNL     1       1.562   0.064  -0.879  1.00  0.00     0.164 C   
BRANCH  20  21
ATOM     21  C14 UNL     1       0.374   0.714  -1.532  1.00  0.00    -0.002 A   
ATOM     22  C15 UNL     1      -0.703   1.183  -0.744  1.00  0.00     0.012 A   
ATOM     23  C19 UNL     1       0.307   0.827  -2.932  1.00  0.00     0.045 A   
ATOM     24  C16 UNL     1      -1.833   1.757  -1.335  1.00  0.00     0.037 A   
ATOM     25  C18 UNL     1      -0.822   1.397  -3.483  1.00  0.00     0.109 A   
ATOM     26  C17 UNL     1      -1.861   1.849  -2.709  1.00  0.00     0.108 A   
ATOM     27  O1  UNL     1      -1.047   1.576  -4.811  1.00  0.00    -0.316 OA  
ATOM     28  O2  UNL     1      -2.872   2.372  -3.451  1.00  0.00    -0.316 OA  
ATOM     29  C20 UNL     1      -2.340   2.224  -4.785  1.00  0.00     0.337 C   
ENDBRANCH  20  21
ENDBRANCH  17  20
ENDBRANCH  16  17
BRANCH  16  30
ATOM     30  C21 UNL     1       0.401  -3.660  -0.844  1.00  0.00     0.010 C   
ATOM     31  C22 UNL     1      -0.706  -4.429  -0.086  1.00  0.00     0.017 C   
ATOM     32  C23 UNL     1       1.726  -4.429  -0.679  1.00  0.00     0.017 C   
ATOM     33  C24 UNL     1       0.016  -3.679  -2.342  1.00  0.00     0.017 C   
ENDBRANCH  16  30
ENDBRANCH   3  16
TORSDOF 8
