REMARK SMILES O=C(Cn1cc([C@@H]([NH2+]Cc2ccc3c(c2)OCO3)C2CCCC2)nn1)c1ccccc1F
REMARK SMILES IDX 4 1 5 2 6 3 24 4 25 5 3 7 2 8 1 9 26 10 27 11 31 12 28 13
REMARK SMILES IDX 30 14 29 15 32 16 7 17 8 18 9 21 10 22 11 23 15 24 12 25
REMARK SMILES IDX 14 26 13 27 16 28 18 29 17 30 19 31 20 32 23 33 21 34 22 35
REMARK H PARENT 5 6 8 19 8 20
ROOT
ATOM     1   N1  UNL     1      -2.332  -0.606   1.958  1.00  0.00    -0.204 N   
ATOM     2   C3  UNL     1      -1.078  -1.130   1.808  1.00  0.00     0.046 A   
ATOM     3   C4  UNL     1      -0.299  -0.035   1.509  1.00  0.00     0.127 A   
ATOM     4   N3  UNL     1      -1.079   1.094   1.527  1.00  0.00    -0.132 NA  
ATOM     5   N4  UNL     1      -2.318   0.733   1.817  1.00  0.00    -0.076 NA  
ATOM     6   H3  UNL     1      -0.880  -2.191   1.873  1.00  0.00     0.083 HD  
ENDROOT
BRANCH   1   7
ATOM     7   C2  UNL     1      -3.590  -1.304   2.142  1.00  0.00     0.215 C   
BRANCH   7   8
ATOM     8   C1  UNL     1      -4.249  -1.543   0.799  1.00  0.00     0.185 C   
ATOM     9   O1  UNL     1      -3.602  -1.741  -0.231  1.00  0.00    -0.292 OA  
BRANCH   8  10
ATOM     10  C19 UNL     1      -5.730  -1.526   0.722  1.00  0.00     0.055 A   
ATOM     11  C20 UNL     1      -6.344  -1.114  -0.467  1.00  0.00     0.015 A   
ATOM     12  C24 UNL     1      -6.524  -1.925   1.799  1.00  0.00     0.134 A   
ATOM     13  C21 UNL     1      -7.737  -1.083  -0.560  1.00  0.00     0.001 A   
ATOM     14  C23 UNL     1      -7.915  -1.900   1.708  1.00  0.00     0.040 A   
ATOM     15  C22 UNL     1      -8.521  -1.474   0.527  1.00  0.00     0.003 A   
ATOM     16  F1  UNL     1      -5.963  -2.367   2.933  1.00  0.00    -0.206 F   
ENDBRANCH   8  10
ENDBRANCH   7   8
ENDBRANCH   1   7
BRANCH   3  17
ATOM     17  C5  UNL     1       1.136   0.083   1.112  1.00  0.00     0.117 C   
BRANCH  17  18
ATOM     18  N2  UNL     1       1.286   1.218   0.129  1.00  0.00     0.249 N   
ATOM     19  H5  UNL     1       0.653   1.958   0.461  1.00  0.00     0.199 HD  
ATOM     20  H6  UNL     1       2.232   1.608   0.146  1.00  0.00     0.199 HD  
BRANCH  18  21
ATOM     21  C6  UNL     1       0.897   0.913  -1.279  1.00  0.00     0.164 C   
BRANCH  21  22
ATOM     22  C7  UNL     1       1.993   0.205  -2.023  1.00  0.00    -0.002 A   
ATOM     23  C8  UNL     1       1.911  -1.185  -2.282  1.00  0.00     0.012 A   
ATOM     24  C12 UNL     1       3.129   0.921  -2.443  1.00  0.00     0.045 A   
ATOM     25  C9  UNL     1       2.944  -1.854  -2.948  1.00  0.00     0.037 A   
ATOM     26  C11 UNL     1       4.129   0.231  -3.097  1.00  0.00     0.109 A   
ATOM     27  C10 UNL     1       4.040  -1.117  -3.343  1.00  0.00     0.108 A   
ATOM     28  O2  UNL     1       5.286   0.772  -3.560  1.00  0.00    -0.316 OA  
ATOM     29  O3  UNL     1       5.130  -1.594  -3.996  1.00  0.00    -0.316 OA  
ATOM     30  C13 UNL     1       5.896  -0.383  -4.179  1.00  0.00     0.337 C   
ENDBRANCH  21  22
ENDBRANCH  18  21
ENDBRANCH  17  18
BRANCH  17  31
ATOM     31  C14 UNL     1       2.061   0.297   2.326  1.00  0.00     0.043 C   
ATOM     32  C15 UNL     1       1.873   1.622   3.084  1.00  0.00     0.010 C   
ATOM     33  C18 UNL     1       3.564   0.232   1.982  1.00  0.00     0.010 C   
ATOM     34  C16 UNL     1       3.247   1.909   3.673  1.00  0.00     0.001 C   
ATOM     35  C17 UNL     1       4.182   1.509   2.547  1.00  0.00     0.001 C   
ENDBRANCH  17  31
ENDBRANCH   3  17
TORSDOF 8
