REMARK SMILES CC(C)[C@H]([NH2+]Cc1ccc2c(c1)OCO2)c1cn(Cc2cncn2C)nn1
REMARK SMILES IDX 16 1 17 2 18 3 26 4 27 5 4 7 2 8 1 9 3 10 5 11 6 14 7 15
REMARK SMILES IDX 8 16 12 17 9 18 11 19 10 20 13 21 15 22 14 23 19 24 20 25
REMARK SMILES IDX 21 26 24 27 22 28 23 29 25 30
REMARK H PARENT 17 6 5 12 5 13
ROOT
ATOM     1   C13 UNL     1      -0.811  -1.009   2.608  1.00  0.00     0.127 A   
ATOM     2   C14 UNL     1      -0.526  -0.117   3.619  1.00  0.00     0.046 A   
ATOM     3   N2  UNL     1       0.809   0.144   3.462  1.00  0.00    -0.206 N   
ATOM     4   N5  UNL     1       1.318  -0.556   2.429  1.00  0.00    -0.076 NA  
ATOM     5   N6  UNL     1       0.336  -1.268   1.900  1.00  0.00    -0.132 NA  
ATOM     6   H18 UNL     1      -1.122   0.358   4.386  1.00  0.00     0.083 HD  
ENDROOT
BRANCH   1   7
ATOM     7   C4  UNL     1      -2.100  -1.637   2.183  1.00  0.00     0.117 C   
BRANCH   7   8
ATOM     8   C2  UNL     1      -2.428  -2.914   3.001  1.00  0.00     0.037 C   
ATOM     9   C1  UNL     1      -3.881  -3.359   2.796  1.00  0.00     0.014 C   
ATOM     10  C3  UNL     1      -1.484  -4.090   2.725  1.00  0.00     0.014 C   
ENDBRANCH   7   8
BRANCH   7  11
ATOM     11  N1  UNL     1      -2.068  -1.950   0.712  1.00  0.00     0.249 N   
ATOM     12  H9  UNL     1      -2.768  -2.649   0.448  1.00  0.00     0.199 HD  
ATOM     13  H10 UNL     1      -1.149  -2.375   0.520  1.00  0.00     0.199 HD  
BRANCH  11  14
ATOM     14  C5  UNL     1      -2.200  -0.771  -0.190  1.00  0.00     0.164 C   
BRANCH  14  15
ATOM     15  C6  UNL     1      -2.062  -1.193  -1.625  1.00  0.00    -0.002 A   
ATOM     16  C7  UNL     1      -3.207  -1.492  -2.401  1.00  0.00     0.012 A   
ATOM     17  C11 UNL     1      -0.783  -1.345  -2.189  1.00  0.00     0.045 A   
ATOM     18  C8  UNL     1      -3.083  -1.927  -3.725  1.00  0.00     0.037 A   
ATOM     19  C10 UNL     1      -0.697  -1.777  -3.497  1.00  0.00     0.109 A   
ATOM     20  C9  UNL     1      -1.814  -2.059  -4.243  1.00  0.00     0.108 A   
ATOM     21  O1  UNL     1       0.455  -1.976  -4.189  1.00  0.00    -0.316 OA  
ATOM     22  O2  UNL     1      -1.507  -2.470  -5.501  1.00  0.00    -0.316 OA  
ATOM     23  C12 UNL     1      -0.065  -2.395  -5.471  1.00  0.00     0.337 C   
ENDBRANCH  14  15
ENDBRANCH  11  14
ENDBRANCH   7  11
ENDBRANCH   1   7
BRANCH   3  24
ATOM     24  C15 UNL     1       1.639   1.068   4.220  1.00  0.00     0.187 C   
BRANCH  24  25
ATOM     25  C16 UNL     1       1.466   2.451   3.702  1.00  0.00     0.048 A   
ATOM     26  C17 UNL     1       0.547   3.424   4.040  1.00  0.00     0.133 A   
ATOM     27  N4  UNL     1       2.238   3.035   2.724  1.00  0.00    -0.296 N   
ATOM     28  N3  UNL     1       0.712   4.543   3.273  1.00  0.00    -0.247 NA  
ATOM     29  C18 UNL     1       1.743   4.289   2.501  1.00  0.00     0.188 A   
ATOM     30  C19 UNL     1       3.370   2.461   2.037  1.00  0.00     0.137 C   
ENDBRANCH  24  25
ENDBRANCH   3  24
TORSDOF 7
