REMARK SMILES Oc1cc(Cl)ccc1CCn1cc([C@@H]([NH2+]Cc2ccc3c(c2)OCO3)C2CCCCC2)nn1
REMARK SMILES IDX 11 1 12 2 13 3 32 4 33 5 10 7 9 8 8 9 2 10 3 11 4 12 7 13
REMARK SMILES IDX 6 14 5 15 1 16 14 18 15 19 16 22 17 23 18 24 22 25 19 26
REMARK SMILES IDX 21 27 20 28 23 29 25 30 24 31 26 32 27 33 31 34 28 35 30 36
REMARK SMILES IDX 29 37
REMARK H PARENT 12 6 1 17 15 20 15 21
ROOT
ATOM     1   N1  UNL     1       0.399   1.487  -2.790  1.00  0.00    -0.212 N   
ATOM     2   C9  UNL     1       0.847   0.393  -2.108  1.00  0.00     0.045 A   
ATOM     3   C10 UNL     1       1.115   0.879  -0.847  1.00  0.00     0.127 A   
ATOM     4   N3  UNL     1       0.898   2.233  -0.830  1.00  0.00    -0.132 NA  
ATOM     5   N4  UNL     1       0.462   2.594  -2.027  1.00  0.00    -0.076 NA  
ATOM     6   H9  UNL     1       0.864  -0.598  -2.542  1.00  0.00     0.083 HD  
ENDROOT
BRANCH   1   7
ATOM     7   C8  UNL     1      -0.205   1.535  -4.105  1.00  0.00     0.139 C   
BRANCH   7   8
ATOM     8   C7  UNL     1      -1.726   1.722  -4.056  1.00  0.00     0.059 C   
BRANCH   8   9
ATOM     9   C6  UNL     1      -2.449   0.547  -3.433  1.00  0.00    -0.016 A   
ATOM     10  C1  UNL     1      -2.713   0.438  -2.059  1.00  0.00     0.076 A   
ATOM     11  C2  UNL     1      -3.357  -0.684  -1.538  1.00  0.00     0.054 A   
ATOM     12  C3  UNL     1      -3.751  -1.714  -2.385  1.00  0.00     0.043 A   
ATOM     13  C5  UNL     1      -2.854  -0.508  -4.271  1.00  0.00     0.008 A   
ATOM     14  C4  UNL     1      -3.502  -1.631  -3.751  1.00  0.00     0.021 A   
ATOM     15  CL1 UNL     1      -4.540  -3.098  -1.740  1.00  0.00    -0.084 Cl  
BRANCH  10  16
ATOM     16  O1  UNL     1      -2.358   1.383  -1.138  1.00  0.00    -0.361 OA  
ATOM     17  H1  UNL     1      -2.004   2.182  -1.566  1.00  0.00     0.218 HD  
ENDBRANCH  10  16
ENDBRANCH   8   9
ENDBRANCH   7   8
ENDBRANCH   1   7
BRANCH   3  18
ATOM     18  C11 UNL     1       1.562   0.177   0.396  1.00  0.00     0.117 C   
BRANCH  18  19
ATOM     19  N2  UNL     1       2.340   1.111   1.289  1.00  0.00     0.249 N   
ATOM     20  H11 UNL     1       2.399   0.736   2.238  1.00  0.00     0.199 HD  
ATOM     21  H12 UNL     1       1.793   1.982   1.338  1.00  0.00     0.199 HD  
BRANCH  19  22
ATOM     22  C12 UNL     1       3.711   1.478   0.827  1.00  0.00     0.164 C   
BRANCH  22  23
ATOM     23  C13 UNL     1       4.665   0.315   0.843  1.00  0.00    -0.002 A   
ATOM     24  C14 UNL     1       5.163  -0.219  -0.371  1.00  0.00     0.012 A   
ATOM     25  C18 UNL     1       5.055  -0.265   2.064  1.00  0.00     0.045 A   
ATOM     26  C15 UNL     1       6.028  -1.318  -0.371  1.00  0.00     0.037 A   
ATOM     27  C17 UNL     1       5.906  -1.350   2.027  1.00  0.00     0.109 A   
ATOM     28  C16 UNL     1       6.378  -1.865   0.845  1.00  0.00     0.108 A   
ATOM     29  O2  UNL     1       6.368  -2.027   3.111  1.00  0.00    -0.316 OA  
ATOM     30  O3  UNL     1       7.199  -2.930   1.036  1.00  0.00    -0.316 OA  
ATOM     31  C19 UNL     1       7.227  -3.004   2.478  1.00  0.00     0.337 C   
ENDBRANCH  22  23
ENDBRANCH  19  22
ENDBRANCH  18  19
BRANCH  18  32
ATOM     32  C20 UNL     1       0.363  -0.435   1.176  1.00  0.00     0.043 C   
ATOM     33  C21 UNL     1      -0.527   0.607   1.884  1.00  0.00     0.010 C   
ATOM     34  C25 UNL     1       0.829  -1.500   2.190  1.00  0.00     0.010 C   
ATOM     35  C22 UNL     1      -1.714  -0.054   2.586  1.00  0.00     0.001 C   
ATOM     36  C24 UNL     1      -0.356  -2.159   2.897  1.00  0.00     0.001 C   
ATOM     37  C23 UNL     1      -1.258  -1.127   3.569  1.00  0.00     0.000 C   
ENDBRANCH  18  32
ENDBRANCH   3  18
TORSDOF 9
