REMARK SMILES COc1cc(F)c(F)cc1Cn1cc([C@@H]([NH2+]Cc2ccc3c(c2)OCO3)C2CCCC2)nn1
REMARK SMILES IDX 12 1 13 2 14 3 32 4 33 5 11 7 10 8 3 9 4 10 5 11 9 12 7 13
REMARK SMILES IDX 6 14 8 15 2 16 1 17 15 18 16 19 17 22 18 23 19 24 23 25
REMARK SMILES IDX 20 26 22 27 21 28 24 29 26 30 25 31 27 32 28 33 31 34 29 35
REMARK SMILES IDX 30 36
REMARK H PARENT 13 6 16 20 16 21
ROOT
ATOM     1   N1  UNL     1      -2.427   0.603  -0.365  1.00  0.00    -0.208 N   
ATOM     2   C9  UNL     1      -1.374   0.977   0.424  1.00  0.00     0.046 A   
ATOM     3   C10 UNL     1      -0.352   1.196  -0.471  1.00  0.00     0.127 A   
ATOM     4   N3  UNL     1      -0.810   0.969  -1.745  1.00  0.00    -0.132 NA  
ATOM     5   N4  UNL     1      -2.080   0.608  -1.667  1.00  0.00    -0.076 NA  
ATOM     6   H8  UNL     1      -1.449   1.027   1.501  1.00  0.00     0.083 HD  
ENDROOT
BRANCH   1   7
ATOM     7   C8  UNL     1      -3.779   0.260   0.038  1.00  0.00     0.172 C   
BRANCH   7   8
ATOM     8   C7  UNL     1      -3.862  -1.178   0.495  1.00  0.00     0.005 A   
ATOM     9   C2  UNL     1      -3.751  -1.524   1.859  1.00  0.00     0.083 A   
ATOM     10  C3  UNL     1      -3.835  -2.865   2.243  1.00  0.00     0.076 A   
ATOM     11  C4  UNL     1      -4.020  -3.853   1.279  1.00  0.00     0.161 A   
ATOM     12  C6  UNL     1      -4.041  -2.193  -0.463  1.00  0.00     0.050 A   
ATOM     13  C5  UNL     1      -4.118  -3.522  -0.064  1.00  0.00     0.159 A   
ATOM     14  F1  UNL     1      -4.085  -5.135   1.665  1.00  0.00    -0.204 F   
ATOM     15  F2  UNL     1      -4.281  -4.477  -0.988  1.00  0.00    -0.204 F   
BRANCH   9  16
ATOM     16  O1  UNL     1      -3.542  -0.481   2.723  1.00  0.00    -0.349 OA  
ATOM     17  C1  UNL     1      -3.659  -0.760   4.116  1.00  0.00     0.203 C   
ENDBRANCH   9  16
ENDBRANCH   7   8
ENDBRANCH   1   7
BRANCH   3  18
ATOM     18  C11 UNL     1       1.081   1.567  -0.274  1.00  0.00     0.117 C   
BRANCH  18  19
ATOM     19  N2  UNL     1       1.919   0.926  -1.361  1.00  0.00     0.249 N   
ATOM     20  H10 UNL     1       1.268   0.736  -2.139  1.00  0.00     0.199 HD  
ATOM     21  H11 UNL     1       2.607   1.587  -1.733  1.00  0.00     0.199 HD  
BRANCH  19  22
ATOM     22  C12 UNL     1       2.610  -0.345  -1.005  1.00  0.00     0.164 C   
BRANCH  22  23
ATOM     23  C13 UNL     1       1.695  -1.450  -0.557  1.00  0.00    -0.002 A   
ATOM     24  C14 UNL     1       0.784  -2.047  -1.462  1.00  0.00     0.012 A   
ATOM     25  C18 UNL     1       1.733  -1.897   0.776  1.00  0.00     0.045 A   
ATOM     26  C15 UNL     1      -0.080  -3.067  -1.049  1.00  0.00     0.037 A   
ATOM     27  C17 UNL     1       0.873  -2.909   1.149  1.00  0.00     0.109 A   
ATOM     28  C16 UNL     1      -0.007  -3.478   0.263  1.00  0.00     0.108 A   
ATOM     29  O2  UNL     1       0.788  -3.457   2.390  1.00  0.00    -0.316 OA  
ATOM     30  O3  UNL     1      -0.753  -4.459   0.833  1.00  0.00    -0.316 OA  
ATOM     31  C19 UNL     1      -0.203  -4.486   2.166  1.00  0.00     0.337 C   
ENDBRANCH  22  23
ENDBRANCH  19  22
ENDBRANCH  18  19
BRANCH  18  32
ATOM     32  C20 UNL     1       1.283   3.096  -0.272  1.00  0.00     0.043 C   
ATOM     33  C21 UNL     1       0.944   3.818  -1.584  1.00  0.00     0.010 C   
ATOM     34  C24 UNL     1       2.718   3.541   0.074  1.00  0.00     0.010 C   
ATOM     35  C22 UNL     1       1.757   5.100  -1.501  1.00  0.00     0.001 C   
ATOM     36  C23 UNL     1       3.085   4.625  -0.936  1.00  0.00     0.001 C   
ENDBRANCH  18  32
ENDBRANCH   3  18
TORSDOF 8
