REMARK SMILES Cc1cc(CCn2cc([C@@H]([NH2+]Cc3ccc4c(c3)OCO4)C(C)(C)C)nn2)cnc1Cl
REMARK SMILES IDX 7 1 8 2 9 3 26 4 27 5 6 7 5 8 4 9 2 10 3 11 30 12 29 13
REMARK SMILES IDX 28 14 1 15 31 16 10 17 11 18 12 21 13 22 14 23 18 24 15 25
REMARK SMILES IDX 17 26 16 27 19 28 21 29 20 30 22 31 23 32 24 33 25 34
REMARK H PARENT 8 6 11 19 11 20
ROOT
ATOM     1   N1  UNL     1       0.137  -3.148   0.016  1.00  0.00    -0.212 N   
ATOM     2   C7  UNL     1      -0.593  -2.294   0.796  1.00  0.00     0.045 A   
ATOM     3   C8  UNL     1      -1.057  -1.346  -0.090  1.00  0.00     0.127 A   
ATOM     4   N3  UNL     1      -0.640  -1.675  -1.355  1.00  0.00    -0.132 NA  
ATOM     5   N4  UNL     1       0.088  -2.779  -1.277  1.00  0.00    -0.076 NA  
ATOM     6   H9  UNL     1      -0.654  -2.399   1.871  1.00  0.00     0.083 HD  
ENDROOT
BRANCH   1   7
ATOM     7   C6  UNL     1       1.053  -4.183   0.457  1.00  0.00     0.139 C   
BRANCH   7   8
ATOM     8   C5  UNL     1       2.528  -3.752   0.385  1.00  0.00     0.058 C   
BRANCH   8   9
ATOM     9   C4  UNL     1       2.783  -2.451   1.105  1.00  0.00    -0.028 A   
ATOM     10  C2  UNL     1       3.057  -1.151   3.133  1.00  0.00    -0.013 A   
ATOM     11  C3  UNL     1       2.963  -2.392   2.489  1.00  0.00     0.012 A   
ATOM     12  C23 UNL     1       2.929  -0.015   2.337  1.00  0.00     0.131 A   
ATOM     13  N5  UNL     1       2.745  -0.032   0.997  1.00  0.00    -0.244 NA  
ATOM     14  C22 UNL     1       2.729  -1.246   0.411  1.00  0.00     0.116 A   
ATOM     15  C1  UNL     1       3.251  -1.076   4.617  1.00  0.00     0.048 C   
ATOM     16  CL1 UNL     1       2.897   1.577   2.985  1.00  0.00    -0.062 Cl  
ENDBRANCH   8   9
ENDBRANCH   7   8
ENDBRANCH   1   7
BRANCH   3  17
ATOM     17  C9  UNL     1      -1.795  -0.063   0.152  1.00  0.00     0.120 C   
BRANCH  17  18
ATOM     18  N2  UNL     1      -1.243   1.026  -0.738  1.00  0.00     0.250 N   
ATOM     19  H11 UNL     1      -1.271   0.681  -1.706  1.00  0.00     0.199 HD  
ATOM     20  H12 UNL     1      -1.819   1.870  -0.705  1.00  0.00     0.199 HD  
BRANCH  18  21
ATOM     21  C10 UNL     1       0.172   1.430  -0.465  1.00  0.00     0.164 C   
BRANCH  21  22
ATOM     22  C11 UNL     1       0.509   2.682  -1.226  1.00  0.00    -0.002 A   
ATOM     23  C12 UNL     1       0.442   3.945  -0.592  1.00  0.00     0.012 A   
ATOM     24  C16 UNL     1       0.842   2.607  -2.590  1.00  0.00     0.045 A   
ATOM     25  C13 UNL     1       0.709   5.120  -1.303  1.00  0.00     0.037 A   
ATOM     26  C15 UNL     1       1.099   3.785  -3.261  1.00  0.00     0.109 A   
ATOM     27  C14 UNL     1       1.033   5.006  -2.636  1.00  0.00     0.108 A   
ATOM     28  O1  UNL     1       1.431   3.890  -4.574  1.00  0.00    -0.316 OA  
ATOM     29  O2  UNL     1       1.319   6.034  -3.477  1.00  0.00    -0.316 OA  
ATOM     30  C17 UNL     1       1.597   5.321  -4.701  1.00  0.00     0.337 C   
ENDBRANCH  21  22
ENDBRANCH  18  21
ENDBRANCH  17  18
BRANCH  17  31
ATOM     31  C18 UNL     1      -3.351  -0.178  -0.026  1.00  0.00     0.010 C   
ATOM     32  C19 UNL     1      -4.041   1.146   0.379  1.00  0.00     0.017 C   
ATOM     33  C20 UNL     1      -3.912  -1.279   0.903  1.00  0.00     0.017 C   
ATOM     34  C21 UNL     1      -3.763  -0.510  -1.474  1.00  0.00     0.017 C   
ENDBRANCH  17  31
ENDBRANCH   3  17
TORSDOF 8
