REMARK SMILES c1ccc2nc(-n3cc([C@@H]([NH2+]Cc4ccc5c(c4)OCO5)C4CCCCC4)nn3)cnc2c1
REMARK SMILES IDX 10 1 9 2 7 3 8 4 29 5 28 6 6 7 1 8 2 9 33 10 3 11 32 12 4 13
REMARK SMILES IDX 31 14 5 15 30 16 11 17 12 20 13 21 14 22 18 23 15 24 17 25
REMARK SMILES IDX 16 26 19 27 21 28 20 29 22 30 23 31 27 32 24 33 26 34 25 35
REMARK H PARENT 11 18 11 19
ROOT
ATOM     1   C8  UNL     1       1.086   0.559   0.612  1.00  0.00     0.117 C   
ENDROOT
BRANCH   1   2
ATOM     2   C7  UNL     1       0.612  -0.003  -0.697  1.00  0.00     0.128 A   
ATOM     3   N2  UNL     1      -0.463  -0.797  -2.429  1.00  0.00    -0.161 N   
ATOM     4   C6  UNL     1      -0.653  -0.262  -1.170  1.00  0.00     0.137 A   
ATOM     5   N5  UNL     1       0.869  -0.887  -2.676  1.00  0.00    -0.069 NA  
ATOM     6   N4  UNL     1       1.527  -0.408  -1.632  1.00  0.00    -0.131 NA  
BRANCH   3   7
ATOM     7   C5  UNL     1      -1.459  -1.214  -3.338  1.00  0.00     0.165 A   
ATOM     8   C1  UNL     1      -5.644  -2.353  -5.686  1.00  0.00     0.002 A   
ATOM     9   C2  UNL     1      -6.018  -1.842  -4.450  1.00  0.00     0.002 A   
ATOM     10  C25 UNL     1      -4.291  -2.445  -6.014  1.00  0.00     0.030 A   
ATOM     11  C3  UNL     1      -5.035  -1.425  -3.550  1.00  0.00     0.031 A   
ATOM     12  C24 UNL     1      -3.304  -2.034  -5.127  1.00  0.00     0.089 A   
ATOM     13  C4  UNL     1      -3.684  -1.511  -3.865  1.00  0.00     0.091 A   
ATOM     14  N6  UNL     1      -2.007  -2.142  -5.476  1.00  0.00    -0.251 NA  
ATOM     15  N1  UNL     1      -2.763  -1.099  -2.967  1.00  0.00    -0.227 NA  
ATOM     16  C23 UNL     1      -1.092  -1.726  -4.571  1.00  0.00     0.158 A   
ENDBRANCH   3   7
ENDBRANCH   1   2
BRANCH   1  17
ATOM     17  N3  UNL     1       2.404  -0.108   0.946  1.00  0.00     0.249 N   
ATOM     18  H6  UNL     1       2.247  -1.121   0.858  1.00  0.00     0.199 HD  
ATOM     19  H7  UNL     1       3.064   0.099   0.185  1.00  0.00     0.199 HD  
BRANCH  17  20
ATOM     20  C9  UNL     1       3.036   0.148   2.266  1.00  0.00     0.164 C   
BRANCH  20  21
ATOM     21  C10 UNL     1       2.167  -0.245   3.428  1.00  0.00    -0.002 A   
ATOM     22  C11 UNL     1       1.595   0.745   4.262  1.00  0.00     0.012 A   
ATOM     23  C15 UNL     1       1.897  -1.602   3.682  1.00  0.00     0.045 A   
ATOM     24  C12 UNL     1       0.758   0.394   5.327  1.00  0.00     0.037 A   
ATOM     25  C14 UNL     1       1.068  -1.913   4.740  1.00  0.00     0.109 A   
ATOM     26  C13 UNL     1       0.513  -0.944   5.539  1.00  0.00     0.108 A   
ATOM     27  O1  UNL     1       0.704  -3.167   5.114  1.00  0.00    -0.316 OA  
ATOM     28  O2  UNL     1      -0.269  -1.466   6.519  1.00  0.00    -0.316 OA  
ATOM     29  C16 UNL     1      -0.122  -2.880   6.267  1.00  0.00     0.337 C   
ENDBRANCH  20  21
ENDBRANCH  17  20
ENDBRANCH   1  17
BRANCH   1  30
ATOM     30  C17 UNL     1       1.225   2.104   0.621  1.00  0.00     0.043 C   
ATOM     31  C18 UNL     1      -0.141   2.799   0.446  1.00  0.00     0.010 C   
ATOM     32  C22 UNL     1       2.235   2.660  -0.404  1.00  0.00     0.010 C   
ATOM     33  C19 UNL     1      -0.018   4.318   0.545  1.00  0.00     0.001 C   
ATOM     34  C21 UNL     1       2.351   4.181  -0.310  1.00  0.00     0.001 C   
ATOM     35  C20 UNL     1       0.995   4.863  -0.457  1.00  0.00     0.000 C   
ENDBRANCH   1  30
TORSDOF 6
