REMARK SMILES Cc1nn(C)c(Cl)c1Cn1cc([C@@H]([NH2+]Cc2ccc3c(c2)OCO3)C(C)(C)C)nn1
REMARK SMILES IDX 10 1 11 2 12 3 29 4 30 5 9 7 8 8 2 9 3 10 4 11 6 12 1 13
REMARK SMILES IDX 5 14 7 15 13 16 14 17 15 20 16 21 17 22 21 23 18 24 20 25
REMARK SMILES IDX 19 26 22 27 24 28 23 29 25 30 26 31 27 32 28 33
REMARK H PARENT 11 6 14 18 14 19
ROOT
ATOM     1   N3  UNL     1      -1.095  -0.980  -2.386  1.00  0.00    -0.208 N   
ATOM     2   C7  UNL     1      -1.580  -0.655  -1.148  1.00  0.00     0.046 A   
ATOM     3   C8  UNL     1      -1.350   0.700  -1.048  1.00  0.00     0.127 A   
ATOM     4   N5  UNL     1      -0.744   1.140  -2.198  1.00  0.00    -0.132 NA  
ATOM     5   N6  UNL     1      -0.609   0.110  -3.014  1.00  0.00    -0.076 NA  
ATOM     6   H9  UNL     1      -1.991  -1.394  -0.475  1.00  0.00     0.083 HD  
ENDROOT
BRANCH   1   7
ATOM     7   C6  UNL     1      -1.048  -2.285  -3.024  1.00  0.00     0.174 C   
BRANCH   7   8
ATOM     8   C5  UNL     1       0.239  -2.961  -2.724  1.00  0.00     0.029 A   
ATOM     9   C2  UNL     1       1.497  -2.780  -3.368  1.00  0.00     0.063 A   
ATOM     10  N1  UNL     1       2.451  -3.549  -2.829  1.00  0.00    -0.185 NA  
ATOM     11  N2  UNL     1       1.817  -4.253  -1.868  1.00  0.00    -0.217 N   
ATOM     12  C4  UNL     1       0.503  -3.910  -1.764  1.00  0.00     0.123 A   
ATOM     13  C1  UNL     1       1.840  -1.869  -4.491  1.00  0.00     0.069 C   
ATOM     14  C3  UNL     1       2.566  -5.248  -1.138  1.00  0.00     0.161 C   
ATOM     15  CL1 UNL     1      -0.517  -4.620  -0.602  1.00  0.00    -0.065 Cl  
ENDBRANCH   7   8
ENDBRANCH   1   7
BRANCH   3  16
ATOM     16  C9  UNL     1      -1.534   1.664   0.085  1.00  0.00     0.120 C   
BRANCH  16  17
ATOM     17  N4  UNL     1      -0.297   2.545   0.139  1.00  0.00     0.250 N   
ATOM     18  H11 UNL     1       0.165   2.433  -0.779  1.00  0.00     0.199 HD  
ATOM     19  H12 UNL     1      -0.543   3.537   0.183  1.00  0.00     0.199 HD  
BRANCH  17  20
ATOM     20  C10 UNL     1       0.699   2.239   1.202  1.00  0.00     0.164 C   
BRANCH  20  21
ATOM     21  C11 UNL     1       1.188   0.817   1.210  1.00  0.00    -0.002 A   
ATOM     22  C12 UNL     1       1.979   0.314   0.149  1.00  0.00     0.012 A   
ATOM     23  C16 UNL     1       0.840  -0.036   2.272  1.00  0.00     0.045 A   
ATOM     24  C13 UNL     1       2.412  -1.018   0.142  1.00  0.00     0.037 A   
ATOM     25  C15 UNL     1       1.281  -1.341   2.233  1.00  0.00     0.109 A   
ATOM     26  C14 UNL     1       2.046  -1.820   1.200  1.00  0.00     0.108 A   
ATOM     27  O1  UNL     1       1.024  -2.288   3.174  1.00  0.00    -0.316 OA  
ATOM     28  O2  UNL     1       2.373  -3.128   1.363  1.00  0.00    -0.316 OA  
ATOM     29  C17 UNL     1       1.751  -3.413   2.634  1.00  0.00     0.337 C   
ENDBRANCH  20  21
ENDBRANCH  17  20
ENDBRANCH  16  17
BRANCH  16  30
ATOM     30  C18 UNL     1      -2.835   2.532  -0.007  1.00  0.00     0.010 C   
ATOM     31  C19 UNL     1      -2.871   3.439  -1.254  1.00  0.00     0.017 C   
ATOM     32  C20 UNL     1      -2.966   3.422   1.251  1.00  0.00     0.017 C   
ATOM     33  C21 UNL     1      -4.077   1.613  -0.043  1.00  0.00     0.017 C   
ENDBRANCH  16  30
ENDBRANCH   3  16
TORSDOF 7
