REMARK SMILES COc1ccc(C)cc1Cn1cc([C@H](CC(C)C)[NH2+]Cc2ccc3c(c2)OCO3)nn1
REMARK SMILES IDX 11 1 12 2 13 3 30 4 31 5 10 7 9 8 3 9 4 10 5 11 8 12 6 13
REMARK SMILES IDX 7 14 2 15 1 16 14 17 15 18 16 19 17 20 18 21 19 22 20 25
REMARK SMILES IDX 21 26 22 27 26 28 23 29 25 30 24 31 27 32 29 33 28 34
REMARK H PARENT 12 6 19 23 19 24
ROOT
ATOM     1   N1  UNL     1      -1.417   0.519   1.734  1.00  0.00    -0.208 N   
ATOM     2   C10 UNL     1      -0.655  -0.614   1.638  1.00  0.00     0.046 A   
ATOM     3   C11 UNL     1       0.637  -0.157   1.761  1.00  0.00     0.127 A   
ATOM     4   N3  UNL     1       0.621   1.204   1.924  1.00  0.00    -0.132 NA  
ATOM     5   N4  UNL     1      -0.639   1.606   1.906  1.00  0.00    -0.076 NA  
ATOM     6   H12 UNL     1      -1.093  -1.589   1.469  1.00  0.00     0.083 HD  
ENDROOT
BRANCH   1   7
ATOM     7   C9  UNL     1      -2.860   0.646   1.627  1.00  0.00     0.172 C   
BRANCH   7   8
ATOM     8   C8  UNL     1      -3.287   0.642   0.179  1.00  0.00     0.002 A   
ATOM     9   C2  UNL     1      -3.671  -0.545  -0.469  1.00  0.00     0.079 A   
ATOM     10  C3  UNL     1      -4.040  -0.508  -1.816  1.00  0.00     0.034 A   
ATOM     11  C4  UNL     1      -4.032   0.700  -2.519  1.00  0.00     0.006 A   
ATOM     12  C7  UNL     1      -3.278   1.851  -0.543  1.00  0.00     0.011 A   
ATOM     13  C5  UNL     1      -3.639   1.886  -1.894  1.00  0.00    -0.051 A   
ATOM     14  C6  UNL     1      -3.668   3.185  -2.644  1.00  0.00     0.044 C   
BRANCH   9  15
ATOM     15  O1  UNL     1      -3.622  -1.688   0.287  1.00  0.00    -0.349 OA  
ATOM     16  C1  UNL     1      -4.396  -2.790  -0.182  1.00  0.00     0.203 C   
ENDBRANCH   9  15
ENDBRANCH   7   8
ENDBRANCH   1   7
BRANCH   3  17
ATOM     17  C12 UNL     1       1.944  -0.856   1.613  1.00  0.00     0.114 C   
BRANCH  17  18
ATOM     18  C13 UNL     1       2.757  -0.947   2.918  1.00  0.00     0.064 C   
BRANCH  18  19
ATOM     19  C14 UNL     1       2.227  -1.872   4.036  1.00  0.00    -0.012 C   
ATOM     20  C15 UNL     1       1.056  -1.277   4.818  1.00  0.00     0.007 C   
ATOM     21  C16 UNL     1       1.886  -3.276   3.539  1.00  0.00     0.007 C   
ENDBRANCH  18  19
ENDBRANCH  17  18
BRANCH  17  22
ATOM     22  N2  UNL     1       2.793  -0.077   0.627  1.00  0.00     0.249 N   
ATOM     23  H23 UNL     1       3.772  -0.380   0.655  1.00  0.00     0.199 HD  
ATOM     24  H24 UNL     1       2.784   0.904   0.944  1.00  0.00     0.199 HD  
BRANCH  22  25
ATOM     25  C17 UNL     1       2.316  -0.096  -0.783  1.00  0.00     0.164 C   
BRANCH  25  26
ATOM     26  C18 UNL     1       3.201   0.752  -1.650  1.00  0.00    -0.002 A   
ATOM     27  C19 UNL     1       3.002   2.153  -1.709  1.00  0.00     0.012 A   
ATOM     28  C23 UNL     1       4.259   0.172  -2.369  1.00  0.00     0.045 A   
ATOM     29  C20 UNL     1       3.838   2.966  -2.483  1.00  0.00     0.037 A   
ATOM     30  C22 UNL     1       5.062   1.002  -3.124  1.00  0.00     0.109 A   
ATOM     31  C21 UNL     1       4.858   2.359  -3.181  1.00  0.00     0.108 A   
ATOM     32  O2  UNL     1       6.120   0.605  -3.879  1.00  0.00    -0.316 OA  
ATOM     33  O3  UNL     1       5.760   2.987  -3.979  1.00  0.00    -0.316 OA  
ATOM     34  C24 UNL     1       6.550   1.868  -4.436  1.00  0.00     0.337 C   
ENDBRANCH  25  26
ENDBRANCH  22  25
ENDBRANCH  17  22
ENDBRANCH   3  17
TORSDOF 9
