REMARK SMILES Cc1cccc(CCn2cc([C@@H]([NH2+]Cc3ccc4c(c3)OCO4)C3CCCCC3)nn2)n1
REMARK SMILES IDX 9 1 10 2 11 3 30 4 31 5 8 7 7 8 6 9 2 10 3 11 32 12 4 13
REMARK SMILES IDX 5 14 1 15 12 16 13 17 14 20 15 21 16 22 20 23 17 24 19 25
REMARK SMILES IDX 18 26 21 27 23 28 22 29 24 30 25 31 29 32 26 33 28 34 27 35
REMARK H PARENT 10 6 13 18 13 19
ROOT
ATOM     1   N1  UNL     1       0.346  -1.607   3.413  1.00  0.00    -0.212 N   
ATOM     2   C9  UNL     1       1.065  -0.570   2.891  1.00  0.00     0.045 A   
ATOM     3   C10 UNL     1       0.349  -0.207   1.774  1.00  0.00     0.127 A   
ATOM     4   N3  UNL     1      -0.788  -0.970   1.696  1.00  0.00    -0.132 NA  
ATOM     5   N4  UNL     1      -0.781  -1.819   2.709  1.00  0.00    -0.076 NA  
ATOM     6   H11 UNL     1       2.014  -0.259   3.304  1.00  0.00     0.083 HD  
ENDROOT
BRANCH   1   7
ATOM     7   C8  UNL     1       0.675  -2.450   4.543  1.00  0.00     0.140 C   
BRANCH   7   8
ATOM     8   C7  UNL     1       1.316  -3.771   4.127  1.00  0.00     0.077 C   
BRANCH   8   9
ATOM     9   C6  UNL     1       2.767  -3.605   3.744  1.00  0.00     0.042 A   
ATOM     10  C2  UNL     1       4.333  -2.940   2.161  1.00  0.00     0.038 A   
ATOM     11  C3  UNL     1       5.386  -3.305   2.991  1.00  0.00     0.023 A   
ATOM     12  N5  UNL     1       3.032  -3.068   2.525  1.00  0.00    -0.258 NA  
ATOM     13  C4  UNL     1       5.098  -3.832   4.243  1.00  0.00     0.004 A   
ATOM     14  C5  UNL     1       3.772  -3.988   4.628  1.00  0.00     0.024 A   
ATOM     15  C1  UNL     1       4.617  -2.387   0.797  1.00  0.00     0.067 C   
ENDBRANCH   8   9
ENDBRANCH   7   8
ENDBRANCH   1   7
BRANCH   3  16
ATOM     16  C11 UNL     1       0.667   0.749   0.672  1.00  0.00     0.117 C   
BRANCH  16  17
ATOM     17  N2  UNL     1       0.145   0.210  -0.632  1.00  0.00     0.249 N   
ATOM     18  H13 UNL     1      -0.818  -0.113  -0.451  1.00  0.00     0.199 HD  
ATOM     19  H14 UNL     1       0.080   0.932  -1.354  1.00  0.00     0.199 HD  
BRANCH  17  20
ATOM     20  C12 UNL     1       0.892  -0.961  -1.173  1.00  0.00     0.164 C   
BRANCH  20  21
ATOM     21  C13 UNL     1       0.250  -1.447  -2.441  1.00  0.00    -0.002 A   
ATOM     22  C14 UNL     1      -0.811  -2.382  -2.385  1.00  0.00     0.012 A   
ATOM     23  C18 UNL     1       0.656  -0.933  -3.684  1.00  0.00     0.045 A   
ATOM     24  C15 UNL     1      -1.454  -2.811  -3.551  1.00  0.00     0.037 A   
ATOM     25  C17 UNL     1       0.001  -1.377  -4.814  1.00  0.00     0.109 A   
ATOM     26  C16 UNL     1      -1.024  -2.288  -4.751  1.00  0.00     0.108 A   
ATOM     27  O1  UNL     1       0.268  -0.982  -6.087  1.00  0.00    -0.316 OA  
ATOM     28  O2  UNL     1      -1.530  -2.585  -5.976  1.00  0.00    -0.316 OA  
ATOM     29  C19 UNL     1      -0.693  -1.771  -6.825  1.00  0.00     0.337 C   
ENDBRANCH  20  21
ENDBRANCH  17  20
ENDBRANCH  16  17
BRANCH  16  30
ATOM     30  C20 UNL     1       0.110   2.171   0.942  1.00  0.00     0.043 C   
ATOM     31  C21 UNL     1       0.739   3.213  -0.006  1.00  0.00     0.010 C   
ATOM     32  C25 UNL     1      -1.428   2.267   0.891  1.00  0.00     0.010 C   
ATOM     33  C22 UNL     1       0.245   4.626   0.300  1.00  0.00     0.001 C   
ATOM     34  C24 UNL     1      -1.915   3.684   1.194  1.00  0.00     0.001 C   
ATOM     35  C23 UNL     1      -1.277   4.710   0.263  1.00  0.00     0.000 C   
ENDBRANCH  16  30
ENDBRANCH   3  16
TORSDOF 8
