REMARK SMILES Cc1ncsc1CCn1cc([C@@H]([NH2+]Cc2ccc3c(c2)OCO3)C(C)(C)C)nn1
REMARK SMILES IDX 9 1 10 2 11 3 28 4 29 5 8 7 7 8 6 9 2 10 3 11 4 12 5 13 1 14
REMARK SMILES IDX 12 15 13 16 14 19 15 20 16 21 20 22 17 23 19 24 18 25 21 26
REMARK SMILES IDX 23 27 22 28 24 29 25 30 26 31 27 32
REMARK H PARENT 10 6 13 17 13 18
ROOT
ATOM     1   N2  UNL     1      -3.226  -0.951   0.929  1.00  0.00    -0.212 N   
ATOM     2   C7  UNL     1      -3.028   0.368   0.629  1.00  0.00     0.045 A   
ATOM     3   C8  UNL     1      -2.450   0.339  -0.621  1.00  0.00     0.127 A   
ATOM     4   N4  UNL     1      -2.345  -0.963  -1.037  1.00  0.00    -0.132 NA  
ATOM     5   N5  UNL     1      -2.846  -1.740  -0.090  1.00  0.00    -0.076 NA  
ATOM     6   H9  UNL     1      -3.250   1.162   1.327  1.00  0.00     0.083 HD  
ENDROOT
BRANCH   1   7
ATOM     7   C6  UNL     1      -3.603  -1.520   2.206  1.00  0.00     0.139 C   
BRANCH   7   8
ATOM     8   C5  UNL     1      -2.439  -2.221   2.919  1.00  0.00     0.066 C   
BRANCH   8   9
ATOM     9   C4  UNL     1      -1.211  -1.357   3.006  1.00  0.00     0.014 A   
ATOM     10  C2  UNL     1      -0.054  -1.383   2.240  1.00  0.00     0.048 A   
ATOM     11  N1  UNL     1       0.823  -0.335   2.482  1.00  0.00    -0.254 NA  
ATOM     12  C3  UNL     1       0.408   0.359   3.519  1.00  0.00     0.157 A   
ATOM     13  S1  UNL     1      -1.108  -0.094   4.166  1.00  0.00    -0.080 S   
ATOM     14  C1  UNL     1       0.315  -2.364   1.182  1.00  0.00     0.067 C   
ENDBRANCH   8   9
ENDBRANCH   7   8
ENDBRANCH   1   7
BRANCH   3  15
ATOM     15  C9  UNL     1      -1.866   1.432  -1.458  1.00  0.00     0.120 C   
BRANCH  15  16
ATOM     16  N3  UNL     1      -0.502   0.986  -1.933  1.00  0.00     0.250 N   
ATOM     17  H11 UNL     1      -0.518  -0.048  -1.955  1.00  0.00     0.199 HD  
ATOM     18  H12 UNL     1      -0.317   1.264  -2.898  1.00  0.00     0.199 HD  
BRANCH  16  19
ATOM     19  C10 UNL     1       0.636   1.401  -1.065  1.00  0.00     0.164 C   
BRANCH  19  20
ATOM     20  C11 UNL     1       1.944   0.866  -1.580  1.00  0.00    -0.002 A   
ATOM     21  C12 UNL     1       2.455   1.286  -2.832  1.00  0.00     0.012 A   
ATOM     22  C16 UNL     1       2.671  -0.061  -0.816  1.00  0.00     0.045 A   
ATOM     23  C13 UNL     1       3.659   0.774  -3.326  1.00  0.00     0.037 A   
ATOM     24  C15 UNL     1       3.856  -0.544  -1.331  1.00  0.00     0.109 A   
ATOM     25  C14 UNL     1       4.334  -0.143  -2.552  1.00  0.00     0.108 A   
ATOM     26  O1  UNL     1       4.673  -1.445  -0.725  1.00  0.00    -0.316 OA  
ATOM     27  O2  UNL     1       5.512  -0.739  -2.870  1.00  0.00    -0.316 OA  
ATOM     28  C17 UNL     1       5.739  -1.544  -1.695  1.00  0.00     0.337 C   
ENDBRANCH  19  20
ENDBRANCH  16  19
ENDBRANCH  15  16
BRANCH  15  29
ATOM     29  C18 UNL     1      -2.761   1.880  -2.662  1.00  0.00     0.010 C   
ATOM     30  C19 UNL     1      -2.948   0.774  -3.720  1.00  0.00     0.017 C   
ATOM     31  C20 UNL     1      -4.155   2.306  -2.151  1.00  0.00     0.017 C   
ATOM     32  C21 UNL     1      -2.137   3.115  -3.353  1.00  0.00     0.017 C   
ENDBRANCH  15  29
ENDBRANCH   3  15
TORSDOF 8
