REMARK SMILES Cc1nn(C)cc1CCn1cc([C@@H]([NH2+]Cc2ccc3c(c2)OCO3)C(C)C)nn1
REMARK SMILES IDX 10 1 11 2 12 3 28 4 29 5 9 7 8 8 7 9 2 10 3 11 4 12 6 13
REMARK SMILES IDX 1 14 5 15 13 16 14 17 15 20 16 21 17 22 21 23 18 24 20 25
REMARK SMILES IDX 19 26 22 27 24 28 23 29 25 30 26 31 27 32
REMARK H PARENT 11 6 14 18 14 19
ROOT
ATOM     1   N3  UNL     1       0.469   3.171  -1.569  1.00  0.00    -0.212 N   
ATOM     2   C8  UNL     1       1.018   2.905  -0.340  1.00  0.00     0.045 A   
ATOM     3   C9  UNL     1       1.570   1.651  -0.502  1.00  0.00     0.127 A   
ATOM     4   N5  UNL     1       1.503   1.299  -1.825  1.00  0.00    -0.132 NA  
ATOM     5   N6  UNL     1       0.856   2.255  -2.476  1.00  0.00    -0.076 NA  
ATOM     6   H12 UNL     1       0.808   3.514   0.528  1.00  0.00     0.083 HD  
ENDROOT
BRANCH   1   7
ATOM     7   C7  UNL     1      -0.679   4.023  -1.827  1.00  0.00     0.139 C   
BRANCH   7   8
ATOM     8   C6  UNL     1      -2.006   3.237  -1.856  1.00  0.00     0.060 C   
BRANCH   8   9
ATOM     9   C5  UNL     1      -2.117   2.240  -0.741  1.00  0.00    -0.008 A   
ATOM     10  C2  UNL     1      -1.878   0.834  -0.793  1.00  0.00     0.060 A   
ATOM     11  N1  UNL     1      -1.743   0.324   0.444  1.00  0.00    -0.187 NA  
ATOM     12  N2  UNL     1      -2.277   1.289   1.228  1.00  0.00    -0.235 N   
ATOM     13  C4  UNL     1      -2.401   2.484   0.586  1.00  0.00     0.100 A   
ATOM     14  C1  UNL     1      -1.673  -0.040  -1.978  1.00  0.00     0.069 C   
ATOM     15  C3  UNL     1      -2.579   1.008   2.613  1.00  0.00     0.159 C   
ENDBRANCH   8   9
ENDBRANCH   7   8
ENDBRANCH   1   7
BRANCH   3  16
ATOM     16  C10 UNL     1       1.988   0.652   0.531  1.00  0.00     0.117 C   
BRANCH  16  17
ATOM     17  N4  UNL     1       1.046  -0.518   0.453  1.00  0.00     0.249 N   
ATOM     18  H14 UNL     1       0.069  -0.155   0.539  1.00  0.00     0.199 HD  
ATOM     19  H15 UNL     1       1.058  -0.880  -0.506  1.00  0.00     0.199 HD  
BRANCH  17  20
ATOM     20  C11 UNL     1       1.198  -1.617   1.431  1.00  0.00     0.164 C   
BRANCH  20  21
ATOM     21  C12 UNL     1      -0.017  -2.503   1.474  1.00  0.00    -0.002 A   
ATOM     22  C13 UNL     1      -0.806  -2.572   2.647  1.00  0.00     0.012 A   
ATOM     23  C17 UNL     1      -0.403  -3.241   0.342  1.00  0.00     0.045 A   
ATOM     24  C14 UNL     1      -1.967  -3.351   2.691  1.00  0.00     0.037 A   
ATOM     25  C16 UNL     1      -1.559  -3.990   0.413  1.00  0.00     0.109 A   
ATOM     26  C15 UNL     1      -2.319  -4.044   1.554  1.00  0.00     0.108 A   
ATOM     27  O1  UNL     1      -2.083  -4.736  -0.594  1.00  0.00    -0.316 OA  
ATOM     28  O2  UNL     1      -3.416  -4.833   1.412  1.00  0.00    -0.316 OA  
ATOM     29  C18 UNL     1      -3.264  -5.271   0.047  1.00  0.00     0.337 C   
ENDBRANCH  20  21
ENDBRANCH  17  20
ENDBRANCH  16  17
BRANCH  16  30
ATOM     30  C19 UNL     1       3.470   0.208   0.437  1.00  0.00     0.037 C   
ATOM     31  C20 UNL     1       3.841  -0.551  -0.840  1.00  0.00     0.014 C   
ATOM     32  C21 UNL     1       4.417   1.401   0.623  1.00  0.00     0.014 C   
ENDBRANCH  16  30
ENDBRANCH   3  16
TORSDOF 8
