REMARK SMILES CC(C)Oc1cccc(Cn2cc([C@@H]([NH2+]Cc3ccc4c(c3)OCO4)C(C)C)nn2)n1
REMARK SMILES IDX 11 1 12 2 13 3 29 4 30 5 10 7 9 8 5 9 6 10 31 11 7 12 8 13
REMARK SMILES IDX 4 14 2 15 1 16 3 17 14 18 15 19 16 22 17 23 18 24 22 25
REMARK SMILES IDX 19 26 21 27 20 28 23 29 25 30 24 31 26 32 27 33 28 34
REMARK H PARENT 12 6 15 20 15 21
ROOT
ATOM     1   N1  UNL     1      -1.732   2.095  -2.517  1.00  0.00    -0.206 N   
ATOM     2   C10 UNL     1      -1.250   0.871  -2.142  1.00  0.00     0.046 A   
ATOM     3   C11 UNL     1      -2.114   0.464  -1.151  1.00  0.00     0.127 A   
ATOM     4   N3  UNL     1      -3.079   1.422  -0.972  1.00  0.00    -0.132 NA  
ATOM     5   N4  UNL     1      -2.838   2.412  -1.817  1.00  0.00    -0.076 NA  
ATOM     6   H13 UNL     1      -0.349   0.452  -2.568  1.00  0.00     0.083 HD  
ENDROOT
BRANCH   1   7
ATOM     7   C9  UNL     1      -1.163   3.024  -3.474  1.00  0.00     0.190 C   
BRANCH   7   8
ATOM     8   C8  UNL     1      -0.121   3.871  -2.794  1.00  0.00     0.063 A   
ATOM     9   C4  UNL     1       2.049   4.068  -2.014  1.00  0.00     0.167 A   
ATOM     10  C5  UNL     1       1.814   5.338  -1.518  1.00  0.00     0.055 A   
ATOM     11  N5  UNL     1       1.110   3.318  -2.630  1.00  0.00    -0.228 NA  
ATOM     12  C6  UNL     1       0.546   5.885  -1.676  1.00  0.00     0.006 A   
ATOM     13  C7  UNL     1      -0.439   5.145  -2.323  1.00  0.00     0.026 A   
BRANCH   9  14
ATOM     14  O1  UNL     1       3.320   3.570  -1.823  1.00  0.00    -0.327 OA  
BRANCH  14  15
ATOM     15  C2  UNL     1       3.621   2.350  -2.512  1.00  0.00     0.121 C   
ATOM     16  C1  UNL     1       3.963   2.631  -3.975  1.00  0.00     0.039 C   
ATOM     17  C3  UNL     1       4.830   1.740  -1.803  1.00  0.00     0.039 C   
ENDBRANCH  14  15
ENDBRANCH   9  14
ENDBRANCH   7   8
ENDBRANCH   1   7
BRANCH   3  18
ATOM     18  C12 UNL     1      -2.071  -0.723  -0.247  1.00  0.00     0.117 C   
BRANCH  18  19
ATOM     19  N2  UNL     1      -2.417  -0.311   1.169  1.00  0.00     0.249 N   
ATOM     20  H15 UNL     1      -2.564  -1.140   1.752  1.00  0.00     0.199 HD  
ATOM     21  H16 UNL     1      -3.312   0.194   1.116  1.00  0.00     0.199 HD  
BRANCH  19  22
ATOM     22  C13 UNL     1      -1.447   0.606   1.846  1.00  0.00     0.164 C   
BRANCH  22  23
ATOM     23  C14 UNL     1      -0.088  -0.006   2.041  1.00  0.00    -0.002 A   
ATOM     24  C15 UNL     1       1.016   0.453   1.282  1.00  0.00     0.012 A   
ATOM     25  C19 UNL     1       0.091  -1.054   2.961  1.00  0.00     0.045 A   
ATOM     26  C16 UNL     1       2.281  -0.128   1.430  1.00  0.00     0.037 A   
ATOM     27  C18 UNL     1       1.351  -1.603   3.081  1.00  0.00     0.109 A   
ATOM     28  C17 UNL     1       2.415  -1.155   2.337  1.00  0.00     0.108 A   
ATOM     29  O2  UNL     1       1.693  -2.619   3.916  1.00  0.00    -0.316 OA  
ATOM     30  O3  UNL     1       3.560  -1.832   2.610  1.00  0.00    -0.316 OA  
ATOM     31  C20 UNL     1       3.109  -2.732   3.645  1.00  0.00     0.337 C   
ENDBRANCH  22  23
ENDBRANCH  19  22
ENDBRANCH  18  19
BRANCH  18  32
ATOM     32  C21 UNL     1      -3.014  -1.882  -0.668  1.00  0.00     0.037 C   
ATOM     33  C22 UNL     1      -2.593  -2.485  -2.014  1.00  0.00     0.014 C   
ATOM     34  C23 UNL     1      -4.501  -1.512  -0.712  1.00  0.00     0.014 C   
ENDBRANCH  18  32
ENDBRANCH   3  18
TORSDOF 9
