REMARK SMILES CC(C)C[C@H]([NH2+]Cc1ccc2c(c1)OCO2)c1cn(Cc2cc(F)cc(F)c2O)nn1
REMARK SMILES IDX 17 1 18 2 19 3 30 4 31 5 5 7 4 8 2 9 1 10 3 11 6 12 7 15
REMARK SMILES IDX 8 16 9 17 13 18 10 19 12 20 11 21 14 22 16 23 15 24 20 25
REMARK SMILES IDX 21 26 22 27 28 28 23 29 26 30 25 31 24 32 27 33 29 34
REMARK H PARENT 18 6 6 13 6 14 29 35
ROOT
ATOM     1   C14 UNL     1       0.545   0.565   1.966  1.00  0.00     0.127 A   
ATOM     2   C15 UNL     1       0.679   1.858   1.510  1.00  0.00     0.046 A   
ATOM     3   N2  UNL     1       1.994   2.155   1.741  1.00  0.00    -0.208 N   
ATOM     4   N3  UNL     1       2.633   1.106   2.295  1.00  0.00    -0.076 NA  
ATOM     5   N4  UNL     1       1.754   0.130   2.447  1.00  0.00    -0.132 NA  
ATOM     6   H20 UNL     1      -0.004   2.570   1.066  1.00  0.00     0.083 HD  
ENDROOT
BRANCH   1   7
ATOM     7   C5  UNL     1      -0.636  -0.353   2.004  1.00  0.00     0.114 C   
BRANCH   7   8
ATOM     8   C4  UNL     1      -1.540  -0.029   3.214  1.00  0.00     0.064 C   
BRANCH   8   9
ATOM     9   C2  UNL     1      -2.859  -0.827   3.322  1.00  0.00    -0.012 C   
ATOM     10  C1  UNL     1      -3.748  -0.667   2.086  1.00  0.00     0.007 C   
ATOM     11  C3  UNL     1      -3.629  -0.376   4.571  1.00  0.00     0.007 C   
ENDBRANCH   8   9
ENDBRANCH   7   8
BRANCH   7  12
ATOM     12  N1  UNL     1      -0.169  -1.788   2.112  1.00  0.00     0.249 N   
ATOM     13  H11 UNL     1      -0.903  -2.395   2.484  1.00  0.00     0.199 HD  
ATOM     14  H12 UNL     1       0.596  -1.782   2.804  1.00  0.00     0.199 HD  
BRANCH  12  15
ATOM     15  C6  UNL     1       0.371  -2.398   0.860  1.00  0.00     0.164 C   
BRANCH  15  16
ATOM     16  C7  UNL     1      -0.710  -2.710  -0.138  1.00  0.00    -0.002 A   
ATOM     17  C8  UNL     1      -1.621  -3.769   0.099  1.00  0.00     0.012 A   
ATOM     18  C12 UNL     1      -0.844  -1.929  -1.302  1.00  0.00     0.045 A   
ATOM     19  C9  UNL     1      -2.656  -4.041  -0.803  1.00  0.00     0.037 A   
ATOM     20  C11 UNL     1      -1.874  -2.226  -2.170  1.00  0.00     0.109 A   
ATOM     21  C10 UNL     1      -2.756  -3.251  -1.928  1.00  0.00     0.108 A   
ATOM     22  O1  UNL     1      -2.146  -1.570  -3.329  1.00  0.00    -0.316 OA  
ATOM     23  O2  UNL     1      -3.693  -3.370  -2.903  1.00  0.00    -0.316 OA  
ATOM     24  C13 UNL     1      -3.279  -2.327  -3.813  1.00  0.00     0.337 C   
ENDBRANCH  15  16
ENDBRANCH  12  15
ENDBRANCH   7  12
ENDBRANCH   1   7
BRANCH   3  25
ATOM     25  C16 UNL     1       2.696   3.402   1.488  1.00  0.00     0.172 C   
BRANCH  25  26
ATOM     26  C17 UNL     1       3.071   3.531   0.035  1.00  0.00     0.007 A   
ATOM     27  C18 UNL     1       4.259   2.955  -0.450  1.00  0.00     0.047 A   
ATOM     28  C22 UNL     1       2.247   4.203  -0.874  1.00  0.00     0.112 A   
ATOM     29  C19 UNL     1       4.598   3.072  -1.799  1.00  0.00     0.126 A   
ATOM     30  C21 UNL     1       2.609   4.319  -2.218  1.00  0.00     0.156 A   
ATOM     31  C20 UNL     1       3.784   3.756  -2.693  1.00  0.00     0.081 A   
ATOM     32  F1  UNL     1       5.725   2.496  -2.246  1.00  0.00    -0.207 F   
ATOM     33  F2  UNL     1       1.793   4.974  -3.057  1.00  0.00    -0.204 F   
BRANCH  28  34
ATOM     34  O3  UNL     1       1.064   4.743  -0.444  1.00  0.00    -0.358 OA  
ATOM     35  H25 UNL     1       0.711   5.288  -1.181  1.00  0.00     0.218 HD  
ENDBRANCH  28  34
ENDBRANCH  25  26
ENDBRANCH   3  25
TORSDOF 9
