REMARK SMILES Cc1cc(N([O-])[O-])cc(-n2cc([C@@H]([NH2+]Cc3ccc4c(c3)OCO4)C(C)(C)C)nn2)c1
REMARK SMILES IDX 10 1 11 2 12 3 29 4 30 5 9 6 2 7 31 8 3 9 4 10 8 11 1 12
REMARK SMILES IDX 5 13 6 14 7 15 13 16 14 17 15 20 16 21 17 22 21 23 18 24
REMARK SMILES IDX 20 25 19 26 22 27 24 28 23 29 25 30 26 31 27 32 28 33
REMARK H PARENT 14 18 14 19
ROOT
ATOM     1   N1  UNL     1      -0.674  -0.953   0.337  1.00  0.00    -0.181 N   
ATOM     2   C5  UNL     1       0.514  -0.281   0.130  1.00  0.00     0.135 A   
ATOM     3   C6  UNL     1       0.708   0.458   1.277  1.00  0.00     0.128 A   
ATOM     4   N3  UNL     1      -0.304   0.194   2.156  1.00  0.00    -0.131 NA  
ATOM     5   N4  UNL     1      -1.115  -0.686   1.593  1.00  0.00    -0.071 NA  
ENDROOT
BRANCH   1   6
ATOM     6   C4  UNL     1      -1.421  -1.749  -0.569  1.00  0.00     0.060 A   
ATOM     7   C2  UNL     1      -3.357  -3.175  -1.002  1.00  0.00    -0.047 A   
ATOM     8   C3  UNL     1      -2.589  -2.392  -0.125  1.00  0.00     0.029 A   
ATOM     9   C22 UNL     1      -2.972  -3.281  -2.345  1.00  0.00     0.034 A   
ATOM     10  C21 UNL     1      -1.818  -2.627  -2.791  1.00  0.00     0.120 A   
ATOM     11  C20 UNL     1      -1.028  -1.873  -1.908  1.00  0.00     0.057 A   
ATOM     12  C1  UNL     1      -4.613  -3.849  -0.527  1.00  0.00     0.044 C   
BRANCH  10  13
ATOM     13  N5  UNL     1      -1.439  -2.707  -4.210  1.00  0.00     0.092 N   
ATOM     14  O3  UNL     1      -0.471  -2.027  -4.579  1.00  0.00    -0.138 OA  
ATOM     15  O4  UNL     1      -2.114  -3.433  -4.950  1.00  0.00    -0.138 OA  
ENDBRANCH  10  13
ENDBRANCH   1   6
BRANCH   3  16
ATOM     16  C7  UNL     1       1.699   1.538   1.599  1.00  0.00     0.120 C   
BRANCH  16  17
ATOM     17  N2  UNL     1       0.927   2.731   2.141  1.00  0.00     0.250 N   
ATOM     18  H7  UNL     1       0.073   2.341   2.573  1.00  0.00     0.199 HD  
ATOM     19  H8  UNL     1       1.429   3.184   2.908  1.00  0.00     0.199 HD  
BRANCH  17  20
ATOM     20  C8  UNL     1       0.519   3.773   1.149  1.00  0.00     0.164 C   
BRANCH  20  21
ATOM     21  C9  UNL     1      -0.310   3.250   0.007  1.00  0.00    -0.002 A   
ATOM     22  C10 UNL     1      -1.653   2.852   0.216  1.00  0.00     0.012 A   
ATOM     23  C14 UNL     1       0.264   3.095  -1.267  1.00  0.00     0.045 A   
ATOM     24  C11 UNL     1      -2.405   2.283  -0.819  1.00  0.00     0.037 A   
ATOM     25  C13 UNL     1      -0.504   2.526  -2.263  1.00  0.00     0.109 A   
ATOM     26  C12 UNL     1      -1.799   2.127  -2.046  1.00  0.00     0.108 A   
ATOM     27  O1  UNL     1      -0.089   2.275  -3.533  1.00  0.00    -0.316 OA  
ATOM     28  O2  UNL     1      -2.364   1.578  -3.154  1.00  0.00    -0.316 OA  
ATOM     29  C15 UNL     1      -1.294   1.724  -4.114  1.00  0.00     0.337 C   
ENDBRANCH  20  21
ENDBRANCH  17  20
ENDBRANCH  16  17
BRANCH  16  30
ATOM     30  C16 UNL     1       2.832   1.106   2.590  1.00  0.00     0.010 C   
ATOM     31  C17 UNL     1       2.308   0.768   4.000  1.00  0.00     0.017 C   
ATOM     32  C18 UNL     1       3.574  -0.133   2.037  1.00  0.00     0.017 C   
ATOM     33  C19 UNL     1       3.878   2.237   2.719  1.00  0.00     0.017 C   
ENDBRANCH  16  30
ENDBRANCH   3  16
TORSDOF 7
