REMARK SMILES Cc1cc(Cn2cc([C@H](CC(C)C)[NH2+]Cc3ccc4c(c3)OCO4)nn2)c(C)[nH]1
REMARK SMILES IDX 6 1 7 2 8 3 25 4 26 5 5 7 4 8 2 9 3 10 29 11 27 12 1 13
REMARK SMILES IDX 28 15 9 16 10 17 11 18 12 19 13 20 14 21 15 24 16 25 17 26
REMARK SMILES IDX 21 27 18 28 20 29 19 30 22 31 24 32 23 33
REMARK H PARENT 7 6 29 14 14 22 14 23
ROOT
ATOM     1   N1  UNL     1      -2.933   1.259   1.224  1.00  0.00    -0.208 N   
ATOM     2   C6  UNL     1      -1.794   1.115   0.475  1.00  0.00     0.046 A   
ATOM     3   C7  UNL     1      -1.136   0.062   1.069  1.00  0.00     0.127 A   
ATOM     4   N3  UNL     1      -1.848  -0.354   2.166  1.00  0.00    -0.132 NA  
ATOM     5   N4  UNL     1      -2.930   0.400   2.264  1.00  0.00    -0.076 NA  
ATOM     6   H7  UNL     1      -1.598   1.722  -0.398  1.00  0.00     0.083 HD  
ENDROOT
BRANCH   1   7
ATOM     7   C5  UNL     1      -4.028   2.197   1.028  1.00  0.00     0.171 C   
BRANCH   7   8
ATOM     8   C4  UNL     1      -4.756   1.899  -0.244  1.00  0.00    -0.010 A   
ATOM     9   C2  UNL     1      -5.472   2.034  -2.393  1.00  0.00     0.004 A   
ATOM     10  C3  UNL     1      -4.645   2.628  -1.464  1.00  0.00     0.025 A   
ATOM     11  N5  UNL     1      -6.095   0.979  -1.777  1.00  0.00    -0.322 N   
ATOM     12  C21 UNL     1      -5.670   0.880  -0.475  1.00  0.00     0.008 A   
ATOM     13  C1  UNL     1      -5.748   2.380  -3.809  1.00  0.00     0.061 C   
ATOM     14  H30 UNL     1      -6.776   0.370  -2.217  1.00  0.00     0.152 HD  
ATOM     15  C22 UNL     1      -6.183  -0.191   0.423  1.00  0.00     0.062 C   
ENDBRANCH   7   8
ENDBRANCH   1   7
BRANCH   3  16
ATOM     16  C8  UNL     1       0.138  -0.634   0.709  1.00  0.00     0.114 C   
BRANCH  16  17
ATOM     17  C9  UNL     1      -0.089  -1.618  -0.457  1.00  0.00     0.064 C   
BRANCH  17  18
ATOM     18  C10 UNL     1       1.170  -2.304  -1.029  1.00  0.00    -0.012 C   
ATOM     19  C11 UNL     1       2.214  -1.303  -1.524  1.00  0.00     0.007 C   
ATOM     20  C12 UNL     1       0.765  -3.236  -2.175  1.00  0.00     0.007 C   
ENDBRANCH  17  18
ENDBRANCH  16  17
BRANCH  16  21
ATOM     21  N2  UNL     1       0.658  -1.399   1.903  1.00  0.00     0.249 N   
ATOM     22  H18 UNL     1      -0.172  -1.820   2.347  1.00  0.00     0.199 HD  
ATOM     23  H19 UNL     1       1.268  -2.170   1.621  1.00  0.00     0.199 HD  
BRANCH  21  24
ATOM     24  C13 UNL     1       1.353  -0.585   2.944  1.00  0.00     0.164 C   
BRANCH  24  25
ATOM     25  C14 UNL     1       2.734  -0.173   2.515  1.00  0.00    -0.002 A   
ATOM     26  C15 UNL     1       3.003   1.169   2.155  1.00  0.00     0.012 A   
ATOM     27  C19 UNL     1       3.761  -1.130   2.429  1.00  0.00     0.045 A   
ATOM     28  C16 UNL     1       4.270   1.553   1.702  1.00  0.00     0.037 A   
ATOM     29  C18 UNL     1       4.998  -0.719   1.979  1.00  0.00     0.109 A   
ATOM     30  C17 UNL     1       5.245   0.584   1.622  1.00  0.00     0.108 A   
ATOM     31  O1  UNL     1       6.088  -1.516   1.826  1.00  0.00    -0.316 OA  
ATOM     32  O2  UNL     1       6.522   0.771   1.199  1.00  0.00    -0.316 OA  
ATOM     33  C20 UNL     1       7.066  -0.556   1.361  1.00  0.00     0.337 C   
ENDBRANCH  24  25
ENDBRANCH  21  24
ENDBRANCH  16  21
ENDBRANCH   3  16
TORSDOF 8
