REMARK SMILES Cc1cc(CCn2cc([C@H](CC(C)C)[NH2+]Cc3ccc4c(c3)OCO4)nn2)n(C)n1
REMARK SMILES IDX 7 1 8 2 9 3 26 4 27 5 6 7 5 8 4 9 2 10 3 11 30 12 28 13 1 14
REMARK SMILES IDX 29 15 10 16 11 17 12 18 13 19 14 20 15 21 16 24 17 25 18 26
REMARK SMILES IDX 22 27 19 28 21 29 20 30 23 31 25 32 24 33
REMARK H PARENT 8 6 15 22 15 23
ROOT
ATOM     1   N1  UNL     1       0.706   3.561  -1.899  1.00  0.00    -0.212 N   
ATOM     2   C7  UNL     1       1.558   2.838  -1.107  1.00  0.00     0.045 A   
ATOM     3   C8  UNL     1       1.325   1.535  -1.492  1.00  0.00     0.127 A   
ATOM     4   N3  UNL     1       0.531   1.534  -2.608  1.00  0.00    -0.132 NA  
ATOM     5   N4  UNL     1       0.168   2.784  -2.857  1.00  0.00    -0.076 NA  
ATOM     6   H9  UNL     1       2.076   3.277  -0.266  1.00  0.00     0.083 HD  
ENDROOT
BRANCH   1   7
ATOM     7   C6  UNL     1       0.108   4.839  -1.554  1.00  0.00     0.140 C   
BRANCH   7   8
ATOM     8   C5  UNL     1      -1.275   4.690  -0.887  1.00  0.00     0.074 C   
BRANCH   8   9
ATOM     9   C4  UNL     1      -1.299   3.599   0.146  1.00  0.00     0.031 A   
ATOM     10  C2  UNL     1      -0.869   2.175   1.796  1.00  0.00     0.057 A   
ATOM     11  C3  UNL     1      -0.775   3.537   1.421  1.00  0.00     0.046 A   
ATOM     12  N6  UNL     1      -1.372   1.425   0.800  1.00  0.00    -0.187 NA  
ATOM     13  N5  UNL     1      -1.854   2.359  -0.064  1.00  0.00    -0.232 N   
ATOM     14  C1  UNL     1      -0.423   1.561   3.072  1.00  0.00     0.068 C   
ATOM     15  C22 UNL     1      -2.801   1.976  -1.087  1.00  0.00     0.159 C   
ENDBRANCH   8   9
ENDBRANCH   7   8
ENDBRANCH   1   7
BRANCH   3  16
ATOM     16  C9  UNL     1       1.684   0.272  -0.784  1.00  0.00     0.114 C   
BRANCH  16  17
ATOM     17  C10 UNL     1       2.669  -0.599  -1.584  1.00  0.00     0.064 C   
BRANCH  17  18
ATOM     18  C11 UNL     1       3.113  -1.914  -0.910  1.00  0.00    -0.012 C   
ATOM     19  C12 UNL     1       3.826  -1.675   0.421  1.00  0.00     0.007 C   
ATOM     20  C13 UNL     1       4.033  -2.693  -1.855  1.00  0.00     0.007 C   
ENDBRANCH  17  18
ENDBRANCH  16  17
BRANCH  16  21
ATOM     21  N2  UNL     1       0.472  -0.489  -0.327  1.00  0.00     0.249 N   
ATOM     22  H20 UNL     1       0.735  -1.182   0.379  1.00  0.00     0.199 HD  
ATOM     23  H21 UNL     1      -0.148   0.183   0.177  1.00  0.00     0.199 HD  
BRANCH  21  24
ATOM     24  C14 UNL     1      -0.394  -1.137  -1.349  1.00  0.00     0.164 C   
BRANCH  24  25
ATOM     25  C15 UNL     1      -1.171  -2.276  -0.741  1.00  0.00    -0.002 A   
ATOM     26  C16 UNL     1      -2.294  -2.022   0.082  1.00  0.00     0.012 A   
ATOM     27  C20 UNL     1      -0.752  -3.602  -0.944  1.00  0.00     0.045 A   
ATOM     28  C17 UNL     1      -3.000  -3.071   0.682  1.00  0.00     0.037 A   
ATOM     29  C19 UNL     1      -1.467  -4.613  -0.336  1.00  0.00     0.109 A   
ATOM     30  C18 UNL     1      -2.561  -4.356   0.453  1.00  0.00     0.108 A   
ATOM     31  O1  UNL     1      -1.192  -5.940  -0.425  1.00  0.00    -0.316 OA  
ATOM     32  O2  UNL     1      -3.117  -5.489   0.954  1.00  0.00    -0.316 OA  
ATOM     33  C21 UNL     1      -2.257  -6.495   0.380  1.00  0.00     0.337 C   
ENDBRANCH  24  25
ENDBRANCH  21  24
ENDBRANCH  16  21
ENDBRANCH   3  16
TORSDOF 9
