REMARK SMILES CC(C)(C)[C@H]([NH2+]Cc1ccc2c(c1)OCO2)c1cn(Cc2cc3ccccc3[nH]2)nn1
REMARK SMILES IDX 17 1 18 2 19 3 30 4 31 5 5 7 2 8 1 9 3 10 4 11 6 12 7 15
REMARK SMILES IDX 8 16 9 17 13 18 10 19 12 20 11 21 14 22 16 23 15 24 20 25
REMARK SMILES IDX 21 26 22 27 29 28 23 29 28 30 24 31 27 32 25 33 26 34
REMARK H PARENT 18 6 6 13 6 14 29 35
ROOT
ATOM     1   C14 UNL     1      -1.507  -0.055   0.057  1.00  0.00     0.127 A   
ATOM     2   C15 UNL     1      -1.142  -1.225   0.685  1.00  0.00     0.046 A   
ATOM     3   N2  UNL     1      -1.814  -2.195  -0.006  1.00  0.00    -0.206 N   
ATOM     4   N4  UNL     1      -2.570  -1.653  -0.982  1.00  0.00    -0.076 NA  
ATOM     5   N5  UNL     1      -2.399  -0.341  -0.944  1.00  0.00    -0.132 NA  
ATOM     6   H20 UNL     1      -0.443  -1.458   1.477  1.00  0.00     0.083 HD  
ENDROOT
BRANCH   1   7
ATOM     7   C5  UNL     1      -0.988   1.339   0.228  1.00  0.00     0.120 C   
BRANCH   7   8
ATOM     8   C2  UNL     1      -1.905   2.263   1.106  1.00  0.00     0.010 C   
ATOM     9   C1  UNL     1      -1.234   3.639   1.324  1.00  0.00     0.017 C   
ATOM     10  C3  UNL     1      -3.295   2.501   0.483  1.00  0.00     0.017 C   
ATOM     11  C4  UNL     1      -2.103   1.631   2.503  1.00  0.00     0.017 C   
ENDBRANCH   7   8
BRANCH   7  12
ATOM     12  N1  UNL     1      -0.746   1.971  -1.132  1.00  0.00     0.250 N   
ATOM     13  H11 UNL     1      -1.651   1.984  -1.618  1.00  0.00     0.199 HD  
ATOM     14  H12 UNL     1      -0.436   2.939  -1.026  1.00  0.00     0.199 HD  
BRANCH  12  15
ATOM     15  C6  UNL     1       0.214   1.267  -2.044  1.00  0.00     0.164 C   
BRANCH  15  16
ATOM     16  C7  UNL     1       1.574   1.037  -1.447  1.00  0.00    -0.002 A   
ATOM     17  C8  UNL     1       2.033  -0.284  -1.227  1.00  0.00     0.012 A   
ATOM     18  C12 UNL     1       2.395   2.121  -1.095  1.00  0.00     0.045 A   
ATOM     19  C9  UNL     1       3.284  -0.527  -0.651  1.00  0.00     0.037 A   
ATOM     20  C11 UNL     1       3.622   1.847  -0.526  1.00  0.00     0.109 A   
ATOM     21  C10 UNL     1       4.054   0.562  -0.309  1.00  0.00     0.108 A   
ATOM     22  O1  UNL     1       4.528   2.775  -0.121  1.00  0.00    -0.316 OA  
ATOM     23  O2  UNL     1       5.287   0.519   0.260  1.00  0.00    -0.316 OA  
ATOM     24  C13 UNL     1       5.600   1.925   0.347  1.00  0.00     0.337 C   
ENDBRANCH  15  16
ENDBRANCH  12  15
ENDBRANCH   7  12
ENDBRANCH   1   7
BRANCH   3  25
ATOM     25  C16 UNL     1      -1.632  -3.636   0.084  1.00  0.00     0.185 C   
BRANCH  25  26
ATOM     26  C17 UNL     1      -0.374  -4.011  -0.627  1.00  0.00     0.027 A   
ATOM     27  C18 UNL     1       0.893  -4.277  -0.146  1.00  0.00     0.031 A   
ATOM     28  N3  UNL     1      -0.320  -4.113  -1.998  1.00  0.00    -0.316 N   
ATOM     29  C19 UNL     1       1.752  -4.479  -1.260  1.00  0.00    -0.003 A   
ATOM     30  C24 UNL     1       0.970  -4.357  -2.408  1.00  0.00     0.037 A   
ATOM     31  C20 UNL     1       3.127  -4.746  -1.400  1.00  0.00     0.010 A   
ATOM     32  C23 UNL     1       1.497  -4.489  -3.698  1.00  0.00     0.024 A   
ATOM     33  C21 UNL     1       3.671  -4.877  -2.683  1.00  0.00     0.001 A   
ATOM     34  C22 UNL     1       2.866  -4.750  -3.813  1.00  0.00     0.002 A   
ATOM     35  H28 UNL     1      -1.103  -3.989  -2.629  1.00  0.00     0.153 HD  
ENDBRANCH  25  26
ENDBRANCH   3  25
TORSDOF 7
