REMARK SMILES CC(C)[C@H]([NH2+]Cc1ccc2c(c1)OCO2)c1cn(Cc2nc3ccccc3[nH]2)nn1
REMARK SMILES IDX 16 1 17 2 18 3 29 4 30 5 4 7 2 8 1 9 3 10 5 11 6 14 7 15
REMARK SMILES IDX 8 16 12 17 9 18 11 19 10 20 13 21 15 22 14 23 19 24 20 25
REMARK SMILES IDX 21 26 28 27 22 28 27 29 23 30 26 31 24 32 25 33
REMARK H PARENT 17 6 5 12 5 13 28 34
ROOT
ATOM     1   C13 UNL     1       2.116   0.279  -0.194  1.00  0.00     0.127 A   
ATOM     2   C14 UNL     1       1.527   1.432  -0.658  1.00  0.00     0.046 A   
ATOM     3   N2  UNL     1       1.798   1.421  -1.999  1.00  0.00    -0.205 N   
ATOM     4   N5  UNL     1       2.574   0.368  -2.326  1.00  0.00    -0.076 NA  
ATOM     5   N6  UNL     1       2.773  -0.342  -1.226  1.00  0.00    -0.132 NA  
ATOM     6   H18 UNL     1       0.885   2.177  -0.207  1.00  0.00     0.083 HD  
ENDROOT
BRANCH   1   7
ATOM     7   C4  UNL     1       2.014  -0.394   1.136  1.00  0.00     0.117 C   
BRANCH   7   8
ATOM     8   C2  UNL     1       3.359  -0.368   1.915  1.00  0.00     0.037 C   
ATOM     9   C1  UNL     1       3.280  -1.103   3.260  1.00  0.00     0.014 C   
ATOM     10  C3  UNL     1       3.818   1.075   2.180  1.00  0.00     0.014 C   
ENDBRANCH   7   8
BRANCH   7  11
ATOM     11  N1  UNL     1       1.587  -1.834   0.924  1.00  0.00     0.249 N   
ATOM     12  H9  UNL     1       1.595  -2.346   1.808  1.00  0.00     0.199 HD  
ATOM     13  H10 UNL     1       2.294  -2.258   0.309  1.00  0.00     0.199 HD  
BRANCH  11  14
ATOM     14  C5  UNL     1       0.253  -2.045   0.276  1.00  0.00     0.164 C   
BRANCH  14  15
ATOM     15  C6  UNL     1      -0.896  -1.550   1.109  1.00  0.00    -0.002 A   
ATOM     16  C7  UNL     1      -1.256  -2.216   2.306  1.00  0.00     0.012 A   
ATOM     17  C11 UNL     1      -1.611  -0.406   0.713  1.00  0.00     0.045 A   
ATOM     18  C8  UNL     1      -2.307  -1.746   3.101  1.00  0.00     0.037 A   
ATOM     19  C10 UNL     1      -2.642   0.030   1.518  1.00  0.00     0.109 A   
ATOM     20  C9  UNL     1      -2.978  -0.619   2.680  1.00  0.00     0.108 A   
ATOM     21  O1  UNL     1      -3.427   1.113   1.283  1.00  0.00    -0.316 OA  
ATOM     22  O2  UNL     1      -4.018  -0.027   3.323  1.00  0.00    -0.316 OA  
ATOM     23  C12 UNL     1      -4.315   1.062   2.422  1.00  0.00     0.337 C   
ENDBRANCH  14  15
ENDBRANCH  11  14
ENDBRANCH   7  11
ENDBRANCH   1   7
BRANCH   3  24
ATOM     24  C15 UNL     1       1.245   2.288  -3.025  1.00  0.00     0.206 C   
BRANCH  24  25
ATOM     25  C16 UNL     1      -0.145   1.847  -3.331  1.00  0.00     0.118 A   
ATOM     26  N3  UNL     1      -1.137   1.735  -2.466  1.00  0.00    -0.234 NA  
ATOM     27  N4  UNL     1      -0.551   1.478  -4.592  1.00  0.00    -0.300 N   
ATOM     28  C17 UNL     1      -2.214   1.287  -3.191  1.00  0.00     0.086 A   
ATOM     29  C22 UNL     1      -1.870   1.108  -4.525  1.00  0.00     0.057 A   
ATOM     30  C18 UNL     1      -3.521   1.002  -2.772  1.00  0.00     0.030 A   
ATOM     31  C21 UNL     1      -2.768   0.651  -5.492  1.00  0.00     0.026 A   
ATOM     32  C19 UNL     1      -4.442   0.542  -3.721  1.00  0.00     0.002 A   
ATOM     33  C20 UNL     1      -4.068   0.370  -5.057  1.00  0.00     0.002 A   
ATOM     34  H25 UNL     1       0.017   1.470  -5.428  1.00  0.00     0.154 HD  
ENDBRANCH  24  25
ENDBRANCH   3  24
TORSDOF 7
