REMARK SMILES Cc1cc(Cn2cc([C@@H]([NH2+]Cc3ccc4c(c3)OCO4)C3CCCC3)nn2)cnc1Cl
REMARK SMILES IDX 6 1 7 2 8 3 26 4 27 5 5 7 4 8 2 9 3 10 30 11 29 12 28 13
REMARK SMILES IDX 1 14 31 15 9 16 10 17 11 20 12 21 13 22 17 23 14 24 16 25
REMARK SMILES IDX 15 26 18 27 20 28 19 29 21 30 22 31 25 32 23 33 24 34
REMARK H PARENT 7 6 10 18 10 19
ROOT
ATOM     1   N1  UNL     1      -0.782   2.116   0.323  1.00  0.00    -0.208 N   
ATOM     2   C6  UNL     1      -0.951   0.811  -0.054  1.00  0.00     0.046 A   
ATOM     3   C7  UNL     1      -0.611   0.094   1.071  1.00  0.00     0.127 A   
ATOM     4   N3  UNL     1      -0.289   0.967   2.081  1.00  0.00    -0.132 NA  
ATOM     5   N4  UNL     1      -0.393   2.198   1.610  1.00  0.00    -0.076 NA  
ATOM     6   H7  UNL     1      -1.258   0.529  -1.052  1.00  0.00     0.083 HD  
ENDROOT
BRANCH   1   7
ATOM     7   C5  UNL     1      -0.976   3.325  -0.464  1.00  0.00     0.171 C   
BRANCH   7   8
ATOM     8   C4  UNL     1      -0.193   3.295  -1.747  1.00  0.00    -0.010 A   
ATOM     9   C2  UNL     1      -0.074   3.348  -4.174  1.00  0.00    -0.013 A   
ATOM     10  C3  UNL     1      -0.826   3.389  -2.993  1.00  0.00     0.013 A   
ATOM     11  C23 UNL     1       1.304   3.212  -4.039  1.00  0.00     0.131 A   
ATOM     12  N5  UNL     1       1.948   3.126  -2.855  1.00  0.00    -0.244 NA  
ATOM     13  C22 UNL     1       1.194   3.184  -1.740  1.00  0.00     0.118 A   
ATOM     14  C1  UNL     1      -0.743   3.460  -5.511  1.00  0.00     0.048 C   
ATOM     15  CL1 UNL     1       2.365   3.122  -5.388  1.00  0.00    -0.062 Cl  
ENDBRANCH   7   8
ENDBRANCH   1   7
BRANCH   3  16
ATOM     16  C8  UNL     1      -0.520  -1.377   1.323  1.00  0.00     0.117 C   
BRANCH  16  17
ATOM     17  N2  UNL     1       0.460  -1.643   2.443  1.00  0.00     0.249 N   
ATOM     18  H9  UNL     1       0.087  -2.317   3.116  1.00  0.00     0.199 HD  
ATOM     19  H10 UNL     1       0.540  -0.753   2.962  1.00  0.00     0.199 HD  
BRANCH  17  20
ATOM     20  C9  UNL     1       1.829  -2.065   2.036  1.00  0.00     0.164 C   
BRANCH  20  21
ATOM     21  C10 UNL     1       2.595  -1.013   1.286  1.00  0.00    -0.002 A   
ATOM     22  C11 UNL     1       3.074   0.139   1.956  1.00  0.00     0.012 A   
ATOM     23  C15 UNL     1       2.837  -1.159  -0.090  1.00  0.00     0.045 A   
ATOM     24  C12 UNL     1       3.790   1.127   1.271  1.00  0.00     0.037 A   
ATOM     25  C14 UNL     1       3.548  -0.168  -0.735  1.00  0.00     0.109 A   
ATOM     26  C13 UNL     1       4.016   0.940  -0.073  1.00  0.00     0.108 A   
ATOM     27  O1  UNL     1       3.878  -0.165  -2.053  1.00  0.00    -0.316 OA  
ATOM     28  O2  UNL     1       4.703   1.780  -0.889  1.00  0.00    -0.316 OA  
ATOM     29  C16 UNL     1       4.656   1.054  -2.137  1.00  0.00     0.337 C   
ENDBRANCH  20  21
ENDBRANCH  17  20
ENDBRANCH  16  17
BRANCH  16  30
ATOM     30  C17 UNL     1      -1.898  -1.986   1.647  1.00  0.00     0.043 C   
ATOM     31  C18 UNL     1      -2.562  -1.511   2.949  1.00  0.00     0.010 C   
ATOM     32  C21 UNL     1      -1.909  -3.513   1.769  1.00  0.00     0.010 C   
ATOM     33  C19 UNL     1      -3.445  -2.671   3.417  1.00  0.00     0.001 C   
ATOM     34  C20 UNL     1      -3.268  -3.786   2.392  1.00  0.00     0.001 C   
ENDBRANCH  16  30
ENDBRANCH   3  16
TORSDOF 7
