REMARK SMILES Cc1cccc([C@@H](CO)n2cc([C@@H]([NH2+]Cc3ccc4c(c3)OCO4)C(C)(C)C)nn2)n1
REMARK SMILES IDX 10 1 11 2 12 3 29 4 30 5 7 7 6 8 2 9 3 10 31 11 4 12 5 13
REMARK SMILES IDX 1 14 8 15 9 16 13 18 14 19 15 22 16 23 17 24 21 25 18 26
REMARK SMILES IDX 20 27 19 28 22 29 24 30 23 31 25 32 26 33 27 34 28 35
REMARK H PARENT 11 6 9 17 14 20 14 21
ROOT
ATOM     1   N1  UNL     1      -1.642   0.748   1.932  1.00  0.00    -0.201 N   
ATOM     2   C9  UNL     1      -1.930   0.040   0.794  1.00  0.00     0.046 A   
ATOM     3   C10 UNL     1      -0.790  -0.691   0.552  1.00  0.00     0.127 A   
ATOM     4   N3  UNL     1       0.147  -0.393   1.506  1.00  0.00    -0.132 NA  
ATOM     5   N4  UNL     1      -0.375   0.497   2.332  1.00  0.00    -0.075 NA  
ATOM     6   H11 UNL     1      -2.873   0.141   0.275  1.00  0.00     0.083 HD  
ENDROOT
BRANCH   1   7
ATOM     7   C7  UNL     1      -2.451   1.736   2.637  1.00  0.00     0.174 C   
BRANCH   7   8
ATOM     8   C6  UNL     1      -2.422   3.038   1.859  1.00  0.00     0.066 A   
ATOM     9   C2  UNL     1      -3.148   4.264   0.014  1.00  0.00     0.038 A   
ATOM     10  C3  UNL     1      -2.409   5.372   0.411  1.00  0.00     0.023 A   
ATOM     11  N5  UNL     1      -3.158   3.104   0.716  1.00  0.00    -0.256 NA  
ATOM     12  C4  UNL     1      -1.647   5.288   1.570  1.00  0.00     0.004 A   
ATOM     13  C5  UNL     1      -1.649   4.108   2.306  1.00  0.00     0.026 A   
ATOM     14  C1  UNL     1      -3.988   4.328  -1.227  1.00  0.00     0.067 C   
ENDBRANCH   7   8
BRANCH   7  15
ATOM     15  C8  UNL     1      -3.892   1.268   2.887  1.00  0.00     0.187 C   
BRANCH  15  16
ATOM     16  O1  UNL     1      -3.916   0.162   3.790  1.00  0.00    -0.394 OA  
ATOM     17  H10 UNL     1      -4.850  -0.018   4.002  1.00  0.00     0.210 HD  
ENDBRANCH  15  16
ENDBRANCH   7  15
ENDBRANCH   1   7
BRANCH   3  18
ATOM     18  C11 UNL     1      -0.430  -1.597  -0.583  1.00  0.00     0.120 C   
BRANCH  18  19
ATOM     19  N2  UNL     1       1.002  -1.328  -0.983  1.00  0.00     0.250 N   
ATOM     20  H13 UNL     1       1.563  -1.370  -0.120  1.00  0.00     0.199 HD  
ATOM     21  H14 UNL     1       1.372  -2.046  -1.610  1.00  0.00     0.199 HD  
BRANCH  19  22
ATOM     22  C12 UNL     1       1.251   0.011  -1.596  1.00  0.00     0.164 C   
BRANCH  22  23
ATOM     23  C13 UNL     1       2.688   0.137  -2.021  1.00  0.00    -0.002 A   
ATOM     24  C14 UNL     1       3.040   0.062  -3.390  1.00  0.00     0.012 A   
ATOM     25  C18 UNL     1       3.696   0.299  -1.053  1.00  0.00     0.045 A   
ATOM     26  C15 UNL     1       4.378   0.149  -3.792  1.00  0.00     0.037 A   
ATOM     27  C17 UNL     1       5.005   0.371  -1.484  1.00  0.00     0.109 A   
ATOM     28  C16 UNL     1       5.336   0.299  -2.815  1.00  0.00     0.108 A   
ATOM     29  O2  UNL     1       6.093   0.510  -0.685  1.00  0.00    -0.316 OA  
ATOM     30  O3  UNL     1       6.674   0.393  -3.023  1.00  0.00    -0.316 OA  
ATOM     31  C19 UNL     1       7.153   0.530  -1.667  1.00  0.00     0.337 C   
ENDBRANCH  22  23
ENDBRANCH  19  22
ENDBRANCH  18  19
BRANCH  18  32
ATOM     32  C20 UNL     1      -0.639  -3.122  -0.283  1.00  0.00     0.010 C   
ATOM     33  C21 UNL     1      -0.384  -3.959  -1.558  1.00  0.00     0.017 C   
ATOM     34  C22 UNL     1       0.290  -3.645   0.832  1.00  0.00     0.017 C   
ATOM     35  C23 UNL     1      -2.102  -3.386   0.143  1.00  0.00     0.017 C   
ENDBRANCH  18  32
ENDBRANCH   3  18
TORSDOF 9
