REMARK SMILES Cc1cccc([C@H](CO)n2cc([C@@H]([NH2+]Cc3ccc4c(c3)OCO4)C(C)(C)C)nn2)n1
REMARK SMILES IDX 10 1 11 2 12 3 29 4 30 5 7 7 6 8 2 9 3 10 31 11 4 12 5 13
REMARK SMILES IDX 1 14 8 15 9 16 13 18 14 19 15 22 16 23 17 24 21 25 18 26
REMARK SMILES IDX 20 27 19 28 22 29 24 30 23 31 25 32 26 33 27 34 28 35
REMARK H PARENT 11 6 9 17 14 20 14 21
ROOT
ATOM     1   N1  UNL     1      -1.787  -0.943  -0.600  1.00  0.00    -0.201 N   
ATOM     2   C9  UNL     1      -0.506  -1.270  -0.962  1.00  0.00     0.046 A   
ATOM     3   C10 UNL     1       0.264  -0.263  -0.427  1.00  0.00     0.127 A   
ATOM     4   N3  UNL     1      -0.551   0.635   0.214  1.00  0.00    -0.132 NA  
ATOM     5   N4  UNL     1      -1.798   0.211   0.104  1.00  0.00    -0.075 NA  
ATOM     6   H11 UNL     1      -0.278  -2.163  -1.529  1.00  0.00     0.083 HD  
ENDROOT
BRANCH   1   7
ATOM     7   C7  UNL     1      -3.031  -1.663  -0.850  1.00  0.00     0.174 C   
BRANCH   7   8
ATOM     8   C6  UNL     1      -3.084  -2.881   0.050  1.00  0.00     0.066 A   
ATOM     9   C2  UNL     1      -2.459  -5.093   0.434  1.00  0.00     0.038 A   
ATOM     10  C3  UNL     1      -3.115  -5.106   1.659  1.00  0.00     0.023 A   
ATOM     11  N5  UNL     1      -2.430  -3.998  -0.366  1.00  0.00    -0.256 NA  
ATOM     12  C4  UNL     1      -3.767  -3.953   2.081  1.00  0.00     0.004 A   
ATOM     13  C5  UNL     1      -3.751  -2.823   1.271  1.00  0.00     0.026 A   
ATOM     14  C1  UNL     1      -1.747  -6.322  -0.048  1.00  0.00     0.067 C   
ENDBRANCH   7   8
BRANCH   7  15
ATOM     15  C8  UNL     1      -3.212  -2.040  -2.329  1.00  0.00     0.187 C   
BRANCH  15  16
ATOM     16  O1  UNL     1      -3.326  -0.871  -3.145  1.00  0.00    -0.394 OA  
ATOM     17  H10 UNL     1      -3.620  -1.166  -4.027  1.00  0.00     0.210 HD  
ENDBRANCH  15  16
ENDBRANCH   7  15
ENDBRANCH   1   7
BRANCH   3  18
ATOM     18  C11 UNL     1       1.735   0.007  -0.507  1.00  0.00     0.120 C   
BRANCH  18  19
ATOM     19  N2  UNL     1       1.941   1.504  -0.562  1.00  0.00     0.250 N   
ATOM     20  H13 UNL     1       2.893   1.783  -0.312  1.00  0.00     0.199 HD  
ATOM     21  H14 UNL     1       1.323   1.908   0.158  1.00  0.00     0.199 HD  
BRANCH  19  22
ATOM     22  C12 UNL     1       1.576   2.149  -1.855  1.00  0.00     0.164 C   
BRANCH  22  23
ATOM     23  C13 UNL     1       1.719   3.640  -1.752  1.00  0.00    -0.002 A   
ATOM     24  C14 UNL     1       0.648   4.421  -1.254  1.00  0.00     0.012 A   
ATOM     25  C18 UNL     1       2.932   4.263  -2.090  1.00  0.00     0.045 A   
ATOM     26  C15 UNL     1       0.777   5.806  -1.106  1.00  0.00     0.037 A   
ATOM     27  C17 UNL     1       3.025   5.630  -1.932  1.00  0.00     0.109 A   
ATOM     28  C16 UNL     1       1.979   6.381  -1.454  1.00  0.00     0.108 A   
ATOM     29  O2  UNL     1       4.121   6.384  -2.211  1.00  0.00    -0.316 OA  
ATOM     30  O3  UNL     1       2.283   7.702  -1.374  1.00  0.00    -0.316 OA  
ATOM     31  C19 UNL     1       3.636   7.705  -1.877  1.00  0.00     0.337 C   
ENDBRANCH  22  23
ENDBRANCH  19  22
ENDBRANCH  18  19
BRANCH  18  32
ATOM     32  C20 UNL     1       2.568  -0.616   0.667  1.00  0.00     0.010 C   
ATOM     33  C21 UNL     1       4.081  -0.403   0.423  1.00  0.00     0.017 C   
ATOM     34  C22 UNL     1       2.209  -0.011   2.038  1.00  0.00     0.017 C   
ATOM     35  C23 UNL     1       2.337  -2.143   0.735  1.00  0.00     0.017 C   
ENDBRANCH  18  32
ENDBRANCH   3  18
TORSDOF 9
