REMARK SMILES CC(=O)c1cccc(Cn2cc([C@@H]([NH2+]Cc3ccc4c(c3)OCO4)C3CCCCC3)nn2)c1
REMARK SMILES IDX 10 1 11 2 12 3 31 4 32 5 9 7 8 8 4 9 5 10 33 11 6 12 7 13
REMARK SMILES IDX 2 14 1 15 3 16 13 17 14 18 15 21 16 22 17 23 21 24 18 25
REMARK SMILES IDX 20 26 19 27 22 28 24 29 23 30 25 31 26 32 30 33 27 34 29 35
REMARK SMILES IDX 28 36
REMARK H PARENT 11 6 14 19 14 20
ROOT
ATOM     1   N1  UNL     1      -1.402  -3.269   0.052  1.00  0.00    -0.208 N   
ATOM     2   C9  UNL     1      -0.578  -2.417   0.741  1.00  0.00     0.046 A   
ATOM     3   C10 UNL     1      -1.448  -1.526   1.331  1.00  0.00     0.127 A   
ATOM     4   N3  UNL     1      -2.737  -1.903   1.055  1.00  0.00    -0.132 NA  
ATOM     5   N4  UNL     1      -2.697  -2.975   0.281  1.00  0.00    -0.076 NA  
ATOM     6   H9  UNL     1       0.499  -2.468   0.664  1.00  0.00     0.083 HD  
ENDROOT
BRANCH   1   7
ATOM     7   C8  UNL     1      -1.038  -4.216  -0.996  1.00  0.00     0.169 C   
BRANCH   7   8
ATOM     8   C7  UNL     1      -0.463  -3.503  -2.204  1.00  0.00    -0.028 A   
ATOM     9   C3  UNL     1      -0.458  -1.619  -3.762  1.00  0.00     0.018 A   
ATOM     10  C4  UNL     1       0.649  -2.156  -4.418  1.00  0.00     0.012 A   
ATOM     11  C26 UNL     1      -1.027  -2.309  -2.684  1.00  0.00     0.017 A   
ATOM     12  C5  UNL     1       1.187  -3.370  -3.983  1.00  0.00     0.001 A   
ATOM     13  C6  UNL     1       0.641  -4.036  -2.881  1.00  0.00     0.005 A   
BRANCH   9  14
ATOM     14  C2  UNL     1      -1.025  -0.289  -4.112  1.00  0.00     0.159 C   
ATOM     15  C1  UNL     1      -0.850   0.233  -5.511  1.00  0.00     0.093 C   
ATOM     16  O1  UNL     1      -1.590   0.363  -3.232  1.00  0.00    -0.295 OA  
ENDBRANCH   9  14
ENDBRANCH   7   8
ENDBRANCH   1   7
BRANCH   3  17
ATOM     17  C11 UNL     1      -1.205  -0.229   2.036  1.00  0.00     0.117 C   
BRANCH  17  18
ATOM     18  N2  UNL     1      -1.959   0.857   1.285  1.00  0.00     0.249 N   
ATOM     19  H11 UNL     1      -2.929   0.523   1.198  1.00  0.00     0.199 HD  
ATOM     20  H12 UNL     1      -1.988   1.729   1.814  1.00  0.00     0.199 HD  
BRANCH  18  21
ATOM     21  C12 UNL     1      -1.477   1.167  -0.101  1.00  0.00     0.164 C   
BRANCH  21  22
ATOM     22  C13 UNL     1      -0.093   1.759  -0.130  1.00  0.00    -0.002 A   
ATOM     23  C14 UNL     1       0.201   2.962   0.558  1.00  0.00     0.012 A   
ATOM     24  C18 UNL     1       0.920   1.123  -0.867  1.00  0.00     0.045 A   
ATOM     25  C15 UNL     1       1.490   3.505   0.540  1.00  0.00     0.037 A   
ATOM     26  C17 UNL     1       2.176   1.692  -0.877  1.00  0.00     0.109 A   
ATOM     27  C16 UNL     1       2.456   2.844  -0.186  1.00  0.00     0.108 A   
ATOM     28  O2  UNL     1       3.258   1.209  -1.542  1.00  0.00    -0.316 OA  
ATOM     29  O3  UNL     1       3.753   3.227  -0.320  1.00  0.00    -0.316 OA  
ATOM     30  C19 UNL     1       4.250   2.210  -1.215  1.00  0.00     0.337 C   
ENDBRANCH  21  22
ENDBRANCH  18  21
ENDBRANCH  17  18
BRANCH  17  31
ATOM     31  C20 UNL     1      -1.698  -0.257   3.517  1.00  0.00     0.043 C   
ATOM     32  C21 UNL     1      -1.491   1.072   4.279  1.00  0.00     0.010 C   
ATOM     33  C25 UNL     1      -1.031  -1.383   4.339  1.00  0.00     0.010 C   
ATOM     34  C22 UNL     1      -0.019   1.373   4.554  1.00  0.00     0.001 C   
ATOM     35  C24 UNL     1       0.446  -1.113   4.626  1.00  0.00     0.001 C   
ATOM     36  C23 UNL     1       0.650   0.233   5.316  1.00  0.00     0.000 C   
ENDBRANCH  17  31
ENDBRANCH   3  17
TORSDOF 8
