REMARK SMILES CC(C)[C@H]([NH2+]Cc1ccc2c(c1)OCO2)c1cn(Cc2c3ccccc3nn2C)nn1
REMARK SMILES IDX 16 1 17 2 18 3 30 4 31 5 4 7 2 8 1 9 3 10 5 11 6 14 7 15
REMARK SMILES IDX 8 16 12 17 9 18 11 19 10 20 13 21 15 22 14 23 19 24 20 25
REMARK SMILES IDX 21 26 28 27 22 28 26 29 27 30 23 31 25 32 24 33 29 34
REMARK H PARENT 17 6 5 12 5 13
ROOT
ATOM     1   C13 UNL     1       1.347   0.560   1.105  1.00  0.00     0.127 A   
ATOM     2   C14 UNL     1       0.820  -0.640   1.522  1.00  0.00     0.046 A   
ATOM     3   N2  UNL     1      -0.439  -0.318   1.948  1.00  0.00    -0.206 N   
ATOM     4   N5  UNL     1      -0.669   1.004   1.816  1.00  0.00    -0.076 NA  
ATOM     5   N6  UNL     1       0.415   1.551   1.294  1.00  0.00    -0.132 NA  
ATOM     6   H18 UNL     1       1.190  -1.657   1.529  1.00  0.00     0.083 HD  
ENDROOT
BRANCH   1   7
ATOM     7   C4  UNL     1       2.658   0.905   0.472  1.00  0.00     0.117 C   
BRANCH   7   8
ATOM     8   C2  UNL     1       3.785   1.126   1.512  1.00  0.00     0.037 C   
ATOM     9   C1  UNL     1       5.152   1.276   0.833  1.00  0.00     0.014 C   
ATOM     10  C3  UNL     1       3.546   2.301   2.467  1.00  0.00     0.014 C   
ENDBRANCH   7   8
BRANCH   7  11
ATOM     11  N1  UNL     1       2.483   2.126  -0.404  1.00  0.00     0.249 N   
ATOM     12  H9  UNL     1       1.544   2.498  -0.182  1.00  0.00     0.199 HD  
ATOM     13  H10 UNL     1       3.129   2.874  -0.134  1.00  0.00     0.199 HD  
BRANCH  11  14
ATOM     14  C5  UNL     1       2.569   1.909  -1.875  1.00  0.00     0.164 C   
BRANCH  14  15
ATOM     15  C6  UNL     1       1.591   0.903  -2.419  1.00  0.00    -0.002 A   
ATOM     16  C7  UNL     1       2.065  -0.266  -3.063  1.00  0.00     0.012 A   
ATOM     17  C11 UNL     1       0.205   1.113  -2.307  1.00  0.00     0.045 A   
ATOM     18  C8  UNL     1       1.179  -1.216  -3.579  1.00  0.00     0.037 A   
ATOM     19  C10 UNL     1      -0.643   0.157  -2.830  1.00  0.00     0.109 A   
ATOM     20  C9  UNL     1      -0.170  -0.973  -3.449  1.00  0.00     0.108 A   
ATOM     21  O1  UNL     1      -2.000   0.211  -2.813  1.00  0.00    -0.316 OA  
ATOM     22  O2  UNL     1      -1.167  -1.773  -3.905  1.00  0.00    -0.316 OA  
ATOM     23  C12 UNL     1      -2.328  -0.989  -3.557  1.00  0.00     0.337 C   
ENDBRANCH  14  15
ENDBRANCH  11  14
ENDBRANCH   7  11
ENDBRANCH   1   7
BRANCH   3  24
ATOM     24  C15 UNL     1      -1.475  -1.203   2.463  1.00  0.00     0.187 C   
BRANCH  24  25
ATOM     25  C16 UNL     1      -2.022  -2.055   1.374  1.00  0.00     0.057 A   
ATOM     26  C17 UNL     1      -1.803  -3.369   1.031  1.00  0.00     0.022 A   
ATOM     27  N4  UNL     1      -2.924  -1.608   0.435  1.00  0.00    -0.230 N   
ATOM     28  C18 UNL     1      -0.973  -4.269   1.697  1.00  0.00     0.012 A   
ATOM     29  C22 UNL     1      -2.584  -3.636  -0.151  1.00  0.00     0.090 A   
ATOM     30  N3  UNL     1      -3.247  -2.524  -0.498  1.00  0.00    -0.181 NA  
ATOM     31  C19 UNL     1      -0.976  -5.531   1.067  1.00  0.00     0.001 A   
ATOM     32  C21 UNL     1      -2.566  -4.901  -0.761  1.00  0.00     0.031 A   
ATOM     33  C20 UNL     1      -1.733  -5.836  -0.106  1.00  0.00     0.002 A   
ATOM     34  C23 UNL     1      -3.521  -0.293   0.336  1.00  0.00     0.159 C   
ENDBRANCH  24  25
ENDBRANCH   3  24
TORSDOF 7
