REMARK SMILES CC(C)C[C@H]([NH2+]Cc1ccc2c(c1)OCO2)c1cn(Cc2cn(C)cn2)nn1
REMARK SMILES IDX 17 1 18 2 19 3 27 4 28 5 5 7 4 8 2 9 1 10 3 11 6 12 7 15
REMARK SMILES IDX 8 16 9 17 13 18 10 19 12 20 11 21 14 22 16 23 15 24 20 25
REMARK SMILES IDX 21 26 22 27 26 28 23 29 25 30 24 31
REMARK H PARENT 18 6 6 13 6 14
ROOT
ATOM     1   C14 UNL     1       0.638   1.418  -1.146  1.00  0.00     0.127 A   
ATOM     2   C15 UNL     1      -0.209   0.873  -2.082  1.00  0.00     0.046 A   
ATOM     3   N2  UNL     1       0.620   0.515  -3.112  1.00  0.00    -0.206 N   
ATOM     4   N5  UNL     1       1.897   0.850  -2.835  1.00  0.00    -0.076 NA  
ATOM     5   N6  UNL     1       1.918   1.409  -1.637  1.00  0.00    -0.132 NA  
ATOM     6   H20 UNL     1      -1.271   0.667  -2.106  1.00  0.00     0.083 HD  
ENDROOT
BRANCH   1   7
ATOM     7   C5  UNL     1       0.383   1.909   0.238  1.00  0.00     0.114 C   
BRANCH   7   8
ATOM     8   C4  UNL     1       0.304   3.448   0.316  1.00  0.00     0.064 C   
BRANCH   8   9
ATOM     9   C2  UNL     1      -0.868   4.082  -0.463  1.00  0.00    -0.012 C   
ATOM     10  C1  UNL     1      -2.232   3.630   0.063  1.00  0.00     0.007 C   
ATOM     11  C3  UNL     1      -0.768   5.609  -0.395  1.00  0.00     0.007 C   
ENDBRANCH   8   9
ENDBRANCH   7   8
BRANCH   7  12
ATOM     12  N1  UNL     1       1.519   1.480   1.149  1.00  0.00     0.249 N   
ATOM     13  H11 UNL     1       1.446   1.955   2.054  1.00  0.00     0.199 HD  
ATOM     14  H12 UNL     1       2.384   1.808   0.693  1.00  0.00     0.199 HD  
BRANCH  12  15
ATOM     15  C6  UNL     1       1.671   0.009   1.370  1.00  0.00     0.164 C   
BRANCH  15  16
ATOM     16  C7  UNL     1       0.540  -0.586   2.162  1.00  0.00    -0.002 A   
ATOM     17  C8  UNL     1       0.480  -0.414   3.565  1.00  0.00     0.012 A   
ATOM     18  C12 UNL     1      -0.482  -1.294   1.507  1.00  0.00     0.045 A   
ATOM     19  C9  UNL     1      -0.582  -0.941   4.309  1.00  0.00     0.037 A   
ATOM     20  C11 UNL     1      -1.515  -1.799   2.269  1.00  0.00     0.109 A   
ATOM     21  C10 UNL     1      -1.563  -1.628   3.630  1.00  0.00     0.108 A   
ATOM     22  O1  UNL     1      -2.576  -2.502   1.796  1.00  0.00    -0.316 OA  
ATOM     23  O2  UNL     1      -2.660  -2.205   4.186  1.00  0.00    -0.316 OA  
ATOM     24  C13 UNL     1      -3.281  -2.795   3.024  1.00  0.00     0.337 C   
ENDBRANCH  15  16
ENDBRANCH  12  15
ENDBRANCH   7  12
ENDBRANCH   1   7
BRANCH   3  25
ATOM     25  C16 UNL     1       0.265  -0.103  -4.377  1.00  0.00     0.191 C   
BRANCH  25  26
ATOM     26  C17 UNL     1      -0.151  -1.515  -4.166  1.00  0.00     0.075 A   
ATOM     27  C18 UNL     1       0.501  -2.683  -4.514  1.00  0.00     0.101 A   
ATOM     28  N4  UNL     1      -1.362  -1.811  -3.573  1.00  0.00    -0.243 NA  
ATOM     29  N3  UNL     1      -0.350  -3.692  -4.152  1.00  0.00    -0.299 N   
ATOM     30  C20 UNL     1      -1.457  -3.123  -3.594  1.00  0.00     0.188 A   
ATOM     31  C19 UNL     1      -0.122  -5.100  -4.348  1.00  0.00     0.137 C   
ENDBRANCH  25  26
ENDBRANCH   3  25
TORSDOF 8
