REMARK SMILES O[C@@H](Cc1ccccc1)Cn1cc([C@@H]([NH2+]Cc2ccc3c(c2)OCO3)C2CCCCC2)nn1
REMARK SMILES IDX 11 1 12 2 13 3 32 4 33 5 10 7 2 8 1 9 3 11 4 12 5 13 9 14
REMARK SMILES IDX 6 15 8 16 7 17 14 18 15 19 16 22 17 23 18 24 22 25 19 26
REMARK SMILES IDX 21 27 20 28 23 29 25 30 24 31 26 32 27 33 31 34 28 35 30 36
REMARK SMILES IDX 29 37
REMARK H PARENT 12 6 1 10 15 20 15 21
ROOT
ATOM     1   N1  UNL     1      -0.612   2.190  -1.022  1.00  0.00    -0.210 N   
ATOM     2   C10 UNL     1      -0.193   1.423   0.028  1.00  0.00     0.045 A   
ATOM     3   C11 UNL     1      -1.305   0.690   0.376  1.00  0.00     0.127 A   
ATOM     4   N3  UNL     1      -2.364   1.095  -0.392  1.00  0.00    -0.132 NA  
ATOM     5   N4  UNL     1      -1.929   2.009  -1.243  1.00  0.00    -0.076 NA  
ATOM     6   H12 UNL     1       0.824   1.449   0.396  1.00  0.00     0.083 HD  
ENDROOT
BRANCH   1   7
ATOM     7   C9  UNL     1       0.122   3.163  -1.806  1.00  0.00     0.166 C   
BRANCH   7   8
ATOM     8   C1  UNL     1       1.526   2.736  -2.262  1.00  0.00     0.138 C   
BRANCH   8   9
ATOM     9   O1  UNL     1       2.396   2.692  -1.122  1.00  0.00    -0.391 OA  
ATOM     10  H1  UNL     1       3.311   2.686  -1.468  1.00  0.00     0.211 HD  
ENDBRANCH   8   9
BRANCH   8  11
ATOM     11  C2  UNL     1       1.539   1.391  -3.013  1.00  0.00     0.069 C   
BRANCH  11  12
ATOM     12  C3  UNL     1       2.883   1.124  -3.653  1.00  0.00    -0.045 A   
ATOM     13  C4  UNL     1       3.159   1.592  -4.945  1.00  0.00     0.004 A   
ATOM     14  C8  UNL     1       3.887   0.444  -2.943  1.00  0.00     0.004 A   
ATOM     15  C5  UNL     1       4.418   1.391  -5.512  1.00  0.00     0.000 A   
ATOM     16  C7  UNL     1       5.147   0.249  -3.510  1.00  0.00     0.000 A   
ATOM     17  C6  UNL     1       5.414   0.727  -4.793  1.00  0.00     0.000 A   
ENDBRANCH  11  12
ENDBRANCH   8  11
ENDBRANCH   7   8
ENDBRANCH   1   7
BRANCH   3  18
ATOM     18  C12 UNL     1      -1.511  -0.341   1.438  1.00  0.00     0.117 C   
BRANCH  18  19
ATOM     19  N2  UNL     1      -2.892  -0.185   2.033  1.00  0.00     0.249 N   
ATOM     20  H14 UNL     1      -3.527  -0.032   1.237  1.00  0.00     0.199 HD  
ATOM     21  H15 UNL     1      -3.187  -1.050   2.495  1.00  0.00     0.199 HD  
BRANCH  19  22
ATOM     22  C13 UNL     1      -3.060   0.961   2.974  1.00  0.00     0.164 C   
BRANCH  22  23
ATOM     23  C14 UNL     1      -2.666   0.596   4.378  1.00  0.00    -0.002 A   
ATOM     24  C15 UNL     1      -3.589  -0.060   5.229  1.00  0.00     0.012 A   
ATOM     25  C19 UNL     1      -1.367   0.862   4.845  1.00  0.00     0.045 A   
ATOM     26  C16 UNL     1      -3.229  -0.437   6.527  1.00  0.00     0.037 A   
ATOM     27  C18 UNL     1      -1.041   0.468   6.126  1.00  0.00     0.109 A   
ATOM     28  C17 UNL     1      -1.946  -0.160   6.946  1.00  0.00     0.108 A   
ATOM     29  O2  UNL     1       0.170   0.637   6.721  1.00  0.00    -0.316 OA  
ATOM     30  O3  UNL     1      -1.422  -0.456   8.164  1.00  0.00    -0.316 OA  
ATOM     31  C20 UNL     1      -0.079   0.056   8.022  1.00  0.00     0.337 C   
ENDBRANCH  22  23
ENDBRANCH  19  22
ENDBRANCH  18  19
BRANCH  18  32
ATOM     32  C21 UNL     1      -1.338  -1.804   0.944  1.00  0.00     0.043 C   
ATOM     33  C22 UNL     1      -2.336  -2.225  -0.153  1.00  0.00     0.010 C   
ATOM     34  C26 UNL     1       0.110  -2.068   0.483  1.00  0.00     0.010 C   
ATOM     35  C23 UNL     1      -2.112  -3.671  -0.598  1.00  0.00     0.001 C   
ATOM     36  C25 UNL     1       0.319  -3.511   0.032  1.00  0.00     0.001 C   
ATOM     37  C24 UNL     1      -0.677  -3.901  -1.055  1.00  0.00     0.000 C   
ENDBRANCH  18  32
ENDBRANCH   3  18
TORSDOF 10
