REMARK SMILES OC[C@@H](c1ccccc1Cl)n1cc([C@@H]([NH2+]Cc2ccc3c(c2)OCO3)C2CCCCC2)nn1
REMARK SMILES IDX 11 1 12 2 13 3 32 4 33 5 3 7 2 8 1 9 4 11 5 12 9 13 6 14
REMARK SMILES IDX 8 15 7 16 10 17 14 18 15 19 16 22 17 23 18 24 22 25 19 26
REMARK SMILES IDX 21 27 20 28 23 29 25 30 24 31 26 32 27 33 31 34 28 35 30 36
REMARK SMILES IDX 29 37
REMARK H PARENT 12 6 1 10 15 20 15 21
ROOT
ATOM     1   N1  UNL     1       0.932   0.043  -2.659  1.00  0.00    -0.202 N   
ATOM     2   C9  UNL     1       0.140  -0.541  -1.708  1.00  0.00     0.046 A   
ATOM     3   C10 UNL     1       0.993  -0.791  -0.658  1.00  0.00     0.127 A   
ATOM     4   N3  UNL     1       2.261  -0.411  -1.012  1.00  0.00    -0.132 NA  
ATOM     5   N4  UNL     1       2.215   0.087  -2.234  1.00  0.00    -0.075 NA  
ATOM     6   H9  UNL     1      -0.917  -0.708  -1.846  1.00  0.00     0.083 HD  
ENDROOT
BRANCH   1   7
ATOM     7   C2  UNL     1       0.597   0.561  -3.987  1.00  0.00     0.157 C   
BRANCH   7   8
ATOM     8   C1  UNL     1      -0.542  -0.190  -4.706  1.00  0.00     0.186 C   
BRANCH   8   9
ATOM     9   O1  UNL     1      -0.139  -1.524  -5.020  1.00  0.00    -0.394 OA  
ATOM     10  H1  UNL     1      -0.780  -1.885  -5.663  1.00  0.00     0.210 HD  
ENDBRANCH   8   9
ENDBRANCH   7   8
BRANCH   7  11
ATOM     11  C3  UNL     1       0.436   2.079  -3.955  1.00  0.00    -0.005 A   
ATOM     12  C4  UNL     1       1.480   2.849  -4.515  1.00  0.00     0.007 A   
ATOM     13  C8  UNL     1      -0.657   2.769  -3.400  1.00  0.00     0.046 A   
ATOM     14  C5  UNL     1       1.426   4.244  -4.538  1.00  0.00     0.000 A   
ATOM     15  C7  UNL     1      -0.711   4.168  -3.434  1.00  0.00     0.021 A   
ATOM     16  C6  UNL     1       0.326   4.903  -4.002  1.00  0.00     0.002 A   
ATOM     17  CL1 UNL     1      -1.986   1.976  -2.635  1.00  0.00    -0.084 Cl  
ENDBRANCH   7  11
ENDBRANCH   1   7
BRANCH   3  18
ATOM     18  C11 UNL     1       0.759  -1.397   0.691  1.00  0.00     0.117 C   
BRANCH  18  19
ATOM     19  N2  UNL     1       2.035  -2.104   1.094  1.00  0.00     0.249 N   
ATOM     20  H11 UNL     1       2.786  -1.400   1.114  1.00  0.00     0.199 HD  
ATOM     21  H12 UNL     1       2.293  -2.696   0.294  1.00  0.00     0.199 HD  
BRANCH  19  22
ATOM     22  C12 UNL     1       2.055  -2.934   2.322  1.00  0.00     0.164 C   
BRANCH  22  23
ATOM     23  C13 UNL     1       1.064  -4.063   2.295  1.00  0.00    -0.002 A   
ATOM     24  C14 UNL     1       1.264  -5.171   1.435  1.00  0.00     0.012 A   
ATOM     25  C18 UNL     1      -0.083  -4.016   3.105  1.00  0.00     0.045 A   
ATOM     26  C15 UNL     1       0.331  -6.212   1.376  1.00  0.00     0.037 A   
ATOM     27  C17 UNL     1      -0.981  -5.059   3.024  1.00  0.00     0.109 A   
ATOM     28  C16 UNL     1      -0.782  -6.125   2.182  1.00  0.00     0.108 A   
ATOM     29  O2  UNL     1      -2.138  -5.162   3.728  1.00  0.00    -0.316 OA  
ATOM     30  O3  UNL     1      -1.791  -7.034   2.249  1.00  0.00    -0.316 OA  
ATOM     31  C19 UNL     1      -2.633  -6.438   3.260  1.00  0.00     0.337 C   
ENDBRANCH  22  23
ENDBRANCH  19  22
ENDBRANCH  18  19
BRANCH  18  32
ATOM     32  C20 UNL     1       0.324  -0.368   1.771  1.00  0.00     0.043 C   
ATOM     33  C21 UNL     1      -1.073   0.212   1.463  1.00  0.00     0.010 C   
ATOM     34  C25 UNL     1       1.334   0.774   2.003  1.00  0.00     0.010 C   
ATOM     35  C22 UNL     1      -1.544   1.174   2.551  1.00  0.00     0.001 C   
ATOM     36  C24 UNL     1       0.854   1.742   3.085  1.00  0.00     0.001 C   
ATOM     37  C23 UNL     1      -0.533   2.294   2.776  1.00  0.00     0.000 C   
ENDBRANCH  18  32
ENDBRANCH   3  18
TORSDOF 9
