REMARK SMILES OC[C@H](c1ccccc1Cl)n1cc([C@@H]([NH2+]Cc2ccc3c(c2)OCO3)C2CCCCC2)nn1
REMARK SMILES IDX 11 1 12 2 13 3 32 4 33 5 3 7 2 8 1 9 4 11 5 12 9 13 6 14
REMARK SMILES IDX 8 15 7 16 10 17 14 18 15 19 16 22 17 23 18 24 22 25 19 26
REMARK SMILES IDX 21 27 20 28 23 29 25 30 24 31 26 32 27 33 31 34 28 35 30 36
REMARK SMILES IDX 29 37
REMARK H PARENT 12 6 1 10 15 20 15 21
ROOT
ATOM     1   N1  UNL     1      -1.854   0.824   1.108  1.00  0.00    -0.202 N   
ATOM     2   C9  UNL     1      -1.022  -0.268   1.163  1.00  0.00     0.046 A   
ATOM     3   C10 UNL     1      -0.072  -0.016   0.199  1.00  0.00     0.127 A   
ATOM     4   N3  UNL     1      -0.402   1.137  -0.464  1.00  0.00    -0.132 NA  
ATOM     5   N4  UNL     1      -1.508   1.620   0.075  1.00  0.00    -0.075 NA  
ATOM     6   H9  UNL     1      -1.153  -1.057   1.891  1.00  0.00     0.083 HD  
ENDROOT
BRANCH   1   7
ATOM     7   C2  UNL     1      -3.008   1.116   1.960  1.00  0.00     0.157 C   
BRANCH   7   8
ATOM     8   C1  UNL     1      -3.747   2.427   1.621  1.00  0.00     0.186 C   
BRANCH   8   9
ATOM     9   O1  UNL     1      -5.061   2.402   2.189  1.00  0.00    -0.394 OA  
ATOM     10  H1  UNL     1      -5.465   3.273   2.019  1.00  0.00     0.210 HD  
ENDBRANCH   8   9
ENDBRANCH   7   8
BRANCH   7  11
ATOM     11  C3  UNL     1      -2.651   1.022   3.444  1.00  0.00    -0.005 A   
ATOM     12  C4  UNL     1      -3.420   0.156   4.251  1.00  0.00     0.007 A   
ATOM     13  C8  UNL     1      -1.625   1.758   4.065  1.00  0.00     0.046 A   
ATOM     14  C5  UNL     1      -3.161   0.015   5.615  1.00  0.00     0.000 A   
ATOM     15  C7  UNL     1      -1.368   1.611   5.434  1.00  0.00     0.021 A   
ATOM     16  C6  UNL     1      -2.132   0.739   6.206  1.00  0.00     0.002 A   
ATOM     17  CL1 UNL     1      -0.618   2.869   3.205  1.00  0.00    -0.084 Cl  
ENDBRANCH   7  11
ENDBRANCH   1   7
BRANCH   3  18
ATOM     18  C11 UNL     1       1.142  -0.783  -0.225  1.00  0.00     0.117 C   
BRANCH  18  19
ATOM     19  N2  UNL     1       1.289  -0.644  -1.724  1.00  0.00     0.249 N   
ATOM     20  H11 UNL     1       2.224  -0.888  -2.056  1.00  0.00     0.199 HD  
ATOM     21  H12 UNL     1       1.165   0.358  -1.935  1.00  0.00     0.199 HD  
BRANCH  19  22
ATOM     22  C12 UNL     1       0.293  -1.395  -2.538  1.00  0.00     0.164 C   
BRANCH  22  23
ATOM     23  C13 UNL     1       0.494  -1.113  -4.000  1.00  0.00    -0.002 A   
ATOM     24  C14 UNL     1       1.312  -1.957  -4.789  1.00  0.00     0.012 A   
ATOM     25  C18 UNL     1      -0.087   0.029  -4.578  1.00  0.00     0.045 A   
ATOM     26  C15 UNL     1       1.539  -1.675  -6.141  1.00  0.00     0.037 A   
ATOM     27  C17 UNL     1       0.158   0.277  -5.913  1.00  0.00     0.109 A   
ATOM     28  C16 UNL     1       0.948  -0.550  -6.672  1.00  0.00     0.108 A   
ATOM     29  O2  UNL     1      -0.324   1.331  -6.622  1.00  0.00    -0.316 OA  
ATOM     30  O3  UNL     1       1.061  -0.123  -7.956  1.00  0.00    -0.316 OA  
ATOM     31  C19 UNL     1       0.238   1.063  -7.927  1.00  0.00     0.337 C   
ENDBRANCH  22  23
ENDBRANCH  19  22
ENDBRANCH  18  19
BRANCH  18  32
ATOM     32  C20 UNL     1       2.447  -0.283   0.466  1.00  0.00     0.043 C   
ATOM     33  C21 UNL     1       2.308  -0.283   2.007  1.00  0.00     0.010 C   
ATOM     34  C25 UNL     1       3.675  -1.135   0.068  1.00  0.00     0.010 C   
ATOM     35  C22 UNL     1       3.590   0.149   2.715  1.00  0.00     0.001 C   
ATOM     36  C24 UNL     1       4.951  -0.703   0.788  1.00  0.00     0.001 C   
ATOM     37  C23 UNL     1       4.777  -0.708   2.300  1.00  0.00     0.000 C   
ENDBRANCH  18  32
ENDBRANCH   3  18
TORSDOF 9
