REMARK SMILES CC(C)[C@H]([NH2+]Cc1ccc2c(c1)OCO2)c1cn(Cc2ccc[nH]2)nn1
REMARK SMILES IDX 16 1 17 2 18 3 25 4 26 5 4 7 2 8 1 9 3 10 5 11 6 14 7 15
REMARK SMILES IDX 8 16 12 17 9 18 11 19 10 20 13 21 15 22 14 23 19 24 20 25
REMARK SMILES IDX 21 26 24 27 22 28 23 29
REMARK H PARENT 17 6 5 12 5 13 24 30
ROOT
ATOM     1   C13 UNL     1      -1.657  -0.201   0.160  1.00  0.00     0.127 A   
ATOM     2   C14 UNL     1      -1.340  -1.330  -0.561  1.00  0.00     0.046 A   
ATOM     3   N2  UNL     1      -1.881  -1.097  -1.795  1.00  0.00    -0.206 N   
ATOM     4   N4  UNL     1      -2.504   0.098  -1.829  1.00  0.00    -0.076 NA  
ATOM     5   N5  UNL     1      -2.381   0.652  -0.634  1.00  0.00    -0.132 NA  
ATOM     6   H18 UNL     1      -0.765  -2.220  -0.341  1.00  0.00     0.083 HD  
ENDROOT
BRANCH   1   7
ATOM     7   C4  UNL     1      -1.252   0.224   1.532  1.00  0.00     0.117 C   
BRANCH   7   8
ATOM     8   C2  UNL     1      -2.310  -0.068   2.629  1.00  0.00     0.037 C   
ATOM     9   C1  UNL     1      -2.524  -1.575   2.814  1.00  0.00     0.014 C   
ATOM     10  C3  UNL     1      -3.663   0.620   2.410  1.00  0.00     0.014 C   
ENDBRANCH   7   8
BRANCH   7  11
ATOM     11  N1  UNL     1      -0.927   1.704   1.560  1.00  0.00     0.249 N   
ATOM     12  H9  UNL     1      -1.760   2.196   1.210  1.00  0.00     0.199 HD  
ATOM     13  H10 UNL     1      -0.770   2.008   2.524  1.00  0.00     0.199 HD  
BRANCH  11  14
ATOM     14  C5  UNL     1       0.218   2.153   0.707  1.00  0.00     0.164 C   
BRANCH  14  15
ATOM     15  C6  UNL     1       1.521   1.489   1.050  1.00  0.00    -0.002 A   
ATOM     16  C7  UNL     1       2.098   0.554   0.155  1.00  0.00     0.012 A   
ATOM     17  C11 UNL     1       2.165   1.768   2.268  1.00  0.00     0.045 A   
ATOM     18  C8  UNL     1       3.293  -0.100   0.470  1.00  0.00     0.037 A   
ATOM     19  C10 UNL     1       3.342   1.105   2.547  1.00  0.00     0.109 A   
ATOM     20  C9  UNL     1       3.890   0.197   1.675  1.00  0.00     0.108 A   
ATOM     21  O1  UNL     1       4.083   1.254   3.676  1.00  0.00    -0.316 OA  
ATOM     22  O2  UNL     1       5.046  -0.339   2.145  1.00  0.00    -0.316 OA  
ATOM     23  C12 UNL     1       5.186   0.360   3.400  1.00  0.00     0.337 C   
ENDBRANCH  14  15
ENDBRANCH  11  14
ENDBRANCH   7  11
ENDBRANCH   1   7
BRANCH   3  24
ATOM     24  C15 UNL     1      -1.747  -1.904  -2.998  1.00  0.00     0.185 C   
BRANCH  24  25
ATOM     25  C16 UNL     1      -0.452  -1.592  -3.671  1.00  0.00     0.026 A   
ATOM     26  C17 UNL     1       0.750  -2.276  -3.679  1.00  0.00     0.022 A   
ATOM     27  N3  UNL     1      -0.291  -0.462  -4.441  1.00  0.00    -0.323 N   
ATOM     28  C18 UNL     1       1.662  -1.526  -4.457  1.00  0.00     0.017 A   
ATOM     29  C19 UNL     1       0.996  -0.410  -4.908  1.00  0.00     0.071 A   
ATOM     30  H24 UNL     1      -1.007   0.230  -4.632  1.00  0.00     0.152 HD  
ENDBRANCH  24  25
ENDBRANCH   3  24
TORSDOF 7
