REMARK SMILES CC(C)C[C@H]([NH2+]Cc1ccc2c(c1)OCO2)c1cn(CCc2ccncc2F)nn1
REMARK SMILES IDX 17 1 18 2 19 3 29 4 30 5 5 7 4 8 2 9 1 10 3 11 6 12 7 15
REMARK SMILES IDX 8 16 9 17 13 18 10 19 12 20 11 21 14 22 16 23 15 24 20 25
REMARK SMILES IDX 21 26 22 27 23 28 27 29 24 30 26 31 25 32 28 33
REMARK H PARENT 18 6 6 13 6 14
ROOT
ATOM     1   C14 UNL     1       0.351  -1.234   1.067  1.00  0.00     0.127 A   
ATOM     2   C15 UNL     1      -0.523  -1.877   0.220  1.00  0.00     0.045 A   
ATOM     3   N2  UNL     1      -1.705  -1.875   0.905  1.00  0.00    -0.212 N   
ATOM     4   N4  UNL     1      -1.571  -1.277   2.103  1.00  0.00    -0.076 NA  
ATOM     5   N5  UNL     1      -0.313  -0.885   2.218  1.00  0.00    -0.132 NA  
ATOM     6   H20 UNL     1      -0.426  -2.298  -0.772  1.00  0.00     0.083 HD  
ENDROOT
BRANCH   1   7
ATOM     7   C5  UNL     1       1.792  -0.860   0.912  1.00  0.00     0.114 C   
BRANCH   7   8
ATOM     8   C4  UNL     1       2.709  -2.098   0.926  1.00  0.00     0.064 C   
BRANCH   8   9
ATOM     9   C2  UNL     1       4.203  -1.819   0.660  1.00  0.00    -0.012 C   
ATOM     10  C1  UNL     1       5.005  -3.113   0.829  1.00  0.00     0.007 C   
ATOM     11  C3  UNL     1       4.448  -1.244  -0.737  1.00  0.00     0.007 C   
ENDBRANCH   8   9
ENDBRANCH   7   8
BRANCH   7  12
ATOM     12  N1  UNL     1       2.187   0.064   2.047  1.00  0.00     0.249 N   
ATOM     13  H11 UNL     1       2.882  -0.381   2.654  1.00  0.00     0.199 HD  
ATOM     14  H12 UNL     1       1.344   0.145   2.641  1.00  0.00     0.199 HD  
BRANCH  12  15
ATOM     15  C6  UNL     1       2.618   1.437   1.679  1.00  0.00     0.164 C   
BRANCH  15  16
ATOM     16  C7  UNL     1       1.551   2.247   0.995  1.00  0.00    -0.002 A   
ATOM     17  C8  UNL     1       1.721   2.658  -0.349  1.00  0.00     0.012 A   
ATOM     18  C12 UNL     1       0.376   2.602   1.680  1.00  0.00     0.045 A   
ATOM     19  C9  UNL     1       0.738   3.406  -1.004  1.00  0.00     0.037 A   
ATOM     20  C11 UNL     1      -0.573   3.344   1.006  1.00  0.00     0.109 A   
ATOM     21  C10 UNL     1      -0.397   3.735  -0.297  1.00  0.00     0.108 A   
ATOM     22  O1  UNL     1      -1.758   3.767   1.520  1.00  0.00    -0.316 OA  
ATOM     23  O2  UNL     1      -1.451   4.450  -0.769  1.00  0.00    -0.316 OA  
ATOM     24  C13 UNL     1      -2.283   4.526   0.409  1.00  0.00     0.337 C   
ENDBRANCH  15  16
ENDBRANCH  12  15
ENDBRANCH   7  12
ENDBRANCH   1   7
BRANCH   3  25
ATOM     25  C16 UNL     1      -2.992  -2.384   0.474  1.00  0.00     0.139 C   
BRANCH  25  26
ATOM     26  C17 UNL     1      -3.913  -1.283  -0.058  1.00  0.00     0.060 C   
BRANCH  26  27
ATOM     27  C18 UNL     1      -3.392  -0.620  -1.308  1.00  0.00    -0.007 A   
ATOM     28  C19 UNL     1      -2.963   0.712  -1.297  1.00  0.00     0.027 A   
ATOM     29  C22 UNL     1      -3.309  -1.323  -2.509  1.00  0.00     0.144 A   
ATOM     30  C20 UNL     1      -2.462   1.262  -2.470  1.00  0.00     0.111 A   
ATOM     31  C21 UNL     1      -2.792  -0.698  -3.630  1.00  0.00     0.150 A   
ATOM     32  N3  UNL     1      -2.349   0.581  -3.632  1.00  0.00    -0.262 NA  
ATOM     33  F1  UNL     1      -3.697  -2.605  -2.571  1.00  0.00    -0.205 F   
ENDBRANCH  26  27
ENDBRANCH  25  26
ENDBRANCH   3  25
TORSDOF 9
