REMARK SMILES CC(C)(C)[C@H]([NH2+]Cc1ccc2c(c1)OCO2)c1cn(C[C@@H](O)Cc2cccc(F)c2)nn1
REMARK SMILES IDX 17 1 18 2 19 3 31 4 32 5 5 7 2 8 1 9 3 10 4 11 6 12 7 15
REMARK SMILES IDX 8 16 9 17 13 18 10 19 12 20 11 21 14 22 16 23 15 24 20 25
REMARK SMILES IDX 21 26 22 27 23 29 24 30 25 31 30 32 26 33 28 34 27 35 29 36
REMARK H PARENT 18 6 6 13 6 14 22 28
ROOT
ATOM     1   C14 UNL     1      -0.588   0.542   0.355  1.00  0.00     0.127 A   
ATOM     2   C15 UNL     1      -0.695   1.490  -0.637  1.00  0.00     0.045 A   
ATOM     3   N2  UNL     1      -1.999   1.893  -0.570  1.00  0.00    -0.210 N   
ATOM     4   N3  UNL     1      -2.634   1.300   0.459  1.00  0.00    -0.076 NA  
ATOM     5   N4  UNL     1      -1.785   0.457   1.024  1.00  0.00    -0.132 NA  
ATOM     6   H20 UNL     1      -0.013   1.869  -1.387  1.00  0.00     0.083 HD  
ENDROOT
BRANCH   1   7
ATOM     7   C5  UNL     1       0.568  -0.298   0.805  1.00  0.00     0.120 C   
BRANCH   7   8
ATOM     8   C2  UNL     1       0.693  -1.674   0.058  1.00  0.00     0.010 C   
ATOM     9   C1  UNL     1       0.784  -1.450  -1.469  1.00  0.00     0.017 C   
ATOM     10  C3  UNL     1       1.994  -2.396   0.482  1.00  0.00     0.017 C   
ATOM     11  C4  UNL     1      -0.498  -2.612   0.337  1.00  0.00     0.017 C   
ENDBRANCH   7   8
BRANCH   7  12
ATOM     12  N1  UNL     1       0.439  -0.525   2.300  1.00  0.00     0.250 N   
ATOM     13  H11 UNL     1       0.960  -1.349   2.605  1.00  0.00     0.199 HD  
ATOM     14  H12 UNL     1      -0.559  -0.723   2.466  1.00  0.00     0.199 HD  
BRANCH  12  15
ATOM     15  C6  UNL     1       0.809   0.629   3.171  1.00  0.00     0.164 C   
BRANCH  15  16
ATOM     16  C7  UNL     1       2.297   0.835   3.246  1.00  0.00    -0.002 A   
ATOM     17  C8  UNL     1       3.107  -0.062   3.985  1.00  0.00     0.012 A   
ATOM     18  C12 UNL     1       2.899   1.903   2.558  1.00  0.00     0.045 A   
ATOM     19  C9  UNL     1       4.497   0.097   4.034  1.00  0.00     0.037 A   
ATOM     20  C11 UNL     1       4.271   2.030   2.627  1.00  0.00     0.109 A   
ATOM     21  C10 UNL     1       5.048   1.153   3.342  1.00  0.00     0.108 A   
ATOM     22  O1  UNL     1       5.006   2.999   2.020  1.00  0.00    -0.316 OA  
ATOM     23  O2  UNL     1       6.370   1.458   3.277  1.00  0.00    -0.316 OA  
ATOM     24  C13 UNL     1       6.337   2.654   2.469  1.00  0.00     0.337 C   
ENDBRANCH  15  16
ENDBRANCH  12  15
ENDBRANCH   7  12
ENDBRANCH   1   7
BRANCH   3  25
ATOM     25  C16 UNL     1      -2.695   2.828  -1.429  1.00  0.00     0.166 C   
BRANCH  25  26
ATOM     26  C17 UNL     1      -3.181   2.204  -2.744  1.00  0.00     0.138 C   
BRANCH  26  27
ATOM     27  O3  UNL     1      -2.038   1.837  -3.529  1.00  0.00    -0.391 OA  
ATOM     28  H24 UNL     1      -2.368   1.589  -4.415  1.00  0.00     0.211 HD  
ENDBRANCH  26  27
BRANCH  26  29
ATOM     29  C18 UNL     1      -4.099   0.988  -2.525  1.00  0.00     0.069 C   
BRANCH  29  30
ATOM     30  C19 UNL     1      -4.772   0.540  -3.803  1.00  0.00    -0.042 A   
ATOM     31  C20 UNL     1      -5.890   1.225  -4.302  1.00  0.00     0.004 A   
ATOM     32  C24 UNL     1      -4.277  -0.560  -4.517  1.00  0.00     0.043 A   
ATOM     33  C21 UNL     1      -6.500   0.817  -5.492  1.00  0.00     0.003 A   
ATOM     34  C23 UNL     1      -4.893  -0.956  -5.700  1.00  0.00     0.123 A   
ATOM     35  C22 UNL     1      -5.998  -0.277  -6.194  1.00  0.00     0.039 A   
ATOM     36  F1  UNL     1      -4.407  -2.007  -6.373  1.00  0.00    -0.207 F   
ENDBRANCH  29  30
ENDBRANCH  26  29
ENDBRANCH  25  26
ENDBRANCH   3  25
TORSDOF 10
