REMARK SMILES CC(C)(C)[C@H]([NH2+]Cc1ccc2c(c1)OCO2)c1cn(C[C@H](O)Cc2cccc(F)c2)nn1
REMARK SMILES IDX 17 1 18 2 19 3 31 4 32 5 5 7 2 8 1 9 3 10 4 11 6 12 7 15
REMARK SMILES IDX 8 16 9 17 13 18 10 19 12 20 11 21 14 22 16 23 15 24 20 25
REMARK SMILES IDX 21 26 22 27 23 29 24 30 25 31 30 32 26 33 28 34 27 35 29 36
REMARK H PARENT 18 6 6 13 6 14 22 28
ROOT
ATOM     1   C14 UNL     1       1.400   0.150   0.586  1.00  0.00     0.127 A   
ATOM     2   C15 UNL     1       1.597  -0.238  -0.720  1.00  0.00     0.045 A   
ATOM     3   N2  UNL     1       1.316  -1.575  -0.716  1.00  0.00    -0.210 N   
ATOM     4   N3  UNL     1       0.955  -1.987   0.514  1.00  0.00    -0.076 NA  
ATOM     5   N4  UNL     1       0.999  -0.939   1.320  1.00  0.00    -0.132 NA  
ATOM     6   H20 UNL     1       1.881   0.287  -1.623  1.00  0.00     0.083 HD  
ENDROOT
BRANCH   1   7
ATOM     7   C5  UNL     1       1.467   1.497   1.240  1.00  0.00     0.120 C   
BRANCH   7   8
ATOM     8   C2  UNL     1       2.859   1.835   1.878  1.00  0.00     0.010 C   
ATOM     9   C1  UNL     1       2.873   3.293   2.394  1.00  0.00     0.017 C   
ATOM     10  C3  UNL     1       3.217   0.903   3.053  1.00  0.00     0.017 C   
ATOM     11  C4  UNL     1       3.975   1.726   0.814  1.00  0.00     0.017 C   
ENDBRANCH   7   8
BRANCH   7  12
ATOM     12  N1  UNL     1       0.376   1.576   2.283  1.00  0.00     0.250 N   
ATOM     13  H11 UNL     1       0.406   0.688   2.806  1.00  0.00     0.199 HD  
ATOM     14  H12 UNL     1       0.540   2.316   2.970  1.00  0.00     0.199 HD  
BRANCH  12  15
ATOM     15  C6  UNL     1      -1.006   1.721   1.747  1.00  0.00     0.164 C   
BRANCH  15  16
ATOM     16  C7  UNL     1      -2.007   1.679   2.866  1.00  0.00    -0.002 A   
ATOM     17  C8  UNL     1      -2.505   0.436   3.326  1.00  0.00     0.012 A   
ATOM     18  C12 UNL     1      -2.411   2.866   3.501  1.00  0.00     0.045 A   
ATOM     19  C9  UNL     1      -3.404   0.374   4.396  1.00  0.00     0.037 A   
ATOM     20  C11 UNL     1      -3.298   2.768   4.554  1.00  0.00     0.109 A   
ATOM     21  C10 UNL     1      -3.781   1.559   4.989  1.00  0.00     0.108 A   
ATOM     22  O1  UNL     1      -3.786   3.812   5.274  1.00  0.00    -0.316 OA  
ATOM     23  O2  UNL     1      -4.636   1.689   6.035  1.00  0.00    -0.316 OA  
ATOM     24  C13 UNL     1      -4.656   3.123   6.200  1.00  0.00     0.337 C   
ENDBRANCH  15  16
ENDBRANCH  12  15
ENDBRANCH   7  12
ENDBRANCH   1   7
BRANCH   3  25
ATOM     25  C16 UNL     1       1.368  -2.506  -1.823  1.00  0.00     0.166 C   
BRANCH  25  26
ATOM     26  C17 UNL     1       0.082  -2.542  -2.658  1.00  0.00     0.138 C   
BRANCH  26  27
ATOM     27  O3  UNL     1      -0.102  -1.262  -3.281  1.00  0.00    -0.391 OA  
ATOM     28  H24 UNL     1      -0.797  -1.375  -3.958  1.00  0.00     0.211 HD  
ENDBRANCH  26  27
BRANCH  26  29
ATOM     29  C18 UNL     1      -1.158  -2.919  -1.830  1.00  0.00     0.069 C   
BRANCH  29  30
ATOM     30  C19 UNL     1      -2.357  -3.220  -2.701  1.00  0.00    -0.042 A   
ATOM     31  C20 UNL     1      -2.509  -4.482  -3.296  1.00  0.00     0.004 A   
ATOM     32  C24 UNL     1      -3.325  -2.236  -2.942  1.00  0.00     0.043 A   
ATOM     33  C21 UNL     1      -3.610  -4.753  -4.114  1.00  0.00     0.003 A   
ATOM     34  C23 UNL     1      -4.416  -2.518  -3.758  1.00  0.00     0.123 A   
ATOM     35  C22 UNL     1      -4.567  -3.767  -4.347  1.00  0.00     0.039 A   
ATOM     36  F1  UNL     1      -5.331  -1.566  -3.981  1.00  0.00    -0.207 F   
ENDBRANCH  29  30
ENDBRANCH  26  29
ENDBRANCH  25  26
ENDBRANCH   3  25
TORSDOF 10
