REMARK SMILES CC(C)C[C@H]([NH2+]Cc1ccc2c(c1)OCO2)c1cn([C@@H](CO)c2cc(F)ccc2O)nn1
REMARK SMILES IDX 17 1 18 2 19 3 31 4 32 5 5 7 4 8 2 9 1 10 3 11 6 12 7 15
REMARK SMILES IDX 8 16 9 17 13 18 10 19 12 20 11 21 14 22 16 23 15 24 20 25
REMARK SMILES IDX 21 26 22 27 23 29 24 30 29 31 25 32 28 33 27 34 26 35 30 36
REMARK H PARENT 18 6 6 13 6 14 22 28 30 37
ROOT
ATOM     1   C14 UNL     1       1.176  -0.412   0.618  1.00  0.00     0.127 A   
ATOM     2   C15 UNL     1       0.013   0.296   0.812  1.00  0.00     0.046 A   
ATOM     3   N2  UNL     1       0.118   0.771   2.093  1.00  0.00    -0.202 N   
ATOM     4   N3  UNL     1       1.301   0.402   2.636  1.00  0.00    -0.075 NA  
ATOM     5   N4  UNL     1       1.947  -0.336   1.748  1.00  0.00    -0.132 NA  
ATOM     6   H20 UNL     1      -0.835   0.518   0.179  1.00  0.00     0.083 HD  
ENDROOT
BRANCH   1   7
ATOM     7   C5  UNL     1       1.700  -1.106  -0.590  1.00  0.00     0.114 C   
BRANCH   7   8
ATOM     8   C4  UNL     1       1.628  -2.640  -0.470  1.00  0.00     0.064 C   
BRANCH   8   9
ATOM     9   C2  UNL     1       0.202  -3.219  -0.343  1.00  0.00    -0.012 C   
ATOM     10  C1  UNL     1       0.276  -4.738  -0.160  1.00  0.00     0.007 C   
ATOM     11  C3  UNL     1      -0.672  -2.888  -1.553  1.00  0.00     0.007 C   
ENDBRANCH   8   9
ENDBRANCH   7   8
BRANCH   7  12
ATOM     12  N1  UNL     1       3.159  -0.747  -0.799  1.00  0.00     0.249 N   
ATOM     13  H11 UNL     1       3.559  -1.331  -1.538  1.00  0.00     0.199 HD  
ATOM     14  H12 UNL     1       3.639  -0.984   0.080  1.00  0.00     0.199 HD  
BRANCH  12  15
ATOM     15  C6  UNL     1       3.451   0.690  -1.089  1.00  0.00     0.164 C   
BRANCH  15  16
ATOM     16  C7  UNL     1       2.849   1.167  -2.381  1.00  0.00    -0.002 A   
ATOM     17  C8  UNL     1       3.404   0.772  -3.622  1.00  0.00     0.012 A   
ATOM     18  C12 UNL     1       1.702   1.981  -2.364  1.00  0.00     0.045 A   
ATOM     19  C9  UNL     1       2.825   1.177  -4.829  1.00  0.00     0.037 A   
ATOM     20  C11 UNL     1       1.154   2.359  -3.571  1.00  0.00     0.109 A   
ATOM     21  C10 UNL     1       1.699   1.968  -4.769  1.00  0.00     0.108 A   
ATOM     22  O1  UNL     1       0.047   3.130  -3.731  1.00  0.00    -0.316 OA  
ATOM     23  O2  UNL     1       1.006   2.446  -5.835  1.00  0.00    -0.316 OA  
ATOM     24  C13 UNL     1      -0.027   3.208  -5.173  1.00  0.00     0.337 C   
ENDBRANCH  15  16
ENDBRANCH  12  15
ENDBRANCH   7  12
ENDBRANCH   1   7
BRANCH   3  25
ATOM     25  C16 UNL     1      -0.782   1.663   2.827  1.00  0.00     0.158 C   
BRANCH  25  26
ATOM     26  C17 UNL     1      -0.342   3.132   2.651  1.00  0.00     0.186 C   
BRANCH  26  27
ATOM     27  O3  UNL     1      -0.248   3.528   1.278  1.00  0.00    -0.394 OA  
ATOM     28  H24 UNL     1      -0.056   4.485   1.277  1.00  0.00     0.210 HD  
ENDBRANCH  26  27
ENDBRANCH  25  26
BRANCH  25  29
ATOM     29  C18 UNL     1      -2.247   1.348   2.533  1.00  0.00     0.010 A   
ATOM     30  C19 UNL     1      -3.023   2.111   1.645  1.00  0.00     0.047 A   
ATOM     31  C23 UNL     1      -2.863   0.243   3.147  1.00  0.00     0.077 A   
ATOM     32  C20 UNL     1      -4.354   1.777   1.401  1.00  0.00     0.123 A   
ATOM     33  C22 UNL     1      -4.199  -0.088   2.904  1.00  0.00     0.036 A   
ATOM     34  C21 UNL     1      -4.948   0.688   2.024  1.00  0.00     0.042 A   
ATOM     35  F1  UNL     1      -5.070   2.519   0.548  1.00  0.00    -0.207 F   
BRANCH  31  36
ATOM     36  O4  UNL     1      -2.121  -0.525   4.000  1.00  0.00    -0.361 OA  
ATOM     37  H28 UNL     1      -2.697  -1.191   4.415  1.00  0.00     0.218 HD  
ENDBRANCH  31  36
ENDBRANCH  25  29
ENDBRANCH   3  25
TORSDOF 11
