REMARK SMILES CC(C)C[C@H]([NH2+]Cc1ccc2c(c1)OCO2)c1cn([C@H](CO)c2cc(F)ccc2O)nn1
REMARK SMILES IDX 17 1 18 2 19 3 31 4 32 5 5 7 4 8 2 9 1 10 3 11 6 12 7 15
REMARK SMILES IDX 8 16 9 17 13 18 10 19 12 20 11 21 14 22 16 23 15 24 20 25
REMARK SMILES IDX 21 26 22 27 23 29 24 30 29 31 25 32 28 33 27 34 26 35 30 36
REMARK H PARENT 18 6 6 13 6 14 22 28 30 37
ROOT
ATOM     1   C14 UNL     1      -1.957   0.439   0.349  1.00  0.00     0.127 A   
ATOM     2   C15 UNL     1      -1.454   0.533   1.627  1.00  0.00     0.046 A   
ATOM     3   N2  UNL     1      -2.197  -0.366   2.347  1.00  0.00    -0.202 N   
ATOM     4   N3  UNL     1      -3.081  -0.996   1.540  1.00  0.00    -0.075 NA  
ATOM     5   N4  UNL     1      -2.963  -0.488   0.325  1.00  0.00    -0.132 NA  
ATOM     6   H20 UNL     1      -0.659   1.115   2.071  1.00  0.00     0.083 HD  
ENDROOT
BRANCH   1   7
ATOM     7   C5  UNL     1      -1.538   1.107  -0.918  1.00  0.00     0.114 C   
BRANCH   7   8
ATOM     8   C4  UNL     1      -2.391   2.365  -1.179  1.00  0.00     0.064 C   
BRANCH   8   9
ATOM     9   C2  UNL     1      -2.026   3.196  -2.428  1.00  0.00    -0.012 C   
ATOM     10  C1  UNL     1      -2.943   4.420  -2.515  1.00  0.00     0.007 C   
ATOM     11  C3  UNL     1      -0.564   3.646  -2.429  1.00  0.00     0.007 C   
ENDBRANCH   8   9
ENDBRANCH   7   8
BRANCH   7  12
ATOM     12  N1  UNL     1      -1.679   0.165  -2.093  1.00  0.00     0.249 N   
ATOM     13  H11 UNL     1      -2.663  -0.134  -2.108  1.00  0.00     0.199 HD  
ATOM     14  H12 UNL     1      -1.490   0.655  -2.969  1.00  0.00     0.199 HD  
BRANCH  12  15
ATOM     15  C6  UNL     1      -0.845  -1.078  -2.054  1.00  0.00     0.164 C   
BRANCH  15  16
ATOM     16  C7  UNL     1       0.631  -0.798  -2.009  1.00  0.00    -0.002 A   
ATOM     17  C8  UNL     1       1.357  -0.999  -0.810  1.00  0.00     0.012 A   
ATOM     18  C12 UNL     1       1.294  -0.298  -3.144  1.00  0.00     0.045 A   
ATOM     19  C9  UNL     1       2.721  -0.698  -0.735  1.00  0.00     0.037 A   
ATOM     20  C11 UNL     1       2.639  -0.012  -3.036  1.00  0.00     0.109 A   
ATOM     21  C10 UNL     1       3.331  -0.203  -1.865  1.00  0.00     0.108 A   
ATOM     22  O1  UNL     1       3.423   0.481  -4.029  1.00  0.00    -0.316 OA  
ATOM     23  O2  UNL     1       4.638   0.149  -1.975  1.00  0.00    -0.316 OA  
ATOM     24  C13 UNL     1       4.702   0.556  -3.359  1.00  0.00     0.337 C   
ENDBRANCH  15  16
ENDBRANCH  12  15
ENDBRANCH   7  12
ENDBRANCH   1   7
BRANCH   3  25
ATOM     25  C16 UNL     1      -2.064  -0.770   3.747  1.00  0.00     0.158 C   
BRANCH  25  26
ATOM     26  C17 UNL     1      -2.072   0.429   4.717  1.00  0.00     0.186 C   
BRANCH  26  27
ATOM     27  O3  UNL     1      -3.382   0.998   4.793  1.00  0.00    -0.394 OA  
ATOM     28  H24 UNL     1      -3.374   1.654   5.513  1.00  0.00     0.210 HD  
ENDBRANCH  26  27
ENDBRANCH  25  26
BRANCH  25  29
ATOM     29  C18 UNL     1      -0.886  -1.726   3.889  1.00  0.00     0.010 A   
ATOM     30  C19 UNL     1      -1.131  -3.110   3.789  1.00  0.00     0.047 A   
ATOM     31  C23 UNL     1       0.440  -1.312   4.082  1.00  0.00     0.077 A   
ATOM     32  C20 UNL     1      -0.088  -4.024   3.895  1.00  0.00     0.123 A   
ATOM     33  C22 UNL     1       1.485  -2.235   4.192  1.00  0.00     0.036 A   
ATOM     34  C21 UNL     1       1.217  -3.599   4.098  1.00  0.00     0.042 A   
ATOM     35  F1  UNL     1      -0.347  -5.334   3.791  1.00  0.00    -0.207 F   
BRANCH  31  36
ATOM     36  O4  UNL     1       0.722   0.022   4.148  1.00  0.00    -0.361 OA  
ATOM     37  H28 UNL     1       1.643   0.134   4.451  1.00  0.00     0.218 HD  
ENDBRANCH  31  36
ENDBRANCH  25  29
ENDBRANCH   3  25
TORSDOF 11
