REMARK SMILES Cc1nc[nH]c1[C@@H](CO)n1cc([C@@H]([NH2+]Cc2ccc3c(c2)OCO3)C2CCCCC2)nn1
REMARK SMILES IDX 10 1 11 2 12 3 31 4 32 5 7 7 6 8 2 9 3 10 4 11 5 12 1 13
REMARK SMILES IDX 8 15 9 16 13 18 14 19 15 22 16 23 17 24 21 25 18 26 20 27
REMARK SMILES IDX 19 28 22 29 24 30 23 31 25 32 26 33 30 34 27 35 29 36 28 37
REMARK H PARENT 11 6 5 14 9 17 14 20 14 21
ROOT
ATOM     1   N3  UNL     1      -1.137   1.576  -0.891  1.00  0.00    -0.201 N   
ATOM     2   C7  UNL     1      -0.220   0.628  -0.526  1.00  0.00     0.046 A   
ATOM     3   C8  UNL     1      -0.960  -0.525  -0.397  1.00  0.00     0.127 A   
ATOM     4   N5  UNL     1      -2.279  -0.247  -0.652  1.00  0.00    -0.132 NA  
ATOM     5   N6  UNL     1      -2.379   1.041  -0.942  1.00  0.00    -0.075 NA  
ATOM     6   H10 UNL     1       0.830   0.856  -0.403  1.00  0.00     0.083 HD  
ENDROOT
BRANCH   1   7
ATOM     7   C5  UNL     1      -0.892   2.986  -1.203  1.00  0.00     0.171 C   
BRANCH   7   8
ATOM     8   C4  UNL     1      -1.181   3.268  -2.647  1.00  0.00     0.055 A   
ATOM     9   C2  UNL     1      -0.421   3.870  -3.635  1.00  0.00     0.058 A   
ATOM     10  N1  UNL     1      -1.115   3.898  -4.817  1.00  0.00    -0.245 NA  
ATOM     11  C3  UNL     1      -2.272   3.334  -4.571  1.00  0.00     0.186 A   
ATOM     12  N2  UNL     1      -2.368   2.943  -3.269  1.00  0.00    -0.306 N   
ATOM     13  C1  UNL     1       0.954   4.423  -3.567  1.00  0.00     0.068 C   
ATOM     14  H5  UNL     1      -3.156   2.466  -2.848  1.00  0.00     0.154 HD  
ENDBRANCH   7   8
BRANCH   7  15
ATOM     15  C6  UNL     1      -1.664   3.920  -0.259  1.00  0.00     0.187 C   
BRANCH  15  16
ATOM     16  O1  UNL     1      -1.167   3.801   1.076  1.00  0.00    -0.394 OA  
ATOM     17  H9  UNL     1      -1.633   4.471   1.611  1.00  0.00     0.210 HD  
ENDBRANCH  15  16
ENDBRANCH   7  15
ENDBRANCH   1   7
BRANCH   3  18
ATOM     18  C9  UNL     1      -0.555  -1.903   0.023  1.00  0.00     0.117 C   
BRANCH  18  19
ATOM     19  N4  UNL     1      -1.565  -2.425   1.029  1.00  0.00     0.249 N   
ATOM     20  H12 UNL     1      -2.488  -2.346   0.577  1.00  0.00     0.199 HD  
ATOM     21  H13 UNL     1      -1.404  -3.414   1.228  1.00  0.00     0.199 HD  
BRANCH  19  22
ATOM     22  C10 UNL     1      -1.637  -1.700   2.336  1.00  0.00     0.164 C   
BRANCH  22  23
ATOM     23  C11 UNL     1      -0.390  -1.871   3.158  1.00  0.00    -0.002 A   
ATOM     24  C12 UNL     1      -0.119  -3.103   3.800  1.00  0.00     0.012 A   
ATOM     25  C16 UNL     1       0.539  -0.822   3.254  1.00  0.00     0.045 A   
ATOM     26  C13 UNL     1       1.064  -3.291   4.522  1.00  0.00     0.037 A   
ATOM     27  C15 UNL     1       1.700  -1.044   3.965  1.00  0.00     0.109 A   
ATOM     28  C14 UNL     1       1.954  -2.243   4.583  1.00  0.00     0.108 A   
ATOM     29  O2  UNL     1       2.705  -0.146   4.140  1.00  0.00    -0.316 OA  
ATOM     30  O3  UNL     1       3.145  -2.247   5.237  1.00  0.00    -0.316 OA  
ATOM     31  C17 UNL     1       3.611  -0.906   4.974  1.00  0.00     0.337 C   
ENDBRANCH  22  23
ENDBRANCH  19  22
ENDBRANCH  18  19
BRANCH  18  32
ATOM     32  C18 UNL     1      -0.478  -2.895  -1.180  1.00  0.00     0.043 C   
ATOM     33  C19 UNL     1       0.453  -2.397  -2.310  1.00  0.00     0.010 C   
ATOM     34  C23 UNL     1      -0.011  -4.315  -0.789  1.00  0.00     0.010 C   
ATOM     35  C20 UNL     1       1.928  -2.405  -1.906  1.00  0.00     0.001 C   
ATOM     36  C22 UNL     1       1.458  -4.361  -0.364  1.00  0.00     0.001 C   
ATOM     37  C21 UNL     1       2.375  -3.787  -1.439  1.00  0.00     0.000 C   
ENDBRANCH  18  32
ENDBRANCH   3  18
TORSDOF 9
