REMARK SMILES Cc1nc[nH]c1[C@H](CO)n1cc([C@@H]([NH2+]Cc2ccc3c(c2)OCO3)C2CCCCC2)nn1
REMARK SMILES IDX 10 1 11 2 12 3 31 4 32 5 7 7 6 8 2 9 3 10 4 11 5 12 1 13
REMARK SMILES IDX 8 15 9 16 13 18 14 19 15 22 16 23 17 24 21 25 18 26 20 27
REMARK SMILES IDX 19 28 22 29 24 30 23 31 25 32 26 33 30 34 27 35 29 36 28 37
REMARK H PARENT 11 6 5 14 9 17 14 20 14 21
ROOT
ATOM     1   N3  UNL     1      -0.214  -2.417  -1.789  1.00  0.00    -0.201 N   
ATOM     2   C7  UNL     1      -1.074  -1.445  -1.347  1.00  0.00     0.046 A   
ATOM     3   C8  UNL     1      -0.906  -1.436   0.020  1.00  0.00     0.127 A   
ATOM     4   N5  UNL     1       0.015  -2.394   0.359  1.00  0.00    -0.132 NA  
ATOM     5   N6  UNL     1       0.429  -2.986  -0.749  1.00  0.00    -0.075 NA  
ATOM     6   H10 UNL     1      -1.658  -0.848  -2.032  1.00  0.00     0.083 HD  
ENDROOT
BRANCH   1   7
ATOM     7   C5  UNL     1       0.156  -2.761  -3.163  1.00  0.00     0.171 C   
BRANCH   7   8
ATOM     8   C4  UNL     1       0.605  -1.520  -3.883  1.00  0.00     0.055 A   
ATOM     9   C2  UNL     1       1.770  -0.779  -3.789  1.00  0.00     0.058 A   
ATOM     10  N1  UNL     1       1.687   0.339  -4.580  1.00  0.00    -0.245 NA  
ATOM     11  C3  UNL     1       0.526   0.265  -5.188  1.00  0.00     0.186 A   
ATOM     12  N2  UNL     1      -0.168  -0.840  -4.798  1.00  0.00    -0.306 N   
ATOM     13  C1  UNL     1       2.978  -1.029  -2.967  1.00  0.00     0.068 C   
ATOM     14  H5  UNL     1      -1.098  -1.106  -5.104  1.00  0.00     0.154 HD  
ENDBRANCH   7   8
BRANCH   7  15
ATOM     15  C6  UNL     1      -0.958  -3.555  -3.870  1.00  0.00     0.187 C   
BRANCH  15  16
ATOM     16  O1  UNL     1      -2.110  -2.749  -4.154  1.00  0.00    -0.394 OA  
ATOM     17  H9  UNL     1      -2.785  -3.351  -4.524  1.00  0.00     0.210 HD  
ENDBRANCH  15  16
ENDBRANCH   7  15
ENDBRANCH   1   7
BRANCH   3  18
ATOM     18  C9  UNL     1      -1.404  -0.524   1.101  1.00  0.00     0.117 C   
BRANCH  18  19
ATOM     19  N4  UNL     1      -0.208   0.165   1.714  1.00  0.00     0.249 N   
ATOM     20  H12 UNL     1       0.439  -0.592   1.984  1.00  0.00     0.199 HD  
ATOM     21  H13 UNL     1      -0.458   0.627   2.594  1.00  0.00     0.199 HD  
BRANCH  19  22
ATOM     22  C10 UNL     1       0.580   1.095   0.852  1.00  0.00     0.164 C   
BRANCH  22  23
ATOM     23  C11 UNL     1       1.754   1.636   1.619  1.00  0.00    -0.002 A   
ATOM     24  C12 UNL     1       2.982   0.932   1.630  1.00  0.00     0.012 A   
ATOM     25  C16 UNL     1       1.621   2.811   2.378  1.00  0.00     0.045 A   
ATOM     26  C13 UNL     1       4.068   1.396   2.380  1.00  0.00     0.037 A   
ATOM     27  C15 UNL     1       2.711   3.240   3.106  1.00  0.00     0.109 A   
ATOM     28  C14 UNL     1       3.900   2.554   3.108  1.00  0.00     0.108 A   
ATOM     29  O2  UNL     1       2.749   4.348   3.892  1.00  0.00    -0.316 OA  
ATOM     30  O3  UNL     1       4.838   3.144   3.893  1.00  0.00    -0.316 OA  
ATOM     31  C17 UNL     1       4.117   4.305   4.359  1.00  0.00     0.337 C   
ENDBRANCH  22  23
ENDBRANCH  19  22
ENDBRANCH  18  19
BRANCH  18  32
ATOM     32  C18 UNL     1      -2.508   0.490   0.687  1.00  0.00     0.043 C   
ATOM     33  C19 UNL     1      -2.837   1.546   1.766  1.00  0.00     0.010 C   
ATOM     34  C23 UNL     1      -3.830  -0.218   0.301  1.00  0.00     0.010 C   
ATOM     35  C20 UNL     1      -3.532   0.947   2.987  1.00  0.00     0.001 C   
ATOM     36  C22 UNL     1      -4.566  -0.818   1.499  1.00  0.00     0.001 C   
ATOM     37  C21 UNL     1      -4.810   0.214   2.594  1.00  0.00     0.000 C   
ENDBRANCH  18  32
ENDBRANCH   3  18
TORSDOF 9
