REMARK SMILES Cc1cc(Cn2cc([C@@H]([NH2+]Cc3ccc4c(c3)OCO4)C3CCCCC3)nn2)nn1C
REMARK SMILES IDX 6 1 7 2 8 3 27 4 28 5 5 7 4 8 2 9 3 10 30 11 29 12 1 13
REMARK SMILES IDX 31 14 9 15 10 16 11 19 12 20 13 21 17 22 14 23 16 24 15 25
REMARK SMILES IDX 18 26 20 27 19 28 21 29 22 30 26 31 23 32 25 33 24 34
REMARK H PARENT 7 6 10 17 10 18
ROOT
ATOM     1   N1  UNL     1       2.890  -1.023   0.192  1.00  0.00    -0.206 N   
ATOM     2   C6  UNL     1       1.934  -1.825   0.755  1.00  0.00     0.046 A   
ATOM     3   C7  UNL     1       0.969  -1.920  -0.222  1.00  0.00     0.127 A   
ATOM     4   N3  UNL     1       1.394  -1.258  -1.345  1.00  0.00    -0.132 NA  
ATOM     5   N4  UNL     1       2.584  -0.740  -1.091  1.00  0.00    -0.076 NA  
ATOM     6   H7  UNL     1       1.980  -2.135   1.791  1.00  0.00     0.083 HD  
ENDROOT
BRANCH   1   7
ATOM     7   C5  UNL     1       4.031  -0.405   0.843  1.00  0.00     0.191 C   
BRANCH   7   8
ATOM     8   C4  UNL     1       3.691   0.995   1.239  1.00  0.00     0.080 A   
ATOM     9   C2  UNL     1       3.654   3.208   1.437  1.00  0.00     0.027 A   
ATOM     10  C3  UNL     1       4.295   2.186   0.772  1.00  0.00     0.047 A   
ATOM     11  N6  UNL     1       2.733   2.600   2.251  1.00  0.00    -0.233 N   
ATOM     12  N5  UNL     1       2.720   1.255   2.132  1.00  0.00    -0.185 NA  
ATOM     13  C1  UNL     1       3.850   4.678   1.365  1.00  0.00     0.063 C   
ATOM     14  C23 UNL     1       1.817   3.247   3.166  1.00  0.00     0.159 C   
ENDBRANCH   7   8
ENDBRANCH   1   7
BRANCH   3  15
ATOM     15  C8  UNL     1      -0.434  -2.421  -0.146  1.00  0.00     0.117 C   
BRANCH  15  16
ATOM     16  N2  UNL     1      -1.377  -1.311  -0.544  1.00  0.00     0.249 N   
ATOM     17  H9  UNL     1      -1.060  -0.957  -1.458  1.00  0.00     0.199 HD  
ATOM     18  H10 UNL     1      -2.329  -1.665  -0.681  1.00  0.00     0.199 HD  
BRANCH  16  19
ATOM     19  C9  UNL     1      -1.401  -0.144   0.385  1.00  0.00     0.164 C   
BRANCH  19  20
ATOM     20  C10 UNL     1      -2.423   0.868  -0.058  1.00  0.00    -0.002 A   
ATOM     21  C11 UNL     1      -3.794   0.670   0.232  1.00  0.00     0.012 A   
ATOM     22  C15 UNL     1      -2.024   1.994  -0.800  1.00  0.00     0.045 A   
ATOM     23  C12 UNL     1      -4.761   1.575  -0.220  1.00  0.00     0.037 A   
ATOM     24  C14 UNL     1      -3.000   2.875  -1.218  1.00  0.00     0.109 A   
ATOM     25  C13 UNL     1      -4.332   2.662  -0.946  1.00  0.00     0.108 A   
ATOM     26  O1  UNL     1      -2.789   4.013  -1.929  1.00  0.00    -0.316 OA  
ATOM     27  O2  UNL     1      -5.128   3.633  -1.464  1.00  0.00    -0.316 OA  
ATOM     28  C16 UNL     1      -4.143   4.502  -2.071  1.00  0.00     0.337 C   
ENDBRANCH  19  20
ENDBRANCH  16  19
ENDBRANCH  15  16
BRANCH  15  29
ATOM     29  C17 UNL     1      -0.738  -3.676  -1.006  1.00  0.00     0.043 C   
ATOM     30  C18 UNL     1       0.067  -4.895  -0.515  1.00  0.00     0.010 C   
ATOM     31  C22 UNL     1      -0.545  -3.483  -2.522  1.00  0.00     0.010 C   
ATOM     32  C19 UNL     1      -0.277  -6.157  -1.304  1.00  0.00     0.001 C   
ATOM     33  C21 UNL     1      -0.881  -4.752  -3.306  1.00  0.00     0.001 C   
ATOM     34  C20 UNL     1      -0.086  -5.953  -2.803  1.00  0.00     0.000 C   
ENDBRANCH  15  29
ENDBRANCH   3  15
TORSDOF 7
