REMARK SMILES CC(C)(C)[C@H]([NH2+]Cc1ccc2c(c1)OCO2)c1cn(-c2ccccc2S(C)(=O)=O)nn1
REMARK SMILES IDX 17 1 18 2 19 3 30 4 31 5 5 6 2 7 1 8 3 9 4 10 6 11 7 14 8 15
REMARK SMILES IDX 9 16 13 17 10 18 12 19 11 20 14 21 16 22 15 23 20 24 21 25
REMARK SMILES IDX 25 26 22 27 24 28 23 29 26 30 27 31 28 32 29 33
REMARK H PARENT 6 12 6 13
ROOT
ATOM     1   C14 UNL     1       0.885   1.163   0.882  1.00  0.00     0.128 A   
ATOM     2   C15 UNL     1       0.181   1.031   2.056  1.00  0.00     0.135 A   
ATOM     3   N2  UNL     1      -0.818   1.976   1.974  1.00  0.00    -0.169 N   
ATOM     4   N3  UNL     1      -0.572   2.778   0.906  1.00  0.00    -0.071 NA  
ATOM     5   N4  UNL     1       0.404   2.239   0.192  1.00  0.00    -0.131 NA  
ENDROOT
BRANCH   1   6
ATOM     6   C5  UNL     1       1.916   0.271   0.267  1.00  0.00     0.120 C   
BRANCH   6   7
ATOM     7   C2  UNL     1       3.373   0.847   0.276  1.00  0.00     0.010 C   
ATOM     8   C1  UNL     1       4.372  -0.229  -0.207  1.00  0.00     0.017 C   
ATOM     9   C3  UNL     1       3.781   1.227   1.717  1.00  0.00     0.017 C   
ATOM     10  C4  UNL     1       3.537   2.091  -0.619  1.00  0.00     0.017 C   
ENDBRANCH   6   7
BRANCH   6  11
ATOM     11  N1  UNL     1       1.475  -0.055  -1.140  1.00  0.00     0.250 N   
ATOM     12  H11 UNL     1       2.239  -0.423  -1.713  1.00  0.00     0.199 HD  
ATOM     13  H12 UNL     1       1.188   0.832  -1.579  1.00  0.00     0.199 HD  
BRANCH  11  14
ATOM     14  C6  UNL     1       0.313  -0.989  -1.233  1.00  0.00     0.164 C   
BRANCH  14  15
ATOM     15  C7  UNL     1      -0.088  -1.188  -2.667  1.00  0.00    -0.002 A   
ATOM     16  C8  UNL     1      -1.080  -0.361  -3.246  1.00  0.00     0.012 A   
ATOM     17  C12 UNL     1       0.549  -2.161  -3.455  1.00  0.00     0.045 A   
ATOM     18  C9  UNL     1      -1.447  -0.510  -4.587  1.00  0.00     0.037 A   
ATOM     19  C11 UNL     1       0.166  -2.280  -4.775  1.00  0.00     0.109 A   
ATOM     20  C10 UNL     1      -0.805  -1.479  -5.325  1.00  0.00     0.108 A   
ATOM     21  O1  UNL     1       0.677  -3.166  -5.669  1.00  0.00    -0.316 OA  
ATOM     22  O2  UNL     1      -1.031  -1.764  -6.633  1.00  0.00    -0.316 OA  
ATOM     23  C13 UNL     1      -0.093  -2.840  -6.849  1.00  0.00     0.337 C   
ENDBRANCH  14  15
ENDBRANCH  11  14
ENDBRANCH   6  11
ENDBRANCH   1   6
BRANCH   3  24
ATOM     24  C16 UNL     1      -1.933   2.190   2.818  1.00  0.00     0.178 A   
ATOM     25  C17 UNL     1      -2.337   3.524   3.016  1.00  0.00     0.039 A   
ATOM     26  C21 UNL     1      -2.624   1.157   3.480  1.00  0.00     0.330 A   
ATOM     27  C18 UNL     1      -3.352   3.828   3.923  1.00  0.00     0.003 A   
ATOM     28  C20 UNL     1      -3.630   1.478   4.406  1.00  0.00     0.136 A   
ATOM     29  C19 UNL     1      -3.982   2.810   4.631  1.00  0.00     0.013 A   
BRANCH  26  30
ATOM     30  S1  UNL     1      -2.433  -0.557   3.015  1.00  0.00    -0.237 S   
ATOM     31  C22 UNL     1      -3.997  -1.357   3.257  1.00  0.00     0.674 C   
ATOM     32  O3  UNL     1      -2.169  -0.588   1.584  1.00  0.00    -0.517 OA  
ATOM     33  O4  UNL     1      -1.473  -1.123   3.941  1.00  0.00    -0.517 OA  
ENDBRANCH  26  30
ENDBRANCH   3  24
TORSDOF 7
