REMARK SMILES COc1nc(Cl)ccc1Cn1cc([C@@H]([NH2+]Cc2ccc3c(c2)OCO3)C(C)(C)C)nn1
REMARK SMILES IDX 11 1 12 2 13 3 30 4 31 5 10 7 9 8 3 9 4 10 5 11 8 12 7 13
REMARK SMILES IDX 6 14 2 15 1 16 14 17 15 18 16 21 17 22 18 23 22 24 19 25
REMARK SMILES IDX 21 26 20 27 23 28 25 29 24 30 26 31 27 32 28 33 29 34
REMARK H PARENT 12 6 15 19 15 20
ROOT
ATOM     1   N2  UNL     1       2.303   1.306  -1.611  1.00  0.00    -0.208 N   
ATOM     2   C8  UNL     1       1.255   0.650  -2.193  1.00  0.00     0.046 A   
ATOM     3   C9  UNL     1       0.177   1.476  -1.968  1.00  0.00     0.127 A   
ATOM     4   N4  UNL     1       0.600   2.595  -1.296  1.00  0.00    -0.132 NA  
ATOM     5   N5  UNL     1       1.901   2.481  -1.085  1.00  0.00    -0.076 NA  
ATOM     6   H8  UNL     1       1.364  -0.323  -2.653  1.00  0.00     0.083 HD  
ENDROOT
BRANCH   1   7
ATOM     7   C7  UNL     1       3.676   0.855  -1.458  1.00  0.00     0.174 C   
BRANCH   7   8
ATOM     8   C6  UNL     1       3.878   0.224  -0.108  1.00  0.00     0.021 A   
ATOM     9   C2  UNL     1       3.478  -1.087   0.157  1.00  0.00     0.173 A   
ATOM     10  N1  UNL     1       3.574  -1.675   1.364  1.00  0.00    -0.212 NA  
ATOM     11  C3  UNL     1       4.128  -0.942   2.349  1.00  0.00     0.132 A   
ATOM     12  C5  UNL     1       4.437   0.953   0.950  1.00  0.00     0.013 A   
ATOM     13  C4  UNL     1       4.573   0.359   2.201  1.00  0.00     0.041 A   
ATOM     14  CL1 UNL     1       4.227  -1.741   3.861  1.00  0.00    -0.062 Cl  
BRANCH   9  15
ATOM     15  O1  UNL     1       2.906  -1.795  -0.883  1.00  0.00    -0.332 OA  
ATOM     16  C1  UNL     1       2.787  -3.191  -0.606  1.00  0.00     0.205 C   
ENDBRANCH   9  15
ENDBRANCH   7   8
ENDBRANCH   1   7
BRANCH   3  17
ATOM     17  C10 UNL     1      -1.282   1.273  -2.233  1.00  0.00     0.120 C   
BRANCH  17  18
ATOM     18  N3  UNL     1      -2.082   1.753  -1.035  1.00  0.00     0.250 N   
ATOM     19  H10 UNL     1      -3.083   1.741  -1.238  1.00  0.00     0.199 HD  
ATOM     20  H11 UNL     1      -1.809   2.732  -0.875  1.00  0.00     0.199 HD  
BRANCH  18  21
ATOM     21  C11 UNL     1      -1.851   1.030   0.256  1.00  0.00     0.164 C   
BRANCH  21  22
ATOM     22  C12 UNL     1      -2.173  -0.437   0.186  1.00  0.00    -0.002 A   
ATOM     23  C13 UNL     1      -1.136  -1.397   0.292  1.00  0.00     0.012 A   
ATOM     24  C17 UNL     1      -3.497  -0.868  -0.005  1.00  0.00     0.045 A   
ATOM     25  C14 UNL     1      -1.411  -2.765   0.199  1.00  0.00     0.037 A   
ATOM     26  C16 UNL     1      -3.732  -2.224  -0.096  1.00  0.00     0.109 A   
ATOM     27  C15 UNL     1      -2.719  -3.146   0.002  1.00  0.00     0.108 A   
ATOM     28  O2  UNL     1      -4.945  -2.804  -0.288  1.00  0.00    -0.316 OA  
ATOM     29  O3  UNL     1      -3.167  -4.423  -0.116  1.00  0.00    -0.316 OA  
ATOM     30  C18 UNL     1      -4.587  -4.205  -0.266  1.00  0.00     0.337 C   
ENDBRANCH  21  22
ENDBRANCH  18  21
ENDBRANCH  17  18
BRANCH  17  31
ATOM     31  C19 UNL     1      -1.800   1.960  -3.547  1.00  0.00     0.010 C   
ATOM     32  C20 UNL     1      -3.276   1.579  -3.807  1.00  0.00     0.017 C   
ATOM     33  C21 UNL     1      -1.701   3.498  -3.502  1.00  0.00     0.017 C   
ATOM     34  C22 UNL     1      -0.985   1.457  -4.761  1.00  0.00     0.017 C   
ENDBRANCH  17  31
ENDBRANCH   3  17
TORSDOF 8
