REMARK SMILES Fc1ccc(CCn2cc([C@@H]([NH2+]Cc3ccc4c(c3)OCO4)C3CCCCC3)nn2)cc1
REMARK SMILES IDX 8 1 9 2 10 3 29 4 30 5 7 7 6 8 5 9 2 10 3 11 32 12 4 13
REMARK SMILES IDX 31 14 1 15 11 16 12 17 13 20 14 21 15 22 19 23 16 24 18 25
REMARK SMILES IDX 17 26 20 27 22 28 21 29 23 30 24 31 28 32 25 33 27 34 26 35
REMARK H PARENT 9 6 12 18 12 19
ROOT
ATOM     1   N1  UNL     1      -2.173  -1.099   3.563  1.00  0.00    -0.212 N   
ATOM     2   C7  UNL     1      -0.958  -0.818   3.003  1.00  0.00     0.045 A   
ATOM     3   C8  UNL     1      -1.009  -1.443   1.776  1.00  0.00     0.127 A   
ATOM     4   N3  UNL     1      -2.191  -2.131   1.669  1.00  0.00    -0.132 NA  
ATOM     5   N4  UNL     1      -2.882  -1.932   2.778  1.00  0.00    -0.076 NA  
ATOM     6   H7  UNL     1      -0.230  -0.177   3.483  1.00  0.00     0.083 HD  
ENDROOT
BRANCH   1   7
ATOM     7   C6  UNL     1      -2.740  -0.592   4.795  1.00  0.00     0.139 C   
BRANCH   7   8
ATOM     8   C5  UNL     1      -2.862   0.935   4.833  1.00  0.00     0.057 C   
BRANCH   8   9
ATOM     9   C4  UNL     1      -3.614   1.530   3.663  1.00  0.00    -0.046 A   
ATOM     10  C1  UNL     1      -4.976   2.606   1.474  1.00  0.00     0.123 A   
ATOM     11  C2  UNL     1      -3.655   2.969   1.704  1.00  0.00     0.039 A   
ATOM     12  C25 UNL     1      -5.633   1.725   2.324  1.00  0.00     0.039 A   
ATOM     13  C3  UNL     1      -2.973   2.434   2.799  1.00  0.00     0.007 A   
ATOM     14  C24 UNL     1      -4.954   1.188   3.421  1.00  0.00     0.007 A   
ATOM     15  F1  UNL     1      -5.627   3.116   0.419  1.00  0.00    -0.207 F   
ENDBRANCH   8   9
ENDBRANCH   7   8
ENDBRANCH   1   7
BRANCH   3  16
ATOM     16  C9  UNL     1      -0.049  -1.453   0.627  1.00  0.00     0.117 C   
BRANCH  16  17
ATOM     17  N2  UNL     1      -0.442  -2.520  -0.368  1.00  0.00     0.249 N   
ATOM     18  H9  UNL     1      -0.133  -2.286  -1.314  1.00  0.00     0.199 HD  
ATOM     19  H10 UNL     1      -1.473  -2.521  -0.385  1.00  0.00     0.199 HD  
BRANCH  17  20
ATOM     20  C10 UNL     1      -0.009  -3.909  -0.037  1.00  0.00     0.164 C   
BRANCH  20  21
ATOM     21  C11 UNL     1       1.476  -4.103  -0.185  1.00  0.00    -0.002 A   
ATOM     22  C12 UNL     1       2.278  -4.360   0.953  1.00  0.00     0.012 A   
ATOM     23  C16 UNL     1       2.083  -4.011  -1.451  1.00  0.00     0.045 A   
ATOM     24  C13 UNL     1       3.664  -4.511   0.837  1.00  0.00     0.037 A   
ATOM     25  C15 UNL     1       3.451  -4.159  -1.530  1.00  0.00     0.109 A   
ATOM     26  C14 UNL     1       4.220  -4.404  -0.419  1.00  0.00     0.108 A   
ATOM     27  O1  UNL     1       4.191  -4.085  -2.668  1.00  0.00    -0.316 OA  
ATOM     28  O2  UNL     1       5.540  -4.518  -0.717  1.00  0.00    -0.316 OA  
ATOM     29  C17 UNL     1       5.517  -4.340  -2.150  1.00  0.00     0.337 C   
ENDBRANCH  20  21
ENDBRANCH  17  20
ENDBRANCH  16  17
BRANCH  16  30
ATOM     30  C18 UNL     1       0.029  -0.067  -0.073  1.00  0.00     0.043 C   
ATOM     31  C19 UNL     1      -1.264   0.336  -0.810  1.00  0.00     0.010 C   
ATOM     32  C23 UNL     1       1.238   0.026  -1.026  1.00  0.00     0.010 C   
ATOM     33  C20 UNL     1      -1.141   1.726  -1.435  1.00  0.00     0.001 C   
ATOM     34  C22 UNL     1       1.354   1.418  -1.648  1.00  0.00     0.001 C   
ATOM     35  C21 UNL     1       0.068   1.824  -2.360  1.00  0.00     0.000 C   
ENDBRANCH  16  30
ENDBRANCH   3  16
TORSDOF 8
