REMARK SMILES Fc1cccc(F)c1CCn1cc([C@@H]([NH2+]Cc2ccc3c(c2)OCO3)C2CCCC2)nn1
REMARK SMILES IDX 11 1 12 2 13 3 31 4 32 5 10 7 9 8 8 9 2 10 3 11 4 12 6 13
REMARK SMILES IDX 5 14 1 15 7 16 14 17 15 18 16 21 17 22 18 23 22 24 19 25
REMARK SMILES IDX 21 26 20 27 23 28 25 29 24 30 26 31 27 32 30 33 28 34 29 35
REMARK H PARENT 12 6 15 19 15 20
ROOT
ATOM     1   N1  UNL     1       2.594  -1.145  -0.771  1.00  0.00    -0.212 N   
ATOM     2   C9  UNL     1       1.871  -0.543  -1.764  1.00  0.00     0.045 A   
ATOM     3   C10 UNL     1       1.074   0.355  -1.090  1.00  0.00     0.127 A   
ATOM     4   N3  UNL     1       1.357   0.294   0.251  1.00  0.00    -0.132 NA  
ATOM     5   N4  UNL     1       2.285  -0.629   0.432  1.00  0.00    -0.076 NA  
ATOM     6   H8  UNL     1       1.956  -0.833  -2.802  1.00  0.00     0.083 HD  
ENDROOT
BRANCH   1   7
ATOM     7   C8  UNL     1       3.511  -2.260  -0.884  1.00  0.00     0.139 C   
BRANCH   7   8
ATOM     8   C7  UNL     1       2.792  -3.596  -1.083  1.00  0.00     0.063 C   
BRANCH   8   9
ATOM     9   C6  UNL     1       1.985  -4.029   0.112  1.00  0.00     0.025 A   
ATOM     10  C1  UNL     1       2.605  -4.635   1.206  1.00  0.00     0.129 A   
ATOM     11  C2  UNL     1       1.880  -5.037   2.325  1.00  0.00     0.040 A   
ATOM     12  C3  UNL     1       0.501  -4.832   2.366  1.00  0.00     0.006 A   
ATOM     13  C5  UNL     1       0.606  -3.819   0.179  1.00  0.00     0.129 A   
ATOM     14  C4  UNL     1      -0.138  -4.218   1.289  1.00  0.00     0.040 A   
ATOM     15  F1  UNL     1       3.931  -4.831   1.186  1.00  0.00    -0.207 F   
ATOM     16  F2  UNL     1      -0.027  -3.205  -0.832  1.00  0.00    -0.207 F   
ENDBRANCH   8   9
ENDBRANCH   7   8
ENDBRANCH   1   7
BRANCH   3  17
ATOM     17  C11 UNL     1      -0.042   1.234  -1.554  1.00  0.00     0.117 C   
BRANCH  17  18
ATOM     18  N2  UNL     1      -1.162   1.162  -0.544  1.00  0.00     0.249 N   
ATOM     19  H10 UNL     1      -0.723   1.290   0.381  1.00  0.00     0.199 HD  
ATOM     20  H11 UNL     1      -1.836   1.925  -0.651  1.00  0.00     0.199 HD  
BRANCH  18  21
ATOM     21  C12 UNL     1      -1.896  -0.134  -0.508  1.00  0.00     0.164 C   
BRANCH  21  22
ATOM     22  C13 UNL     1      -2.790  -0.201   0.697  1.00  0.00    -0.002 A   
ATOM     23  C14 UNL     1      -2.262  -0.620   1.943  1.00  0.00     0.012 A   
ATOM     24  C18 UNL     1      -4.133   0.200   0.612  1.00  0.00     0.045 A   
ATOM     25  C15 UNL     1      -3.065  -0.653   3.088  1.00  0.00     0.037 A   
ATOM     26  C17 UNL     1      -4.896   0.155   1.760  1.00  0.00     0.109 A   
ATOM     27  C16 UNL     1      -4.378  -0.260   2.963  1.00  0.00     0.108 A   
ATOM     28  O1  UNL     1      -6.206   0.505   1.852  1.00  0.00    -0.316 OA  
ATOM     29  O2  UNL     1      -5.297  -0.225   3.962  1.00  0.00    -0.316 OA  
ATOM     30  C19 UNL     1      -6.462   0.245   3.251  1.00  0.00     0.337 C   
ENDBRANCH  21  22
ENDBRANCH  18  21
ENDBRANCH  17  18
BRANCH  17  31
ATOM     31  C20 UNL     1       0.397   2.702  -1.700  1.00  0.00     0.043 C   
ATOM     32  C21 UNL     1       1.483   2.910  -2.760  1.00  0.00     0.010 C   
ATOM     33  C24 UNL     1      -0.713   3.646  -2.183  1.00  0.00     0.010 C   
ATOM     34  C22 UNL     1       1.464   4.413  -2.987  1.00  0.00     0.001 C   
ATOM     35  C23 UNL     1      -0.003   4.811  -2.872  1.00  0.00     0.001 C   
ENDBRANCH  17  31
ENDBRANCH   3  17
TORSDOF 8
