REMARK SMILES COc1ccc(-n2cc([C@@H]([NH2+]Cc3ccc4c(c3)OCO4)C3CCCC3)nn2)c(F)c1
REMARK SMILES IDX 7 1 8 2 9 3 27 4 28 5 6 6 3 7 4 8 31 9 5 10 29 11 30 12 2 13
REMARK SMILES IDX 1 14 10 15 11 16 12 19 13 20 14 21 18 22 15 23 17 24 16 25
REMARK SMILES IDX 19 26 21 27 20 28 22 29 23 30 26 31 24 32 25 33
REMARK H PARENT 11 17 11 18
ROOT
ATOM     1   N1  UNL     1       2.086  -0.467   0.068  1.00  0.00    -0.178 N   
ATOM     2   C6  UNL     1       0.888  -0.382   0.752  1.00  0.00     0.135 A   
ATOM     3   C7  UNL     1      -0.081  -0.720  -0.166  1.00  0.00     0.127 A   
ATOM     4   N3  UNL     1       0.513  -0.971  -1.368  1.00  0.00    -0.131 NA  
ATOM     5   N4  UNL     1       1.816  -0.803  -1.223  1.00  0.00    -0.071 NA  
ENDROOT
BRANCH   1   6
ATOM     6   C5  UNL     1       3.411  -0.247   0.513  1.00  0.00     0.093 A   
ATOM     7   C2  UNL     1       6.064   0.176   1.363  1.00  0.00     0.078 A   
ATOM     8   C3  UNL     1       5.790  -0.189   0.043  1.00  0.00     0.035 A   
ATOM     9   C23 UNL     1       5.008   0.331   2.257  1.00  0.00     0.074 A   
ATOM     10  C4  UNL     1       4.476  -0.401  -0.386  1.00  0.00     0.032 A   
ATOM     11  C22 UNL     1       3.695   0.119   1.830  1.00  0.00     0.149 A   
ATOM     12  F1  UNL     1       2.722   0.284   2.738  1.00  0.00    -0.205 F   
BRANCH   7  13
ATOM     13  O1  UNL     1       7.389   0.349   1.643  1.00  0.00    -0.349 OA  
ATOM     14  C1  UNL     1       7.732   0.706   2.977  1.00  0.00     0.203 C   
ENDBRANCH   7  13
ENDBRANCH   1   6
BRANCH   3  15
ATOM     15  C8  UNL     1      -1.568  -0.801  -0.042  1.00  0.00     0.117 C   
BRANCH  15  16
ATOM     16  N2  UNL     1      -2.221  -0.318  -1.321  1.00  0.00     0.249 N   
ATOM     17  H8  UNL     1      -3.219  -0.542  -1.322  1.00  0.00     0.199 HD  
ATOM     18  H9  UNL     1      -1.790  -0.852  -2.089  1.00  0.00     0.199 HD  
BRANCH  16  19
ATOM     19  C9  UNL     1      -2.062   1.133  -1.642  1.00  0.00     0.164 C   
BRANCH  19  20
ATOM     20  C10 UNL     1      -2.736   2.030  -0.641  1.00  0.00    -0.002 A   
ATOM     21  C11 UNL     1      -1.963   2.807   0.255  1.00  0.00     0.012 A   
ATOM     22  C15 UNL     1      -4.139   2.080  -0.566  1.00  0.00     0.045 A   
ATOM     23  C12 UNL     1      -2.575   3.617   1.218  1.00  0.00     0.037 A   
ATOM     24  C14 UNL     1      -4.710   2.888   0.396  1.00  0.00     0.109 A   
ATOM     25  C13 UNL     1      -3.951   3.634   1.263  1.00  0.00     0.108 A   
ATOM     26  O2  UNL     1      -6.043   3.044   0.606  1.00  0.00    -0.316 OA  
ATOM     27  O3  UNL     1      -4.710   4.354   2.128  1.00  0.00    -0.316 OA  
ATOM     28  C16 UNL     1      -6.040   4.003   1.688  1.00  0.00     0.337 C   
ENDBRANCH  19  20
ENDBRANCH  16  19
ENDBRANCH  15  16
BRANCH  15  29
ATOM     29  C17 UNL     1      -2.044  -2.245   0.225  1.00  0.00     0.043 C   
ATOM     30  C18 UNL     1      -3.563  -2.390   0.383  1.00  0.00     0.010 C   
ATOM     31  C21 UNL     1      -1.534  -2.820   1.551  1.00  0.00     0.010 C   
ATOM     32  C19 UNL     1      -3.773  -3.670   1.190  1.00  0.00     0.001 C   
ATOM     33  C20 UNL     1      -2.413  -4.042   1.770  1.00  0.00     0.001 C   
ENDBRANCH  15  29
ENDBRANCH   3  15
TORSDOF 7
