REMARK SMILES Cc1ccc(CCn2cc([C@@H]([NH2+]Cc3ccc4c(c3)OCO4)C(C)C)nn2)cc1O
REMARK SMILES IDX 8 1 9 2 10 3 26 4 27 5 7 7 6 8 5 9 2 10 3 11 29 12 4 13
REMARK SMILES IDX 28 14 1 15 30 16 11 18 12 19 13 22 14 23 15 24 19 25 16 26
REMARK SMILES IDX 18 27 17 28 20 29 22 30 21 31 23 32 24 33 25 34
REMARK H PARENT 9 6 30 17 12 20 12 21
ROOT
ATOM     1   N1  UNL     1       0.408  -2.035   2.192  1.00  0.00    -0.212 N   
ATOM     2   C8  UNL     1       0.968  -0.886   1.709  1.00  0.00     0.045 A   
ATOM     3   C9  UNL     1      -0.055   0.033   1.770  1.00  0.00     0.127 A   
ATOM     4   N3  UNL     1      -1.171  -0.570   2.299  1.00  0.00    -0.132 NA  
ATOM     5   N4  UNL     1      -0.866  -1.827   2.575  1.00  0.00    -0.076 NA  
ATOM     6   H10 UNL     1       1.982  -0.848   1.330  1.00  0.00     0.083 HD  
ENDROOT
BRANCH   1   7
ATOM     7   C7  UNL     1       0.981  -3.365   2.215  1.00  0.00     0.139 C   
BRANCH   7   8
ATOM     8   C6  UNL     1       0.314  -4.323   1.223  1.00  0.00     0.057 C   
BRANCH   8   9
ATOM     9   C5  UNL     1       0.436  -3.867  -0.215  1.00  0.00    -0.044 A   
ATOM     10  C2  UNL     1       0.666  -2.960  -2.882  1.00  0.00    -0.021 A   
ATOM     11  C3  UNL     1       1.683  -3.724  -2.290  1.00  0.00     0.006 A   
ATOM     12  C23 UNL     1      -0.471  -2.674  -2.121  1.00  0.00     0.074 A   
ATOM     13  C4  UNL     1       1.574  -4.170  -0.972  1.00  0.00     0.004 A   
ATOM     14  C22 UNL     1      -0.588  -3.115  -0.805  1.00  0.00     0.037 A   
ATOM     15  C1  UNL     1       0.822  -2.491  -4.300  1.00  0.00     0.047 C   
BRANCH  12  16
ATOM     16  O3  UNL     1      -1.513  -1.931  -2.612  1.00  0.00    -0.361 OA  
ATOM     17  H29 UNL     1      -1.545  -2.080  -3.575  1.00  0.00     0.218 HD  
ENDBRANCH  12  16
ENDBRANCH   8   9
ENDBRANCH   7   8
ENDBRANCH   1   7
BRANCH   3  18
ATOM     18  C10 UNL     1      -0.141   1.435   1.266  1.00  0.00     0.117 C   
BRANCH  18  19
ATOM     19  N2  UNL     1      -1.444   1.635   0.524  1.00  0.00     0.249 N   
ATOM     20  H12 UNL     1      -2.183   1.273   1.143  1.00  0.00     0.199 HD  
ATOM     21  H13 UNL     1      -1.624   2.631   0.382  1.00  0.00     0.199 HD  
BRANCH  19  22
ATOM     22  C11 UNL     1      -1.572   0.918  -0.782  1.00  0.00     0.164 C   
BRANCH  22  23
ATOM     23  C12 UNL     1      -0.731   1.544  -1.862  1.00  0.00    -0.002 A   
ATOM     24  C13 UNL     1      -1.161   2.730  -2.505  1.00  0.00     0.012 A   
ATOM     25  C17 UNL     1       0.509   0.980  -2.212  1.00  0.00     0.045 A   
ATOM     26  C14 UNL     1      -0.369   3.349  -3.476  1.00  0.00     0.037 A   
ATOM     27  C16 UNL     1       1.266   1.616  -3.170  1.00  0.00     0.109 A   
ATOM     28  C15 UNL     1       0.840   2.769  -3.782  1.00  0.00     0.108 A   
ATOM     29  O1  UNL     1       2.483   1.211  -3.613  1.00  0.00    -0.316 OA  
ATOM     30  O2  UNL     1       1.741   3.240  -4.686  1.00  0.00    -0.316 OA  
ATOM     31  C18 UNL     1       2.788   2.253  -4.571  1.00  0.00     0.337 C   
ENDBRANCH  22  23
ENDBRANCH  19  22
ENDBRANCH  18  19
BRANCH  18  32
ATOM     32  C19 UNL     1      -0.022   2.523   2.365  1.00  0.00     0.037 C   
ATOM     33  C20 UNL     1      -1.135   2.491   3.421  1.00  0.00     0.014 C   
ATOM     34  C21 UNL     1       1.345   2.474   3.058  1.00  0.00     0.014 C   
ENDBRANCH  18  32
ENDBRANCH   3  18
TORSDOF 9
