REMARK SMILES Fc1cncc(CCn2cc([C@@H]([NH2+]Cc3ccc4c(c3)OCO4)C3CCCCC3)nn2)c1
REMARK SMILES IDX 9 1 10 2 11 3 30 4 31 5 8 7 7 8 6 9 2 10 3 11 32 12 4 13
REMARK SMILES IDX 5 14 1 15 12 16 13 17 14 20 15 21 16 22 20 23 17 24 19 25
REMARK SMILES IDX 18 26 21 27 23 28 22 29 24 30 25 31 29 32 26 33 28 34 27 35
REMARK H PARENT 10 6 13 18 13 19
ROOT
ATOM     1   N2  UNL     1      -3.247  -1.257  -1.399  1.00  0.00    -0.212 N   
ATOM     2   C7  UNL     1      -2.016  -1.750  -1.058  1.00  0.00     0.045 A   
ATOM     3   C8  UNL     1      -1.145  -0.729  -1.383  1.00  0.00     0.127 A   
ATOM     4   N4  UNL     1      -1.851   0.270  -2.003  1.00  0.00    -0.132 NA  
ATOM     5   N5  UNL     1      -3.133  -0.059  -1.997  1.00  0.00    -0.076 NA  
ATOM     6   H7  UNL     1      -1.897  -2.685  -0.528  1.00  0.00     0.083 HD  
ENDROOT
BRANCH   1   7
ATOM     7   C6  UNL     1      -4.532  -1.705  -0.889  1.00  0.00     0.139 C   
BRANCH   7   8
ATOM     8   C5  UNL     1      -4.977  -0.922   0.362  1.00  0.00     0.058 C   
BRANCH   8   9
ATOM     9   C4  UNL     1      -3.928  -0.925   1.451  1.00  0.00    -0.025 A   
ATOM     10  C1  UNL     1      -2.737  -1.990   3.239  1.00  0.00     0.141 A   
ATOM     11  C2  UNL     1      -1.780  -0.991   3.153  1.00  0.00     0.150 A   
ATOM     12  C24 UNL     1      -3.813  -1.975   2.363  1.00  0.00     0.046 A   
ATOM     13  N1  UNL     1      -1.824   0.026   2.251  1.00  0.00    -0.261 NA  
ATOM     14  C3  UNL     1      -2.946   0.071   1.483  1.00  0.00     0.115 A   
ATOM     15  F1  UNL     1      -2.602  -2.983   4.124  1.00  0.00    -0.205 F   
ENDBRANCH   8   9
ENDBRANCH   7   8
ENDBRANCH   1   7
BRANCH   3  16
ATOM     16  C9  UNL     1       0.296  -0.507  -1.019  1.00  0.00     0.117 C   
BRANCH  16  17
ATOM     17  N3  UNL     1       0.348   0.305   0.265  1.00  0.00     0.249 N   
ATOM     18  H9  UNL     1      -0.378  -0.038   0.920  1.00  0.00     0.199 HD  
ATOM     19  H10 UNL     1       1.236   0.193   0.751  1.00  0.00     0.199 HD  
BRANCH  17  20
ATOM     20  C10 UNL     1       0.116   1.776   0.125  1.00  0.00     0.164 C   
BRANCH  20  21
ATOM     21  C11 UNL     1       1.243   2.480  -0.578  1.00  0.00    -0.002 A   
ATOM     22  C12 UNL     1       2.477   2.696   0.083  1.00  0.00     0.012 A   
ATOM     23  C16 UNL     1       1.089   2.901  -1.910  1.00  0.00     0.045 A   
ATOM     24  C13 UNL     1       3.545   3.317  -0.574  1.00  0.00     0.037 A   
ATOM     25  C15 UNL     1       2.162   3.509  -2.529  1.00  0.00     0.109 A   
ATOM     26  C14 UNL     1       3.355   3.710  -1.880  1.00  0.00     0.108 A   
ATOM     27  O1  UNL     1       2.182   3.965  -3.808  1.00  0.00    -0.316 OA  
ATOM     28  O2  UNL     1       4.277   4.321  -2.669  1.00  0.00    -0.316 OA  
ATOM     29  C17 UNL     1       3.520   4.508  -3.884  1.00  0.00     0.337 C   
ENDBRANCH  20  21
ENDBRANCH  17  20
ENDBRANCH  16  17
BRANCH  16  30
ATOM     30  C18 UNL     1       1.123  -1.821  -0.860  1.00  0.00     0.043 C   
ATOM     31  C19 UNL     1       1.120  -2.623  -2.185  1.00  0.00     0.010 C   
ATOM     32  C23 UNL     1       2.589  -1.562  -0.439  1.00  0.00     0.010 C   
ATOM     33  C20 UNL     1       1.943  -3.905  -2.098  1.00  0.00     0.001 C   
ATOM     34  C22 UNL     1       3.418  -2.845  -0.370  1.00  0.00     0.001 C   
ATOM     35  C21 UNL     1       3.377  -3.620  -1.678  1.00  0.00     0.000 C   
ENDBRANCH  16  30
ENDBRANCH   3  16
TORSDOF 8
