REMARK SMILES CNCCc1ccc(-n2cc([C@H](CC(C)C)[NH2+]Cc3ccc4c(c3)OCO4)nn2)cc1
REMARK SMILES IDX 5 1 6 2 7 3 8 4 30 5 31 6 4 7 3 8 2 9 1 10 9 12 10 13 29 14
REMARK SMILES IDX 11 15 28 16 12 17 13 18 14 19 15 20 16 21 17 22 18 25 19 26
REMARK SMILES IDX 20 27 24 28 21 29 23 30 22 31 25 32 27 33 26 34
REMARK H PARENT 2 11 17 23 17 24
ROOT
ATOM     1   C4  UNL     1      -2.278   3.768  -1.765  1.00  0.00    -0.047 A   
ATOM     2   C5  UNL     1      -2.877   2.580  -2.197  1.00  0.00     0.006 A   
ATOM     3   C6  UNL     1      -2.209   1.360  -2.064  1.00  0.00     0.026 A   
ATOM     4   C7  UNL     1      -0.930   1.313  -1.491  1.00  0.00     0.058 A   
ATOM     5   C23 UNL     1      -0.326   2.500  -1.058  1.00  0.00     0.026 A   
ATOM     6   C24 UNL     1      -0.999   3.718  -1.196  1.00  0.00     0.006 A   
ENDROOT
BRANCH   1   7
ATOM     7   C3  UNL     1      -3.007   5.085  -1.890  1.00  0.00     0.051 C   
BRANCH   7   8
ATOM     8   C2  UNL     1      -3.660   5.502  -0.565  1.00  0.00     0.085 C   
BRANCH   8   9
ATOM     9   N1  UNL     1      -4.345   6.787  -0.715  1.00  0.00    -0.319 NA  
ATOM     10  C1  UNL     1      -4.944   7.211   0.544  1.00  0.00     0.101 C   
ATOM     11  H4  UNL     1      -5.080   6.707  -1.420  1.00  0.00     0.122 HD  
ENDBRANCH   8   9
ENDBRANCH   7   8
ENDBRANCH   1   7
BRANCH   4  12
ATOM     12  N2  UNL     1      -0.278   0.065  -1.342  1.00  0.00    -0.181 N   
ATOM     13  C8  UNL     1       0.954  -0.212  -0.783  1.00  0.00     0.135 A   
ATOM     14  N5  UNL     1      -0.857  -1.105  -1.723  1.00  0.00    -0.071 NA  
ATOM     15  C9  UNL     1       1.045  -1.586  -0.785  1.00  0.00     0.127 A   
ATOM     16  N4  UNL     1      -0.068  -2.109  -1.379  1.00  0.00    -0.131 NA  
BRANCH  15  17
ATOM     17  C10 UNL     1       2.050  -2.509  -0.182  1.00  0.00     0.114 C   
BRANCH  17  18
ATOM     18  C11 UNL     1       2.919  -3.209  -1.244  1.00  0.00     0.064 C   
BRANCH  18  19
ATOM     19  C12 UNL     1       3.792  -2.265  -2.099  1.00  0.00    -0.012 C   
ATOM     20  C13 UNL     1       4.548  -3.076  -3.155  1.00  0.00     0.007 C   
ATOM     21  C14 UNL     1       4.786  -1.465  -1.255  1.00  0.00     0.007 C   
ENDBRANCH  18  19
ENDBRANCH  17  18
BRANCH  17  22
ATOM     22  N3  UNL     1       1.324  -3.595   0.596  1.00  0.00     0.249 N   
ATOM     23  H22 UNL     1       1.841  -4.479   0.543  1.00  0.00     0.199 HD  
ATOM     24  H23 UNL     1       0.435  -3.756   0.097  1.00  0.00     0.199 HD  
BRANCH  22  25
ATOM     25  C15 UNL     1       1.018  -3.303   2.029  1.00  0.00     0.164 C   
BRANCH  25  26
ATOM     26  C16 UNL     1       0.126  -2.112   2.238  1.00  0.00    -0.002 A   
ATOM     27  C17 UNL     1      -1.253  -2.187   1.924  1.00  0.00     0.012 A   
ATOM     28  C21 UNL     1       0.664  -0.893   2.686  1.00  0.00     0.045 A   
ATOM     29  C18 UNL     1      -2.079  -1.063   2.033  1.00  0.00     0.037 A   
ATOM     30  C20 UNL     1      -0.176   0.198   2.772  1.00  0.00     0.109 A   
ATOM     31  C19 UNL     1      -1.509   0.116   2.454  1.00  0.00     0.108 A   
ATOM     32  O1  UNL     1       0.194   1.452   3.142  1.00  0.00    -0.316 OA  
ATOM     33  O2  UNL     1      -2.149   1.305   2.594  1.00  0.00    -0.316 OA  
ATOM     34  C22 UNL     1      -1.073   2.146   3.058  1.00  0.00     0.337 C   
ENDBRANCH  25  26
ENDBRANCH  22  25
ENDBRANCH  17  22
ENDBRANCH  15  17
ENDBRANCH   4  12
TORSDOF 10
