REMARK SMILES CC(C)C[C@H]([NH2+]Cc1ccc2c(c1)OCO2)c1cn(Cc2cc(F)cnc2Cl)nn1
REMARK SMILES IDX 17 1 18 2 19 3 29 4 30 5 5 7 4 8 2 9 1 10 3 11 6 12 7 15
REMARK SMILES IDX 8 16 9 17 13 18 10 19 12 20 11 21 14 22 16 23 15 24 20 25
REMARK SMILES IDX 21 26 22 27 27 28 23 29 26 30 25 31 28 32 24 33
REMARK H PARENT 18 6 6 13 6 14
ROOT
ATOM     1   C14 UNL     1       0.927  -0.423   0.241  1.00  0.00     0.127 A   
ATOM     2   C15 UNL     1      -0.111  -0.654   1.117  1.00  0.00     0.046 A   
ATOM     3   N2  UNL     1       0.483  -0.614   2.350  1.00  0.00    -0.208 N   
ATOM     4   N4  UNL     1       1.813  -0.439   2.232  1.00  0.00    -0.076 NA  
ATOM     5   N5  UNL     1       2.096  -0.313   0.947  1.00  0.00    -0.132 NA  
ATOM     6   H20 UNL     1      -1.176  -0.785   0.983  1.00  0.00     0.083 HD  
ENDROOT
BRANCH   1   7
ATOM     7   C5  UNL     1       0.938  -0.199  -1.232  1.00  0.00     0.114 C   
BRANCH   7   8
ATOM     8   C4  UNL     1       1.469  -1.416  -2.015  1.00  0.00     0.064 C   
BRANCH   8   9
ATOM     9   C2  UNL     1       0.616  -2.698  -1.885  1.00  0.00    -0.012 C   
ATOM     10  C1  UNL     1       1.285  -3.843  -2.651  1.00  0.00     0.007 C   
ATOM     11  C3  UNL     1      -0.813  -2.503  -2.394  1.00  0.00     0.007 C   
ENDBRANCH   8   9
ENDBRANCH   7   8
BRANCH   7  12
ATOM     12  N1  UNL     1       1.843   0.972  -1.568  1.00  0.00     0.249 N   
ATOM     13  H11 UNL     1       1.981   1.030  -2.581  1.00  0.00     0.199 HD  
ATOM     14  H12 UNL     1       2.758   0.762  -1.143  1.00  0.00     0.199 HD  
BRANCH  12  15
ATOM     15  C6  UNL     1       1.417   2.311  -1.055  1.00  0.00     0.164 C   
BRANCH  15  16
ATOM     16  C7  UNL     1       0.132   2.790  -1.669  1.00  0.00    -0.002 A   
ATOM     17  C8  UNL     1       0.112   3.284  -2.996  1.00  0.00     0.012 A   
ATOM     18  C12 UNL     1      -1.069   2.715  -0.941  1.00  0.00     0.045 A   
ATOM     19  C9  UNL     1      -1.086   3.691  -3.593  1.00  0.00     0.037 A   
ATOM     20  C11 UNL     1      -2.233   3.118  -1.561  1.00  0.00     0.109 A   
ATOM     21  C10 UNL     1      -2.242   3.592  -2.850  1.00  0.00     0.108 A   
ATOM     22  O1  UNL     1      -3.474   3.093  -1.007  1.00  0.00    -0.316 OA  
ATOM     23  O2  UNL     1      -3.489   3.934  -3.267  1.00  0.00    -0.316 OA  
ATOM     24  C13 UNL     1      -4.264   3.653  -2.081  1.00  0.00     0.337 C   
ENDBRANCH  15  16
ENDBRANCH  12  15
ENDBRANCH   7  12
ENDBRANCH   1   7
BRANCH   3  25
ATOM     25  C16 UNL     1      -0.132  -0.661   3.670  1.00  0.00     0.172 C   
BRANCH  25  26
ATOM     26  C17 UNL     1      -1.388   0.164   3.751  1.00  0.00     0.012 A   
ATOM     27  C18 UNL     1      -2.624  -0.457   3.992  1.00  0.00     0.049 A   
ATOM     28  C21 UNL     1      -1.403   1.552   3.586  1.00  0.00     0.134 A   
ATOM     29  C19 UNL     1      -3.782   0.309   4.038  1.00  0.00     0.141 A   
ATOM     30  N3  UNL     1      -2.519   2.311   3.605  1.00  0.00    -0.241 NA  
ATOM     31  C20 UNL     1      -3.690   1.673   3.839  1.00  0.00     0.152 A   
ATOM     32  CL1 UNL     1       0.014   2.479   3.282  1.00  0.00    -0.062 Cl  
ATOM     33  F1  UNL     1      -4.965  -0.275   4.257  1.00  0.00    -0.205 F   
ENDBRANCH  25  26
ENDBRANCH   3  25
TORSDOF 8
