REMARK SMILES CCc1n[nH]c(C(C)C)c1Cn1cc([C@@H]([NH2+]Cc2ccc3c(c2)OCO3)C(C)(C)C)nn1
REMARK SMILES IDX 12 1 13 2 14 3 31 4 32 5 11 7 10 8 3 9 4 10 5 11 6 12 2 14
REMARK SMILES IDX 1 15 7 16 8 17 9 18 15 19 16 20 17 23 18 24 19 25 23 26
REMARK SMILES IDX 20 27 22 28 21 29 24 30 26 31 25 32 27 33 28 34 29 35 30 36
REMARK H PARENT 13 6 5 13 16 21 16 22
ROOT
ATOM     1   N3  UNL     1      -1.114   2.017   0.330  1.00  0.00    -0.208 N   
ATOM     2   C10 UNL     1      -0.764   0.761   0.749  1.00  0.00     0.046 A   
ATOM     3   C11 UNL     1       0.573   0.874   1.065  1.00  0.00     0.127 A   
ATOM     4   N5  UNL     1       0.977   2.166   0.855  1.00  0.00    -0.132 NA  
ATOM     5   N6  UNL     1      -0.063   2.857   0.414  1.00  0.00    -0.076 NA  
ATOM     6   H16 UNL     1      -1.460  -0.066   0.738  1.00  0.00     0.083 HD  
ENDROOT
BRANCH   1   7
ATOM     7   C9  UNL     1      -2.388   2.464  -0.211  1.00  0.00     0.173 C   
BRANCH   7   8
ATOM     8   C8  UNL     1      -2.659   1.786  -1.514  1.00  0.00     0.013 A   
ATOM     9   C3  UNL     1      -2.050   2.069  -2.772  1.00  0.00     0.065 A   
ATOM     10  N1  UNL     1      -2.493   1.248  -3.729  1.00  0.00    -0.189 NA  
ATOM     11  N2  UNL     1      -3.429   0.507  -3.128  1.00  0.00    -0.242 N   
ATOM     12  C4  UNL     1      -3.554   0.759  -1.787  1.00  0.00     0.034 A   
ATOM     13  H6  UNL     1      -3.947  -0.160  -3.693  1.00  0.00     0.175 HD  
BRANCH   9  14
ATOM     14  C2  UNL     1      -1.040   3.118  -3.115  1.00  0.00     0.055 C   
ATOM     15  C1  UNL     1       0.360   2.548  -3.278  1.00  0.00     0.011 C   
ENDBRANCH   9  14
BRANCH  12  16
ATOM     16  C5  UNL     1      -4.532   0.014  -0.923  1.00  0.00     0.029 C   
ATOM     17  C6  UNL     1      -5.972   0.273  -1.367  1.00  0.00     0.014 C   
ATOM     18  C7  UNL     1      -4.229  -1.485  -0.901  1.00  0.00     0.014 C   
ENDBRANCH  12  16
ENDBRANCH   7   8
ENDBRANCH   1   7
BRANCH   3  19
ATOM     19  C12 UNL     1       1.574  -0.168   1.458  1.00  0.00     0.120 C   
BRANCH  19  20
ATOM     20  N4  UNL     1       2.866   0.063   0.694  1.00  0.00     0.250 N   
ATOM     21  H18 UNL     1       3.612  -0.536   1.050  1.00  0.00     0.199 HD  
ATOM     22  H19 UNL     1       3.141   1.038   0.874  1.00  0.00     0.199 HD  
BRANCH  20  23
ATOM     23  C13 UNL     1       2.800  -0.101  -0.793  1.00  0.00     0.164 C   
BRANCH  23  24
ATOM     24  C14 UNL     1       2.363  -1.476  -1.216  1.00  0.00    -0.002 A   
ATOM     25  C15 UNL     1       1.097  -1.667  -1.823  1.00  0.00     0.012 A   
ATOM     26  C19 UNL     1       3.188  -2.588  -0.972  1.00  0.00     0.045 A   
ATOM     27  C16 UNL     1       0.648  -2.949  -2.164  1.00  0.00     0.037 A   
ATOM     28  C18 UNL     1       2.714  -3.836  -1.319  1.00  0.00     0.109 A   
ATOM     29  C17 UNL     1       1.479  -4.013  -1.895  1.00  0.00     0.108 A   
ATOM     30  O1  UNL     1       3.375  -5.010  -1.134  1.00  0.00    -0.316 OA  
ATOM     31  O2  UNL     1       1.206  -5.322  -2.142  1.00  0.00    -0.316 OA  
ATOM     32  C20 UNL     1       2.429  -5.948  -1.697  1.00  0.00     0.337 C   
ENDBRANCH  23  24
ENDBRANCH  20  23
ENDBRANCH  19  20
BRANCH  19  33
ATOM     33  C21 UNL     1       1.857  -0.246   3.001  1.00  0.00     0.010 C   
ATOM     34  C22 UNL     1       0.532  -0.450   3.772  1.00  0.00     0.017 C   
ATOM     35  C23 UNL     1       2.547   1.017   3.551  1.00  0.00     0.017 C   
ATOM     36  C24 UNL     1       2.753  -1.466   3.319  1.00  0.00     0.017 C   
ENDBRANCH  19  33
ENDBRANCH   3  19
TORSDOF 9
