REMARK SMILES CC(C)[C@H]([NH2+]Cc1ccc2c(c1)OCO2)c1cn(Cc2cc(F)nc(F)c2)nn1
REMARK SMILES IDX 16 1 17 2 18 3 28 4 29 5 4 7 2 8 1 9 3 10 5 11 6 14 7 15
REMARK SMILES IDX 8 16 12 17 9 18 11 19 10 20 13 21 15 22 14 23 19 24 20 25
REMARK SMILES IDX 21 26 27 27 22 28 25 29 24 30 23 31 26 32
REMARK H PARENT 17 6 5 12 5 13
ROOT
ATOM     1   C13 UNL     1       1.708  -1.101  -0.189  1.00  0.00     0.127 A   
ATOM     2   C14 UNL     1       1.102  -2.197  -0.764  1.00  0.00     0.046 A   
ATOM     3   N2  UNL     1       0.411  -2.773   0.267  1.00  0.00    -0.208 N   
ATOM     4   N4  UNL     1       0.568  -2.068   1.403  1.00  0.00    -0.076 NA  
ATOM     5   N5  UNL     1       1.364  -1.046   1.139  1.00  0.00    -0.132 NA  
ATOM     6   H18 UNL     1       1.091  -2.601  -1.767  1.00  0.00     0.083 HD  
ENDROOT
BRANCH   1   7
ATOM     7   C4  UNL     1       2.564  -0.019  -0.767  1.00  0.00     0.117 C   
BRANCH   7   8
ATOM     8   C2  UNL     1       4.081  -0.341  -0.769  1.00  0.00     0.037 C   
ATOM     9   C1  UNL     1       4.669  -0.602   0.623  1.00  0.00     0.014 C   
ATOM     10  C3  UNL     1       4.411  -1.514  -1.699  1.00  0.00     0.014 C   
ENDBRANCH   7   8
BRANCH   7  11
ATOM     11  N1  UNL     1       2.353   1.267  -0.006  1.00  0.00     0.249 N   
ATOM     12  H9  UNL     1       3.127   1.923  -0.148  1.00  0.00     0.199 HD  
ATOM     13  H10 UNL     1       2.358   1.024   0.997  1.00  0.00     0.199 HD  
BRANCH  11  14
ATOM     14  C5  UNL     1       1.066   1.967  -0.277  1.00  0.00     0.164 C   
BRANCH  14  15
ATOM     15  C6  UNL     1       0.939   3.184   0.594  1.00  0.00    -0.002 A   
ATOM     16  C7  UNL     1       1.338   4.455   0.116  1.00  0.00     0.012 A   
ATOM     17  C11 UNL     1       0.469   3.056   1.913  1.00  0.00     0.045 A   
ATOM     18  C8  UNL     1       1.262   5.586   0.936  1.00  0.00     0.037 A   
ATOM     19  C10 UNL     1       0.407   4.191   2.694  1.00  0.00     0.109 A   
ATOM     20  C9  UNL     1       0.792   5.420   2.220  1.00  0.00     0.108 A   
ATOM     21  O1  UNL     1      -0.020   4.241   3.983  1.00  0.00    -0.316 OA  
ATOM     22  O2  UNL     1       0.654   6.401   3.150  1.00  0.00    -0.316 OA  
ATOM     23  C12 UNL     1       0.114   5.654   4.261  1.00  0.00     0.337 C   
ENDBRANCH  14  15
ENDBRANCH  11  14
ENDBRANCH   7  11
ENDBRANCH   1   7
BRANCH   3  24
ATOM     24  C15 UNL     1      -0.437  -3.954   0.240  1.00  0.00     0.169 C   
BRANCH  24  25
ATOM     25  C16 UNL     1      -1.819  -3.610  -0.250  1.00  0.00    -0.019 A   
ATOM     26  C17 UNL     1      -2.233  -3.937  -1.544  1.00  0.00     0.066 A   
ATOM     27  C20 UNL     1      -2.724  -2.926   0.570  1.00  0.00     0.066 A   
ATOM     28  C18 UNL     1      -3.504  -3.559  -1.954  1.00  0.00     0.215 A   
ATOM     29  C19 UNL     1      -3.970  -2.595   0.060  1.00  0.00     0.215 A   
ATOM     30  N3  UNL     1      -4.377  -2.884  -1.188  1.00  0.00    -0.191 NA  
ATOM     31  F1  UNL     1      -3.879  -3.862  -3.204  1.00  0.00    -0.185 F   
ATOM     32  F2  UNL     1      -4.817  -1.920   0.849  1.00  0.00    -0.185 F   
ENDBRANCH  24  25
ENDBRANCH   3  24
TORSDOF 7
