REMARK SMILES CC(C)C[C@H]([NH2+]Cc1ccc2c(c1)OCO2)c1cn(Cc2cc(F)nc(F)c2)nn1
REMARK SMILES IDX 17 1 18 2 19 3 29 4 30 5 5 7 4 8 2 9 1 10 3 11 6 12 7 15
REMARK SMILES IDX 8 16 9 17 13 18 10 19 12 20 11 21 14 22 16 23 15 24 20 25
REMARK SMILES IDX 21 26 22 27 28 28 23 29 26 30 25 31 24 32 27 33
REMARK H PARENT 18 6 6 13 6 14
ROOT
ATOM     1   C14 UNL     1      -0.690  -0.609  -0.576  1.00  0.00     0.127 A   
ATOM     2   C15 UNL     1       0.382  -1.440  -0.340  1.00  0.00     0.046 A   
ATOM     3   N2  UNL     1       1.011  -1.518  -1.552  1.00  0.00    -0.208 N   
ATOM     4   N4  UNL     1       0.367  -0.780  -2.476  1.00  0.00    -0.076 NA  
ATOM     5   N5  UNL     1      -0.668  -0.207  -1.887  1.00  0.00    -0.132 NA  
ATOM     6   H20 UNL     1       0.747  -1.952   0.539  1.00  0.00     0.083 HD  
ENDROOT
BRANCH   1   7
ATOM     7   C5  UNL     1      -1.769  -0.091   0.317  1.00  0.00     0.114 C   
BRANCH   7   8
ATOM     8   C4  UNL     1      -3.085  -0.880   0.166  1.00  0.00     0.064 C   
BRANCH   8   9
ATOM     9   C2  UNL     1      -3.011  -2.372   0.556  1.00  0.00    -0.012 C   
ATOM     10  C1  UNL     1      -4.362  -3.041   0.287  1.00  0.00     0.007 C   
ATOM     11  C3  UNL     1      -2.616  -2.573   2.019  1.00  0.00     0.007 C   
ENDBRANCH   8   9
ENDBRANCH   7   8
BRANCH   7  12
ATOM     12  N1  UNL     1      -2.071   1.349  -0.062  1.00  0.00     0.249 N   
ATOM     13  H11 UNL     1      -1.692   1.483  -1.015  1.00  0.00     0.199 HD  
ATOM     14  H12 UNL     1      -3.083   1.488  -0.156  1.00  0.00     0.199 HD  
BRANCH  12  15
ATOM     15  C6  UNL     1      -1.523   2.404   0.833  1.00  0.00     0.164 C   
BRANCH  15  16
ATOM     16  C7  UNL     1      -0.027   2.402   0.977  1.00  0.00    -0.002 A   
ATOM     17  C8  UNL     1       0.560   2.238   2.255  1.00  0.00     0.012 A   
ATOM     18  C12 UNL     1       0.804   2.600  -0.140  1.00  0.00     0.045 A   
ATOM     19  C9  UNL     1       1.948   2.280   2.423  1.00  0.00     0.037 A   
ATOM     20  C11 UNL     1       2.168   2.639   0.062  1.00  0.00     0.109 A   
ATOM     21  C10 UNL     1       2.724   2.490   1.306  1.00  0.00     0.108 A   
ATOM     22  O1  UNL     1       3.103   2.835  -0.903  1.00  0.00    -0.316 OA  
ATOM     23  O2  UNL     1       4.078   2.590   1.286  1.00  0.00    -0.316 OA  
ATOM     24  C13 UNL     1       4.307   2.909  -0.105  1.00  0.00     0.337 C   
ENDBRANCH  15  16
ENDBRANCH  12  15
ENDBRANCH   7  12
ENDBRANCH   1   7
BRANCH   3  25
ATOM     25  C16 UNL     1       2.171  -2.314  -1.916  1.00  0.00     0.169 C   
BRANCH  25  26
ATOM     26  C17 UNL     1       3.431  -1.492  -1.909  1.00  0.00    -0.019 A   
ATOM     27  C18 UNL     1       4.348  -1.578  -0.857  1.00  0.00     0.066 A   
ATOM     28  C21 UNL     1       3.721  -0.610  -2.959  1.00  0.00     0.066 A   
ATOM     29  C19 UNL     1       5.489  -0.791  -0.906  1.00  0.00     0.215 A   
ATOM     30  C20 UNL     1       4.890   0.132  -2.907  1.00  0.00     0.215 A   
ATOM     31  N3  UNL     1       5.781   0.066  -1.902  1.00  0.00    -0.191 NA  
ATOM     32  F1  UNL     1       6.351  -0.868   0.116  1.00  0.00    -0.185 F   
ATOM     33  F2  UNL     1       5.155   0.975  -3.911  1.00  0.00    -0.185 F   
ENDBRANCH  25  26
ENDBRANCH   3  25
TORSDOF 8
