REMARK SMILES CC(C)(C)[C@H]([NH2+]Cc1ccc2c(c1)OCO2)c1cn(Cc2ccc(N)nc2)nn1
REMARK SMILES IDX 17 1 18 2 19 3 28 4 29 5 5 7 2 8 1 9 3 10 4 11 6 12 7 15
REMARK SMILES IDX 8 16 9 17 13 18 10 19 12 20 11 21 14 22 16 23 15 24 20 25
REMARK SMILES IDX 21 26 22 27 27 28 23 29 26 30 24 31 25 32
REMARK H PARENT 18 6 6 13 6 14 25 33 25 34
ROOT
ATOM     1   C14 UNL     1       0.268  -1.898   0.412  1.00  0.00     0.127 A   
ATOM     2   C15 UNL     1       1.038  -1.387   1.434  1.00  0.00     0.046 A   
ATOM     3   N2  UNL     1       2.322  -1.513   0.975  1.00  0.00    -0.208 N   
ATOM     4   N5  UNL     1       2.343  -2.127  -0.224  1.00  0.00    -0.076 NA  
ATOM     5   N6  UNL     1       1.091  -2.368  -0.578  1.00  0.00    -0.132 NA  
ATOM     6   H20 UNL     1       0.799  -0.895   2.367  1.00  0.00     0.083 HD  
ENDROOT
BRANCH   1   7
ATOM     7   C5  UNL     1      -1.215  -1.869   0.205  1.00  0.00     0.120 C   
BRANCH   7   8
ATOM     8   C2  UNL     1      -1.940  -3.216   0.553  1.00  0.00     0.010 C   
ATOM     9   C1  UNL     1      -3.474  -3.043   0.451  1.00  0.00     0.017 C   
ATOM     10  C3  UNL     1      -1.527  -4.380  -0.367  1.00  0.00     0.017 C   
ATOM     11  C4  UNL     1      -1.628  -3.617   2.015  1.00  0.00     0.017 C   
ENDBRANCH   7   8
BRANCH   7  12
ATOM     12  N1  UNL     1      -1.520  -1.454  -1.223  1.00  0.00     0.250 N   
ATOM     13  H11 UNL     1      -2.522  -1.508  -1.409  1.00  0.00     0.199 HD  
ATOM     14  H12 UNL     1      -1.053  -2.136  -1.833  1.00  0.00     0.199 HD  
BRANCH  12  15
ATOM     15  C6  UNL     1      -1.037  -0.101  -1.650  1.00  0.00     0.164 C   
BRANCH  15  16
ATOM     16  C7  UNL     1      -1.559   1.026  -0.804  1.00  0.00    -0.002 A   
ATOM     17  C8  UNL     1      -0.666   1.784  -0.007  1.00  0.00     0.012 A   
ATOM     18  C12 UNL     1      -2.930   1.327  -0.780  1.00  0.00     0.045 A   
ATOM     19  C9  UNL     1      -1.130   2.818   0.812  1.00  0.00     0.037 A   
ATOM     20  C11 UNL     1      -3.354   2.352   0.040  1.00  0.00     0.109 A   
ATOM     21  C10 UNL     1      -2.481   3.077   0.814  1.00  0.00     0.108 A   
ATOM     22  O1  UNL     1      -4.642   2.762   0.186  1.00  0.00    -0.316 OA  
ATOM     23  O2  UNL     1      -3.109   4.035   1.543  1.00  0.00    -0.316 OA  
ATOM     24  C13 UNL     1      -4.475   3.860   1.113  1.00  0.00     0.337 C   
ENDBRANCH  15  16
ENDBRANCH  12  15
ENDBRANCH   7  12
ENDBRANCH   1   7
BRANCH   3  25
ATOM     25  C16 UNL     1       3.526  -0.907   1.522  1.00  0.00     0.171 C   
BRANCH  25  26
ATOM     26  C17 UNL     1       3.517   0.567   1.229  1.00  0.00    -0.010 A   
ATOM     27  C18 UNL     1       3.953   1.071   0.002  1.00  0.00     0.010 A   
ATOM     28  C21 UNL     1       2.967   1.473   2.126  1.00  0.00     0.118 A   
ATOM     29  C19 UNL     1       3.804   2.428  -0.276  1.00  0.00     0.044 A   
ATOM     30  N4  UNL     1       2.795   2.786   1.865  1.00  0.00    -0.242 NA  
ATOM     31  C20 UNL     1       3.224   3.248   0.678  1.00  0.00     0.115 A   
BRANCH  31  32
ATOM     32  N3  UNL     1       2.988   4.590   0.412  1.00  0.00    -0.343 N   
ATOM     33  H25 UNL     1       3.825   5.068   0.100  1.00  0.00     0.144 HD  
ATOM     34  H26 UNL     1       2.615   5.013   1.257  1.00  0.00     0.144 HD  
ENDBRANCH  31  32
ENDBRANCH  25  26
ENDBRANCH   3  25
TORSDOF 8
