REMARK SMILES CC(C)[C@H]([NH2+]Cc1ccc2c(c1)OCO2)c1cn(C[C@H]2Cc3cc(F)ccc3O2)nn1
REMARK SMILES IDX 16 1 17 2 18 3 30 4 31 5 4 7 2 8 1 9 3 10 5 11 6 14 7 15
REMARK SMILES IDX 8 16 12 17 9 18 11 19 10 20 13 21 15 22 14 23 19 24 20 25
REMARK SMILES IDX 21 26 29 27 22 28 28 29 23 30 27 31 24 32 26 33 25 34
REMARK H PARENT 17 6 5 12 5 13
ROOT
ATOM     1   C13 UNL     1       1.239  -0.155  -0.907  1.00  0.00     0.127 A   
ATOM     2   C14 UNL     1       1.756  -1.160  -0.120  1.00  0.00     0.045 A   
ATOM     3   N2  UNL     1       2.863  -0.596   0.450  1.00  0.00    -0.210 N   
ATOM     4   N3  UNL     1       3.034   0.667   0.020  1.00  0.00    -0.076 NA  
ATOM     5   N4  UNL     1       2.036   0.956  -0.796  1.00  0.00    -0.132 NA  
ATOM     6   H18 UNL     1       1.440  -2.170   0.105  1.00  0.00     0.083 HD  
ENDROOT
BRANCH   1   7
ATOM     7   C4  UNL     1      -0.011  -0.081  -1.721  1.00  0.00     0.117 C   
BRANCH   7   8
ATOM     8   C2  UNL     1       0.193  -0.365  -3.231  1.00  0.00     0.037 C   
ATOM     9   C1  UNL     1       1.150   0.602  -3.937  1.00  0.00     0.014 C   
ATOM     10  C3  UNL     1       0.645  -1.809  -3.474  1.00  0.00     0.014 C   
ENDBRANCH   7   8
BRANCH   7  11
ATOM     11  N1  UNL     1      -0.633   1.291  -1.567  1.00  0.00     0.249 N   
ATOM     12  H9  UNL     1      -1.306   1.470  -2.318  1.00  0.00     0.199 HD  
ATOM     13  H10 UNL     1       0.138   1.965  -1.678  1.00  0.00     0.199 HD  
BRANCH  11  14
ATOM     14  C5  UNL     1      -1.277   1.574  -0.250  1.00  0.00     0.164 C   
BRANCH  14  15
ATOM     15  C6  UNL     1      -2.625   0.921  -0.122  1.00  0.00    -0.002 A   
ATOM     16  C7  UNL     1      -3.768   1.522  -0.703  1.00  0.00     0.012 A   
ATOM     17  C11 UNL     1      -2.757  -0.308   0.546  1.00  0.00     0.045 A   
ATOM     18  C8  UNL     1      -5.024   0.911  -0.617  1.00  0.00     0.037 A   
ATOM     19  C10 UNL     1      -4.008  -0.883   0.613  1.00  0.00     0.109 A   
ATOM     20  C9  UNL     1      -5.110  -0.292   0.048  1.00  0.00     0.108 A   
ATOM     21  O1  UNL     1      -4.303  -2.064   1.218  1.00  0.00    -0.316 OA  
ATOM     22  O2  UNL     1      -6.240  -1.024   0.227  1.00  0.00    -0.316 OA  
ATOM     23  C12 UNL     1      -5.731  -2.137   0.993  1.00  0.00     0.337 C   
ENDBRANCH  14  15
ENDBRANCH  11  14
ENDBRANCH   7  11
ENDBRANCH   1   7
BRANCH   3  24
ATOM     24  C15 UNL     1       3.785  -1.184   1.399  1.00  0.00     0.166 C   
BRANCH  24  25
ATOM     25  C16 UNL     1       3.408  -0.960   2.870  1.00  0.00     0.149 C   
ATOM     26  C17 UNL     1       3.264   0.512   3.292  1.00  0.00     0.072 C   
ATOM     27  O3  UNL     1       2.170  -1.668   3.170  1.00  0.00    -0.341 OA  
ATOM     28  C18 UNL     1       1.791   0.598   3.405  1.00  0.00    -0.012 A   
ATOM     29  C23 UNL     1       1.248  -0.678   3.384  1.00  0.00     0.079 A   
ATOM     30  C19 UNL     1       0.984   1.708   3.579  1.00  0.00     0.045 A   
ATOM     31  C22 UNL     1      -0.103  -0.904   3.557  1.00  0.00     0.037 A   
ATOM     32  C20 UNL     1      -0.385   1.495   3.732  1.00  0.00     0.123 A   
ATOM     33  C21 UNL     1      -0.931   0.206   3.734  1.00  0.00     0.042 A   
ATOM     34  F1  UNL     1      -1.200   2.549   3.863  1.00  0.00    -0.207 F   
ENDBRANCH  24  25
ENDBRANCH   3  24
TORSDOF 7
