REMARK SMILES CC(C)[C@H]([NH2+]Cc1ccc2c(c1)OCO2)c1cn(C[C@@H]2Cc3cc(F)ccc3O2)nn1
REMARK SMILES IDX 16 1 17 2 18 3 30 4 31 5 4 7 2 8 1 9 3 10 5 11 6 14 7 15
REMARK SMILES IDX 8 16 12 17 9 18 11 19 10 20 13 21 15 22 14 23 19 24 20 25
REMARK SMILES IDX 21 26 29 27 22 28 28 29 23 30 27 31 24 32 26 33 25 34
REMARK H PARENT 17 6 5 12 5 13
ROOT
ATOM     1   C13 UNL     1      -0.471  -0.076   0.686  1.00  0.00     0.127 A   
ATOM     2   C14 UNL     1      -1.720  -0.229   0.125  1.00  0.00     0.045 A   
ATOM     3   N2  UNL     1      -2.413  -0.952   1.055  1.00  0.00    -0.210 N   
ATOM     4   N3  UNL     1      -1.672  -1.149   2.160  1.00  0.00    -0.076 NA  
ATOM     5   N4  UNL     1      -0.471  -0.645   1.936  1.00  0.00    -0.132 NA  
ATOM     6   H18 UNL     1      -2.153   0.059  -0.823  1.00  0.00     0.083 HD  
ENDROOT
BRANCH   1   7
ATOM     7   C4  UNL     1       0.771   0.595   0.190  1.00  0.00     0.117 C   
BRANCH   7   8
ATOM     8   C2  UNL     1       1.647  -0.289  -0.737  1.00  0.00     0.037 C   
ATOM     9   C1  UNL     1       0.968  -0.542  -2.087  1.00  0.00     0.014 C   
ATOM     10  C3  UNL     1       2.074  -1.621  -0.109  1.00  0.00     0.014 C   
ENDBRANCH   7   8
BRANCH   7  11
ATOM     11  N1  UNL     1       1.624   1.022   1.368  1.00  0.00     0.249 N   
ATOM     12  H9  UNL     1       1.616   0.229   2.025  1.00  0.00     0.199 HD  
ATOM     13  H10 UNL     1       2.596   1.165   1.078  1.00  0.00     0.199 HD  
BRANCH  11  14
ATOM     14  C5  UNL     1       1.151   2.221   2.120  1.00  0.00     0.164 C   
BRANCH  14  15
ATOM     15  C6  UNL     1       1.341   3.499   1.353  1.00  0.00    -0.002 A   
ATOM     16  C7  UNL     1       0.222   4.203   0.848  1.00  0.00     0.012 A   
ATOM     17  C11 UNL     1       2.635   3.997   1.114  1.00  0.00     0.045 A   
ATOM     18  C8  UNL     1       0.385   5.380   0.108  1.00  0.00     0.037 A   
ATOM     19  C10 UNL     1       2.760   5.159   0.381  1.00  0.00     0.109 A   
ATOM     20  C9  UNL     1       1.668   5.831  -0.109  1.00  0.00     0.108 A   
ATOM     21  O1  UNL     1       3.933   5.765   0.059  1.00  0.00    -0.316 OA  
ATOM     22  O2  UNL     1       2.015   6.947  -0.801  1.00  0.00    -0.316 OA  
ATOM     23  C12 UNL     1       3.452   6.923  -0.664  1.00  0.00     0.337 C   
ENDBRANCH  14  15
ENDBRANCH  11  14
ENDBRANCH   7  11
ENDBRANCH   1   7
BRANCH   3  24
ATOM     24  C15 UNL     1      -3.775  -1.440   0.987  1.00  0.00     0.166 C   
BRANCH  24  25
ATOM     25  C16 UNL     1      -3.921  -2.829   0.351  1.00  0.00     0.149 C   
ATOM     26  C17 UNL     1      -3.096  -3.945   1.016  1.00  0.00     0.072 C   
ATOM     27  O3  UNL     1      -3.581  -2.754  -1.063  1.00  0.00    -0.341 OA  
ATOM     28  C18 UNL     1      -2.059  -4.143  -0.020  1.00  0.00    -0.012 A   
ATOM     29  C23 UNL     1      -2.428  -3.482  -1.181  1.00  0.00     0.079 A   
ATOM     30  C19 UNL     1      -0.903  -4.901   0.027  1.00  0.00     0.045 A   
ATOM     31  C22 UNL     1      -1.678  -3.559  -2.339  1.00  0.00     0.037 A   
ATOM     32  C20 UNL     1      -0.127  -4.971  -1.129  1.00  0.00     0.123 A   
ATOM     33  C21 UNL     1      -0.505  -4.315  -2.306  1.00  0.00     0.042 A   
ATOM     34  F1  UNL     1       1.009  -5.678  -1.112  1.00  0.00    -0.207 F   
ENDBRANCH  24  25
ENDBRANCH   3  24
TORSDOF 7
