REMARK SMILES CC(C)C[C@H]([NH2+]Cc1ccc2c(c1)OCO2)c1cn(CCc2cc(F)cc(F)c2)nn1
REMARK SMILES IDX 17 1 18 2 19 3 30 4 31 5 5 7 4 8 2 9 1 10 3 11 6 12 7 15
REMARK SMILES IDX 8 16 9 17 13 18 10 19 12 20 11 21 14 22 16 23 15 24 20 25
REMARK SMILES IDX 21 26 22 27 23 28 29 29 24 30 27 31 26 32 25 33 28 34
REMARK H PARENT 18 6 6 13 6 14
ROOT
ATOM     1   C14 UNL     1      -1.584   1.380  -0.100  1.00  0.00     0.127 A   
ATOM     2   C15 UNL     1      -2.217   0.552  -1.001  1.00  0.00     0.045 A   
ATOM     3   N2  UNL     1      -2.780   1.414  -1.900  1.00  0.00    -0.212 N   
ATOM     4   N3  UNL     1      -2.518   2.691  -1.571  1.00  0.00    -0.076 NA  
ATOM     5   N4  UNL     1      -1.778   2.684  -0.474  1.00  0.00    -0.132 NA  
ATOM     6   H20 UNL     1      -2.297  -0.522  -1.096  1.00  0.00     0.083 HD  
ENDROOT
BRANCH   1   7
ATOM     7   C5  UNL     1      -0.723   1.076   1.079  1.00  0.00     0.114 C   
BRANCH   7   8
ATOM     8   C4  UNL     1      -1.426   1.373   2.418  1.00  0.00     0.064 C   
BRANCH   8   9
ATOM     9   C2  UNL     1      -2.684   0.523   2.698  1.00  0.00    -0.012 C   
ATOM     10  C1  UNL     1      -2.377  -0.974   2.754  1.00  0.00     0.007 C   
ATOM     11  C3  UNL     1      -3.322   0.967   4.018  1.00  0.00     0.007 C   
ENDBRANCH   8   9
ENDBRANCH   7   8
BRANCH   7  12
ATOM     12  N1  UNL     1       0.524   1.937   1.037  1.00  0.00     0.249 N   
ATOM     13  H11 UNL     1       1.014   1.893   1.936  1.00  0.00     0.199 HD  
ATOM     14  H12 UNL     1       0.202   2.907   0.914  1.00  0.00     0.199 HD  
BRANCH  12  15
ATOM     15  C6  UNL     1       1.495   1.643  -0.060  1.00  0.00     0.164 C   
BRANCH  15  16
ATOM     16  C7  UNL     1       2.162   0.305   0.099  1.00  0.00    -0.002 A   
ATOM     17  C8  UNL     1       1.770  -0.791  -0.707  1.00  0.00     0.012 A   
ATOM     18  C12 UNL     1       3.156   0.122   1.076  1.00  0.00     0.045 A   
ATOM     19  C9  UNL     1       2.356  -2.050  -0.546  1.00  0.00     0.037 A   
ATOM     20  C11 UNL     1       3.712  -1.133   1.210  1.00  0.00     0.109 A   
ATOM     21  C10 UNL     1       3.324  -2.189   0.423  1.00  0.00     0.108 A   
ATOM     22  O1  UNL     1       4.675  -1.479   2.104  1.00  0.00    -0.316 OA  
ATOM     23  O2  UNL     1       3.995  -3.332   0.721  1.00  0.00    -0.316 OA  
ATOM     24  C13 UNL     1       4.876  -2.871   1.768  1.00  0.00     0.337 C   
ENDBRANCH  15  16
ENDBRANCH  12  15
ENDBRANCH   7  12
ENDBRANCH   1   7
BRANCH   3  25
ATOM     25  C16 UNL     1      -3.491   1.095  -3.121  1.00  0.00     0.139 C   
BRANCH  25  26
ATOM     26  C17 UNL     1      -2.745   1.524  -4.389  1.00  0.00     0.057 C   
BRANCH  26  27
ATOM     27  C18 UNL     1      -1.383   0.882  -4.521  1.00  0.00    -0.041 A   
ATOM     28  C19 UNL     1      -0.238   1.557  -4.074  1.00  0.00     0.043 A   
ATOM     29  C23 UNL     1      -1.241  -0.408  -5.047  1.00  0.00     0.043 A   
ATOM     30  C20 UNL     1       1.010   0.943  -4.144  1.00  0.00     0.126 A   
ATOM     31  C22 UNL     1       0.021  -0.997  -5.118  1.00  0.00     0.126 A   
ATOM     32  C21 UNL     1       1.154  -0.333  -4.667  1.00  0.00     0.078 A   
ATOM     33  F1  UNL     1       2.079   1.582  -3.649  1.00  0.00    -0.207 F   
ATOM     34  F2  UNL     1       0.139  -2.236  -5.610  1.00  0.00    -0.207 F   
ENDBRANCH  26  27
ENDBRANCH  25  26
ENDBRANCH   3  25
TORSDOF 9
