REMARK SMILES c1cc(Cn2cc([C@@H]([NH2+]Cc3ccc4c(c3)OCO4)C3CCCCC3)nn2)c2nccnc2c1
REMARK SMILES IDX 8 1 7 2 5 3 6 4 27 5 26 6 4 8 3 9 1 10 2 11 34 12 33 13
REMARK SMILES IDX 28 14 32 15 29 16 31 17 30 18 9 19 10 22 11 23 12 24 16 25
REMARK SMILES IDX 13 26 15 27 14 28 17 29 19 30 18 31 20 32 21 33 25 34 22 35
REMARK SMILES IDX 24 36 23 37
REMARK H PARENT 6 7 9 20 9 21
ROOT
ATOM     1   C7  UNL     1       0.319  -0.357   1.101  1.00  0.00     0.117 C   
ENDROOT
BRANCH   1   2
ATOM     2   C6  UNL     1       0.028  -1.540   0.236  1.00  0.00     0.127 A   
ATOM     3   N1  UNL     1      -0.211  -3.001  -1.336  1.00  0.00    -0.208 N   
ATOM     4   C5  UNL     1       0.593  -1.968  -0.944  1.00  0.00     0.046 A   
ATOM     5   N4  UNL     1      -1.179  -3.229  -0.424  1.00  0.00    -0.076 NA  
ATOM     6   N3  UNL     1      -1.049  -2.332   0.537  1.00  0.00    -0.132 NA  
ATOM     7   H5  UNL     1       1.411  -1.614  -1.554  1.00  0.00     0.083 HD  
BRANCH   3   8
ATOM     8   C4  UNL     1      -0.130  -3.789  -2.554  1.00  0.00     0.171 C   
BRANCH   8   9
ATOM     9   C3  UNL     1      -1.335  -3.568  -3.437  1.00  0.00    -0.001 A   
ATOM     10  C1  UNL     1      -3.460  -4.342  -4.293  1.00  0.00     0.003 A   
ATOM     11  C2  UNL     1      -2.346  -4.541  -3.490  1.00  0.00     0.008 A   
ATOM     12  C26 UNL     1      -3.568  -3.173  -5.043  1.00  0.00     0.030 A   
ATOM     13  C25 UNL     1      -2.583  -2.196  -5.009  1.00  0.00     0.089 A   
ATOM     14  C22 UNL     1      -1.442  -2.389  -4.187  1.00  0.00     0.093 A   
ATOM     15  N6  UNL     1      -2.726  -1.089  -5.763  1.00  0.00    -0.253 NA  
ATOM     16  N5  UNL     1      -0.466  -1.450  -4.128  1.00  0.00    -0.253 NA  
ATOM     17  C24 UNL     1      -1.724  -0.188  -5.721  1.00  0.00     0.132 A   
ATOM     18  C23 UNL     1      -0.618  -0.365  -4.921  1.00  0.00     0.132 A   
ENDBRANCH   8   9
ENDBRANCH   3   8
ENDBRANCH   1   2
BRANCH   1  19
ATOM     19  N2  UNL     1      -0.986   0.263   1.534  1.00  0.00     0.249 N   
ATOM     20  H7  UNL     1      -1.598  -0.532   1.774  1.00  0.00     0.199 HD  
ATOM     21  H8  UNL     1      -0.881   0.825   2.383  1.00  0.00     0.199 HD  
BRANCH  19  22
ATOM     22  C8  UNL     1      -1.697   1.063   0.495  1.00  0.00     0.164 C   
BRANCH  22  23
ATOM     23  C9  UNL     1      -1.255   2.502   0.498  1.00  0.00    -0.002 A   
ATOM     24  C10 UNL     1      -1.918   3.442   1.323  1.00  0.00     0.012 A   
ATOM     25  C14 UNL     1      -0.158   2.918  -0.277  1.00  0.00     0.045 A   
ATOM     26  C11 UNL     1      -1.497   4.775   1.379  1.00  0.00     0.037 A   
ATOM     27  C13 UNL     1       0.240   4.236  -0.187  1.00  0.00     0.109 A   
ATOM     28  C12 UNL     1      -0.409   5.139   0.618  1.00  0.00     0.108 A   
ATOM     29  O1  UNL     1       1.295   4.787  -0.841  1.00  0.00    -0.316 OA  
ATOM     30  O2  UNL     1       0.152   6.374   0.563  1.00  0.00    -0.316 OA  
ATOM     31  C15 UNL     1       1.211   6.160  -0.393  1.00  0.00     0.337 C   
ENDBRANCH  22  23
ENDBRANCH  19  22
ENDBRANCH   1  19
BRANCH   1  32
ATOM     32  C16 UNL     1       1.198  -0.709   2.330  1.00  0.00     0.043 C   
ATOM     33  C17 UNL     1       1.780   0.563   2.983  1.00  0.00     0.010 C   
ATOM     34  C21 UNL     1       0.481  -1.567   3.390  1.00  0.00     0.010 C   
ATOM     35  C18 UNL     1       2.692   0.231   4.165  1.00  0.00     0.001 C   
ATOM     36  C20 UNL     1       1.403  -1.903   4.562  1.00  0.00     0.001 C   
ATOM     37  C19 UNL     1       1.986  -0.644   5.196  1.00  0.00     0.000 C   
ENDBRANCH   1  32
TORSDOF 7
