REMARK SMILES CC(C)(C)[C@H]([NH2+]Cc1ccc2c(c1)OCO2)c1cn(C[C@H]2NCCc3ccoc32)nn1
REMARK SMILES IDX 17 1 18 2 19 3 30 4 31 5 5 7 2 8 1 9 3 10 4 11 6 12 7 15
REMARK SMILES IDX 8 16 9 17 13 18 10 19 12 20 11 21 14 22 16 23 15 24 20 25
REMARK SMILES IDX 21 26 22 27 29 28 23 29 25 30 28 31 24 32 26 33 27 34
REMARK H PARENT 18 6 6 13 6 14 22 35
ROOT
ATOM     1   C14 UNL     1      -0.400   1.100  -0.424  1.00  0.00     0.127 A   
ATOM     2   C15 UNL     1      -0.693  -0.214  -0.714  1.00  0.00     0.045 A   
ATOM     3   N2  UNL     1      -1.942  -0.159  -1.266  1.00  0.00    -0.210 N   
ATOM     4   N4  UNL     1      -2.351   1.117  -1.400  1.00  0.00    -0.076 NA  
ATOM     5   N5  UNL     1      -1.426   1.896  -0.866  1.00  0.00    -0.132 NA  
ATOM     6   H20 UNL     1      -0.172  -1.148  -0.551  1.00  0.00     0.083 HD  
ENDROOT
BRANCH   1   7
ATOM     7   C5  UNL     1       0.811   1.736   0.188  1.00  0.00     0.120 C   
BRANCH   7   8
ATOM     8   C2  UNL     1       0.737   1.887   1.750  1.00  0.00     0.010 C   
ATOM     9   C1  UNL     1      -0.389   2.837   2.205  1.00  0.00     0.017 C   
ATOM     10  C3  UNL     1       0.505   0.508   2.409  1.00  0.00     0.017 C   
ATOM     11  C4  UNL     1       2.079   2.425   2.302  1.00  0.00     0.017 C   
ENDBRANCH   7   8
BRANCH   7  12
ATOM     12  N1  UNL     1       1.026   3.092  -0.458  1.00  0.00     0.250 N   
ATOM     13  H11 UNL     1       1.661   3.673   0.091  1.00  0.00     0.199 HD  
ATOM     14  H12 UNL     1       0.106   3.557  -0.451  1.00  0.00     0.199 HD  
BRANCH  12  15
ATOM     15  C6  UNL     1       1.493   3.081  -1.877  1.00  0.00     0.164 C   
BRANCH  15  16
ATOM     16  C7  UNL     1       2.887   2.538  -2.030  1.00  0.00    -0.002 A   
ATOM     17  C8  UNL     1       3.099   1.287  -2.656  1.00  0.00     0.012 A   
ATOM     18  C12 UNL     1       3.988   3.256  -1.529  1.00  0.00     0.045 A   
ATOM     19  C9  UNL     1       4.386   0.751  -2.778  1.00  0.00     0.037 A   
ATOM     20  C11 UNL     1       5.242   2.698  -1.664  1.00  0.00     0.109 A   
ATOM     21  C10 UNL     1       5.437   1.482  -2.270  1.00  0.00     0.108 A   
ATOM     22  O1  UNL     1       6.404   3.254  -1.231  1.00  0.00    -0.316 OA  
ATOM     23  O2  UNL     1       6.745   1.120  -2.297  1.00  0.00    -0.316 OA  
ATOM     24  C13 UNL     1       7.361   2.260  -1.662  1.00  0.00     0.337 C   
ENDBRANCH  15  16
ENDBRANCH  12  15
ENDBRANCH   7  12
ENDBRANCH   1   7
BRANCH   3  25
ATOM     25  C16 UNL     1      -2.765  -1.252  -1.744  1.00  0.00     0.160 C   
BRANCH  25  26
ATOM     26  C17 UNL     1      -3.926  -1.580  -0.793  1.00  0.00     0.128 C   
ATOM     27  N3  UNL     1      -4.932  -2.458  -1.472  1.00  0.00    -0.307 NA  
ATOM     28  C23 UNL     1      -3.451  -2.256   0.452  1.00  0.00     0.080 A   
ATOM     29  C18 UNL     1      -4.538  -3.891  -1.483  1.00  0.00     0.086 C   
ATOM     30  C20 UNL     1      -3.614  -3.576   0.804  1.00  0.00    -0.016 A   
ATOM     31  O3  UNL     1      -2.768  -1.575   1.403  1.00  0.00    -0.321 OA  
ATOM     32  C19 UNL     1      -4.362  -4.514  -0.072  1.00  0.00     0.053 C   
ATOM     33  C21 UNL     1      -2.994  -3.724   2.063  1.00  0.00     0.032 A   
ATOM     34  C22 UNL     1      -2.500  -2.478   2.388  1.00  0.00     0.136 A   
ATOM     35  H24 UNL     1      -5.803  -2.385  -0.939  1.00  0.00     0.123 HD  
ENDBRANCH  25  26
ENDBRANCH   3  25
TORSDOF 7
