REMARK SMILES CC(C)(C)[C@H]([NH2+]Cc1ccc2c(c1)OCO2)c1cn(C[C@@H]2NCCc3ccoc32)nn1
REMARK SMILES IDX 17 1 18 2 19 3 30 4 31 5 5 7 2 8 1 9 3 10 4 11 6 12 7 15
REMARK SMILES IDX 8 16 9 17 13 18 10 19 12 20 11 21 14 22 16 23 15 24 20 25
REMARK SMILES IDX 21 26 22 27 29 28 23 29 25 30 28 31 24 32 26 33 27 34
REMARK H PARENT 18 6 6 13 6 14 22 35
ROOT
ATOM     1   C14 UNL     1       0.157   0.857  -1.550  1.00  0.00     0.127 A   
ATOM     2   C15 UNL     1       1.408   1.413  -1.413  1.00  0.00     0.045 A   
ATOM     3   N2  UNL     1       1.306   2.187  -0.291  1.00  0.00    -0.210 N   
ATOM     4   N4  UNL     1       0.074   2.098   0.243  1.00  0.00    -0.076 NA  
ATOM     5   N5  UNL     1      -0.638   1.280  -0.514  1.00  0.00    -0.132 NA  
ATOM     6   H20 UNL     1       2.322   1.346  -1.987  1.00  0.00     0.083 HD  
ENDROOT
BRANCH   1   7
ATOM     7   C5  UNL     1      -0.383  -0.135  -2.535  1.00  0.00     0.120 C   
BRANCH   7   8
ATOM     8   C2  UNL     1      -0.958   0.496  -3.851  1.00  0.00     0.010 C   
ATOM     9   C1  UNL     1      -1.380  -0.618  -4.840  1.00  0.00     0.017 C   
ATOM     10  C3  UNL     1      -2.179   1.403  -3.587  1.00  0.00     0.017 C   
ATOM     11  C4  UNL     1       0.124   1.337  -4.565  1.00  0.00     0.017 C   
ENDBRANCH   7   8
BRANCH   7  12
ATOM     12  N1  UNL     1      -1.439  -0.966  -1.841  1.00  0.00     0.250 N   
ATOM     13  H11 UNL     1      -2.120  -1.363  -2.490  1.00  0.00     0.199 HD  
ATOM     14  H12 UNL     1      -1.970  -0.323  -1.236  1.00  0.00     0.199 HD  
BRANCH  12  15
ATOM     15  C6  UNL     1      -0.914  -2.056  -0.973  1.00  0.00     0.164 C   
BRANCH  15  16
ATOM     16  C7  UNL     1      -2.048  -2.828  -0.362  1.00  0.00    -0.002 A   
ATOM     17  C8  UNL     1      -2.690  -3.858  -1.097  1.00  0.00     0.012 A   
ATOM     18  C12 UNL     1      -2.517  -2.496   0.921  1.00  0.00     0.045 A   
ATOM     19  C9  UNL     1      -3.776  -4.556  -0.558  1.00  0.00     0.037 A   
ATOM     20  C11 UNL     1      -3.586  -3.211   1.425  1.00  0.00     0.109 A   
ATOM     21  C10 UNL     1      -4.198  -4.210   0.707  1.00  0.00     0.108 A   
ATOM     22  O1  UNL     1      -4.153  -3.030   2.646  1.00  0.00    -0.316 OA  
ATOM     23  O2  UNL     1      -5.227  -4.782   1.384  1.00  0.00    -0.316 OA  
ATOM     24  C13 UNL     1      -5.158  -4.069   2.639  1.00  0.00     0.337 C   
ENDBRANCH  15  16
ENDBRANCH  12  15
ENDBRANCH   7  12
ENDBRANCH   1   7
BRANCH   3  25
ATOM     25  C16 UNL     1       2.283   3.100   0.267  1.00  0.00     0.160 C   
BRANCH  25  26
ATOM     26  C17 UNL     1       2.992   2.557   1.518  1.00  0.00     0.128 C   
ATOM     27  N3  UNL     1       3.693   3.700   2.182  1.00  0.00    -0.307 NA  
ATOM     28  C23 UNL     1       3.990   1.485   1.190  1.00  0.00     0.080 A   
ATOM     29  C18 UNL     1       4.721   3.268   3.159  1.00  0.00     0.086 C   
ATOM     30  C20 UNL     1       5.291   1.390   1.641  1.00  0.00    -0.016 A   
ATOM     31  O3  UNL     1       3.655   0.401   0.447  1.00  0.00    -0.321 OA  
ATOM     32  C19 UNL     1       5.868   2.441   2.517  1.00  0.00     0.053 C   
ATOM     33  C21 UNL     1       5.802   0.181   1.128  1.00  0.00     0.032 A   
ATOM     34  C22 UNL     1       4.771  -0.384   0.404  1.00  0.00     0.136 A   
ATOM     35  H24 UNL     1       3.004   4.282   2.660  1.00  0.00     0.123 HD  
ENDBRANCH  25  26
ENDBRANCH   3  25
TORSDOF 7
