REMARK SMILES Cc1ccc(CCn2cc([C@@H]([NH2+]Cc3ccc4c(c3)OCO4)C(C)(C)C)nn2)cc1F
REMARK SMILES IDX 8 1 9 2 10 3 27 4 28 5 7 7 6 8 5 9 2 10 3 11 30 12 4 13
REMARK SMILES IDX 29 14 1 15 31 16 11 17 12 18 13 21 14 22 15 23 19 24 16 25
REMARK SMILES IDX 18 26 17 27 20 28 22 29 21 30 23 31 24 32 25 33 26 34
REMARK H PARENT 9 6 12 19 12 20
ROOT
ATOM     1   N1  UNL     1      -2.882   0.547  -0.695  1.00  0.00    -0.212 N   
ATOM     2   C8  UNL     1      -2.304   0.809   0.517  1.00  0.00     0.045 A   
ATOM     3   C9  UNL     1      -1.079   1.350   0.191  1.00  0.00     0.127 A   
ATOM     4   N3  UNL     1      -0.966   1.413  -1.175  1.00  0.00    -0.132 NA  
ATOM     5   N4  UNL     1      -2.076   0.923  -1.704  1.00  0.00    -0.076 NA  
ATOM     6   H10 UNL     1      -2.779   0.552   1.454  1.00  0.00     0.083 HD  
ENDROOT
BRANCH   1   7
ATOM     7   C7  UNL     1      -4.118  -0.165  -0.957  1.00  0.00     0.139 C   
BRANCH   7   8
ATOM     8   C6  UNL     1      -3.891  -1.592  -1.466  1.00  0.00     0.057 C   
BRANCH   8   9
ATOM     9   C5  UNL     1      -3.100  -2.440  -0.496  1.00  0.00    -0.043 A   
ATOM     10  C2  UNL     1      -1.585  -3.893   1.390  1.00  0.00    -0.015 A   
ATOM     11  C3  UNL     1      -2.978  -3.822   1.499  1.00  0.00     0.007 A   
ATOM     12  C24 UNL     1      -0.965  -3.229   0.332  1.00  0.00     0.126 A   
ATOM     13  C4  UNL     1      -3.730  -3.097   0.568  1.00  0.00     0.004 A   
ATOM     14  C23 UNL     1      -1.706  -2.526  -0.613  1.00  0.00     0.043 A   
ATOM     15  C1  UNL     1      -0.764  -4.647   2.392  1.00  0.00     0.047 C   
ATOM     16  F1  UNL     1       0.373  -3.221   0.234  1.00  0.00    -0.207 F   
ENDBRANCH   8   9
ENDBRANCH   7   8
ENDBRANCH   1   7
BRANCH   3  17
ATOM     17  C10 UNL     1       0.084   1.742   1.051  1.00  0.00     0.120 C   
BRANCH  17  18
ATOM     18  N2  UNL     1       1.364   1.300   0.380  1.00  0.00     0.250 N   
ATOM     19  H12 UNL     1       2.189   1.742   0.792  1.00  0.00     0.199 HD  
ATOM     20  H13 UNL     1       1.318   1.623  -0.598  1.00  0.00     0.199 HD  
BRANCH  18  21
ATOM     21  C11 UNL     1       1.589  -0.175   0.338  1.00  0.00     0.164 C   
BRANCH  21  22
ATOM     22  C12 UNL     1       2.937  -0.480  -0.251  1.00  0.00    -0.002 A   
ATOM     23  C13 UNL     1       3.084  -0.644  -1.649  1.00  0.00     0.012 A   
ATOM     24  C17 UNL     1       4.069  -0.552   0.578  1.00  0.00     0.045 A   
ATOM     25  C14 UNL     1       4.340  -0.893  -2.214  1.00  0.00     0.037 A   
ATOM     26  C16 UNL     1       5.293  -0.795  -0.012  1.00  0.00     0.109 A   
ATOM     27  C15 UNL     1       5.425  -0.962  -1.367  1.00  0.00     0.108 A   
ATOM     28  O1  UNL     1       6.480  -0.894   0.643  1.00  0.00    -0.316 OA  
ATOM     29  O2  UNL     1       6.712  -1.194  -1.738  1.00  0.00    -0.316 OA  
ATOM     30  C18 UNL     1       7.377  -1.174  -0.457  1.00  0.00     0.337 C   
ENDBRANCH  21  22
ENDBRANCH  18  21
ENDBRANCH  17  18
BRANCH  17  31
ATOM     31  C19 UNL     1       0.144   3.272   1.394  1.00  0.00     0.010 C   
ATOM     32  C20 UNL     1       1.274   3.550   2.413  1.00  0.00     0.017 C   
ATOM     33  C21 UNL     1       0.387   4.153   0.153  1.00  0.00     0.017 C   
ATOM     34  C22 UNL     1      -1.178   3.721   2.057  1.00  0.00     0.017 C   
ENDBRANCH  17  31
ENDBRANCH   3  17
TORSDOF 8
