REMARK SMILES CC(C)(C)[C@H]([NH2+]Cc1ccc2c(c1)OCO2)c1cn(-c2cccnc2)nn1
REMARK SMILES IDX 5 1 2 2 1 3 3 4 4 5 6 6 7 9 8 10 9 11 13 12 10 13 12 14
REMARK SMILES IDX 11 15 14 16 16 17 15 18 17 19 18 20 27 21 19 22 26 23 20 24
REMARK SMILES IDX 21 25 25 26 22 27 24 28 23 29
REMARK H PARENT 6 7 6 8
ROOT
ATOM     1   C5  UNL     1       2.196  -1.819  -1.246  1.00  0.00     0.120 C   
ENDROOT
BRANCH   1   2
ATOM     2   C2  UNL     1       3.233  -1.918  -2.418  1.00  0.00     0.010 C   
ATOM     3   C1  UNL     1       4.363  -0.883  -2.213  1.00  0.00     0.017 C   
ATOM     4   C3  UNL     1       3.898  -3.314  -2.423  1.00  0.00     0.017 C   
ATOM     5   C4  UNL     1       2.601  -1.676  -3.803  1.00  0.00     0.017 C   
ENDBRANCH   1   2
BRANCH   1   6
ATOM     6   N1  UNL     1       1.054  -2.801  -1.452  1.00  0.00     0.250 N   
ATOM     7   H11 UNL     1       0.307  -2.271  -1.930  1.00  0.00     0.199 HD  
ATOM     8   H12 UNL     1       1.318  -3.548  -2.099  1.00  0.00     0.199 HD  
BRANCH   6   9
ATOM     9   C6  UNL     1       0.474  -3.421  -0.221  1.00  0.00     0.164 C   
BRANCH   9  10
ATOM     10  C7  UNL     1      -0.186  -2.438   0.705  1.00  0.00    -0.002 A   
ATOM     11  C8  UNL     1      -1.437  -1.867   0.366  1.00  0.00     0.012 A   
ATOM     12  C12 UNL     1       0.464  -2.023   1.881  1.00  0.00     0.045 A   
ATOM     13  C9  UNL     1      -2.020  -0.880   1.169  1.00  0.00     0.037 A   
ATOM     14  C11 UNL     1      -0.132  -1.039   2.642  1.00  0.00     0.109 A   
ATOM     15  C10 UNL     1      -1.338  -0.482   2.296  1.00  0.00     0.108 A   
ATOM     16  O1  UNL     1       0.389  -0.488   3.770  1.00  0.00    -0.316 OA  
ATOM     17  O2  UNL     1      -1.735   0.480   3.168  1.00  0.00    -0.316 OA  
ATOM     18  C13 UNL     1      -0.654   0.453   4.124  1.00  0.00     0.337 C   
ENDBRANCH   9  10
ENDBRANCH   6   9
ENDBRANCH   1   6
BRANCH   1  19
ATOM     19  C14 UNL     1       1.615  -0.450  -1.051  1.00  0.00     0.128 A   
ATOM     20  C15 UNL     1       1.854   0.505  -0.087  1.00  0.00     0.135 A   
ATOM     21  N5  UNL     1       0.572  -0.043  -1.834  1.00  0.00    -0.131 NA  
ATOM     22  N2  UNL     1       0.876   1.460  -0.282  1.00  0.00    -0.179 N   
ATOM     23  N4  UNL     1       0.150   1.125  -1.379  1.00  0.00    -0.071 NA  
BRANCH  22  24
ATOM     24  C16 UNL     1       0.564   2.587   0.505  1.00  0.00     0.076 A   
ATOM     25  C17 UNL     1      -0.489   3.437   0.151  1.00  0.00     0.029 A   
ATOM     26  C20 UNL     1       1.267   2.871   1.669  1.00  0.00     0.136 A   
ATOM     27  C18 UNL     1      -0.792   4.524   0.967  1.00  0.00     0.022 A   
ATOM     28  N3  UNL     1       0.983   3.916   2.481  1.00  0.00    -0.263 NA  
ATOM     29  C19 UNL     1      -0.037   4.721   2.111  1.00  0.00     0.111 A   
ENDBRANCH  22  24
ENDBRANCH   1  19
TORSDOF 6
