REMARK SMILES CCc1ccc([C@H](O)Cn2cc([C@@H]([NH2+]Cc3ccc4c(c3)OCO4)C(C)(C)C)nn2)s1
REMARK SMILES IDX 10 1 11 2 12 3 29 4 30 5 9 7 7 8 6 9 3 10 4 11 31 12 5 13
REMARK SMILES IDX 2 14 1 15 8 16 13 18 14 19 15 22 16 23 17 24 21 25 18 26
REMARK SMILES IDX 20 27 19 28 22 29 24 30 23 31 25 32 26 33 27 34 28 35
REMARK H PARENT 11 6 8 17 14 20 14 21
ROOT
ATOM     1   N1  UNL     1       2.093  -0.917  -1.133  1.00  0.00    -0.209 N   
ATOM     2   C9  UNL     1       1.541  -1.590  -0.078  1.00  0.00     0.046 A   
ATOM     3   C10 UNL     1       0.557  -0.742   0.379  1.00  0.00     0.127 A   
ATOM     4   N3  UNL     1       0.596   0.422  -0.347  1.00  0.00    -0.132 NA  
ATOM     5   N4  UNL     1       1.557   0.312  -1.248  1.00  0.00    -0.076 NA  
ATOM     6   H12 UNL     1       1.867  -2.581   0.206  1.00  0.00     0.083 HD  
ENDROOT
BRANCH   1   7
ATOM     7   C8  UNL     1       3.171  -1.336  -2.005  1.00  0.00     0.171 C   
BRANCH   7   8
ATOM     8   C7  UNL     1       2.796  -2.460  -2.976  1.00  0.00     0.170 C   
BRANCH   8   9
ATOM     9   C6  UNL     1       1.570  -2.180  -3.798  1.00  0.00     0.020 A   
ATOM     10  C3  UNL     1       0.027  -1.315  -5.530  1.00  0.00    -0.011 A   
ATOM     11  C4  UNL     1      -0.613  -2.132  -4.622  1.00  0.00     0.012 A   
ATOM     12  S1  UNL     1       1.692  -1.164  -5.174  1.00  0.00    -0.096 S   
ATOM     13  C5  UNL     1       0.274  -2.628  -3.625  1.00  0.00     0.014 A   
BRANCH  10  14
ATOM     14  C2  UNL     1      -0.563  -0.607  -6.715  1.00  0.00     0.039 C   
ATOM     15  C1  UNL     1      -1.158   0.738  -6.326  1.00  0.00     0.009 C   
ENDBRANCH  10  14
ENDBRANCH   8   9
BRANCH   8  16
ATOM     16  O1  UNL     1       2.577  -3.679  -2.255  1.00  0.00    -0.386 OA  
ATOM     17  H9  UNL     1       2.461  -4.376  -2.928  1.00  0.00     0.211 HD  
ENDBRANCH   8  16
ENDBRANCH   7   8
ENDBRANCH   1   7
BRANCH   3  18
ATOM     18  C11 UNL     1      -0.423  -0.866   1.506  1.00  0.00     0.120 C   
BRANCH  18  19
ATOM     19  N2  UNL     1      -0.676   0.514   2.070  1.00  0.00     0.250 N   
ATOM     20  H14 UNL     1      -1.556   0.579   2.588  1.00  0.00     0.199 HD  
ATOM     21  H15 UNL     1      -0.777   1.143   1.258  1.00  0.00     0.199 HD  
BRANCH  19  22
ATOM     22  C12 UNL     1       0.420   1.068   2.912  1.00  0.00     0.164 C   
BRANCH  22  23
ATOM     23  C13 UNL     1       0.100   2.476   3.328  1.00  0.00    -0.002 A   
ATOM     24  C14 UNL     1      -0.532   2.734   4.568  1.00  0.00     0.012 A   
ATOM     25  C18 UNL     1       0.381   3.544   2.457  1.00  0.00     0.045 A   
ATOM     26  C15 UNL     1      -0.871   4.039   4.942  1.00  0.00     0.037 A   
ATOM     27  C17 UNL     1       0.035   4.817   2.858  1.00  0.00     0.109 A   
ATOM     28  C16 UNL     1      -0.574   5.058   4.065  1.00  0.00     0.108 A   
ATOM     29  O2  UNL     1       0.235   5.954   2.142  1.00  0.00    -0.316 OA  
ATOM     30  O3  UNL     1      -0.831   6.377   4.262  1.00  0.00    -0.316 OA  
ATOM     31  C19 UNL     1      -0.294   6.947   3.049  1.00  0.00     0.337 C   
ENDBRANCH  22  23
ENDBRANCH  19  22
ENDBRANCH  18  19
BRANCH  18  32
ATOM     32  C20 UNL     1      -1.779  -1.546   1.104  1.00  0.00     0.010 C   
ATOM     33  C21 UNL     1      -2.567  -0.727   0.062  1.00  0.00     0.017 C   
ATOM     34  C22 UNL     1      -1.521  -2.953   0.519  1.00  0.00     0.017 C   
ATOM     35  C23 UNL     1      -2.675  -1.740   2.350  1.00  0.00     0.017 C   
ENDBRANCH  18  32
ENDBRANCH   3  18
TORSDOF 10
