REMARK SMILES CCc1ccc([C@@H](O)Cn2cc([C@@H]([NH2+]Cc3ccc4c(c3)OCO4)C(C)(C)C)nn2)s1
REMARK SMILES IDX 10 1 11 2 12 3 29 4 30 5 9 7 7 8 6 9 3 10 4 11 31 12 5 13
REMARK SMILES IDX 2 14 1 15 8 16 13 18 14 19 15 22 16 23 17 24 21 25 18 26
REMARK SMILES IDX 20 27 19 28 22 29 24 30 23 31 25 32 26 33 27 34 28 35
REMARK H PARENT 11 6 8 17 14 20 14 21
ROOT
ATOM     1   N1  UNL     1       0.776  -1.137   1.405  1.00  0.00    -0.209 N   
ATOM     2   C9  UNL     1       1.399  -0.342   0.484  1.00  0.00     0.046 A   
ATOM     3   C10 UNL     1       1.011   0.934   0.823  1.00  0.00     0.127 A   
ATOM     4   N3  UNL     1       0.201   0.878   1.928  1.00  0.00    -0.132 NA  
ATOM     5   N4  UNL     1       0.065  -0.390   2.273  1.00  0.00    -0.076 NA  
ATOM     6   H12 UNL     1       2.020  -0.747  -0.304  1.00  0.00     0.083 HD  
ENDROOT
BRANCH   1   7
ATOM     7   C8  UNL     1       0.846  -2.573   1.572  1.00  0.00     0.171 C   
BRANCH   7   8
ATOM     8   C7  UNL     1       0.506  -3.400   0.327  1.00  0.00     0.170 C   
BRANCH   8   9
ATOM     9   C6  UNL     1      -0.752  -2.984  -0.390  1.00  0.00     0.020 A   
ATOM     10  C3  UNL     1      -3.126  -2.589  -0.978  1.00  0.00    -0.011 A   
ATOM     11  C4  UNL     1      -2.268  -2.207  -1.987  1.00  0.00     0.012 A   
ATOM     12  S1  UNL     1      -2.274  -3.213   0.367  1.00  0.00    -0.096 S   
ATOM     13  C5  UNL     1      -0.903  -2.432  -1.649  1.00  0.00     0.014 A   
BRANCH  10  14
ATOM     14  C2  UNL     1      -4.625  -2.524  -0.964  1.00  0.00     0.039 C   
ATOM     15  C1  UNL     1      -5.249  -3.787  -1.540  1.00  0.00     0.009 C   
ENDBRANCH  10  14
ENDBRANCH   8   9
BRANCH   8  16
ATOM     16  O1  UNL     1       1.589  -3.333  -0.608  1.00  0.00    -0.386 OA  
ATOM     17  H9  UNL     1       1.426  -4.034  -1.268  1.00  0.00     0.211 HD  
ENDBRANCH   8  16
ENDBRANCH   7   8
ENDBRANCH   1   7
BRANCH   3  18
ATOM     18  C11 UNL     1       1.260   2.254   0.160  1.00  0.00     0.120 C   
BRANCH  18  19
ATOM     19  N2  UNL     1       0.027   3.126   0.317  1.00  0.00     0.250 N   
ATOM     20  H14 UNL     1      -0.194   3.125   1.323  1.00  0.00     0.199 HD  
ATOM     21  H15 UNL     1       0.218   4.091   0.043  1.00  0.00     0.199 HD  
BRANCH  19  22
ATOM     22  C12 UNL     1      -1.211   2.667  -0.386  1.00  0.00     0.164 C   
BRANCH  22  23
ATOM     23  C13 UNL     1      -1.086   2.707  -1.883  1.00  0.00    -0.002 A   
ATOM     24  C14 UNL     1      -1.132   3.937  -2.579  1.00  0.00     0.012 A   
ATOM     25  C18 UNL     1      -0.892   1.514  -2.599  1.00  0.00     0.045 A   
ATOM     26  C15 UNL     1      -0.986   3.980  -3.970  1.00  0.00     0.037 A   
ATOM     27  C17 UNL     1      -0.750   1.590  -3.968  1.00  0.00     0.109 A   
ATOM     28  C16 UNL     1      -0.796   2.788  -4.635  1.00  0.00     0.108 A   
ATOM     29  O2  UNL     1      -0.553   0.536  -4.803  1.00  0.00    -0.316 OA  
ATOM     30  O3  UNL     1      -0.635   2.641  -5.976  1.00  0.00    -0.316 OA  
ATOM     31  C19 UNL     1      -0.498   1.208  -6.082  1.00  0.00     0.337 C   
ENDBRANCH  22  23
ENDBRANCH  19  22
ENDBRANCH  18  19
BRANCH  18  32
ATOM     32  C20 UNL     1       2.530   3.011   0.692  1.00  0.00     0.010 C   
ATOM     33  C21 UNL     1       3.786   2.124   0.530  1.00  0.00     0.017 C   
ATOM     34  C22 UNL     1       2.778   4.293  -0.136  1.00  0.00     0.017 C   
ATOM     35  C23 UNL     1       2.409   3.410   2.176  1.00  0.00     0.017 C   
ENDBRANCH  18  32
ENDBRANCH   3  18
TORSDOF 10
