REMARK SMILES COc1cccnc1Cn1cc([C@@H]([NH2+]Cc2ccc3c(c2)OCO3)C(C)(C)C)nn1
REMARK SMILES IDX 10 1 11 2 12 3 29 4 30 5 9 7 8 8 3 9 4 10 5 11 7 12 6 13
REMARK SMILES IDX 2 14 1 15 13 16 14 17 15 20 16 21 17 22 21 23 18 24 20 25
REMARK SMILES IDX 19 26 22 27 24 28 23 29 25 30 26 31 27 32 28 33
REMARK H PARENT 11 6 14 18 14 19
ROOT
ATOM     1   N2  UNL     1       1.511   0.950  -2.490  1.00  0.00    -0.206 N   
ATOM     2   C8  UNL     1       1.656  -0.339  -2.050  1.00  0.00     0.046 A   
ATOM     3   C9  UNL     1       0.451  -0.628  -1.454  1.00  0.00     0.127 A   
ATOM     4   N4  UNL     1      -0.369   0.469  -1.543  1.00  0.00    -0.132 NA  
ATOM     5   N5  UNL     1       0.286   1.423  -2.182  1.00  0.00    -0.076 NA  
ATOM     6   H9  UNL     1       2.577  -0.889  -2.189  1.00  0.00     0.083 HD  
ENDROOT
BRANCH   1   7
ATOM     7   C7  UNL     1       2.462   1.753  -3.235  1.00  0.00     0.192 C   
BRANCH   7   8
ATOM     8   C6  UNL     1       3.575   2.220  -2.334  1.00  0.00     0.090 A   
ATOM     9   C2  UNL     1       3.523   3.471  -1.705  1.00  0.00     0.098 A   
ATOM     10  C3  UNL     1       4.595   3.834  -0.890  1.00  0.00     0.037 A   
ATOM     11  C4  UNL     1       5.668   2.960  -0.727  1.00  0.00     0.023 A   
ATOM     12  N1  UNL     1       4.610   1.346  -2.164  1.00  0.00    -0.257 NA  
ATOM     13  C5  UNL     1       5.633   1.742  -1.377  1.00  0.00     0.111 A   
BRANCH   9  14
ATOM     14  O1  UNL     1       2.417   4.238  -1.942  1.00  0.00    -0.347 OA  
ATOM     15  C1  UNL     1       2.393   5.546  -1.381  1.00  0.00     0.203 C   
ENDBRANCH   9  14
ENDBRANCH   7   8
ENDBRANCH   1   7
BRANCH   3  16
ATOM     16  C10 UNL     1      -0.020  -1.838  -0.706  1.00  0.00     0.120 C   
BRANCH  16  17
ATOM     17  N3  UNL     1      -0.895  -1.380   0.439  1.00  0.00     0.250 N   
ATOM     18  H11 UNL     1      -1.493  -2.124   0.802  1.00  0.00     0.199 HD  
ATOM     19  H12 UNL     1      -1.529  -0.664   0.050  1.00  0.00     0.199 HD  
BRANCH  17  20
ATOM     20  C11 UNL     1      -0.170  -0.746   1.576  1.00  0.00     0.164 C   
BRANCH  20  21
ATOM     21  C12 UNL     1      -1.144  -0.268   2.616  1.00  0.00    -0.002 A   
ATOM     22  C13 UNL     1      -1.479  -1.089   3.718  1.00  0.00     0.012 A   
ATOM     23  C17 UNL     1      -1.768   0.983   2.467  1.00  0.00     0.045 A   
ATOM     24  C14 UNL     1      -2.416  -0.668   4.668  1.00  0.00     0.037 A   
ATOM     25  C16 UNL     1      -2.688   1.367   3.421  1.00  0.00     0.109 A   
ATOM     26  C15 UNL     1      -3.002   0.566   4.490  1.00  0.00     0.108 A   
ATOM     27  O2  UNL     1      -3.378   2.537   3.428  1.00  0.00    -0.316 OA  
ATOM     28  O3  UNL     1      -3.929   1.131   5.307  1.00  0.00    -0.316 OA  
ATOM     29  C18 UNL     1      -4.154   2.391   4.639  1.00  0.00     0.337 C   
ENDBRANCH  20  21
ENDBRANCH  17  20
ENDBRANCH  16  17
BRANCH  16  30
ATOM     30  C19 UNL     1      -0.781  -2.887  -1.590  1.00  0.00     0.010 C   
ATOM     31  C20 UNL     1      -1.099  -4.155  -0.764  1.00  0.00     0.017 C   
ATOM     32  C21 UNL     1       0.109  -3.334  -2.772  1.00  0.00     0.017 C   
ATOM     33  C22 UNL     1      -2.104  -2.337  -2.160  1.00  0.00     0.017 C   
ENDBRANCH  16  30
ENDBRANCH   3  16
TORSDOF 8
