REMARK SMILES O=C1c2ccccc2C(=O)c2cc(-n3cc([C@@H]([NH2+]Cc4ccc5c(c4)OCO5)C4CCCCC4)nn3)ccc21
REMARK SMILES IDX 17 1 16 2 14 3 15 4 36 5 35 6 13 7 2 8 3 9 39 10 4 11 8 12
REMARK SMILES IDX 11 13 38 14 5 15 7 16 9 17 12 18 37 19 6 20 1 21 10 22 18 23
REMARK SMILES IDX 19 26 20 27 21 28 25 29 22 30 24 31 23 32 26 33 28 34 27 35
REMARK SMILES IDX 29 36 30 37 34 38 31 39 33 40 32 41
REMARK H PARENT 18 24 18 25
ROOT
ATOM     1   C14 UNL     1      -2.271   0.360   0.962  1.00  0.00     0.117 C   
ENDROOT
BRANCH   1   2
ATOM     2   C13 UNL     1      -0.866   0.350   1.479  1.00  0.00     0.127 A   
ATOM     3   N1  UNL     1       1.296   0.265   1.817  1.00  0.00    -0.181 N   
ATOM     4   C12 UNL     1       0.337   0.186   0.827  1.00  0.00     0.135 A   
ATOM     5   N4  UNL     1       0.675   0.432   3.013  1.00  0.00    -0.071 NA  
ATOM     6   N3  UNL     1      -0.631   0.496   2.816  1.00  0.00    -0.131 NA  
BRANCH   3   7
ATOM     7   C11 UNL     1       2.707   0.180   1.708  1.00  0.00     0.058 A   
ATOM     8   C1  UNL     1       6.978  -0.078   1.431  1.00  0.00     0.194 C   
ATOM     9   C2  UNL     1       7.609  -0.267   0.109  1.00  0.00     0.034 A   
ATOM     10  C31 UNL     1       5.507   0.016   1.519  1.00  0.00     0.034 A   
ATOM     11  C3  UNL     1       9.004  -0.346   0.011  1.00  0.00     0.013 A   
ATOM     12  C7  UNL     1       6.824  -0.366  -1.041  1.00  0.00     0.034 A   
ATOM     13  C9  UNL     1       4.723  -0.092   0.374  1.00  0.00     0.036 A   
ATOM     14  C30 UNL     1       4.896   0.210   2.763  1.00  0.00     0.015 A   
ATOM     15  C4  UNL     1       9.607  -0.523  -1.235  1.00  0.00     0.001 A   
ATOM     16  C6  UNL     1       7.431  -0.541  -2.291  1.00  0.00     0.013 A   
ATOM     17  C8  UNL     1       5.352  -0.294  -0.946  1.00  0.00     0.194 C   
ATOM     18  C10 UNL     1       3.322  -0.012   0.463  1.00  0.00     0.039 A   
ATOM     19  C29 UNL     1       3.502   0.292   2.858  1.00  0.00     0.027 A   
ATOM     20  C5  UNL     1       8.821  -0.618  -2.385  1.00  0.00     0.001 A   
ATOM     21  O1  UNL     1       7.660  -0.001   2.446  1.00  0.00    -0.289 OA  
ATOM     22  O2  UNL     1       4.647  -0.404  -1.943  1.00  0.00    -0.289 OA  
ENDBRANCH   3   7
ENDBRANCH   1   2
BRANCH   1  23
ATOM     23  N2  UNL     1      -3.241  -0.134   2.011  1.00  0.00     0.249 N   
ATOM     24  H8  UNL     1      -4.206   0.059   1.731  1.00  0.00     0.199 HD  
ATOM     25  H9  UNL     1      -3.058   0.412   2.865  1.00  0.00     0.199 HD  
BRANCH  23  26
ATOM     26  C15 UNL     1      -3.137  -1.577   2.392  1.00  0.00     0.164 C   
BRANCH  26  27
ATOM     27  C16 UNL     1      -3.350  -2.516   1.238  1.00  0.00    -0.002 A   
ATOM     28  C17 UNL     1      -2.276  -3.309   0.763  1.00  0.00     0.012 A   
ATOM     29  C21 UNL     1      -4.601  -2.594   0.601  1.00  0.00     0.045 A   
ATOM     30  C18 UNL     1      -2.440  -4.160  -0.336  1.00  0.00     0.037 A   
ATOM     31  C20 UNL     1      -4.726  -3.440  -0.483  1.00  0.00     0.109 A   
ATOM     32  C19 UNL     1      -3.677  -4.199  -0.940  1.00  0.00     0.108 A   
ATOM     33  O3  UNL     1      -5.856  -3.620  -1.216  1.00  0.00    -0.316 OA  
ATOM     34  O4  UNL     1      -4.015  -4.954  -2.017  1.00  0.00    -0.316 OA  
ATOM     35  C22 UNL     1      -5.404  -4.595  -2.183  1.00  0.00     0.337 C   
ENDBRANCH  26  27
ENDBRANCH  23  26
ENDBRANCH   1  23
BRANCH   1  36
ATOM     36  C23 UNL     1      -2.693   1.770   0.459  1.00  0.00     0.043 C   
ATOM     37  C24 UNL     1      -2.817   2.829   1.573  1.00  0.00     0.010 C   
ATOM     38  C28 UNL     1      -3.996   1.719  -0.367  1.00  0.00     0.010 C   
ATOM     39  C25 UNL     1      -3.184   4.200   1.007  1.00  0.00     0.001 C   
ATOM     40  C27 UNL     1      -4.361   3.092  -0.929  1.00  0.00     0.001 C   
ATOM     41  C26 UNL     1      -4.459   4.143   0.172  1.00  0.00     0.000 C   
ENDBRANCH   1  36
TORSDOF 6
