REMARK SMILES c1cc(-n2cc([C@@H]([NH2+]Cc3ccc4c(c3)OCO4)C3CCCC3)nn2)c2cn[nH]c2c1
REMARK SMILES IDX 7 1 6 2 4 3 5 4 25 5 24 6 3 7 1 8 2 9 31 10 30 11 26 12
REMARK SMILES IDX 29 13 27 14 28 15 8 17 9 20 10 21 11 22 15 23 12 24 14 25
REMARK SMILES IDX 13 26 16 27 18 28 17 29 19 30 20 31 23 32 21 33 22 34
REMARK H PARENT 29 16 8 18 8 19
ROOT
ATOM     1   C6  UNL     1      -0.139   1.199  -1.528  1.00  0.00     0.117 C   
ENDROOT
BRANCH   1   2
ATOM     2   C5  UNL     1      -0.006   1.525  -0.074  1.00  0.00     0.127 A   
ATOM     3   N1  UNL     1       0.472   2.283   1.929  1.00  0.00    -0.180 N   
ATOM     4   C4  UNL     1       0.748   2.470   0.585  1.00  0.00     0.135 A   
ATOM     5   N4  UNL     1      -0.402   1.252   2.046  1.00  0.00    -0.071 NA  
ATOM     6   N3  UNL     1      -0.704   0.795   0.843  1.00  0.00    -0.131 NA  
BRANCH   3   7
ATOM     7   C3  UNL     1       0.980   2.982   3.051  1.00  0.00     0.068 A   
ATOM     8   C1  UNL     1       2.403   4.747   3.971  1.00  0.00     0.004 A   
ATOM     9   C2  UNL     1       1.885   4.051   2.876  1.00  0.00     0.027 A   
ATOM     10  C23 UNL     1       2.043   4.412   5.276  1.00  0.00     0.026 A   
ATOM     11  C22 UNL     1       1.144   3.355   5.438  1.00  0.00     0.058 A   
ATOM     12  C20 UNL     1       0.604   2.634   4.373  1.00  0.00     0.041 A   
ATOM     13  N6  UNL     1       0.608   2.802   6.574  1.00  0.00    -0.238 N   
ATOM     14  C21 UNL     1      -0.236   1.683   5.009  1.00  0.00     0.143 A   
ATOM     15  N5  UNL     1      -0.229   1.781   6.339  1.00  0.00    -0.192 NA  
ATOM     16  H24 UNL     1       0.775   3.076   7.536  1.00  0.00     0.176 HD  
ENDBRANCH   3   7
ENDBRANCH   1   2
BRANCH   1  17
ATOM     17  N2  UNL     1      -0.657  -0.204  -1.704  1.00  0.00     0.249 N   
ATOM     18  H5  UNL     1      -1.121  -0.337  -2.609  1.00  0.00     0.199 HD  
ATOM     19  H6  UNL     1      -1.386  -0.345  -0.987  1.00  0.00     0.199 HD  
BRANCH  17  20
ATOM     20  C7  UNL     1       0.351  -1.283  -1.514  1.00  0.00     0.164 C   
BRANCH  20  21
ATOM     21  C8  UNL     1      -0.303  -2.633  -1.596  1.00  0.00    -0.002 A   
ATOM     22  C9  UNL     1      -0.355  -3.335  -2.824  1.00  0.00     0.012 A   
ATOM     23  C13 UNL     1      -0.916  -3.183  -0.455  1.00  0.00     0.045 A   
ATOM     24  C10 UNL     1      -0.996  -4.575  -2.914  1.00  0.00     0.037 A   
ATOM     25  C12 UNL     1      -1.538  -4.408  -0.580  1.00  0.00     0.109 A   
ATOM     26  C11 UNL     1      -1.578  -5.085  -1.774  1.00  0.00     0.108 A   
ATOM     27  O1  UNL     1      -2.172  -5.078   0.418  1.00  0.00    -0.316 OA  
ATOM     28  O2  UNL     1      -2.240  -6.267  -1.678  1.00  0.00    -0.316 OA  
ATOM     29  C14 UNL     1      -2.591  -6.273  -0.277  1.00  0.00     0.337 C   
ENDBRANCH  20  21
ENDBRANCH  17  20
ENDBRANCH   1  17
BRANCH   1  30
ATOM     30  C15 UNL     1      -1.052   2.202  -2.262  1.00  0.00     0.043 C   
ATOM     31  C16 UNL     1      -1.059   2.045  -3.796  1.00  0.00     0.010 C   
ATOM     32  C19 UNL     1      -2.532   2.186  -1.851  1.00  0.00     0.010 C   
ATOM     33  C17 UNL     1      -2.523   2.118  -4.225  1.00  0.00     0.001 C   
ATOM     34  C18 UNL     1      -3.239   2.779  -3.059  1.00  0.00     0.001 C   
ENDBRANCH   1  30
TORSDOF 6
