REMARK SMILES CCn1cc(CCn2cc([C@H](CC(C)C)[NH2+]Cc3ccc4c(c3)OCO4)nn2)cn1
REMARK SMILES IDX 8 1 9 2 10 3 27 4 28 5 7 7 6 8 5 9 3 10 4 11 30 12 29 13
REMARK SMILES IDX 2 14 1 15 11 16 12 17 13 18 14 19 15 20 16 21 17 24 18 25
REMARK SMILES IDX 19 26 23 27 20 28 22 29 21 30 24 31 26 32 25 33
REMARK H PARENT 9 6 16 22 16 23
ROOT
ATOM     1   N2  UNL     1       3.790  -0.379   0.381  1.00  0.00    -0.212 N   
ATOM     2   C7  UNL     1       2.646  -0.696   1.071  1.00  0.00     0.045 A   
ATOM     3   C8  UNL     1       1.809  -1.190   0.094  1.00  0.00     0.127 A   
ATOM     4   N4  UNL     1       2.509  -1.309  -1.081  1.00  0.00    -0.132 NA  
ATOM     5   N5  UNL     1       3.727  -0.832  -0.885  1.00  0.00    -0.076 NA  
ATOM     6   H11 UNL     1       2.489  -0.394   2.096  1.00  0.00     0.083 HD  
ENDROOT
BRANCH   1   7
ATOM     7   C6  UNL     1       4.753   0.649   0.738  1.00  0.00     0.139 C   
BRANCH   7   8
ATOM     8   C5  UNL     1       4.451   1.998   0.052  1.00  0.00     0.060 C   
BRANCH   8   9
ATOM     9   C4  UNL     1       3.007   2.378   0.158  1.00  0.00    -0.011 A   
ATOM     10  N1  UNL     1       1.007   2.916   0.890  1.00  0.00    -0.233 N   
ATOM     11  C3  UNL     1       2.334   2.937   1.220  1.00  0.00     0.101 A   
ATOM     12  N6  UNL     1       0.760   2.279  -0.286  1.00  0.00    -0.190 NA  
ATOM     13  C22 UNL     1       1.991   2.123  -0.794  1.00  0.00     0.136 A   
BRANCH  10  14
ATOM     14  C2  UNL     1      -0.080   3.419   1.711  1.00  0.00     0.128 C   
ATOM     15  C1  UNL     1      -0.457   2.442   2.811  1.00  0.00     0.027 C   
ENDBRANCH  10  14
ENDBRANCH   8   9
ENDBRANCH   7   8
ENDBRANCH   1   7
BRANCH   3  16
ATOM     16  C9  UNL     1       0.328  -1.410   0.093  1.00  0.00     0.114 C   
BRANCH  16  17
ATOM     17  C10 UNL     1      -0.030  -2.861  -0.285  1.00  0.00     0.064 C   
BRANCH  17  18
ATOM     18  C11 UNL     1       0.534  -3.936   0.671  1.00  0.00    -0.012 C   
ATOM     19  C12 UNL     1       0.178  -5.330   0.147  1.00  0.00     0.007 C   
ATOM     20  C13 UNL     1       0.011  -3.772   2.100  1.00  0.00     0.007 C   
ENDBRANCH  17  18
ENDBRANCH  16  17
BRANCH  16  21
ATOM     21  N3  UNL     1      -0.248  -0.442  -0.915  1.00  0.00     0.249 N   
ATOM     22  H22 UNL     1       0.008   0.521  -0.607  1.00  0.00     0.199 HD  
ATOM     23  H23 UNL     1       0.293  -0.563  -1.781  1.00  0.00     0.199 HD  
BRANCH  21  24
ATOM     24  C14 UNL     1      -1.693  -0.448  -1.232  1.00  0.00     0.164 C   
BRANCH  24  25
ATOM     25  C15 UNL     1      -2.567   0.029  -0.106  1.00  0.00    -0.002 A   
ATOM     26  C16 UNL     1      -3.170  -0.887   0.788  1.00  0.00     0.012 A   
ATOM     27  C20 UNL     1      -2.783   1.406   0.070  1.00  0.00     0.045 A   
ATOM     28  C17 UNL     1      -3.970  -0.441   1.846  1.00  0.00     0.037 A   
ATOM     29  C19 UNL     1      -3.582   1.813   1.119  1.00  0.00     0.109 A   
ATOM     30  C18 UNL     1      -4.156   0.916   1.984  1.00  0.00     0.108 A   
ATOM     31  O1  UNL     1      -3.877   3.102   1.434  1.00  0.00    -0.316 OA  
ATOM     32  O2  UNL     1      -4.892   1.525   2.949  1.00  0.00    -0.316 OA  
ATOM     33  C21 UNL     1      -4.756   2.910   2.566  1.00  0.00     0.337 C   
ENDBRANCH  24  25
ENDBRANCH  21  24
ENDBRANCH  16  21
ENDBRANCH   3  16
TORSDOF 10
