REMARK SMILES c1cncc(Cn2cc([C@@H]([NH2+]Cc3ccc4c(c3)OCO4)C3CCCCC3)nn2)c1
REMARK SMILES IDX 10 1 9 2 7 3 8 4 29 5 28 6 6 8 5 9 1 10 2 11 30 12 3 13 4 14
REMARK SMILES IDX 11 15 12 18 13 19 14 20 18 21 15 22 17 23 16 24 19 25 21 26
REMARK SMILES IDX 20 27 22 28 23 29 27 30 24 31 26 32 25 33
REMARK H PARENT 8 7 11 16 11 17
ROOT
ATOM     1   C8  UNL     1       0.301  -1.089  -0.986  1.00  0.00     0.117 C   
ENDROOT
BRANCH   1   2
ATOM     2   C7  UNL     1       0.960  -1.033   0.359  1.00  0.00     0.127 A   
ATOM     3   N2  UNL     1       2.240  -1.087   2.104  1.00  0.00    -0.208 N   
ATOM     4   C6  UNL     1       2.213  -1.427   0.778  1.00  0.00     0.046 A   
ATOM     5   N5  UNL     1       1.056  -0.574   2.491  1.00  0.00    -0.076 NA  
ATOM     6   N4  UNL     1       0.274  -0.511   1.427  1.00  0.00    -0.132 NA  
ATOM     7   H6  UNL     1       3.062  -1.869   0.275  1.00  0.00     0.083 HD  
BRANCH   3   8
ATOM     8   C5  UNL     1       3.330  -1.239   3.051  1.00  0.00     0.171 C   
BRANCH   8   9
ATOM     9   C4  UNL     1       4.256  -0.061   2.991  1.00  0.00    -0.010 A   
ATOM     10  C1  UNL     1       4.857   2.200   3.586  1.00  0.00     0.020 A   
ATOM     11  C2  UNL     1       5.967   2.070   2.769  1.00  0.00     0.111 A   
ATOM     12  C23 UNL     1       3.987   1.119   3.693  1.00  0.00     0.008 A   
ATOM     13  N1  UNL     1       6.253   0.951   2.069  1.00  0.00    -0.264 NA  
ATOM     14  C3  UNL     1       5.401  -0.087   2.201  1.00  0.00     0.116 A   
ENDBRANCH   8   9
ENDBRANCH   3   8
ENDBRANCH   1   2
BRANCH   1  15
ATOM     15  N3  UNL     1      -1.183  -0.878  -0.851  1.00  0.00     0.249 N   
ATOM     16  H8  UNL     1      -1.612  -0.544  -1.717  1.00  0.00     0.199 HD  
ATOM     17  H9  UNL     1      -1.311  -0.124  -0.158  1.00  0.00     0.199 HD  
BRANCH  15  18
ATOM     18  C9  UNL     1      -1.952  -2.055  -0.358  1.00  0.00     0.164 C   
BRANCH  18  19
ATOM     19  C10 UNL     1      -3.387  -1.678  -0.128  1.00  0.00    -0.002 A   
ATOM     20  C11 UNL     1      -3.781  -1.117   1.112  1.00  0.00     0.012 A   
ATOM     21  C15 UNL     1      -4.332  -1.817  -1.158  1.00  0.00     0.045 A   
ATOM     22  C12 UNL     1      -5.102  -0.711   1.328  1.00  0.00     0.037 A   
ATOM     23  C14 UNL     1      -5.626  -1.405  -0.910  1.00  0.00     0.109 A   
ATOM     24  C13 UNL     1      -6.000  -0.867   0.297  1.00  0.00     0.108 A   
ATOM     25  O1  UNL     1      -6.655  -1.463  -1.795  1.00  0.00    -0.316 OA  
ATOM     26  O2  UNL     1      -7.313  -0.520   0.325  1.00  0.00    -0.316 OA  
ATOM     27  C16 UNL     1      -7.732  -0.917  -0.999  1.00  0.00     0.337 C   
ENDBRANCH  18  19
ENDBRANCH  15  18
ENDBRANCH   1  15
BRANCH   1  28
ATOM     28  C17 UNL     1       0.905  -0.056  -1.976  1.00  0.00     0.043 C   
ATOM     29  C18 UNL     1       0.620   1.411  -1.598  1.00  0.00     0.010 C   
ATOM     30  C22 UNL     1       0.465  -0.330  -3.428  1.00  0.00     0.010 C   
ATOM     31  C19 UNL     1       1.266   2.382  -2.586  1.00  0.00     0.001 C   
ATOM     32  C21 UNL     1       1.110   0.648  -4.409  1.00  0.00     0.001 C   
ATOM     33  C20 UNL     1       0.834   2.096  -4.020  1.00  0.00     0.000 C   
ENDBRANCH   1  28
TORSDOF 7
