REMARK SMILES CC(C)[C@H]([NH2+]Cc1ccc2c(c1)OCO2)c1cn(CCc2cncn2C)nn1
REMARK SMILES IDX 16 1 17 2 18 3 27 4 28 5 4 7 2 8 1 9 3 10 5 11 6 14 7 15
REMARK SMILES IDX 8 16 12 17 9 18 11 19 10 20 13 21 15 22 14 23 19 24 20 25
REMARK SMILES IDX 21 26 22 27 25 28 23 29 24 30 26 31
REMARK H PARENT 17 6 5 12 5 13
ROOT
ATOM     1   C13 UNL     1       2.033   0.656  -0.950  1.00  0.00     0.127 A   
ATOM     2   C14 UNL     1       2.206   0.419   0.400  1.00  0.00     0.045 A   
ATOM     3   N2  UNL     1       3.156  -0.570   0.432  1.00  0.00    -0.212 N   
ATOM     4   N5  UNL     1       3.679  -0.771  -0.788  1.00  0.00    -0.076 NA  
ATOM     5   N6  UNL     1       2.985  -0.040  -1.647  1.00  0.00    -0.132 NA  
ATOM     6   H18 UNL     1       1.659   0.716   1.283  1.00  0.00     0.083 HD  
ENDROOT
BRANCH   1   7
ATOM     7   C4  UNL     1       0.946   1.375  -1.688  1.00  0.00     0.117 C   
BRANCH   7   8
ATOM     8   C2  UNL     1       1.074   2.921  -1.665  1.00  0.00     0.037 C   
ATOM     9   C1  UNL     1       0.949   3.561  -0.278  1.00  0.00     0.014 C   
ATOM     10  C3  UNL     1       2.382   3.378  -2.325  1.00  0.00     0.014 C   
ENDBRANCH   7   8
BRANCH   7  11
ATOM     11  N1  UNL     1      -0.411   0.939  -1.194  1.00  0.00     0.249 N   
ATOM     12  H9  UNL     1      -0.636   1.378  -0.298  1.00  0.00     0.199 HD  
ATOM     13  H10 UNL     1      -0.377  -0.075  -0.955  1.00  0.00     0.199 HD  
BRANCH  11  14
ATOM     14  C5  UNL     1      -1.545   1.083  -2.141  1.00  0.00     0.164 C   
BRANCH  14  15
ATOM     15  C6  UNL     1      -2.862   1.003  -1.420  1.00  0.00    -0.002 A   
ATOM     16  C7  UNL     1      -3.455   2.175  -0.889  1.00  0.00     0.012 A   
ATOM     17  C11 UNL     1      -3.488  -0.239  -1.220  1.00  0.00     0.045 A   
ATOM     18  C8  UNL     1      -4.658   2.113  -0.177  1.00  0.00     0.037 A   
ATOM     19  C10 UNL     1      -4.672  -0.265  -0.513  1.00  0.00     0.109 A   
ATOM     20  C9  UNL     1      -5.241   0.877  -0.007  1.00  0.00     0.108 A   
ATOM     21  O1  UNL     1      -5.398  -1.377  -0.224  1.00  0.00    -0.316 OA  
ATOM     22  O2  UNL     1      -6.399   0.630   0.658  1.00  0.00    -0.316 OA  
ATOM     23  C12 UNL     1      -6.521  -0.798   0.477  1.00  0.00     0.337 C   
ENDBRANCH  14  15
ENDBRANCH  11  14
ENDBRANCH   7  11
ENDBRANCH   1   7
BRANCH   3  24
ATOM     24  C15 UNL     1       3.339  -1.557   1.483  1.00  0.00     0.140 C   
BRANCH  24  25
ATOM     25  C16 UNL     1       2.526  -2.846   1.237  1.00  0.00     0.074 C   
BRANCH  25  26
ATOM     26  C17 UNL     1       1.101  -2.554   0.872  1.00  0.00     0.030 A   
ATOM     27  C18 UNL     1       0.549  -2.329  -0.374  1.00  0.00     0.131 A   
ATOM     28  N4  UNL     1       0.061  -2.361   1.745  1.00  0.00    -0.297 N   
ATOM     29  N3  UNL     1      -0.688  -1.745  -0.257  1.00  0.00    -0.248 NA  
ATOM     30  C19 UNL     1      -0.993  -1.872   1.020  1.00  0.00     0.188 A   
ATOM     31  C20 UNL     1       0.060  -2.602   3.168  1.00  0.00     0.137 C   
ENDBRANCH  25  26
ENDBRANCH  24  25
ENDBRANCH   3  24
TORSDOF 8
