REMARK SMILES c1ccc(-n2cccn2)c(Cn2cc([C@@H]([NH2+]Cc3ccc4c(c3)OCO4)C3CCCC3)nn2)c1
REMARK SMILES IDX 12 1 13 2 14 3 32 4 33 5 11 7 10 8 1 9 2 10 34 11 3 12 4 13
REMARK SMILES IDX 5 14 6 15 9 16 7 17 8 18 15 19 16 20 17 23 18 24 19 25 23 26
REMARK SMILES IDX 20 27 22 28 21 29 24 30 26 31 25 32 27 33 28 34 31 35 29 36
REMARK SMILES IDX 30 37
REMARK H PARENT 13 6 16 21 16 22
ROOT
ATOM     1   N3  UNL     1      -0.441  -1.266   2.125  1.00  0.00    -0.208 N   
ATOM     2   C10 UNL     1       0.019  -1.075   0.851  1.00  0.00     0.046 A   
ATOM     3   C11 UNL     1       1.116  -0.261   1.008  1.00  0.00     0.127 A   
ATOM     4   N5  UNL     1       1.329  -0.039   2.342  1.00  0.00    -0.132 NA  
ATOM     5   N6  UNL     1       0.387  -0.677   3.018  1.00  0.00    -0.076 NA  
ATOM     6   H9  UNL     1      -0.492  -1.480  -0.012  1.00  0.00     0.083 HD  
ENDROOT
BRANCH   1   7
ATOM     7   C9  UNL     1      -1.583  -2.054   2.562  1.00  0.00     0.171 C   
BRANCH   7   8
ATOM     8   C8  UNL     1      -2.569  -1.253   3.391  1.00  0.00    -0.005 A   
ATOM     9   C1  UNL     1      -3.216  -0.639   5.679  1.00  0.00     0.000 A   
ATOM     10  C2  UNL     1      -4.293   0.081   5.188  1.00  0.00     0.002 A   
ATOM     11  C26 UNL     1      -2.367  -1.296   4.792  1.00  0.00     0.007 A   
ATOM     12  C3  UNL     1      -4.515   0.151   3.812  1.00  0.00     0.026 A   
ATOM     13  C4  UNL     1      -3.664  -0.500   2.893  1.00  0.00     0.061 A   
BRANCH  13  14
ATOM     14  N1  UNL     1      -3.953  -0.361   1.496  1.00  0.00    -0.201 N   
ATOM     15  C5  UNL     1      -5.079   0.191   0.914  1.00  0.00     0.103 A   
ATOM     16  N2  UNL     1      -3.072  -0.753   0.537  1.00  0.00    -0.185 NA  
ATOM     17  C6  UNL     1      -4.925   0.116  -0.449  1.00  0.00     0.039 A   
ATOM     18  C7  UNL     1      -3.676  -0.484  -0.622  1.00  0.00     0.133 A   
ENDBRANCH  13  14
ENDBRANCH   7   8
ENDBRANCH   1   7
BRANCH   3  19
ATOM     19  C12 UNL     1       1.975   0.425   0.002  1.00  0.00     0.117 C   
BRANCH  19  20
ATOM     20  N4  UNL     1       2.183   1.868   0.417  1.00  0.00     0.249 N   
ATOM     21  H11 UNL     1       2.561   1.836   1.374  1.00  0.00     0.199 HD  
ATOM     22  H12 UNL     1       2.883   2.316  -0.178  1.00  0.00     0.199 HD  
BRANCH  20  23
ATOM     23  C13 UNL     1       0.959   2.726   0.456  1.00  0.00     0.164 C   
BRANCH  23  24
ATOM     24  C14 UNL     1       0.340   2.926  -0.899  1.00  0.00    -0.002 A   
ATOM     25  C15 UNL     1       0.956   3.771  -1.853  1.00  0.00     0.012 A   
ATOM     26  C19 UNL     1      -0.842   2.242  -1.240  1.00  0.00     0.045 A   
ATOM     27  C16 UNL     1       0.408   3.931  -3.130  1.00  0.00     0.037 A   
ATOM     28  C18 UNL     1      -1.353   2.418  -2.509  1.00  0.00     0.109 A   
ATOM     29  C17 UNL     1      -0.746   3.239  -3.426  1.00  0.00     0.108 A   
ATOM     30  O1  UNL     1      -2.473   1.826  -3.002  1.00  0.00    -0.316 OA  
ATOM     31  O2  UNL     1      -1.408   3.272  -4.611  1.00  0.00    -0.316 OA  
ATOM     32  C20 UNL     1      -2.521   2.398  -4.329  1.00  0.00     0.337 C   
ENDBRANCH  23  24
ENDBRANCH  20  23
ENDBRANCH  19  20
BRANCH  19  33
ATOM     33  C21 UNL     1       3.357  -0.244  -0.134  1.00  0.00     0.043 C   
ATOM     34  C22 UNL     1       3.284  -1.691  -0.633  1.00  0.00     0.010 C   
ATOM     35  C25 UNL     1       4.270   0.406  -1.181  1.00  0.00     0.010 C   
ATOM     36  C23 UNL     1       4.715  -1.995  -1.050  1.00  0.00     0.001 C   
ATOM     37  C24 UNL     1       5.270  -0.677  -1.583  1.00  0.00     0.001 C   
ENDBRANCH  19  33
ENDBRANCH   3  19
TORSDOF 8
