REMARK SMILES CC(C)C[C@H]([NH2+]Cc1ccc2c(c1)OCO2)c1cn(CCc2nc[nH]n2)nn1
REMARK SMILES IDX 17 1 18 2 19 3 27 4 28 5 5 7 4 8 2 9 1 10 3 11 6 12 7 15
REMARK SMILES IDX 8 16 9 17 13 18 10 19 12 20 11 21 14 22 16 23 15 24 20 25
REMARK SMILES IDX 21 26 22 27 23 28 26 29 24 30 25 31
REMARK H PARENT 18 6 6 13 6 14 25 32
ROOT
ATOM     1   C14 UNL     1      -0.636   0.151  -0.497  1.00  0.00     0.127 A   
ATOM     2   C15 UNL     1       0.120  -0.156  -1.606  1.00  0.00     0.045 A   
ATOM     3   N2  UNL     1      -0.736   0.055  -2.651  1.00  0.00    -0.212 N   
ATOM     4   N6  UNL     1      -1.907   0.558  -2.221  1.00  0.00    -0.076 NA  
ATOM     5   N7  UNL     1      -1.861   0.617  -0.900  1.00  0.00    -0.132 NA  
ATOM     6   H20 UNL     1       1.118  -0.549  -1.746  1.00  0.00     0.083 HD  
ENDROOT
BRANCH   1   7
ATOM     7   C5  UNL     1      -0.318   0.086   0.956  1.00  0.00     0.114 C   
BRANCH   7   8
ATOM     8   C4  UNL     1      -0.905  -1.171   1.627  1.00  0.00     0.064 C   
BRANCH   8   9
ATOM     9   C2  UNL     1      -0.381  -2.515   1.083  1.00  0.00    -0.012 C   
ATOM     10  C1  UNL     1      -1.084  -3.671   1.800  1.00  0.00     0.007 C   
ATOM     11  C3  UNL     1       1.131  -2.658   1.238  1.00  0.00     0.007 C   
ENDBRANCH   8   9
ENDBRANCH   7   8
BRANCH   7  12
ATOM     12  N1  UNL     1      -0.918   1.283   1.670  1.00  0.00     0.249 N   
ATOM     13  H11 UNL     1      -1.909   1.312   1.389  1.00  0.00     0.199 HD  
ATOM     14  H12 UNL     1      -0.893   1.139   2.684  1.00  0.00     0.199 HD  
BRANCH  12  15
ATOM     15  C6  UNL     1      -0.325   2.615   1.345  1.00  0.00     0.164 C   
BRANCH  15  16
ATOM     16  C7  UNL     1       1.091   2.755   1.832  1.00  0.00    -0.002 A   
ATOM     17  C8  UNL     1       2.169   2.684   0.918  1.00  0.00     0.012 A   
ATOM     18  C12 UNL     1       1.355   2.916   3.204  1.00  0.00     0.045 A   
ATOM     19  C9  UNL     1       3.495   2.762   1.361  1.00  0.00     0.037 A   
ATOM     20  C11 UNL     1       2.673   2.991   3.606  1.00  0.00     0.109 A   
ATOM     21  C10 UNL     1       3.713   2.912   2.712  1.00  0.00     0.108 A   
ATOM     22  O1  UNL     1       3.099   3.136   4.888  1.00  0.00    -0.316 OA  
ATOM     23  O2  UNL     1       4.925   2.992   3.318  1.00  0.00    -0.316 OA  
ATOM     24  C13 UNL     1       4.531   3.198   4.692  1.00  0.00     0.337 C   
ENDBRANCH  15  16
ENDBRANCH  12  15
ENDBRANCH   7  12
ENDBRANCH   1   7
BRANCH   3  25
ATOM     25  C16 UNL     1      -0.514  -0.204  -4.058  1.00  0.00     0.142 C   
BRANCH  25  26
ATOM     26  C17 UNL     1      -0.919  -1.618  -4.455  1.00  0.00     0.100 C   
BRANCH  26  27
ATOM     27  C18 UNL     1      -0.028  -2.657  -3.877  1.00  0.00     0.149 A   
ATOM     28  N3  UNL     1       1.338  -2.531  -3.856  1.00  0.00    -0.223 NA  
ATOM     29  N5  UNL     1      -0.491  -3.787  -3.332  1.00  0.00    -0.168 NA  
ATOM     30  C19 UNL     1       1.734  -3.675  -3.346  1.00  0.00     0.205 A   
ATOM     31  N4  UNL     1       0.649  -4.437  -3.043  1.00  0.00    -0.226 N   
ATOM     32  H26 UNL     1       0.601  -5.376  -2.659  1.00  0.00     0.177 HD  
ENDBRANCH  26  27
ENDBRANCH  25  26
ENDBRANCH   3  25
TORSDOF 9
