REMARK SMILES Cc1cc(-n2cc([C@@H]([NH2+]Cc3ccc4c(c3)OCO4)C(C)C)nn2)n(C)n1
REMARK SMILES IDX 8 1 7 2 5 3 6 4 24 5 23 6 4 7 2 8 3 9 27 10 25 11 1 12 26 13
REMARK SMILES IDX 9 14 10 17 11 18 12 19 16 20 13 21 15 22 14 23 17 24 19 25
REMARK SMILES IDX 18 26 20 27 21 28 22 29
REMARK H PARENT 9 15 9 16
ROOT
ATOM     1   C7  UNL     1       1.343  -0.330   0.367  1.00  0.00     0.117 C   
ENDROOT
BRANCH   1   2
ATOM     2   C6  UNL     1       0.395  -1.035  -0.555  1.00  0.00     0.127 A   
ATOM     3   N1  UNL     1      -0.638  -2.248  -2.050  1.00  0.00    -0.165 N   
ATOM     4   C5  UNL     1       0.612  -1.978  -1.534  1.00  0.00     0.137 A   
ATOM     5   N4  UNL     1      -1.554  -1.480  -1.421  1.00  0.00    -0.070 NA  
ATOM     6   N3  UNL     1      -0.943  -0.750  -0.502  1.00  0.00    -0.131 NA  
BRANCH   3   7
ATOM     7   C4  UNL     1      -1.009  -3.121  -3.052  1.00  0.00     0.135 A   
ATOM     8   C2  UNL     1      -1.045  -4.629  -4.675  1.00  0.00     0.059 A   
ATOM     9   C3  UNL     1      -0.186  -3.956  -3.780  1.00  0.00     0.069 A   
ATOM     10  N6  UNL     1      -2.313  -4.240  -4.519  1.00  0.00    -0.185 NA  
ATOM     11  N5  UNL     1      -2.279  -3.333  -3.524  1.00  0.00    -0.213 N   
ATOM     12  C1  UNL     1      -0.698  -5.647  -5.697  1.00  0.00     0.068 C   
ATOM     13  C19 UNL     1      -3.532  -2.744  -3.106  1.00  0.00     0.161 C   
ENDBRANCH   3   7
ENDBRANCH   1   2
BRANCH   1  14
ATOM     14  N2  UNL     1       0.701   0.902   0.947  1.00  0.00     0.249 N   
ATOM     15  H7  UNL     1      -0.266   0.646   1.201  1.00  0.00     0.199 HD  
ATOM     16  H8  UNL     1       1.152   1.203   1.816  1.00  0.00     0.199 HD  
BRANCH  14  17
ATOM     17  C8  UNL     1       0.614   2.071   0.027  1.00  0.00     0.164 C   
BRANCH  17  18
ATOM     18  C9  UNL     1      -0.207   3.163   0.651  1.00  0.00    -0.002 A   
ATOM     19  C10 UNL     1      -1.608   3.198   0.451  1.00  0.00     0.012 A   
ATOM     20  C14 UNL     1       0.398   4.117   1.487  1.00  0.00     0.045 A   
ATOM     21  C11 UNL     1      -2.397   4.175   1.065  1.00  0.00     0.037 A   
ATOM     22  C13 UNL     1      -0.410   5.065   2.080  1.00  0.00     0.109 A   
ATOM     23  C12 UNL     1      -1.768   5.094   1.875  1.00  0.00     0.108 A   
ATOM     24  O1  UNL     1       0.009   6.047   2.920  1.00  0.00    -0.316 OA  
ATOM     25  O2  UNL     1      -2.373   6.103   2.554  1.00  0.00    -0.316 OA  
ATOM     26  C15 UNL     1      -1.242   6.707   3.219  1.00  0.00     0.337 C   
ENDBRANCH  17  18
ENDBRANCH  14  17
ENDBRANCH   1  14
BRANCH   1  27
ATOM     27  C16 UNL     1       1.847  -1.257   1.505  1.00  0.00     0.037 C   
ATOM     28  C17 UNL     1       0.760  -1.647   2.514  1.00  0.00     0.014 C   
ATOM     29  C18 UNL     1       3.046  -0.650   2.244  1.00  0.00     0.014 C   
ENDBRANCH   1  27
TORSDOF 6
