REMARK SMILES Cc1nc2ccc(-n3cc([C@H](CC(C)C)[NH2+]Cc4ccc5c(c4)OCO5)nn3)cc2[nH]1
REMARK SMILES IDX 11 1 10 2 8 3 9 4 28 5 27 6 7 7 2 8 3 9 31 10 4 11 30 12
REMARK SMILES IDX 5 13 29 14 6 15 1 16 12 18 13 19 14 20 15 21 16 22 17 25
REMARK SMILES IDX 18 26 19 27 23 28 20 29 22 30 21 31 24 32 26 33 25 34
REMARK H PARENT 31 17 16 23 16 24
ROOT
ATOM     1   C9  UNL     1       1.783   0.842  -0.108  1.00  0.00     0.114 C   
ENDROOT
BRANCH   1   2
ATOM     2   C8  UNL     1       0.912   0.168  -1.116  1.00  0.00     0.127 A   
ATOM     3   N2  UNL     1      -0.684  -0.743  -2.309  1.00  0.00    -0.181 N   
ATOM     4   C7  UNL     1      -0.452  -0.013  -1.159  1.00  0.00     0.135 A   
ATOM     5   N5  UNL     1       0.510  -1.006  -2.902  1.00  0.00    -0.071 NA  
ATOM     6   N4  UNL     1       1.478  -0.449  -2.194  1.00  0.00    -0.131 NA  
BRANCH   3   7
ATOM     7   C6  UNL     1      -1.912  -1.213  -2.841  1.00  0.00     0.060 A   
ATOM     8   C2  UNL     1      -4.837  -3.345  -5.595  1.00  0.00     0.096 A   
ATOM     9   N1  UNL     1      -5.376  -2.741  -4.556  1.00  0.00    -0.236 NA  
ATOM     10  N6  UNL     1      -3.474  -3.180  -5.604  1.00  0.00    -0.302 N   
ATOM     11  C3  UNL     1      -4.333  -2.169  -3.877  1.00  0.00     0.086 A   
ATOM     12  C23 UNL     1      -3.125  -2.429  -4.508  1.00  0.00     0.059 A   
ATOM     13  C4  UNL     1      -4.343  -1.405  -2.703  1.00  0.00     0.032 A   
ATOM     14  C22 UNL     1      -1.892  -1.972  -4.030  1.00  0.00     0.052 A   
ATOM     15  C5  UNL     1      -3.125  -0.930  -2.190  1.00  0.00     0.028 A   
ATOM     16  C1  UNL     1      -5.554  -4.122  -6.635  1.00  0.00     0.085 C   
ATOM     17  H27 UNL     1      -2.842  -3.548  -6.300  1.00  0.00     0.154 HD  
ENDBRANCH   3   7
ENDBRANCH   1   2
BRANCH   1  18
ATOM     18  C10 UNL     1       2.193   2.265  -0.537  1.00  0.00     0.064 C   
BRANCH  18  19
ATOM     19  C11 UNL     1       1.032   3.271  -0.684  1.00  0.00    -0.012 C   
ATOM     20  C12 UNL     1       0.256   3.464   0.620  1.00  0.00     0.007 C   
ATOM     21  C13 UNL     1       1.579   4.620  -1.161  1.00  0.00     0.007 C   
ENDBRANCH  18  19
ENDBRANCH   1  18
BRANCH   1  22
ATOM     22  N3  UNL     1       3.070   0.061   0.085  1.00  0.00     0.249 N   
ATOM     23  H17 UNL     1       3.489  -0.052  -0.849  1.00  0.00     0.199 HD  
ATOM     24  H18 UNL     1       3.728   0.608   0.647  1.00  0.00     0.199 HD  
BRANCH  22  25
ATOM     25  C14 UNL     1       2.942  -1.304   0.681  1.00  0.00     0.164 C   
BRANCH  25  26
ATOM     26  C15 UNL     1       2.374  -1.291   2.073  1.00  0.00    -0.002 A   
ATOM     27  C16 UNL     1       1.070  -1.787   2.314  1.00  0.00     0.012 A   
ATOM     28  C20 UNL     1       3.121  -0.761   3.140  1.00  0.00     0.045 A   
ATOM     29  C17 UNL     1       0.512  -1.751   3.596  1.00  0.00     0.037 A   
ATOM     30  C19 UNL     1       2.540  -0.740   4.391  1.00  0.00     0.109 A   
ATOM     31  C18 UNL     1       1.273  -1.220   4.614  1.00  0.00     0.108 A   
ATOM     32  O1  UNL     1       3.120  -0.259   5.522  1.00  0.00    -0.316 OA  
ATOM     33  O2  UNL     1       0.895  -1.102   5.913  1.00  0.00    -0.316 OA  
ATOM     34  C21 UNL     1       2.083  -0.523   6.496  1.00  0.00     0.337 C   
ENDBRANCH  25  26
ENDBRANCH  22  25
ENDBRANCH   1  22
TORSDOF 7
