REMARK SMILES COc1ccc(Cn2cc([C@@H]([NH2+]Cc3ccc4c(c3)OCO4)C3CCCCC3)nn2)c(F)c1
REMARK SMILES IDX 8 1 9 2 10 3 29 4 30 5 7 7 6 8 3 9 4 10 33 11 5 12 31 13
REMARK SMILES IDX 32 14 2 15 1 16 11 17 12 18 13 21 14 22 15 23 19 24 16 25
REMARK SMILES IDX 18 26 17 27 20 28 22 29 21 30 23 31 24 32 28 33 25 34 27 35
REMARK SMILES IDX 26 36
REMARK H PARENT 9 6 12 19 12 20
ROOT
ATOM     1   N1  UNL     1      -0.664   2.659  -2.246  1.00  0.00    -0.208 N   
ATOM     2   C7  UNL     1      -0.137   1.438  -2.569  1.00  0.00     0.046 A   
ATOM     3   C8  UNL     1       0.253   0.911  -1.358  1.00  0.00     0.127 A   
ATOM     4   N3  UNL     1       0.009   1.833  -0.371  1.00  0.00    -0.132 NA  
ATOM     5   N4  UNL     1      -0.523   2.907  -0.929  1.00  0.00    -0.076 NA  
ATOM     6   H8  UNL     1      -0.146   1.055  -3.582  1.00  0.00     0.083 HD  
ENDROOT
BRANCH   1   7
ATOM     7   C6  UNL     1      -1.316   3.619  -3.120  1.00  0.00     0.172 C   
BRANCH   7   8
ATOM     8   C5  UNL     1      -2.803   3.397  -3.145  1.00  0.00     0.007 A   
ATOM     9   C2  UNL     1      -5.575   2.892  -3.146  1.00  0.00     0.077 A   
ATOM     10  C3  UNL     1      -5.053   3.956  -2.409  1.00  0.00     0.034 A   
ATOM     11  C25 UNL     1      -4.712   2.089  -3.891  1.00  0.00     0.073 A   
ATOM     12  C4  UNL     1      -3.674   4.206  -2.405  1.00  0.00     0.011 A   
ATOM     13  C24 UNL     1      -3.345   2.345  -3.887  1.00  0.00     0.130 A   
ATOM     14  F1  UNL     1      -2.532   1.547  -4.595  1.00  0.00    -0.207 F   
BRANCH   9  15
ATOM     15  O1  UNL     1      -6.891   2.532  -3.217  1.00  0.00    -0.349 OA  
ATOM     16  C1  UNL     1      -7.816   3.304  -2.460  1.00  0.00     0.203 C   
ENDBRANCH   9  15
ENDBRANCH   7   8
ENDBRANCH   1   7
BRANCH   3  17
ATOM     17  C9  UNL     1       0.831  -0.424  -0.998  1.00  0.00     0.117 C   
BRANCH  17  18
ATOM     18  N2  UNL     1       1.277  -0.422   0.439  1.00  0.00     0.249 N   
ATOM     19  H10 UNL     1       0.578   0.135   0.955  1.00  0.00     0.199 HD  
ATOM     20  H11 UNL     1       1.262  -1.354   0.862  1.00  0.00     0.199 HD  
BRANCH  18  21
ATOM     21  C10 UNL     1       2.601   0.207   0.694  1.00  0.00     0.164 C   
BRANCH  21  22
ATOM     22  C11 UNL     1       2.800   0.414   2.169  1.00  0.00    -0.002 A   
ATOM     23  C12 UNL     1       2.319   1.596   2.783  1.00  0.00     0.012 A   
ATOM     24  C16 UNL     1       3.398  -0.583   2.958  1.00  0.00     0.045 A   
ATOM     25  C13 UNL     1       2.441   1.791   4.162  1.00  0.00     0.037 A   
ATOM     26  C15 UNL     1       3.502  -0.358   4.315  1.00  0.00     0.109 A   
ATOM     27  C14 UNL     1       3.038   0.794   4.902  1.00  0.00     0.108 A   
ATOM     28  O2  UNL     1       4.046  -1.217   5.218  1.00  0.00    -0.316 OA  
ATOM     29  O3  UNL     1       3.236   0.806   6.247  1.00  0.00    -0.316 OA  
ATOM     30  C17 UNL     1       3.932  -0.444   6.434  1.00  0.00     0.337 C   
ENDBRANCH  21  22
ENDBRANCH  18  21
ENDBRANCH  17  18
BRANCH  17  31
ATOM     31  C18 UNL     1      -0.173  -1.583  -1.249  1.00  0.00     0.043 C   
ATOM     32  C19 UNL     1       0.518  -2.960  -1.189  1.00  0.00     0.010 C   
ATOM     33  C23 UNL     1      -1.399  -1.559  -0.314  1.00  0.00     0.010 C   
ATOM     34  C20 UNL     1      -0.458  -4.092  -1.505  1.00  0.00     0.001 C   
ATOM     35  C22 UNL     1      -2.369  -2.697  -0.629  1.00  0.00     0.001 C   
ATOM     36  C21 UNL     1      -1.678  -4.056  -0.591  1.00  0.00     0.000 C   
ENDBRANCH  17  31
ENDBRANCH   3  17
TORSDOF 8
