REMARK SMILES Cc1ccc(F)c([C@H](CO)n2cc([C@@H]([NH2+]Cc3ccc4c(c3)OCO4)C(C)(C)C)nn2)c1
REMARK SMILES IDX 11 1 12 2 13 3 30 4 31 5 8 7 7 8 2 9 3 10 32 11 4 12 5 13
REMARK SMILES IDX 1 14 6 15 9 16 10 17 14 19 15 20 16 23 17 24 18 25 22 26
REMARK SMILES IDX 19 27 21 28 20 29 23 30 25 31 24 32 26 33 27 34 28 35 29 36
REMARK H PARENT 12 6 10 18 15 21 15 22
ROOT
ATOM     1   N1  UNL     1      -0.627  -1.451   0.301  1.00  0.00    -0.202 N   
ATOM     2   C9  UNL     1      -0.606  -0.235  -0.327  1.00  0.00     0.046 A   
ATOM     3   C10 UNL     1       0.177  -0.446  -1.439  1.00  0.00     0.127 A   
ATOM     4   N3  UNL     1       0.597  -1.752  -1.456  1.00  0.00    -0.132 NA  
ATOM     5   N4  UNL     1       0.113  -2.351  -0.382  1.00  0.00    -0.075 NA  
ATOM     6   H10 UNL     1      -1.104   0.635   0.081  1.00  0.00     0.083 HD  
ENDROOT
BRANCH   1   7
ATOM     7   C7  UNL     1      -1.241  -1.778   1.589  1.00  0.00     0.158 C   
BRANCH   7   8
ATOM     8   C6  UNL     1      -0.157  -1.933   2.639  1.00  0.00     0.013 A   
ATOM     9   C2  UNL     1       1.505  -3.244   3.861  1.00  0.00    -0.051 A   
ATOM     10  C3  UNL     1       1.884  -2.099   4.572  1.00  0.00     0.006 A   
ATOM     11  C24 UNL     1       0.497  -3.150   2.886  1.00  0.00     0.012 A   
ATOM     12  C4  UNL     1       1.257  -0.881   4.323  1.00  0.00     0.040 A   
ATOM     13  C5  UNL     1       0.255  -0.808   3.362  1.00  0.00     0.128 A   
ATOM     14  C1  UNL     1       2.215  -4.551   4.098  1.00  0.00     0.044 C   
ATOM     15  F1  UNL     1      -0.309   0.381   3.110  1.00  0.00    -0.207 F   
ENDBRANCH   7   8
BRANCH   7  16
ATOM     16  C8  UNL     1      -2.214  -2.964   1.469  1.00  0.00     0.186 C   
BRANCH  16  17
ATOM     17  O1  UNL     1      -3.406  -2.543   0.803  1.00  0.00    -0.394 OA  
ATOM     18  H9  UNL     1      -4.025  -3.296   0.811  1.00  0.00     0.210 HD  
ENDBRANCH  16  17
ENDBRANCH   7  16
ENDBRANCH   1   7
BRANCH   3  19
ATOM     19  C11 UNL     1       0.670   0.513  -2.477  1.00  0.00     0.120 C   
BRANCH  19  20
ATOM     20  N2  UNL     1       2.143   0.263  -2.744  1.00  0.00     0.250 N   
ATOM     21  H12 UNL     1       2.475   0.859  -3.504  1.00  0.00     0.199 HD  
ATOM     22  H13 UNL     1       2.224  -0.714  -3.056  1.00  0.00     0.199 HD  
BRANCH  20  23
ATOM     23  C12 UNL     1       3.072   0.418  -1.578  1.00  0.00     0.164 C   
BRANCH  23  24
ATOM     24  C13 UNL     1       2.974   1.754  -0.894  1.00  0.00    -0.002 A   
ATOM     25  C14 UNL     1       2.466   1.837   0.428  1.00  0.00     0.012 A   
ATOM     26  C18 UNL     1       3.352   2.930  -1.563  1.00  0.00     0.045 A   
ATOM     27  C15 UNL     1       2.312   3.072   1.064  1.00  0.00     0.037 A   
ATOM     28  C17 UNL     1       3.195   4.131  -0.903  1.00  0.00     0.109 A   
ATOM     29  C16 UNL     1       2.688   4.202   0.372  1.00  0.00     0.108 A   
ATOM     30  O2  UNL     1       3.502   5.354  -1.409  1.00  0.00    -0.316 OA  
ATOM     31  O3  UNL     1       2.608   5.477   0.825  1.00  0.00    -0.316 OA  
ATOM     32  C19 UNL     1       3.183   6.202  -0.284  1.00  0.00     0.337 C   
ENDBRANCH  23  24
ENDBRANCH  20  23
ENDBRANCH  19  20
BRANCH  19  33
ATOM     33  C20 UNL     1      -0.142   0.480  -3.822  1.00  0.00     0.010 C   
ATOM     34  C21 UNL     1      -1.641   0.733  -3.538  1.00  0.00     0.017 C   
ATOM     35  C22 UNL     1       0.335   1.609  -4.765  1.00  0.00     0.017 C   
ATOM     36  C23 UNL     1      -0.014  -0.860  -4.572  1.00  0.00     0.017 C   
ENDBRANCH  19  33
ENDBRANCH   3  19
TORSDOF 9
