REMARK SMILES Cc1ccc(F)c([C@@H](CO)n2cc([C@@H]([NH2+]Cc3ccc4c(c3)OCO4)C(C)(C)C)nn2)c1
REMARK SMILES IDX 11 1 12 2 13 3 30 4 31 5 8 7 7 8 2 9 3 10 32 11 4 12 5 13
REMARK SMILES IDX 1 14 6 15 9 16 10 17 14 19 15 20 16 23 17 24 18 25 22 26
REMARK SMILES IDX 19 27 21 28 20 29 23 30 25 31 24 32 26 33 27 34 28 35 29 36
REMARK H PARENT 12 6 10 18 15 21 15 22
ROOT
ATOM     1   N1  UNL     1      -1.987  -0.483   0.135  1.00  0.00    -0.202 N   
ATOM     2   C9  UNL     1      -1.158  -1.296  -0.593  1.00  0.00     0.046 A   
ATOM     3   C10 UNL     1       0.085  -1.106  -0.031  1.00  0.00     0.127 A   
ATOM     4   N3  UNL     1      -0.009  -0.169   0.964  1.00  0.00    -0.132 NA  
ATOM     5   N4  UNL     1      -1.272   0.212   1.051  1.00  0.00    -0.075 NA  
ATOM     6   H10 UNL     1      -1.516  -1.920  -1.399  1.00  0.00     0.083 HD  
ENDROOT
BRANCH   1   7
ATOM     7   C7  UNL     1      -3.433  -0.277   0.032  1.00  0.00     0.158 C   
BRANCH   7   8
ATOM     8   C6  UNL     1      -3.729   0.976  -0.772  1.00  0.00     0.013 A   
ATOM     9   C2  UNL     1      -4.592   3.260  -0.877  1.00  0.00    -0.051 A   
ATOM     10  C3  UNL     1      -4.314   3.296  -2.248  1.00  0.00     0.006 A   
ATOM     11  C24 UNL     1      -4.308   2.095  -0.150  1.00  0.00     0.012 A   
ATOM     12  C4  UNL     1      -3.735   2.195  -2.878  1.00  0.00     0.040 A   
ATOM     13  C5  UNL     1      -3.446   1.054  -2.140  1.00  0.00     0.128 A   
ATOM     14  C1  UNL     1      -5.245   4.436  -0.208  1.00  0.00     0.044 C   
ATOM     15  F1  UNL     1      -2.886   0.009  -2.767  1.00  0.00    -0.207 F   
ENDBRANCH   7   8
BRANCH   7  16
ATOM     16  C8  UNL     1      -4.211  -1.500  -0.498  1.00  0.00     0.186 C   
BRANCH  16  17
ATOM     17  O1  UNL     1      -4.066  -2.615   0.381  1.00  0.00    -0.394 OA  
ATOM     18  H9  UNL     1      -4.704  -3.297   0.091  1.00  0.00     0.210 HD  
ENDBRANCH  16  17
ENDBRANCH   7  16
ENDBRANCH   1   7
BRANCH   3  19
ATOM     19  C11 UNL     1       1.425  -1.677  -0.379  1.00  0.00     0.120 C   
BRANCH  19  20
ATOM     20  N2  UNL     1       2.475  -0.615  -0.155  1.00  0.00     0.250 N   
ATOM     21  H12 UNL     1       3.420  -1.002  -0.087  1.00  0.00     0.199 HD  
ATOM     22  H13 UNL     1       2.271  -0.191   0.764  1.00  0.00     0.199 HD  
BRANCH  20  23
ATOM     23  C12 UNL     1       2.484   0.496  -1.149  1.00  0.00     0.164 C   
BRANCH  23  24
ATOM     24  C13 UNL     1       3.601   1.455  -0.847  1.00  0.00    -0.002 A   
ATOM     25  C14 UNL     1       4.847   1.333  -1.506  1.00  0.00     0.012 A   
ATOM     26  C18 UNL     1       3.432   2.445   0.138  1.00  0.00     0.045 A   
ATOM     27  C15 UNL     1       5.911   2.189  -1.198  1.00  0.00     0.037 A   
ATOM     28  C17 UNL     1       4.501   3.271   0.420  1.00  0.00     0.109 A   
ATOM     29  C16 UNL     1       5.705   3.147  -0.229  1.00  0.00     0.108 A   
ATOM     30  O2  UNL     1       4.509   4.269   1.343  1.00  0.00    -0.316 OA  
ATOM     31  O3  UNL     1       6.621   4.053   0.199  1.00  0.00    -0.316 OA  
ATOM     32  C19 UNL     1       5.856   4.774   1.190  1.00  0.00     0.337 C   
ENDBRANCH  23  24
ENDBRANCH  20  23
ENDBRANCH  19  20
BRANCH  19  33
ATOM     33  C20 UNL     1       1.793  -2.983   0.411  1.00  0.00     0.010 C   
ATOM     34  C21 UNL     1       3.118  -3.578  -0.121  1.00  0.00     0.017 C   
ATOM     35  C22 UNL     1       1.950  -2.738   1.926  1.00  0.00     0.017 C   
ATOM     36  C23 UNL     1       0.703  -4.060   0.204  1.00  0.00     0.017 C   
ENDBRANCH  19  33
ENDBRANCH   3  19
TORSDOF 9
