REMARK SMILES CCc1c(C)[nH]c(C(=O)n2cc([C@@H]([NH2+]Cc3ccc4c(c3)OCO4)C3CCCCC3)nn2)c1C
REMARK SMILES IDX 10 1 11 2 12 3 31 4 32 5 8 6 9 7 7 8 3 9 4 10 33 11 6 12
REMARK SMILES IDX 5 13 34 14 2 16 1 17 13 18 14 19 15 22 16 23 17 24 21 25
REMARK SMILES IDX 18 26 20 27 19 28 22 29 24 30 23 31 25 32 26 33 30 34 27 35
REMARK SMILES IDX 29 36 28 37
REMARK H PARENT 6 15 14 20 14 21
ROOT
ATOM     1   N2  UNL     1       1.512   0.918  -0.272  1.00  0.00    -0.142 N   
ATOM     2   C8  UNL     1       0.865   0.415  -1.391  1.00  0.00     0.139 A   
ATOM     3   C9  UNL     1      -0.371   0.009  -0.941  1.00  0.00     0.128 A   
ATOM     4   N4  UNL     1      -0.452   0.249   0.402  1.00  0.00    -0.131 NA  
ATOM     5   N5  UNL     1       0.686   0.794   0.801  1.00  0.00    -0.068 NA  
ENDROOT
BRANCH   1   6
ATOM     6   C7  UNL     1       2.819   1.448  -0.172  1.00  0.00     0.285 C   
ATOM     7   O1  UNL     1       3.449   1.433  -1.227  1.00  0.00    -0.268 OA  
BRANCH   6   8
ATOM     8   C6  UNL     1       3.377   1.959   1.079  1.00  0.00     0.099 A   
ATOM     9   C3  UNL     1       4.731   2.829   2.702  1.00  0.00    -0.026 A   
ATOM     10  C4  UNL     1       3.470   2.631   3.236  1.00  0.00     0.007 A   
ATOM     11  C25 UNL     1       4.681   2.383   1.338  1.00  0.00    -0.020 A   
ATOM     12  N1  UNL     1       2.676   2.103   2.255  1.00  0.00    -0.314 N   
ATOM     13  C5  UNL     1       2.931   2.885   4.598  1.00  0.00     0.062 C   
ATOM     14  C26 UNL     1       5.816   2.368   0.364  1.00  0.00     0.047 C   
ATOM     15  H9  UNL     1       1.702   1.851   2.380  1.00  0.00     0.153 HD  
BRANCH   9  16
ATOM     16  C2  UNL     1       5.920   3.394   3.423  1.00  0.00     0.034 C   
ATOM     17  C1  UNL     1       6.639   2.346   4.260  1.00  0.00     0.009 C   
ENDBRANCH   9  16
ENDBRANCH   6   8
ENDBRANCH   1   6
BRANCH   3  18
ATOM     18  C10 UNL     1      -1.506  -0.638  -1.680  1.00  0.00     0.117 C   
BRANCH  18  19
ATOM     19  N3  UNL     1      -1.569  -2.115  -1.377  1.00  0.00     0.249 N   
ATOM     20  H12 UNL     1      -0.652  -2.521  -1.604  1.00  0.00     0.199 HD  
ATOM     21  H13 UNL     1      -2.223  -2.577  -2.019  1.00  0.00     0.199 HD  
BRANCH  19  22
ATOM     22  C11 UNL     1      -1.897  -2.538   0.019  1.00  0.00     0.164 C   
BRANCH  22  23
ATOM     23  C12 UNL     1      -1.898  -4.039   0.116  1.00  0.00    -0.002 A   
ATOM     24  C13 UNL     1      -3.083  -4.772  -0.131  1.00  0.00     0.012 A   
ATOM     25  C17 UNL     1      -0.706  -4.725   0.405  1.00  0.00     0.045 A   
ATOM     26  C14 UNL     1      -3.084  -6.172  -0.085  1.00  0.00     0.037 A   
ATOM     27  C16 UNL     1      -0.743  -6.103   0.449  1.00  0.00     0.109 A   
ATOM     28  C15 UNL     1      -1.897  -6.807   0.208  1.00  0.00     0.108 A   
ATOM     29  O2  UNL     1       0.310  -6.912   0.729  1.00  0.00    -0.316 OA  
ATOM     30  O3  UNL     1      -1.714  -8.149   0.303  1.00  0.00    -0.316 OA  
ATOM     31  C18 UNL     1      -0.318  -8.213   0.666  1.00  0.00     0.337 C   
ENDBRANCH  22  23
ENDBRANCH  19  22
ENDBRANCH  18  19
BRANCH  18  32
ATOM     32  C19 UNL     1      -2.880   0.062  -1.450  1.00  0.00     0.043 C   
ATOM     33  C20 UNL     1      -2.856   1.545  -1.890  1.00  0.00     0.010 C   
ATOM     34  C24 UNL     1      -4.067  -0.629  -2.153  1.00  0.00     0.010 C   
ATOM     35  C21 UNL     1      -2.798   1.715  -3.407  1.00  0.00     0.001 C   
ATOM     36  C23 UNL     1      -4.016  -0.491  -3.674  1.00  0.00     0.001 C   
ATOM     37  C22 UNL     1      -3.936   0.972  -4.102  1.00  0.00     0.000 C   
ENDBRANCH  18  32
ENDBRANCH   3  18
TORSDOF 8
