REMARK SMILES COC(=O)[C@H](CO)n1cc([C@@H]([NH2+]Cc2ccc3c(c2)OCO3)C2CCCCC2)nn1
REMARK SMILES IDX 8 1 9 2 10 3 29 4 30 5 5 7 3 8 4 9 2 10 1 11 6 12 7 13 11 15
REMARK SMILES IDX 12 16 13 19 14 20 15 21 19 22 16 23 18 24 17 25 20 26 22 27
REMARK SMILES IDX 21 28 23 29 24 30 28 31 25 32 27 33 26 34
REMARK H PARENT 9 6 7 14 12 17 12 18
ROOT
ATOM     1   N1  UNL     1       1.898   1.858  -1.013  1.00  0.00    -0.197 N   
ATOM     2   C5  UNL     1       0.789   1.919  -0.203  1.00  0.00     0.046 A   
ATOM     3   C6  UNL     1       0.516   0.606   0.102  1.00  0.00     0.127 A   
ATOM     4   N3  UNL     1       1.490  -0.191  -0.435  1.00  0.00    -0.132 NA  
ATOM     5   N4  UNL     1       2.352   0.586  -1.068  1.00  0.00    -0.075 NA  
ATOM     6   H8  UNL     1       0.282   2.849   0.024  1.00  0.00     0.083 HD  
ENDROOT
BRANCH   1   7
ATOM     7   C3  UNL     1       2.664   2.953  -1.605  1.00  0.00     0.221 C   
BRANCH   7   8
ATOM     8   C2  UNL     1       1.780   4.087  -2.091  1.00  0.00     0.286 C   
ATOM     9   O2  UNL     1       0.559   4.059  -2.192  1.00  0.00    -0.264 OA  
BRANCH   8  10
ATOM     10  O1  UNL     1       2.544   5.187  -2.361  1.00  0.00    -0.318 OA  
ATOM     11  C1  UNL     1       1.810   6.309  -2.861  1.00  0.00     0.206 C   
ENDBRANCH   8  10
ENDBRANCH   7   8
BRANCH   7  12
ATOM     12  C4  UNL     1       3.587   2.514  -2.752  1.00  0.00     0.191 C   
BRANCH  12  13
ATOM     13  O3  UNL     1       2.840   2.067  -3.883  1.00  0.00    -0.394 OA  
ATOM     14  H7  UNL     1       3.481   1.739  -4.544  1.00  0.00     0.210 HD  
ENDBRANCH  12  13
ENDBRANCH   7  12
ENDBRANCH   1   7
BRANCH   3  15
ATOM     15  C7  UNL     1      -0.631  -0.016   0.831  1.00  0.00     0.117 C   
BRANCH  15  16
ATOM     16  N2  UNL     1      -0.954  -1.354   0.224  1.00  0.00     0.249 N   
ATOM     17  H10 UNL     1      -1.459  -1.964   0.871  1.00  0.00     0.199 HD  
ATOM     18  H11 UNL     1      -0.050  -1.816   0.037  1.00  0.00     0.199 HD  
BRANCH  16  19
ATOM     19  C8  UNL     1      -1.687  -1.300  -1.071  1.00  0.00     0.164 C   
BRANCH  19  20
ATOM     20  C9  UNL     1      -1.866  -2.685  -1.628  1.00  0.00    -0.002 A   
ATOM     21  C10 UNL     1      -2.984  -3.471  -1.258  1.00  0.00     0.012 A   
ATOM     22  C14 UNL     1      -0.886  -3.229  -2.478  1.00  0.00     0.045 A   
ATOM     23  C11 UNL     1      -3.129  -4.779  -1.733  1.00  0.00     0.037 A   
ATOM     24  C13 UNL     1      -1.064  -4.520  -2.933  1.00  0.00     0.109 A   
ATOM     25  C12 UNL     1      -2.153  -5.274  -2.570  1.00  0.00     0.108 A   
ATOM     26  O4  UNL     1      -0.219  -5.190  -3.759  1.00  0.00    -0.316 OA  
ATOM     27  O5  UNL     1      -2.132  -6.515  -3.123  1.00  0.00    -0.316 OA  
ATOM     28  C15 UNL     1      -0.915  -6.449  -3.901  1.00  0.00     0.337 C   
ENDBRANCH  19  20
ENDBRANCH  16  19
ENDBRANCH  15  16
BRANCH  15  29
ATOM     29  C16 UNL     1      -0.358  -0.157   2.353  1.00  0.00     0.043 C   
ATOM     30  C17 UNL     1       0.711  -1.212   2.708  1.00  0.00     0.010 C   
ATOM     31  C21 UNL     1      -1.658  -0.435   3.134  1.00  0.00     0.010 C   
ATOM     32  C18 UNL     1       0.950  -1.293   4.215  1.00  0.00     0.001 C   
ATOM     33  C20 UNL     1      -1.409  -0.514   4.639  1.00  0.00     0.001 C   
ATOM     34  C19 UNL     1      -0.344  -1.552   4.978  1.00  0.00     0.000 C   
ENDBRANCH  15  29
ENDBRANCH   3  15
TORSDOF 10
