REMARK SMILES CC(C)C[C@H]([NH2+]Cc1ccc2c(c1)OCO2)c1cn(Cc2ccc(CN)cc2)nn1
REMARK SMILES IDX 17 1 18 2 19 3 29 4 30 5 5 7 4 8 2 9 1 10 3 11 6 12 7 15
REMARK SMILES IDX 8 16 9 17 13 18 10 19 12 20 11 21 14 22 16 23 15 24 20 25
REMARK SMILES IDX 21 26 22 27 28 28 23 29 27 30 24 31 25 32 26 33
REMARK H PARENT 18 6 6 13 6 14 26 34 26 35
ROOT
ATOM     1   C14 UNL     1       0.966  -0.451  -2.001  1.00  0.00     0.127 A   
ATOM     2   C15 UNL     1       1.789  -1.018  -1.054  1.00  0.00     0.046 A   
ATOM     3   N2  UNL     1       3.047  -0.651  -1.445  1.00  0.00    -0.208 N   
ATOM     4   N4  UNL     1       3.002   0.082  -2.574  1.00  0.00    -0.076 NA  
ATOM     5   N5  UNL     1       1.733   0.200  -2.932  1.00  0.00    -0.132 NA  
ATOM     6   H20 UNL     1       1.605  -1.593  -0.158  1.00  0.00     0.083 HD  
ENDROOT
BRANCH   1   7
ATOM     7   C5  UNL     1      -0.520  -0.390  -2.091  1.00  0.00     0.114 C   
BRANCH   7   8
ATOM     8   C4  UNL     1      -1.098  -1.418  -3.084  1.00  0.00     0.064 C   
BRANCH   8   9
ATOM     9   C2  UNL     1      -0.866  -2.897  -2.708  1.00  0.00    -0.012 C   
ATOM     10  C1  UNL     1      -1.425  -3.803  -3.810  1.00  0.00     0.007 C   
ATOM     11  C3  UNL     1      -1.504  -3.265  -1.367  1.00  0.00     0.007 C   
ENDBRANCH   8   9
ENDBRANCH   7   8
BRANCH   7  12
ATOM     12  N1  UNL     1      -0.970   0.979  -2.567  1.00  0.00     0.249 N   
ATOM     13  H11 UNL     1      -0.522   1.132  -3.482  1.00  0.00     0.199 HD  
ATOM     14  H12 UNL     1      -1.983   0.976  -2.716  1.00  0.00     0.199 HD  
BRANCH  12  15
ATOM     15  C6  UNL     1      -0.604   2.143  -1.700  1.00  0.00     0.164 C   
BRANCH  15  16
ATOM     16  C7  UNL     1      -1.131   2.035  -0.295  1.00  0.00    -0.002 A   
ATOM     17  C8  UNL     1      -0.242   1.803   0.782  1.00  0.00     0.012 A   
ATOM     18  C12 UNL     1      -2.510   2.135  -0.045  1.00  0.00     0.045 A   
ATOM     19  C9  UNL     1      -0.717   1.662   2.090  1.00  0.00     0.037 A   
ATOM     20  C11 UNL     1      -2.944   1.990   1.256  1.00  0.00     0.109 A   
ATOM     21  C10 UNL     1      -2.075   1.759   2.292  1.00  0.00     0.108 A   
ATOM     22  O1  UNL     1      -4.237   2.050   1.666  1.00  0.00    -0.316 OA  
ATOM     23  O2  UNL     1      -2.711   1.646   3.486  1.00  0.00    -0.316 OA  
ATOM     24  C13 UNL     1      -4.082   1.860   3.090  1.00  0.00     0.337 C   
ENDBRANCH  15  16
ENDBRANCH  12  15
ENDBRANCH   7  12
ENDBRANCH   1   7
BRANCH   3  25
ATOM     25  C16 UNL     1       4.311  -0.926  -0.783  1.00  0.00     0.169 C   
BRANCH  25  26
ATOM     26  C17 UNL     1       4.391  -0.212   0.543  1.00  0.00    -0.029 A   
ATOM     27  C18 UNL     1       4.147  -0.900   1.740  1.00  0.00     0.006 A   
ATOM     28  C23 UNL     1       4.687   1.157   0.596  1.00  0.00     0.006 A   
ATOM     29  C19 UNL     1       4.205  -0.233   2.964  1.00  0.00     0.005 A   
ATOM     30  C22 UNL     1       4.751   1.821   1.821  1.00  0.00     0.005 A   
ATOM     31  C20 UNL     1       4.519   1.131   3.017  1.00  0.00    -0.034 A   
BRANCH  31  32
ATOM     32  C21 UNL     1       4.582   1.851   4.339  1.00  0.00     0.113 C   
BRANCH  32  33
ATOM     33  N3  UNL     1       3.302   2.464   4.666  1.00  0.00    -0.327 NA  
ATOM     34  H27 UNL     1       3.037   3.105   3.923  1.00  0.00     0.119 HD  
ATOM     35  H28 UNL     1       2.583   1.744   4.705  1.00  0.00     0.119 HD  
ENDBRANCH  32  33
ENDBRANCH  31  32
ENDBRANCH  25  26
ENDBRANCH   3  25
TORSDOF 10
