REMARK SMILES CC(C)C[C@H]([NH2+]Cc1ccc2c(c1)OCO2)c1cn(-c2ccc(Cl)cn2)nn1
REMARK SMILES IDX 5 1 4 2 2 3 1 4 3 5 6 6 7 9 8 10 9 11 13 12 10 13 12 14
REMARK SMILES IDX 11 15 14 16 16 17 15 18 17 19 18 20 28 21 19 22 27 23 20 24
REMARK SMILES IDX 21 25 26 26 22 27 25 28 23 29 24 30
REMARK H PARENT 6 7 6 8
ROOT
ATOM     1   C5  UNL     1       0.157   1.156  -0.219  1.00  0.00     0.114 C   
ENDROOT
BRANCH   1   2
ATOM     2   C4  UNL     1       1.024   2.402  -0.499  1.00  0.00     0.064 C   
BRANCH   2   3
ATOM     3   C2  UNL     1       0.494   3.380  -1.570  1.00  0.00    -0.012 C   
ATOM     4   C1  UNL     1       0.246   2.704  -2.917  1.00  0.00     0.007 C   
ATOM     5   C3  UNL     1       1.489   4.534  -1.748  1.00  0.00     0.007 C   
ENDBRANCH   2   3
ENDBRANCH   1   2
BRANCH   1   6
ATOM     6   N1  UNL     1      -1.182   1.589   0.340  1.00  0.00     0.249 N   
ATOM     7   H11 UNL     1      -1.409   2.549   0.060  1.00  0.00     0.199 HD  
ATOM     8   H12 UNL     1      -1.066   1.617   1.366  1.00  0.00     0.199 HD  
BRANCH   6   9
ATOM     9   C6  UNL     1      -2.352   0.718   0.013  1.00  0.00     0.164 C   
BRANCH   9  10
ATOM     10  C7  UNL     1      -2.222  -0.697   0.501  1.00  0.00    -0.002 A   
ATOM     11  C8  UNL     1      -2.316  -0.990   1.881  1.00  0.00     0.012 A   
ATOM     12  C12 UNL     1      -1.953  -1.736  -0.406  1.00  0.00     0.045 A   
ATOM     13  C9  UNL     1      -2.131  -2.294   2.354  1.00  0.00     0.037 A   
ATOM     14  C11 UNL     1      -1.775  -3.009   0.093  1.00  0.00     0.109 A   
ATOM     15  C10 UNL     1      -1.858  -3.281   1.435  1.00  0.00     0.108 A   
ATOM     16  O1  UNL     1      -1.496  -4.115  -0.643  1.00  0.00    -0.316 OA  
ATOM     17  O2  UNL     1      -1.648  -4.593   1.712  1.00  0.00    -0.316 OA  
ATOM     18  C13 UNL     1      -1.472  -5.131   0.385  1.00  0.00     0.337 C   
ENDBRANCH   9  10
ENDBRANCH   6   9
ENDBRANCH   1   6
BRANCH   1  19
ATOM     19  C14 UNL     1       0.837   0.252   0.760  1.00  0.00     0.127 A   
ATOM     20  C15 UNL     1       1.577  -0.891   0.578  1.00  0.00     0.137 A   
ATOM     21  N5  UNL     1       0.704   0.493   2.103  1.00  0.00    -0.131 NA  
ATOM     22  N2  UNL     1       1.849  -1.346   1.852  1.00  0.00    -0.162 N   
ATOM     23  N4  UNL     1       1.310  -0.489   2.757  1.00  0.00    -0.070 NA  
BRANCH  22  24
ATOM     24  C16 UNL     1       2.571  -2.515   2.206  1.00  0.00     0.146 A   
ATOM     25  C17 UNL     1       2.720  -2.849   3.552  1.00  0.00     0.048 A   
ATOM     26  N3  UNL     1       3.100  -3.260   1.194  1.00  0.00    -0.238 NA  
ATOM     27  C18 UNL     1       3.454  -3.990   3.879  1.00  0.00     0.026 A   
ATOM     28  C20 UNL     1       3.805  -4.365   1.549  1.00  0.00     0.133 A   
ATOM     29  C19 UNL     1       4.008  -4.762   2.862  1.00  0.00     0.059 A   
ATOM     30  CL1 UNL     1       4.922  -6.165   3.227  1.00  0.00    -0.083 Cl  
ENDBRANCH  22  24
ENDBRANCH   1  19
TORSDOF 7
