REMARK SMILES CC(C)[C@H]([NH2+]Cc1ccc2c(c1)OCO2)c1cn(Cc2ccc(Cl)cc2O)nn1
REMARK SMILES IDX 16 1 17 2 18 3 28 4 29 5 4 7 2 8 1 9 3 10 5 11 6 14 7 15
REMARK SMILES IDX 8 16 12 17 9 18 11 19 10 20 13 21 15 22 14 23 19 24 20 25
REMARK SMILES IDX 21 26 26 27 22 28 25 29 23 30 24 31 27 32
REMARK H PARENT 17 6 5 12 5 13 27 33
ROOT
ATOM     1   C13 UNL     1      -1.358  -0.553   0.436  1.00  0.00     0.127 A   
ATOM     2   C14 UNL     1      -1.908   0.205   1.444  1.00  0.00     0.046 A   
ATOM     3   N2  UNL     1      -1.262  -0.222   2.572  1.00  0.00    -0.208 N   
ATOM     4   N3  UNL     1      -0.366  -1.185   2.275  1.00  0.00    -0.076 NA  
ATOM     5   N4  UNL     1      -0.417  -1.397   0.971  1.00  0.00    -0.132 NA  
ATOM     6   H18 UNL     1      -2.656   0.986   1.473  1.00  0.00     0.083 HD  
ENDROOT
BRANCH   1   7
ATOM     7   C4  UNL     1      -1.572  -0.541  -1.043  1.00  0.00     0.117 C   
BRANCH   7   8
ATOM     8   C2  UNL     1      -2.699  -1.487  -1.532  1.00  0.00     0.037 C   
ATOM     9   C1  UNL     1      -4.075  -1.038  -1.026  1.00  0.00     0.014 C   
ATOM     10  C3  UNL     1      -2.476  -2.963  -1.185  1.00  0.00     0.014 C   
ENDBRANCH   7   8
BRANCH   7  11
ATOM     11  N1  UNL     1      -0.291  -0.925  -1.743  1.00  0.00     0.249 N   
ATOM     12  H9  UNL     1      -0.463  -1.240  -2.704  1.00  0.00     0.199 HD  
ATOM     13  H10 UNL     1       0.090  -1.736  -1.234  1.00  0.00     0.199 HD  
BRANCH  11  14
ATOM     14  C5  UNL     1       0.769   0.121  -1.749  1.00  0.00     0.164 C   
BRANCH  14  15
ATOM     15  C6  UNL     1       2.035  -0.423  -2.347  1.00  0.00    -0.002 A   
ATOM     16  C7  UNL     1       2.964  -1.113  -1.531  1.00  0.00     0.012 A   
ATOM     17  C11 UNL     1       2.277  -0.306  -3.726  1.00  0.00     0.045 A   
ATOM     18  C8  UNL     1       4.126  -1.669  -2.076  1.00  0.00     0.037 A   
ATOM     19  C10 UNL     1       3.432  -0.867  -4.231  1.00  0.00     0.109 A   
ATOM     20  C9  UNL     1       4.330  -1.528  -3.431  1.00  0.00     0.108 A   
ATOM     21  O1  UNL     1       3.815  -0.845  -5.535  1.00  0.00    -0.316 OA  
ATOM     22  O2  UNL     1       5.393  -2.005  -4.129  1.00  0.00    -0.316 OA  
ATOM     23  C12 UNL     1       5.073  -1.554  -5.462  1.00  0.00     0.337 C   
ENDBRANCH  14  15
ENDBRANCH  11  14
ENDBRANCH   7  11
ENDBRANCH   1   7
BRANCH   3  24
ATOM     24  C15 UNL     1      -1.448   0.223   3.942  1.00  0.00     0.172 C   
BRANCH  24  25
ATOM     25  C16 UNL     1      -0.572   1.411   4.246  1.00  0.00     0.002 A   
ATOM     26  C17 UNL     1       0.727   1.217   4.743  1.00  0.00     0.010 A   
ATOM     27  C21 UNL     1      -1.015   2.721   4.024  1.00  0.00     0.078 A   
ATOM     28  C18 UNL     1       1.553   2.309   5.019  1.00  0.00     0.021 A   
ATOM     29  C20 UNL     1      -0.198   3.817   4.298  1.00  0.00     0.054 A   
ATOM     30  C19 UNL     1       1.086   3.603   4.795  1.00  0.00     0.043 A   
ATOM     31  CL1 UNL     1       2.107   4.947   5.125  1.00  0.00    -0.084 Cl  
BRANCH  27  32
ATOM     32  O3  UNL     1      -2.272   2.912   3.523  1.00  0.00    -0.361 OA  
ATOM     33  H24 UNL     1      -2.501   3.856   3.611  1.00  0.00     0.218 HD  
ENDBRANCH  27  32
ENDBRANCH  24  25
ENDBRANCH   3  24
TORSDOF 8
