REMARK SMILES c1cc(-n2cc([C@@H]([NH2+]Cc3ccc4c(c3)OCO4)C3CCCCC3)nn2)c2cn[nH]c2c1
REMARK SMILES IDX 7 1 6 2 4 3 5 4 26 5 25 6 3 7 1 8 2 9 32 10 31 11 27 12
REMARK SMILES IDX 30 13 28 14 29 15 8 17 9 20 10 21 11 22 15 23 12 24 14 25
REMARK SMILES IDX 13 26 16 27 18 28 17 29 19 30 20 31 24 32 21 33 23 34 22 35
REMARK H PARENT 30 16 8 18 8 19
ROOT
ATOM     1   C6  UNL     1      -0.340   0.457   0.375  1.00  0.00     0.117 C   
ENDROOT
BRANCH   1   2
ATOM     2   C5  UNL     1      -0.945  -0.837  -0.073  1.00  0.00     0.127 A   
ATOM     3   N1  UNL     1      -1.662  -2.889  -0.369  1.00  0.00    -0.180 N   
ATOM     4   C4  UNL     1      -0.983  -2.077   0.524  1.00  0.00     0.135 A   
ATOM     5   N4  UNL     1      -1.988  -2.147  -1.457  1.00  0.00    -0.071 NA  
ATOM     6   N3  UNL     1      -1.571  -0.905  -1.282  1.00  0.00    -0.131 NA  
BRANCH   3   7
ATOM     7   C3  UNL     1      -1.987  -4.263  -0.258  1.00  0.00     0.068 A   
ATOM     8   C1  UNL     1      -1.938  -6.347   1.023  1.00  0.00     0.004 A   
ATOM     9   C2  UNL     1      -1.628  -4.990   0.897  1.00  0.00     0.027 A   
ATOM     10  C24 UNL     1      -2.611  -7.031   0.011  1.00  0.00     0.026 A   
ATOM     11  C23 UNL     1      -2.959  -6.303  -1.129  1.00  0.00     0.058 A   
ATOM     12  C21 UNL     1      -2.671  -4.948  -1.294  1.00  0.00     0.041 A   
ATOM     13  N6  UNL     1      -3.611  -6.687  -2.273  1.00  0.00    -0.238 N   
ATOM     14  C22 UNL     1      -3.201  -4.649  -2.576  1.00  0.00     0.143 A   
ATOM     15  N5  UNL     1      -3.766  -5.702  -3.169  1.00  0.00    -0.192 NA  
ATOM     16  H26 UNL     1      -3.974  -7.607  -2.501  1.00  0.00     0.176 HD  
ENDBRANCH   3   7
ENDBRANCH   1   2
BRANCH   1  17
ATOM     17  N2  UNL     1      -0.032   1.339  -0.812  1.00  0.00     0.249 N   
ATOM     18  H5  UNL     1       0.101   2.312  -0.524  1.00  0.00     0.199 HD  
ATOM     19  H6  UNL     1      -0.866   1.314  -1.417  1.00  0.00     0.199 HD  
BRANCH  17  20
ATOM     20  C7  UNL     1       1.129   0.927  -1.659  1.00  0.00     0.164 C   
BRANCH  20  21
ATOM     21  C8  UNL     1       2.446   1.059  -0.946  1.00  0.00    -0.002 A   
ATOM     22  C9  UNL     1       2.992   2.337  -0.675  1.00  0.00     0.012 A   
ATOM     23  C13 UNL     1       3.129  -0.091  -0.512  1.00  0.00     0.045 A   
ATOM     24  C10 UNL     1       4.197   2.470   0.024  1.00  0.00     0.037 A   
ATOM     25  C12 UNL     1       4.313   0.076   0.176  1.00  0.00     0.109 A   
ATOM     26  C11 UNL     1       4.831   1.319   0.438  1.00  0.00     0.108 A   
ATOM     27  O1  UNL     1       5.087  -0.925   0.670  1.00  0.00    -0.316 OA  
ATOM     28  O2  UNL     1       5.999   1.259   1.128  1.00  0.00    -0.316 OA  
ATOM     29  C14 UNL     1       6.179  -0.169   1.242  1.00  0.00     0.337 C   
ENDBRANCH  20  21
ENDBRANCH  17  20
ENDBRANCH   1  17
BRANCH   1  30
ATOM     30  C15 UNL     1      -1.252   1.208   1.384  1.00  0.00     0.043 C   
ATOM     31  C16 UNL     1      -2.557   1.753   0.768  1.00  0.00     0.010 C   
ATOM     32  C20 UNL     1      -0.493   2.339   2.107  1.00  0.00     0.010 C   
ATOM     33  C17 UNL     1      -3.428   2.440   1.819  1.00  0.00     0.001 C   
ATOM     34  C19 UNL     1      -1.370   3.022   3.155  1.00  0.00     0.001 C   
ATOM     35  C18 UNL     1      -2.668   3.543   2.549  1.00  0.00     0.000 C   
ENDBRANCH   1  30
TORSDOF 6
