REMARK SMILES COc1cccc(Cn2cc([C@H](CC(C)C)[NH2+]Cc3ccc4c(c3)OCO4)nn2)c1C
REMARK SMILES IDX 9 1 10 2 11 3 28 4 29 5 8 7 7 8 3 9 4 10 30 11 5 12 6 13
REMARK SMILES IDX 31 14 2 15 1 16 12 17 13 18 14 19 15 20 16 21 17 22 18 25
REMARK SMILES IDX 19 26 20 27 24 28 21 29 23 30 22 31 25 32 27 33 26 34
REMARK H PARENT 10 6 17 23 17 24
ROOT
ATOM     1   N1  UNL     1      -1.507   0.494  -1.432  1.00  0.00    -0.208 N   
ATOM     2   C8  UNL     1      -0.200   0.904  -1.425  1.00  0.00     0.046 A   
ATOM     3   C9  UNL     1       0.491  -0.178  -1.923  1.00  0.00     0.127 A   
ATOM     4   N3  UNL     1      -0.397  -1.165  -2.258  1.00  0.00    -0.132 NA  
ATOM     5   N4  UNL     1      -1.616  -0.741  -1.962  1.00  0.00    -0.076 NA  
ATOM     6   H9  UNL     1       0.107   1.858  -1.017  1.00  0.00     0.083 HD  
ENDROOT
BRANCH   1   7
ATOM     7   C7  UNL     1      -2.663   1.156  -0.844  1.00  0.00     0.169 C   
BRANCH   7   8
ATOM     8   C6  UNL     1      -2.390   1.529   0.600  1.00  0.00    -0.023 A   
ATOM     9   C2  UNL     1      -1.833   0.971   2.913  1.00  0.00     0.078 A   
ATOM     10  C3  UNL     1      -1.648   2.328   3.189  1.00  0.00     0.034 A   
ATOM     11  C23 UNL     1      -2.239   0.560   1.624  1.00  0.00    -0.016 A   
ATOM     12  C4  UNL     1      -1.855   3.283   2.197  1.00  0.00     0.003 A   
ATOM     13  C5  UNL     1      -2.217   2.889   0.913  1.00  0.00     0.006 A   
ATOM     14  C24 UNL     1      -2.451  -0.912   1.353  1.00  0.00     0.047 C   
BRANCH   9  15
ATOM     15  O1  UNL     1      -1.596  -0.033   3.817  1.00  0.00    -0.349 OA  
ATOM     16  C1  UNL     1      -1.507   0.339   5.189  1.00  0.00     0.203 C   
ENDBRANCH   9  15
ENDBRANCH   7   8
ENDBRANCH   1   7
BRANCH   3  17
ATOM     17  C10 UNL     1       1.953  -0.444  -1.993  1.00  0.00     0.114 C   
BRANCH  17  18
ATOM     18  C11 UNL     1       2.498  -0.577  -3.429  1.00  0.00     0.064 C   
BRANCH  18  19
ATOM     19  C12 UNL     1       2.558   0.701  -4.294  1.00  0.00    -0.012 C   
ATOM     20  C13 UNL     1       3.231   1.873  -3.581  1.00  0.00     0.007 C   
ATOM     21  C14 UNL     1       1.203   1.119  -4.860  1.00  0.00     0.007 C   
ENDBRANCH  18  19
ENDBRANCH  17  18
BRANCH  17  22
ATOM     22  N2  UNL     1       2.251  -1.765  -1.296  1.00  0.00     0.249 N   
ATOM     23  H20 UNL     1       1.672  -2.474  -1.765  1.00  0.00     0.199 HD  
ATOM     24  H21 UNL     1       3.229  -2.023  -1.442  1.00  0.00     0.199 HD  
BRANCH  22  25
ATOM     25  C15 UNL     1       1.942  -1.836   0.166  1.00  0.00     0.164 C   
BRANCH  25  26
ATOM     26  C16 UNL     1       2.736  -0.864   0.990  1.00  0.00    -0.002 A   
ATOM     27  C17 UNL     1       4.132  -1.033   1.153  1.00  0.00     0.012 A   
ATOM     28  C21 UNL     1       2.096   0.236   1.590  1.00  0.00     0.045 A   
ATOM     29  C18 UNL     1       4.885  -0.112   1.891  1.00  0.00     0.037 A   
ATOM     30  C20 UNL     1       2.867   1.124   2.311  1.00  0.00     0.109 A   
ATOM     31  C19 UNL     1       4.222   0.956   2.454  1.00  0.00     0.108 A   
ATOM     32  O2  UNL     1       2.411   2.237   2.945  1.00  0.00    -0.316 OA  
ATOM     33  O3  UNL     1       4.791   1.944   3.194  1.00  0.00    -0.316 OA  
ATOM     34  C22 UNL     1       3.634   2.738   3.532  1.00  0.00     0.337 C   
ENDBRANCH  25  26
ENDBRANCH  22  25
ENDBRANCH  17  22
ENDBRANCH   3  17
TORSDOF 9
