REMARK SMILES CC(C)C[C@H]([NH2+]Cc1ccc2c(c1)OCO2)c1cn(Cc2cocn2)nn1
REMARK SMILES IDX 5 1 4 2 2 3 1 4 3 5 6 6 7 9 8 10 9 11 13 12 10 13 12 14
REMARK SMILES IDX 11 15 14 16 16 17 15 18 17 19 18 20 27 21 19 22 26 23 20 25
REMARK SMILES IDX 21 26 22 27 25 28 23 29 24 30
REMARK H PARENT 6 7 6 8 18 24
ROOT
ATOM     1   C5  UNL     1       1.539   0.841  -0.847  1.00  0.00     0.114 C   
ENDROOT
BRANCH   1   2
ATOM     2   C4  UNL     1       1.905   1.641  -2.112  1.00  0.00     0.064 C   
BRANCH   2   3
ATOM     3   C2  UNL     1       0.777   1.764  -3.159  1.00  0.00    -0.012 C   
ATOM     4   C1  UNL     1      -0.459   2.475  -2.606  1.00  0.00     0.007 C   
ATOM     5   C3  UNL     1       1.296   2.514  -4.389  1.00  0.00     0.007 C   
ENDBRANCH   2   3
ENDBRANCH   1   2
BRANCH   1   6
ATOM     6   N1  UNL     1       2.729   0.936   0.091  1.00  0.00     0.249 N   
ATOM     7   H11 UNL     1       3.510   0.462  -0.383  1.00  0.00     0.199 HD  
ATOM     8   H12 UNL     1       2.992   1.917   0.215  1.00  0.00     0.199 HD  
BRANCH   6   9
ATOM     9   C6  UNL     1       2.578   0.291   1.432  1.00  0.00     0.164 C   
BRANCH   9  10
ATOM     10  C7  UNL     1       1.440   0.844   2.243  1.00  0.00    -0.002 A   
ATOM     11  C8  UNL     1       1.512   2.146   2.792  1.00  0.00     0.012 A   
ATOM     12  C12 UNL     1       0.280   0.072   2.442  1.00  0.00     0.045 A   
ATOM     13  C9  UNL     1       0.443   2.677   3.522  1.00  0.00     0.037 A   
ATOM     14  C11 UNL     1      -0.754   0.624   3.168  1.00  0.00     0.109 A   
ATOM     15  C10 UNL     1      -0.676   1.891   3.690  1.00  0.00     0.108 A   
ATOM     16  O1  UNL     1      -1.937   0.018   3.449  1.00  0.00    -0.316 OA  
ATOM     17  O2  UNL     1      -1.801   2.243   4.365  1.00  0.00    -0.316 OA  
ATOM     18  C13 UNL     1      -2.593   1.044   4.228  1.00  0.00     0.337 C   
ENDBRANCH   9  10
ENDBRANCH   6   9
ENDBRANCH   1   6
BRANCH   1  19
ATOM     19  C14 UNL     1       1.224  -0.585  -1.141  1.00  0.00     0.127 A   
ATOM     20  C15 UNL     1       0.021  -1.253  -1.146  1.00  0.00     0.046 A   
ATOM     21  N5  UNL     1       2.239  -1.481  -1.357  1.00  0.00    -0.132 NA  
ATOM     22  N2  UNL     1       0.372  -2.565  -1.320  1.00  0.00    -0.206 N   
ATOM     23  N4  UNL     1       1.707  -2.689  -1.460  1.00  0.00    -0.076 NA  
ATOM     24  H20 UNL     1      -1.004  -0.949  -0.983  1.00  0.00     0.083 HD  
BRANCH  22  25
ATOM     25  C16 UNL     1      -0.492  -3.731  -1.298  1.00  0.00     0.192 C   
BRANCH  25  26
ATOM     26  C17 UNL     1      -0.847  -4.063   0.105  1.00  0.00     0.086 A   
ATOM     27  C18 UNL     1      -0.504  -5.164   0.856  1.00  0.00     0.163 A   
ATOM     28  N3  UNL     1      -1.630  -3.218   0.870  1.00  0.00    -0.232 NA  
ATOM     29  O3  UNL     1      -1.066  -5.029   2.088  1.00  0.00    -0.304 OA  
ATOM     30  C19 UNL     1      -1.734  -3.846   2.021  1.00  0.00     0.246 A   
ENDBRANCH  25  26
ENDBRANCH  22  25
ENDBRANCH   1  19
TORSDOF 8
