REMARK SMILES CC(C)C[C@H]([NH2+]Cc1ccc2c(c1)OCO2)c1cn(Cc2cnc(C3CCC3)o2)nn1
REMARK SMILES IDX 17 1 18 2 19 3 30 4 31 5 5 7 4 8 2 9 1 10 3 11 6 12 7 15
REMARK SMILES IDX 8 16 9 17 13 18 10 19 12 20 11 21 14 22 16 23 15 24 20 25
REMARK SMILES IDX 21 26 22 27 29 28 23 29 24 30 25 31 26 32 28 33 27 34
REMARK H PARENT 18 6 6 13 6 14
ROOT
ATOM     1   C14 UNL     1      -2.282  -1.180   0.569  1.00  0.00     0.127 A   
ATOM     2   C15 UNL     1      -1.554  -2.348   0.510  1.00  0.00     0.046 A   
ATOM     3   N2  UNL     1      -1.541  -2.660  -0.824  1.00  0.00    -0.206 N   
ATOM     4   N4  UNL     1      -2.249  -1.758  -1.534  1.00  0.00    -0.076 NA  
ATOM     5   N5  UNL     1      -2.699  -0.843  -0.693  1.00  0.00    -0.132 NA  
ATOM     6   H20 UNL     1      -1.044  -2.945   1.252  1.00  0.00     0.083 HD  
ENDROOT
BRANCH   1   7
ATOM     7   C5  UNL     1      -2.608  -0.268   1.708  1.00  0.00     0.114 C   
BRANCH   7   8
ATOM     8   C4  UNL     1      -3.991  -0.597   2.302  1.00  0.00     0.064 C   
BRANCH   8   9
ATOM     9   C2  UNL     1      -4.374   0.185   3.578  1.00  0.00    -0.012 C   
ATOM     10  C1  UNL     1      -5.797  -0.190   4.001  1.00  0.00     0.007 C   
ATOM     11  C3  UNL     1      -3.409  -0.076   4.735  1.00  0.00     0.007 C   
ENDBRANCH   8   9
ENDBRANCH   7   8
BRANCH   7  12
ATOM     12  N1  UNL     1      -2.605   1.161   1.211  1.00  0.00     0.249 N   
ATOM     13  H11 UNL     1      -3.425   1.674   1.544  1.00  0.00     0.199 HD  
ATOM     14  H12 UNL     1      -2.726   1.099   0.186  1.00  0.00     0.199 HD  
BRANCH  12  15
ATOM     15  C6  UNL     1      -1.375   1.953   1.487  1.00  0.00     0.164 C   
BRANCH  15  16
ATOM     16  C7  UNL     1      -0.131   1.385   0.862  1.00  0.00    -0.002 A   
ATOM     17  C8  UNL     1       0.066   1.460  -0.538  1.00  0.00     0.012 A   
ATOM     18  C12 UNL     1       0.834   0.748   1.661  1.00  0.00     0.045 A   
ATOM     19  C9  UNL     1       1.207   0.912  -1.134  1.00  0.00     0.037 A   
ATOM     20  C11 UNL     1       1.945   0.215   1.040  1.00  0.00     0.109 A   
ATOM     21  C10 UNL     1       2.130   0.299  -0.317  1.00  0.00     0.108 A   
ATOM     22  O1  UNL     1       2.961  -0.436   1.665  1.00  0.00    -0.316 OA  
ATOM     23  O2  UNL     1       3.294  -0.272  -0.718  1.00  0.00    -0.316 OA  
ATOM     24  C13 UNL     1       3.820  -0.742   0.542  1.00  0.00     0.337 C   
ENDBRANCH  15  16
ENDBRANCH  12  15
ENDBRANCH   7  12
ENDBRANCH   1   7
BRANCH   3  25
ATOM     25  C16 UNL     1      -0.934  -3.809  -1.475  1.00  0.00     0.197 C   
BRANCH  25  26
ATOM     26  C17 UNL     1       0.534  -3.672  -1.505  1.00  0.00     0.099 A   
ATOM     27  C18 UNL     1       1.560  -4.065  -0.680  1.00  0.00     0.145 A   
ATOM     28  O3  UNL     1       1.088  -3.030  -2.577  1.00  0.00    -0.296 OA  
ATOM     29  N3  UNL     1       2.759  -3.665  -1.205  1.00  0.00    -0.234 NA  
ATOM     30  C19 UNL     1       2.438  -3.065  -2.337  1.00  0.00     0.150 A   
BRANCH  30  31
ATOM     31  C20 UNL     1       3.500  -2.464  -3.304  1.00  0.00     0.063 C   
ATOM     32  C21 UNL     1       3.058  -1.197  -4.077  1.00  0.00     0.012 C   
ATOM     33  C23 UNL     1       3.588  -3.170  -4.678  1.00  0.00     0.012 C   
ATOM     34  C22 UNL     1       3.805  -1.774  -5.298  1.00  0.00     0.002 C   
ENDBRANCH  30  31
ENDBRANCH  25  26
ENDBRANCH   3  25
TORSDOF 9
