REMARK SMILES Cc1c(CCn2cc([C@@H]([NH2+]Cc3ccc4c(c3)OCO4)C(C)C)nn2)cnn1C
REMARK SMILES IDX 6 1 7 2 8 3 24 4 25 5 5 7 4 8 3 9 2 10 28 11 26 12 27 13
REMARK SMILES IDX 1 14 29 15 9 16 10 17 11 20 12 21 13 22 17 23 14 24 16 25
REMARK SMILES IDX 15 26 18 27 20 28 19 29 21 30 22 31 23 32
REMARK H PARENT 7 6 10 18 10 19
ROOT
ATOM     1   N1  UNL     1       0.510   3.791   1.068  1.00  0.00    -0.212 N   
ATOM     2   C6  UNL     1       1.273   2.734   0.647  1.00  0.00     0.045 A   
ATOM     3   C7  UNL     1       0.757   1.656   1.337  1.00  0.00     0.127 A   
ATOM     4   N3  UNL     1      -0.181   2.110   2.229  1.00  0.00    -0.132 NA  
ATOM     5   N4  UNL     1      -0.316   3.418   2.061  1.00  0.00    -0.076 NA  
ATOM     6   H8  UNL     1       1.975   2.823  -0.170  1.00  0.00     0.083 HD  
ENDROOT
BRANCH   1   7
ATOM     7   C5  UNL     1       0.292   5.036   0.352  1.00  0.00     0.139 C   
BRANCH   7   8
ATOM     8   C4  UNL     1      -0.958   4.985  -0.546  1.00  0.00     0.060 C   
BRANCH   8   9
ATOM     9   C3  UNL     1      -1.014   3.741  -1.380  1.00  0.00    -0.008 A   
ATOM     10  C2  UNL     1      -0.395   3.449  -2.581  1.00  0.00     0.029 A   
ATOM     11  N6  UNL     1      -0.691   2.131  -2.840  1.00  0.00    -0.233 N   
ATOM     12  C20 UNL     1      -1.669   2.539  -1.023  1.00  0.00     0.136 A   
ATOM     13  N5  UNL     1      -1.300   1.511  -1.796  1.00  0.00    -0.190 NA  
ATOM     14  C1  UNL     1       0.421   4.290  -3.495  1.00  0.00     0.064 C   
ATOM     15  C21 UNL     1      -0.355   1.376  -4.029  1.00  0.00     0.159 C   
ENDBRANCH   8   9
ENDBRANCH   7   8
ENDBRANCH   1   7
BRANCH   3  16
ATOM     16  C8  UNL     1       0.930   0.181   1.125  1.00  0.00     0.117 C   
BRANCH  16  17
ATOM     17  N2  UNL     1      -0.127  -0.289   0.142  1.00  0.00     0.249 N   
ATOM     18  H10 UNL     1      -0.351   0.477  -0.525  1.00  0.00     0.199 HD  
ATOM     19  H11 UNL     1       0.202  -1.051  -0.450  1.00  0.00     0.199 HD  
BRANCH  17  20
ATOM     20  C9  UNL     1      -1.429  -0.699   0.745  1.00  0.00     0.164 C   
BRANCH  20  21
ATOM     21  C10 UNL     1      -1.343  -2.040   1.421  1.00  0.00    -0.002 A   
ATOM     22  C11 UNL     1      -1.341  -2.136   2.833  1.00  0.00     0.012 A   
ATOM     23  C15 UNL     1      -1.221  -3.210   0.649  1.00  0.00     0.045 A   
ATOM     24  C12 UNL     1      -1.201  -3.374   3.469  1.00  0.00     0.037 A   
ATOM     25  C14 UNL     1      -1.080  -4.413   1.308  1.00  0.00     0.109 A   
ATOM     26  C13 UNL     1      -1.067  -4.494   2.678  1.00  0.00     0.108 A   
ATOM     27  O1  UNL     1      -0.929  -5.624   0.713  1.00  0.00    -0.316 OA  
ATOM     28  O2  UNL     1      -0.911  -5.769   3.120  1.00  0.00    -0.316 OA  
ATOM     29  C16 UNL     1      -0.831  -6.488   1.869  1.00  0.00     0.337 C   
ENDBRANCH  20  21
ENDBRANCH  17  20
ENDBRANCH  16  17
BRANCH  16  30
ATOM     30  C17 UNL     1       2.342  -0.239   0.630  1.00  0.00     0.037 C   
ATOM     31  C18 UNL     1       2.475  -1.760   0.446  1.00  0.00     0.014 C   
ATOM     32  C19 UNL     1       3.431   0.203   1.621  1.00  0.00     0.014 C   
ENDBRANCH  16  30
ENDBRANCH   3  16
TORSDOF 8
