REMARK SMILES CC(C)C[C@H]([NH2+]Cc1ccc2c(c1)OCO2)c1cn([C@H](CO)c2ccc(F)cc2)nn1
REMARK SMILES IDX 17 1 18 2 19 3 30 4 31 5 5 7 4 8 2 9 1 10 3 11 6 12 7 15
REMARK SMILES IDX 8 16 9 17 13 18 10 19 12 20 11 21 14 22 16 23 15 24 20 25
REMARK SMILES IDX 21 26 22 27 23 29 24 30 29 31 25 32 28 33 26 34 27 35
REMARK H PARENT 18 6 6 13 6 14 22 28
ROOT
ATOM     1   C14 UNL     1       1.006   0.096  -0.731  1.00  0.00     0.127 A   
ATOM     2   C15 UNL     1       0.944  -1.160  -0.170  1.00  0.00     0.046 A   
ATOM     3   N2  UNL     1       2.254  -1.479   0.080  1.00  0.00    -0.202 N   
ATOM     4   N3  UNL     1       3.068  -0.469  -0.299  1.00  0.00    -0.075 NA  
ATOM     5   N4  UNL     1       2.315   0.495  -0.803  1.00  0.00    -0.132 NA  
ATOM     6   H20 UNL     1       0.129  -1.826   0.078  1.00  0.00     0.083 HD  
ENDROOT
BRANCH   1   7
ATOM     7   C5  UNL     1      -0.073   1.028  -1.174  1.00  0.00     0.114 C   
BRANCH   7   8
ATOM     8   C4  UNL     1      -0.279   0.942  -2.701  1.00  0.00     0.064 C   
BRANCH   8   9
ATOM     9   C2  UNL     1      -1.419   1.802  -3.290  1.00  0.00    -0.012 C   
ATOM     10  C1  UNL     1      -2.769   1.525  -2.627  1.00  0.00     0.007 C   
ATOM     11  C3  UNL     1      -1.522   1.556  -4.798  1.00  0.00     0.007 C   
ENDBRANCH   8   9
ENDBRANCH   7   8
BRANCH   7  12
ATOM     12  N1  UNL     1       0.281   2.450  -0.802  1.00  0.00     0.249 N   
ATOM     13  H11 UNL     1       1.228   2.617  -1.171  1.00  0.00     0.199 HD  
ATOM     14  H12 UNL     1      -0.348   3.111  -1.262  1.00  0.00     0.199 HD  
BRANCH  12  15
ATOM     15  C6  UNL     1       0.312   2.759   0.661  1.00  0.00     0.164 C   
BRANCH  15  16
ATOM     16  C7  UNL     1      -1.049   2.686   1.296  1.00  0.00    -0.002 A   
ATOM     17  C8  UNL     1      -2.005   3.703   1.061  1.00  0.00     0.012 A   
ATOM     18  C12 UNL     1      -1.396   1.582   2.095  1.00  0.00     0.045 A   
ATOM     19  C9  UNL     1      -3.293   3.617   1.602  1.00  0.00     0.037 A   
ATOM     20  C11 UNL     1      -2.674   1.528   2.612  1.00  0.00     0.109 A   
ATOM     21  C10 UNL     1      -3.596   2.515   2.371  1.00  0.00     0.108 A   
ATOM     22  O1  UNL     1      -3.172   0.533   3.393  1.00  0.00    -0.316 OA  
ATOM     23  O2  UNL     1      -4.790   2.269   2.971  1.00  0.00    -0.316 OA  
ATOM     24  C13 UNL     1      -4.509   1.024   3.646  1.00  0.00     0.337 C   
ENDBRANCH  15  16
ENDBRANCH  12  15
ENDBRANCH   7  12
ENDBRANCH   1   7
BRANCH   3  25
ATOM     25  C16 UNL     1       2.774  -2.700   0.699  1.00  0.00     0.155 C   
BRANCH  25  26
ATOM     26  C17 UNL     1       3.740  -2.399   1.858  1.00  0.00     0.185 C   
BRANCH  26  27
ATOM     27  O3  UNL     1       3.020  -1.851   2.966  1.00  0.00    -0.394 OA  
ATOM     28  H24 UNL     1       3.671  -1.695   3.676  1.00  0.00     0.210 HD  
ENDBRANCH  26  27
ENDBRANCH  25  26
BRANCH  25  29
ATOM     29  C18 UNL     1       3.363  -3.623  -0.359  1.00  0.00    -0.023 A   
ATOM     30  C19 UNL     1       4.578  -3.327  -1.004  1.00  0.00     0.009 A   
ATOM     31  C23 UNL     1       2.682  -4.804  -0.711  1.00  0.00     0.009 A   
ATOM     32  C20 UNL     1       5.098  -4.188  -1.974  1.00  0.00     0.039 A   
ATOM     33  C22 UNL     1       3.206  -5.663  -1.681  1.00  0.00     0.039 A   
ATOM     34  C21 UNL     1       4.409  -5.347  -2.303  1.00  0.00     0.123 A   
ATOM     35  F1  UNL     1       4.905  -6.170  -3.236  1.00  0.00    -0.207 F   
ENDBRANCH  25  29
ENDBRANCH   3  25
TORSDOF 10
