REMARK SMILES CC(C)C[C@H]([NH2+]Cc1ccc2c(c1)OCO2)c1cn([C@@H](CO)c2ccc(F)cc2)nn1
REMARK SMILES IDX 17 1 18 2 19 3 30 4 31 5 5 7 4 8 2 9 1 10 3 11 6 12 7 15
REMARK SMILES IDX 8 16 9 17 13 18 10 19 12 20 11 21 14 22 16 23 15 24 20 25
REMARK SMILES IDX 21 26 22 27 23 29 24 30 29 31 25 32 28 33 26 34 27 35
REMARK H PARENT 18 6 6 13 6 14 22 28
ROOT
ATOM     1   C14 UNL     1       0.451  -0.504  -1.641  1.00  0.00     0.127 A   
ATOM     2   C15 UNL     1       1.198  -1.199  -0.716  1.00  0.00     0.046 A   
ATOM     3   N2  UNL     1       2.469  -0.718  -0.886  1.00  0.00    -0.202 N   
ATOM     4   N3  UNL     1       2.503   0.194  -1.880  1.00  0.00    -0.075 NA  
ATOM     5   N4  UNL     1       1.275   0.326  -2.356  1.00  0.00    -0.132 NA  
ATOM     6   H20 UNL     1       0.947  -1.914   0.055  1.00  0.00     0.083 HD  
ENDROOT
BRANCH   1   7
ATOM     7   C5  UNL     1      -1.022  -0.461  -1.861  1.00  0.00     0.114 C   
BRANCH   7   8
ATOM     8   C4  UNL     1      -1.453  -1.173  -3.158  1.00  0.00     0.064 C   
BRANCH   8   9
ATOM     9   C2  UNL     1      -1.168  -2.690  -3.196  1.00  0.00    -0.012 C   
ATOM     10  C1  UNL     1      -1.581  -3.257  -4.558  1.00  0.00     0.007 C   
ATOM     11  C3  UNL     1      -1.891  -3.449  -2.083  1.00  0.00     0.007 C   
ENDBRANCH   8   9
ENDBRANCH   7   8
BRANCH   7  12
ATOM     12  N1  UNL     1      -1.505   0.975  -1.968  1.00  0.00     0.249 N   
ATOM     13  H11 UNL     1      -2.507   0.984  -2.178  1.00  0.00     0.199 HD  
ATOM     14  H12 UNL     1      -1.019   1.390  -2.774  1.00  0.00     0.199 HD  
BRANCH  12  15
ATOM     15  C6  UNL     1      -1.240   1.864  -0.792  1.00  0.00     0.164 C   
BRANCH  15  16
ATOM     16  C7  UNL     1      -1.767   1.327   0.509  1.00  0.00    -0.002 A   
ATOM     17  C8  UNL     1      -0.867   0.964   1.541  1.00  0.00     0.012 A   
ATOM     18  C12 UNL     1      -3.148   1.159   0.707  1.00  0.00     0.045 A   
ATOM     19  C9  UNL     1      -1.331   0.425   2.745  1.00  0.00     0.037 A   
ATOM     20  C11 UNL     1      -3.572   0.623   1.906  1.00  0.00     0.109 A   
ATOM     21  C10 UNL     1      -2.690   0.263   2.895  1.00  0.00     0.108 A   
ATOM     22  O1  UNL     1      -4.865   0.386   2.251  1.00  0.00    -0.316 OA  
ATOM     23  O2  UNL     1      -3.316  -0.247   3.986  1.00  0.00    -0.316 OA  
ATOM     24  C13 UNL     1      -4.700  -0.132   3.591  1.00  0.00     0.337 C   
ENDBRANCH  15  16
ENDBRANCH  12  15
ENDBRANCH   7  12
ENDBRANCH   1   7
BRANCH   3  25
ATOM     25  C16 UNL     1       3.632  -0.983  -0.042  1.00  0.00     0.155 C   
BRANCH  25  26
ATOM     26  C17 UNL     1       4.966  -0.889  -0.803  1.00  0.00     0.185 C   
BRANCH  26  27
ATOM     27  O3  UNL     1       5.995  -1.549  -0.065  1.00  0.00    -0.394 OA  
ATOM     28  H24 UNL     1       6.831  -1.427  -0.553  1.00  0.00     0.210 HD  
ENDBRANCH  26  27
ENDBRANCH  25  26
BRANCH  25  29
ATOM     29  C18 UNL     1       3.557  -0.087   1.194  1.00  0.00    -0.023 A   
ATOM     30  C19 UNL     1       3.684   1.312   1.098  1.00  0.00     0.009 A   
ATOM     31  C23 UNL     1       3.318  -0.657   2.458  1.00  0.00     0.009 A   
ATOM     32  C20 UNL     1       3.567   2.116   2.233  1.00  0.00     0.039 A   
ATOM     33  C22 UNL     1       3.200   0.151   3.591  1.00  0.00     0.039 A   
ATOM     34  C21 UNL     1       3.323   1.529   3.467  1.00  0.00     0.123 A   
ATOM     35  F1  UNL     1       3.199   2.302   4.553  1.00  0.00    -0.207 F   
ENDBRANCH  25  29
ENDBRANCH   3  25
TORSDOF 10
