REMARK SMILES Cc1ncncc1Cn1cc([C@@H]([NH2+]Cc2ccc3c(c2)OCO3)C(C)C)nn1
REMARK SMILES IDX 9 1 10 2 11 3 27 4 28 5 8 7 7 8 2 9 3 10 4 11 6 12 5 13 1 14
REMARK SMILES IDX 12 15 13 16 14 19 15 20 16 21 20 22 17 23 19 24 18 25 21 26
REMARK SMILES IDX 23 27 22 28 24 29 25 30 26 31
REMARK H PARENT 10 6 13 17 13 18
ROOT
ATOM     1   N3  UNL     1       0.539  -0.398  -1.881  1.00  0.00    -0.208 N   
ATOM     2   C7  UNL     1       0.732  -1.317  -0.887  1.00  0.00     0.046 A   
ATOM     3   C8  UNL     1      -0.490  -1.383  -0.255  1.00  0.00     0.127 A   
ATOM     4   N5  UNL     1      -1.362  -0.520  -0.870  1.00  0.00    -0.132 NA  
ATOM     5   N6  UNL     1      -0.726   0.063  -1.872  1.00  0.00    -0.076 NA  
ATOM     6   H8  UNL     1       1.683  -1.804  -0.718  1.00  0.00     0.083 HD  
ENDROOT
BRANCH   1   7
ATOM     7   C6  UNL     1       1.488   0.073  -2.877  1.00  0.00     0.173 C   
BRANCH   7   8
ATOM     8   C5  UNL     1       2.187   1.313  -2.414  1.00  0.00     0.011 A   
ATOM     9   C2  UNL     1       3.494   1.351  -1.943  1.00  0.00     0.045 A   
ATOM     10  N1  UNL     1       4.075   2.496  -1.524  1.00  0.00    -0.241 NA  
ATOM     11  C3  UNL     1       3.333   3.613  -1.580  1.00  0.00     0.221 A   
ATOM     12  C4  UNL     1       1.525   2.531  -2.419  1.00  0.00     0.120 A   
ATOM     13  N2  UNL     1       2.068   3.689  -2.009  1.00  0.00    -0.244 NA  
ATOM     14  C1  UNL     1       4.362   0.129  -1.871  1.00  0.00     0.067 C   
ENDBRANCH   7   8
ENDBRANCH   1   7
BRANCH   3  15
ATOM     15  C9  UNL     1      -0.950  -2.138   0.951  1.00  0.00     0.117 C   
BRANCH  15  16
ATOM     16  N4  UNL     1      -1.881  -1.259   1.763  1.00  0.00     0.249 N   
ATOM     17  H10 UNL     1      -2.269  -0.567   1.100  1.00  0.00     0.199 HD  
ATOM     18  H11 UNL     1      -2.683  -1.798   2.103  1.00  0.00     0.199 HD  
BRANCH  16  19
ATOM     19  C10 UNL     1      -1.273  -0.527   2.909  1.00  0.00     0.164 C   
BRANCH  19  20
ATOM     20  C11 UNL     1      -0.166   0.414   2.529  1.00  0.00    -0.002 A   
ATOM     21  C12 UNL     1      -0.452   1.631   1.864  1.00  0.00     0.012 A   
ATOM     22  C16 UNL     1       1.170   0.085   2.818  1.00  0.00     0.045 A   
ATOM     23  C13 UNL     1       0.573   2.513   1.505  1.00  0.00     0.037 A   
ATOM     24  C15 UNL     1       2.156   0.975   2.445  1.00  0.00     0.109 A   
ATOM     25  C14 UNL     1       1.866   2.159   1.817  1.00  0.00     0.108 A   
ATOM     26  O1  UNL     1       3.490   0.805   2.646  1.00  0.00    -0.316 OA  
ATOM     27  O2  UNL     1       2.976   2.900   1.570  1.00  0.00    -0.316 OA  
ATOM     28  C17 UNL     1       4.008   2.036   2.087  1.00  0.00     0.337 C   
ENDBRANCH  19  20
ENDBRANCH  16  19
ENDBRANCH  15  16
BRANCH  15  29
ATOM     29  C18 UNL     1      -1.679  -3.467   0.624  1.00  0.00     0.037 C   
ATOM     30  C19 UNL     1      -0.726  -4.488  -0.009  1.00  0.00     0.014 C   
ATOM     31  C20 UNL     1      -2.923  -3.307  -0.259  1.00  0.00     0.014 C   
ENDBRANCH  15  29
ENDBRANCH   3  15
TORSDOF 7
