REMARK SMILES CC(C)[C@H]([NH2+]Cc1ccc2c(c1)OCO2)c1cn(CCc2ccc(O)c(F)c2)nn1
REMARK SMILES IDX 16 1 17 2 18 3 29 4 30 5 4 7 2 8 1 9 3 10 5 11 6 14 7 15
REMARK SMILES IDX 8 16 12 17 9 18 11 19 10 20 13 21 15 22 14 23 19 24 20 25
REMARK SMILES IDX 21 26 22 27 28 28 23 29 26 30 24 31 27 32 25 33
REMARK H PARENT 17 6 5 12 5 13 25 34
ROOT
ATOM     1   C13 UNL     1      -1.939  -0.758   0.522  1.00  0.00     0.127 A   
ATOM     2   C14 UNL     1      -1.061  -1.816   0.439  1.00  0.00     0.045 A   
ATOM     3   N2  UNL     1      -1.452  -2.481  -0.690  1.00  0.00    -0.212 N   
ATOM     4   N3  UNL     1      -2.511  -1.879  -1.261  1.00  0.00    -0.076 NA  
ATOM     5   N4  UNL     1      -2.814  -0.817  -0.533  1.00  0.00    -0.132 NA  
ATOM     6   H18 UNL     1      -0.211  -2.126   1.031  1.00  0.00     0.083 HD  
ENDROOT
BRANCH   1   7
ATOM     7   C4  UNL     1      -1.998   0.400   1.463  1.00  0.00     0.117 C   
BRANCH   7   8
ATOM     8   C2  UNL     1      -3.017   0.232   2.620  1.00  0.00     0.037 C   
ATOM     9   C1  UNL     1      -2.620  -0.918   3.553  1.00  0.00     0.014 C   
ATOM     10  C3  UNL     1      -4.470   0.051   2.167  1.00  0.00     0.014 C   
ENDBRANCH   7   8
BRANCH   7  11
ATOM     11  N1  UNL     1      -2.340   1.662   0.699  1.00  0.00     0.249 N   
ATOM     12  H9  UNL     1      -3.147   1.426   0.105  1.00  0.00     0.199 HD  
ATOM     13  H10 UNL     1      -2.637   2.401   1.343  1.00  0.00     0.199 HD  
BRANCH  11  14
ATOM     14  C5  UNL     1      -1.274   2.195  -0.203  1.00  0.00     0.164 C   
BRANCH  14  15
ATOM     15  C6  UNL     1      -0.140   2.830   0.553  1.00  0.00    -0.002 A   
ATOM     16  C7  UNL     1      -0.282   4.131   1.093  1.00  0.00     0.012 A   
ATOM     17  C11 UNL     1       1.057   2.124   0.758  1.00  0.00     0.045 A   
ATOM     18  C8  UNL     1       0.754   4.722   1.826  1.00  0.00     0.037 A   
ATOM     19  C10 UNL     1       2.057   2.734   1.487  1.00  0.00     0.109 A   
ATOM     20  C9  UNL     1       1.910   3.996   2.006  1.00  0.00     0.108 A   
ATOM     21  O1  UNL     1       3.264   2.187   1.784  1.00  0.00    -0.316 OA  
ATOM     22  O2  UNL     1       3.010   4.407   2.688  1.00  0.00    -0.316 OA  
ATOM     23  C12 UNL     1       3.883   3.269   2.515  1.00  0.00     0.337 C   
ENDBRANCH  14  15
ENDBRANCH  11  14
ENDBRANCH   7  11
ENDBRANCH   1   7
BRANCH   3  24
ATOM     24  C15 UNL     1      -0.810  -3.613  -1.326  1.00  0.00     0.139 C   
BRANCH  24  25
ATOM     25  C16 UNL     1      -0.131  -3.253  -2.651  1.00  0.00     0.057 C   
BRANCH  25  26
ATOM     26  C17 UNL     1       0.910  -2.166  -2.502  1.00  0.00    -0.043 A   
ATOM     27  C18 UNL     1       2.181  -2.456  -1.981  1.00  0.00     0.006 A   
ATOM     28  C22 UNL     1       0.595  -0.840  -2.836  1.00  0.00     0.045 A   
ATOM     29  C19 UNL     1       3.119  -1.437  -1.788  1.00  0.00     0.036 A   
ATOM     30  C21 UNL     1       1.533   0.166  -2.636  1.00  0.00     0.153 A   
ATOM     31  C20 UNL     1       2.787  -0.129  -2.116  1.00  0.00     0.107 A   
ATOM     32  F1  UNL     1       1.205   1.439  -2.902  1.00  0.00    -0.204 F   
BRANCH  31  33
ATOM     33  O3  UNL     1       3.712   0.850  -1.899  1.00  0.00    -0.358 OA  
ATOM     34  H25 UNL     1       3.374   1.674  -2.295  1.00  0.00     0.218 HD  
ENDBRANCH  31  33
ENDBRANCH  25  26
ENDBRANCH  24  25
ENDBRANCH   3  24
TORSDOF 9
