REMARK SMILES C[C@H](Cc1ccccc1)n1cc([C@@H]([NH2+]Cc2ccc3c(c2)OCO3)C(C)(C)C)nn1
REMARK SMILES IDX 10 1 11 2 12 3 29 4 30 5 2 7 1 8 3 9 4 10 5 11 9 12 6 13
REMARK SMILES IDX 8 14 7 15 13 16 14 17 15 20 16 21 17 22 21 23 18 24 20 25
REMARK SMILES IDX 19 26 22 27 24 28 23 29 25 30 26 31 27 32 28 33
REMARK H PARENT 11 6 14 18 14 19
ROOT
ATOM     1   N1  UNL     1       0.117  -1.720   1.048  1.00  0.00    -0.209 N   
ATOM     2   C10 UNL     1       0.850  -0.632   1.437  1.00  0.00     0.046 A   
ATOM     3   C11 UNL     1       0.977   0.113   0.286  1.00  0.00     0.127 A   
ATOM     4   N3  UNL     1       0.392  -0.566  -0.753  1.00  0.00    -0.132 NA  
ATOM     5   N4  UNL     1      -0.118  -1.689  -0.278  1.00  0.00    -0.076 NA  
ATOM     6   H12 UNL     1       1.154  -0.476   2.463  1.00  0.00     0.083 HD  
ENDROOT
BRANCH   1   7
ATOM     7   C2  UNL     1      -0.421  -2.781   1.890  1.00  0.00     0.101 C   
ATOM     8   C1  UNL     1       0.040  -4.158   1.409  1.00  0.00     0.031 C   
BRANCH   7   9
ATOM     9   C3  UNL     1      -1.957  -2.713   1.981  1.00  0.00     0.060 C   
BRANCH   9  10
ATOM     10  C4  UNL     1      -2.454  -1.419   2.588  1.00  0.00    -0.046 A   
ATOM     11  C5  UNL     1      -2.986  -0.413   1.769  1.00  0.00     0.004 A   
ATOM     12  C9  UNL     1      -2.369  -1.200   3.969  1.00  0.00     0.004 A   
ATOM     13  C6  UNL     1      -3.427   0.789   2.324  1.00  0.00     0.000 A   
ATOM     14  C8  UNL     1      -2.808   0.004   4.520  1.00  0.00     0.000 A   
ATOM     15  C7  UNL     1      -3.336   0.998   3.698  1.00  0.00     0.000 A   
ENDBRANCH   9  10
ENDBRANCH   7   9
ENDBRANCH   1   7
BRANCH   3  16
ATOM     16  C12 UNL     1       1.649   1.427   0.019  1.00  0.00     0.120 C   
BRANCH  16  17
ATOM     17  N2  UNL     1       2.153   1.426  -1.406  1.00  0.00     0.250 N   
ATOM     18  H14 UNL     1       2.324   2.366  -1.769  1.00  0.00     0.199 HD  
ATOM     19  H15 UNL     1       1.393   1.031  -1.982  1.00  0.00     0.199 HD  
BRANCH  17  20
ATOM     20  C13 UNL     1       3.361   0.591  -1.654  1.00  0.00     0.164 C   
BRANCH  20  21
ATOM     21  C14 UNL     1       3.723   0.612  -3.112  1.00  0.00    -0.002 A   
ATOM     22  C15 UNL     1       4.683   1.529  -3.602  1.00  0.00     0.012 A   
ATOM     23  C19 UNL     1       3.065  -0.249  -4.008  1.00  0.00     0.045 A   
ATOM     24  C16 UNL     1       4.993   1.582  -4.965  1.00  0.00     0.037 A   
ATOM     25  C18 UNL     1       3.394  -0.170  -5.346  1.00  0.00     0.109 A   
ATOM     26  C17 UNL     1       4.331   0.720  -5.811  1.00  0.00     0.108 A   
ATOM     27  O1  UNL     1       2.856  -0.924  -6.339  1.00  0.00    -0.316 OA  
ATOM     28  O2  UNL     1       4.503   0.635  -7.156  1.00  0.00    -0.316 OA  
ATOM     29  C20 UNL     1       3.580  -0.425  -7.486  1.00  0.00     0.337 C   
ENDBRANCH  20  21
ENDBRANCH  17  20
ENDBRANCH  16  17
BRANCH  16  30
ATOM     30  C21 UNL     1       0.734   2.678   0.272  1.00  0.00     0.010 C   
ATOM     31  C22 UNL     1      -0.492   2.713  -0.662  1.00  0.00     0.017 C   
ATOM     32  C23 UNL     1       0.231   2.686   1.734  1.00  0.00     0.017 C   
ATOM     33  C24 UNL     1       1.537   3.985   0.072  1.00  0.00     0.017 C   
ENDBRANCH  16  30
ENDBRANCH   3  16
TORSDOF 8
