REMARK SMILES C[C@@H](Cc1ccccc1)n1cc([C@@H]([NH2+]Cc2ccc3c(c2)OCO3)C(C)(C)C)nn1
REMARK SMILES IDX 10 1 11 2 12 3 29 4 30 5 2 7 1 8 3 9 4 10 5 11 9 12 6 13
REMARK SMILES IDX 8 14 7 15 13 16 14 17 15 20 16 21 17 22 21 23 18 24 20 25
REMARK SMILES IDX 19 26 22 27 24 28 23 29 25 30 26 31 27 32 28 33
REMARK H PARENT 11 6 14 18 14 19
ROOT
ATOM     1   N1  UNL     1       3.130  -1.119   1.194  1.00  0.00    -0.209 N   
ATOM     2   C10 UNL     1       2.461  -0.447   0.209  1.00  0.00     0.046 A   
ATOM     3   C11 UNL     1       2.077   0.730   0.811  1.00  0.00     0.127 A   
ATOM     4   N3  UNL     1       2.519   0.737   2.109  1.00  0.00    -0.132 NA  
ATOM     5   N4  UNL     1       3.163  -0.397   2.331  1.00  0.00    -0.076 NA  
ATOM     6   H12 UNL     1       2.294  -0.870  -0.772  1.00  0.00     0.083 HD  
ENDROOT
BRANCH   1   7
ATOM     7   C2  UNL     1       3.671  -2.471   1.139  1.00  0.00     0.101 C   
ATOM     8   C1  UNL     1       5.173  -2.475   1.421  1.00  0.00     0.031 C   
BRANCH   7   9
ATOM     9   C3  UNL     1       2.926  -3.428   2.090  1.00  0.00     0.060 C   
BRANCH   9  10
ATOM     10  C4  UNL     1       1.437  -3.509   1.827  1.00  0.00    -0.046 A   
ATOM     11  C5  UNL     1       0.527  -2.998   2.763  1.00  0.00     0.004 A   
ATOM     12  C9  UNL     1       0.946  -4.099   0.654  1.00  0.00     0.004 A   
ATOM     13  C6  UNL     1      -0.848  -3.079   2.533  1.00  0.00     0.000 A   
ATOM     14  C8  UNL     1      -0.428  -4.170   0.422  1.00  0.00     0.000 A   
ATOM     15  C7  UNL     1      -1.324  -3.664   1.361  1.00  0.00     0.000 A   
ENDBRANCH   9  10
ENDBRANCH   7   9
ENDBRANCH   1   7
BRANCH   3  16
ATOM     16  C12 UNL     1       1.208   1.844   0.319  1.00  0.00     0.120 C   
BRANCH  16  17
ATOM     17  N2  UNL     1       0.230   2.218   1.416  1.00  0.00     0.250 N   
ATOM     18  H14 UNL     1      -0.255   3.091   1.198  1.00  0.00     0.199 HD  
ATOM     19  H15 UNL     1       0.797   2.380   2.260  1.00  0.00     0.199 HD  
BRANCH  17  20
ATOM     20  C13 UNL     1      -0.789   1.182   1.773  1.00  0.00     0.164 C   
BRANCH  20  21
ATOM     21  C14 UNL     1      -1.783   0.936   0.672  1.00  0.00    -0.002 A   
ATOM     22  C15 UNL     1      -2.813   1.870   0.412  1.00  0.00     0.012 A   
ATOM     23  C19 UNL     1      -1.673  -0.214  -0.129  1.00  0.00     0.045 A   
ATOM     24  C16 UNL     1      -3.722   1.663  -0.632  1.00  0.00     0.037 A   
ATOM     25  C18 UNL     1      -2.583  -0.387  -1.150  1.00  0.00     0.109 A   
ATOM     26  C17 UNL     1      -3.579   0.525  -1.395  1.00  0.00     0.108 A   
ATOM     27  O1  UNL     1      -2.613  -1.435  -2.014  1.00  0.00    -0.316 OA  
ATOM     28  O2  UNL     1      -4.364   0.166  -2.443  1.00  0.00    -0.316 OA  
ATOM     29  C20 UNL     1      -3.766  -1.093  -2.818  1.00  0.00     0.337 C   
ENDBRANCH  20  21
ENDBRANCH  17  20
ENDBRANCH  16  17
BRANCH  16  30
ATOM     30  C21 UNL     1       1.996   3.110  -0.169  1.00  0.00     0.010 C   
ATOM     31  C22 UNL     1       1.024   4.136  -0.797  1.00  0.00     0.017 C   
ATOM     32  C23 UNL     1       3.004   2.711  -1.272  1.00  0.00     0.017 C   
ATOM     33  C24 UNL     1       2.772   3.813   0.963  1.00  0.00     0.017 C   
ENDBRANCH  16  30
ENDBRANCH   3  16
TORSDOF 8
