REMARK SMILES CC(C)(O)c1cccc(Cn2cc([C@@H]([NH2+]Cc3ccc4c(c3)OCO4)C(C)(C)C)nn2)n1
REMARK SMILES IDX 11 1 12 2 13 3 30 4 31 5 10 7 9 8 5 9 6 10 32 11 7 12 8 13
REMARK SMILES IDX 2 14 1 15 3 16 4 17 14 19 15 20 16 23 17 24 18 25 22 26
REMARK SMILES IDX 19 27 21 28 20 29 23 30 25 31 24 32 26 33 27 34 28 35 29 36
REMARK H PARENT 12 6 4 18 15 21 15 22
ROOT
ATOM     1   N1  UNL     1      -2.878   1.884   0.748  1.00  0.00    -0.206 N   
ATOM     2   C10 UNL     1      -1.835   1.488   1.543  1.00  0.00     0.046 A   
ATOM     3   C11 UNL     1      -0.728   1.631   0.736  1.00  0.00     0.127 A   
ATOM     4   N3  UNL     1      -1.115   2.167  -0.466  1.00  0.00    -0.132 NA  
ATOM     5   N4  UNL     1      -2.428   2.329  -0.442  1.00  0.00    -0.076 NA  
ATOM     6   H13 UNL     1      -1.989   1.081   2.533  1.00  0.00     0.083 HD  
ENDROOT
BRANCH   1   7
ATOM     7   C9  UNL     1      -4.304   1.794   1.027  1.00  0.00     0.190 C   
BRANCH   7   8
ATOM     8   C8  UNL     1      -4.784   0.359   1.068  1.00  0.00     0.060 A   
ATOM     9   C4  UNL     1      -4.316  -1.928   0.802  1.00  0.00     0.072 A   
ATOM     10  C5  UNL     1      -5.611  -2.275   1.160  1.00  0.00     0.027 A   
ATOM     11  N5  UNL     1      -3.906  -0.628   0.753  1.00  0.00    -0.253 NA  
ATOM     12  C6  UNL     1      -6.508  -1.258   1.476  1.00  0.00     0.004 A   
ATOM     13  C7  UNL     1      -6.096   0.073   1.430  1.00  0.00     0.025 A   
BRANCH   9  14
ATOM     14  C2  UNL     1      -3.243  -2.950   0.433  1.00  0.00     0.101 C   
ATOM     15  C1  UNL     1      -2.931  -3.891   1.593  1.00  0.00     0.049 C   
ATOM     16  C3  UNL     1      -3.612  -3.721  -0.832  1.00  0.00     0.049 C   
BRANCH  14  17
ATOM     17  O1  UNL     1      -2.021  -2.221   0.142  1.00  0.00    -0.384 OA  
ATOM     18  H7  UNL     1      -2.329  -1.288   0.151  1.00  0.00     0.211 HD  
ENDBRANCH  14  17
ENDBRANCH   9  14
ENDBRANCH   7   8
ENDBRANCH   1   7
BRANCH   3  19
ATOM     19  C12 UNL     1       0.694   1.212   0.944  1.00  0.00     0.120 C   
BRANCH  19  20
ATOM     20  N2  UNL     1       1.240   0.650  -0.346  1.00  0.00     0.250 N   
ATOM     21  H15 UNL     1       2.258   0.572  -0.328  1.00  0.00     0.199 HD  
ATOM     22  H16 UNL     1       1.007   1.318  -1.094  1.00  0.00     0.199 HD  
BRANCH  20  23
ATOM     23  C13 UNL     1       0.680  -0.673  -0.761  1.00  0.00     0.164 C   
BRANCH  23  24
ATOM     24  C14 UNL     1       1.475  -1.222  -1.914  1.00  0.00    -0.002 A   
ATOM     25  C15 UNL     1       1.075  -0.972  -3.247  1.00  0.00     0.012 A   
ATOM     26  C19 UNL     1       2.665  -1.929  -1.669  1.00  0.00     0.045 A   
ATOM     27  C16 UNL     1       1.844  -1.427  -4.325  1.00  0.00     0.037 A   
ATOM     28  C18 UNL     1       3.402  -2.356  -2.753  1.00  0.00     0.109 A   
ATOM     29  C17 UNL     1       3.004  -2.113  -4.043  1.00  0.00     0.108 A   
ATOM     30  O2  UNL     1       4.578  -3.031  -2.688  1.00  0.00    -0.316 OA  
ATOM     31  O3  UNL     1       3.878  -2.609  -4.955  1.00  0.00    -0.316 OA  
ATOM     32  C20 UNL     1       4.860  -3.222  -4.093  1.00  0.00     0.337 C   
ENDBRANCH  23  24
ENDBRANCH  20  23
ENDBRANCH  19  20
BRANCH  19  33
ATOM     33  C21 UNL     1       1.627   2.352   1.485  1.00  0.00     0.010 C   
ATOM     34  C22 UNL     1       1.784   3.517   0.487  1.00  0.00     0.017 C   
ATOM     35  C23 UNL     1       1.063   2.921   2.807  1.00  0.00     0.017 C   
ATOM     36  C24 UNL     1       3.034   1.792   1.803  1.00  0.00     0.017 C   
ENDBRANCH  19  33
ENDBRANCH   3  19
TORSDOF 9
