REMARK SMILES CC(C)(C)[C@H]([NH2+]Cc1ccc2c(c1)OCO2)c1cn([C@@H]2CCn3nccc3C2)nn1
REMARK SMILES IDX 5 1 2 2 1 3 3 4 4 5 6 6 7 9 8 10 9 11 13 12 10 13 12 14
REMARK SMILES IDX 11 15 14 16 16 17 15 18 17 19 18 20 30 21 19 22 29 23 20 25
REMARK SMILES IDX 21 26 28 27 22 28 27 29 23 30 26 31 24 32 25 33
REMARK H PARENT 6 7 6 8 18 24
ROOT
ATOM     1   C5  UNL     1       1.022   0.613  -0.590  1.00  0.00     0.120 C   
ENDROOT
BRANCH   1   2
ATOM     2   C2  UNL     1       2.424   0.519   0.108  1.00  0.00     0.010 C   
ATOM     3   C1  UNL     1       2.368   0.869   1.609  1.00  0.00     0.017 C   
ATOM     4   C3  UNL     1       3.426   1.478  -0.576  1.00  0.00     0.017 C   
ATOM     5   C4  UNL     1       3.000  -0.909  -0.036  1.00  0.00     0.017 C   
ENDBRANCH   1   2
BRANCH   1   6
ATOM     6   N1  UNL     1       0.443   1.998  -0.423  1.00  0.00     0.250 N   
ATOM     7   H11 UNL     1       0.032   2.036   0.522  1.00  0.00     0.199 HD  
ATOM     8   H12 UNL     1       1.159   2.728  -0.451  1.00  0.00     0.199 HD  
BRANCH   6   9
ATOM     9   C6  UNL     1      -0.637   2.354  -1.386  1.00  0.00     0.164 C   
BRANCH   9  10
ATOM     10  C7  UNL     1      -1.165   3.730  -1.096  1.00  0.00    -0.002 A   
ATOM     11  C8  UNL     1      -2.172   3.912  -0.116  1.00  0.00     0.012 A   
ATOM     12  C12 UNL     1      -0.628   4.849  -1.755  1.00  0.00     0.045 A   
ATOM     13  C9  UNL     1      -2.648   5.190   0.194  1.00  0.00     0.037 A   
ATOM     14  C11 UNL     1      -1.119   6.095  -1.424  1.00  0.00     0.109 A   
ATOM     15  C10 UNL     1      -2.100   6.262  -0.477  1.00  0.00     0.108 A   
ATOM     16  O1  UNL     1      -0.711   7.274  -1.964  1.00  0.00    -0.316 OA  
ATOM     17  O2  UNL     1      -2.436   7.567  -0.303  1.00  0.00    -0.316 OA  
ATOM     18  C13 UNL     1      -1.567   8.207  -1.262  1.00  0.00     0.337 C   
ENDBRANCH   9  10
ENDBRANCH   6   9
ENDBRANCH   1   6
BRANCH   1  19
ATOM     19  C14 UNL     1       0.023  -0.390  -0.093  1.00  0.00     0.127 A   
ATOM     20  C15 UNL     1      -0.294  -1.654  -0.536  1.00  0.00     0.046 A   
ATOM     21  N6  UNL     1      -0.808  -0.062   0.945  1.00  0.00    -0.132 NA  
ATOM     22  N2  UNL     1      -1.286  -2.071   0.307  1.00  0.00    -0.209 N   
ATOM     23  N5  UNL     1      -1.604  -1.092   1.176  1.00  0.00    -0.076 NA  
ATOM     24  H20 UNL     1       0.110  -2.270  -1.327  1.00  0.00     0.083 HD  
BRANCH  22  25
ATOM     25  C16 UNL     1      -1.958  -3.363   0.412  1.00  0.00     0.107 C   
ATOM     26  C17 UNL     1      -1.302  -4.259   1.482  1.00  0.00     0.046 C   
ATOM     27  C22 UNL     1      -2.089  -4.122  -0.925  1.00  0.00     0.078 C   
ATOM     28  C18 UNL     1       0.080  -4.760   1.055  1.00  0.00     0.134 C   
ATOM     29  C21 UNL     1      -0.842  -4.861  -1.279  1.00  0.00     0.032 A   
ATOM     30  N3  UNL     1       0.115  -5.150  -0.342  1.00  0.00    -0.230 N   
ATOM     31  C20 UNL     1      -0.378  -5.397  -2.459  1.00  0.00     0.043 A   
ATOM     32  N4  UNL     1       1.206  -5.731  -0.856  1.00  0.00    -0.190 NA  
ATOM     33  C19 UNL     1       0.885  -5.929  -2.137  1.00  0.00     0.133 A   
ENDBRANCH  22  25
ENDBRANCH   1  19
TORSDOF 6
