REMARK SMILES Cc1n[nH]c(C)c1Cn1cc([C@@H]([NH2+]Cc2ccc3c(c2)OCO3)C2CCCCC2)nn1
REMARK SMILES IDX 9 1 10 2 11 3 30 4 31 5 8 7 7 8 2 9 3 10 4 11 5 12 1 13 6 15
REMARK SMILES IDX 12 16 13 17 14 20 15 21 16 22 20 23 17 24 19 25 18 26 21 27
REMARK SMILES IDX 23 28 22 29 24 30 25 31 29 32 26 33 28 34 27 35
REMARK H PARENT 10 6 4 14 13 18 13 19
ROOT
ATOM     1   N3  UNL     1       2.119   0.434  -1.055  1.00  0.00    -0.208 N   
ATOM     2   C7  UNL     1       1.081   0.460  -0.163  1.00  0.00     0.046 A   
ATOM     3   C8  UNL     1       0.255   1.452  -0.641  1.00  0.00     0.127 A   
ATOM     4   N5  UNL     1       0.850   2.046  -1.726  1.00  0.00    -0.132 NA  
ATOM     5   N6  UNL     1       1.995   1.426  -1.958  1.00  0.00    -0.076 NA  
ATOM     6   H10 UNL     1       1.004  -0.244   0.655  1.00  0.00     0.083 HD  
ENDROOT
BRANCH   1   7
ATOM     7   C6  UNL     1       3.232  -0.502  -1.124  1.00  0.00     0.173 C   
BRANCH   7   8
ATOM     8   C5  UNL     1       2.737  -1.905  -1.232  1.00  0.00     0.013 A   
ATOM     9   C2  UNL     1       1.960  -2.471  -2.284  1.00  0.00     0.062 A   
ATOM     10  N1  UNL     1       1.655  -3.748  -2.038  1.00  0.00    -0.189 NA  
ATOM     11  N2  UNL     1       2.279  -4.027  -0.887  1.00  0.00    -0.242 N   
ATOM     12  C3  UNL     1       2.928  -2.952  -0.345  1.00  0.00     0.028 A   
ATOM     13  C1  UNL     1       1.466  -1.821  -3.526  1.00  0.00     0.069 C   
ATOM     14  H4  UNL     1       2.215  -4.974  -0.525  1.00  0.00     0.175 HD  
ATOM     15  C4  UNL     1       3.662  -3.046   0.940  1.00  0.00     0.064 C   
ENDBRANCH   7   8
ENDBRANCH   1   7
BRANCH   3  16
ATOM     16  C9  UNL     1      -1.071   1.947  -0.166  1.00  0.00     0.117 C   
BRANCH  16  17
ATOM     17  N4  UNL     1      -1.218   3.424  -0.475  1.00  0.00     0.249 N   
ATOM     18  H12 UNL     1      -2.199   3.707  -0.402  1.00  0.00     0.199 HD  
ATOM     19  H13 UNL     1      -0.936   3.538  -1.459  1.00  0.00     0.199 HD  
BRANCH  17  20
ATOM     20  C10 UNL     1      -0.374   4.356   0.330  1.00  0.00     0.164 C   
BRANCH  20  21
ATOM     21  C11 UNL     1      -0.793   4.424   1.772  1.00  0.00    -0.002 A   
ATOM     22  C12 UNL     1      -1.974   5.111   2.144  1.00  0.00     0.012 A   
ATOM     23  C16 UNL     1      -0.029   3.776   2.759  1.00  0.00     0.045 A   
ATOM     24  C13 UNL     1      -2.391   5.150   3.479  1.00  0.00     0.037 A   
ATOM     25  C15 UNL     1      -0.471   3.830   4.064  1.00  0.00     0.109 A   
ATOM     26  C14 UNL     1      -1.619   4.498   4.415  1.00  0.00     0.108 A   
ATOM     27  O1  UNL     1       0.138   3.250   5.130  1.00  0.00    -0.316 OA  
ATOM     28  O2  UNL     1      -1.872   4.428   5.747  1.00  0.00    -0.316 OA  
ATOM     29  C17 UNL     1      -0.740   3.659   6.204  1.00  0.00     0.337 C   
ENDBRANCH  20  21
ENDBRANCH  17  20
ENDBRANCH  16  17
BRANCH  16  30
ATOM     30  C18 UNL     1      -2.285   1.199  -0.786  1.00  0.00     0.043 C   
ATOM     31  C19 UNL     1      -2.341  -0.272  -0.328  1.00  0.00     0.010 C   
ATOM     32  C23 UNL     1      -2.361   1.278  -2.325  1.00  0.00     0.010 C   
ATOM     33  C20 UNL     1      -3.577  -0.986  -0.871  1.00  0.00     0.001 C   
ATOM     34  C22 UNL     1      -3.592   0.553  -2.867  1.00  0.00     0.001 C   
ATOM     35  C21 UNL     1      -3.652  -0.894  -2.391  1.00  0.00     0.000 C   
ENDBRANCH  16  30
ENDBRANCH   3  16
TORSDOF 7
