REMARK SMILES CC(C)[C@H]([NH2+]Cc1ccc2c(c1)OCO2)c1cn(-c2ccc(Cl)nc2)nn1
REMARK SMILES IDX 4 1 2 2 1 3 3 4 5 5 6 8 7 9 8 10 12 11 9 12 11 13 10 14
REMARK SMILES IDX 13 15 15 16 14 17 16 18 17 19 27 20 18 21 26 22 19 23 20 24
REMARK SMILES IDX 25 25 21 26 24 27 22 28 23 29
REMARK H PARENT 5 6 5 7
ROOT
ATOM     1   C4  UNL     1       1.138  -1.099  -0.729  1.00  0.00     0.117 C   
ENDROOT
BRANCH   1   2
ATOM     2   C2  UNL     1       0.419  -2.435  -0.404  1.00  0.00     0.037 C   
ATOM     3   C1  UNL     1       1.323  -3.390   0.385  1.00  0.00     0.014 C   
ATOM     4   C3  UNL     1      -0.914  -2.257   0.332  1.00  0.00     0.014 C   
ENDBRANCH   1   2
BRANCH   1   5
ATOM     5   N1  UNL     1       1.346  -0.301   0.530  1.00  0.00     0.249 N   
ATOM     6   H9  UNL     1       1.495  -0.898   1.350  1.00  0.00     0.199 HD  
ATOM     7   H10 UNL     1       0.470   0.213   0.710  1.00  0.00     0.199 HD  
BRANCH   5   8
ATOM     8   C5  UNL     1       2.439   0.710   0.473  1.00  0.00     0.164 C   
BRANCH   8   9
ATOM     9   C6  UNL     1       2.471   1.515   1.741  1.00  0.00    -0.002 A   
ATOM     10  C7  UNL     1       1.691   2.691   1.854  1.00  0.00     0.012 A   
ATOM     11  C11 UNL     1       3.225   1.075   2.842  1.00  0.00     0.045 A   
ATOM     12  C8  UNL     1       1.672   3.428   3.042  1.00  0.00     0.037 A   
ATOM     13  C10 UNL     1       3.181   1.824   3.999  1.00  0.00     0.109 A   
ATOM     14  C9  UNL     1       2.428   2.968   4.097  1.00  0.00     0.108 A   
ATOM     15  O1  UNL     1       3.845   1.538   5.150  1.00  0.00    -0.316 OA  
ATOM     16  O2  UNL     1       2.529   3.551   5.319  1.00  0.00    -0.316 OA  
ATOM     17  C12 UNL     1       3.443   2.651   5.982  1.00  0.00     0.337 C   
ENDBRANCH   8   9
ENDBRANCH   5   8
ENDBRANCH   1   5
BRANCH   1  18
ATOM     18  C13 UNL     1       0.392  -0.290  -1.748  1.00  0.00     0.127 A   
ATOM     19  C14 UNL     1       0.242  -0.452  -3.108  1.00  0.00     0.135 A   
ATOM     20  N5  UNL     1      -0.286   0.830  -1.357  1.00  0.00    -0.131 NA  
ATOM     21  N2  UNL     1      -0.562   0.599  -3.509  1.00  0.00    -0.179 N   
ATOM     22  N4  UNL     1      -0.846   1.367  -2.427  1.00  0.00    -0.071 NA  
BRANCH  21  23
ATOM     23  C15 UNL     1      -1.053   0.913  -4.794  1.00  0.00     0.076 A   
ATOM     24  C16 UNL     1      -1.856   2.042  -4.996  1.00  0.00     0.031 A   
ATOM     25  C19 UNL     1      -0.762   0.116  -5.894  1.00  0.00     0.138 A   
ATOM     26  C17 UNL     1      -2.329   2.325  -6.277  1.00  0.00     0.043 A   
ATOM     27  N3  UNL     1      -1.209   0.371  -7.145  1.00  0.00    -0.243 NA  
ATOM     28  C18 UNL     1      -1.980   1.467  -7.305  1.00  0.00     0.129 A   
ATOM     29  CL1 UNL     1      -2.515   1.742  -8.908  1.00  0.00    -0.062 Cl  
ENDBRANCH  21  23
ENDBRANCH   1  18
TORSDOF 6
