REMARK SMILES COc1ccc(O)c(Cn2cc([C@@H]([NH2+]Cc3ccc4c(c3)OCO4)C(C)(C)C)nn2)c1
REMARK SMILES IDX 10 1 11 2 12 3 29 4 30 5 9 7 8 8 3 9 4 10 31 11 5 12 6 13
REMARK SMILES IDX 2 14 1 15 7 16 13 18 14 19 15 22 16 23 17 24 21 25 18 26
REMARK SMILES IDX 20 27 19 28 22 29 24 30 23 31 25 32 26 33 27 34 28 35
REMARK H PARENT 11 6 7 17 14 20 14 21
ROOT
ATOM     1   N1  UNL     1       1.379  -0.946  -2.306  1.00  0.00    -0.208 N   
ATOM     2   C8  UNL     1       1.044   0.375  -2.438  1.00  0.00     0.046 A   
ATOM     3   C9  UNL     1       1.143   0.874  -1.159  1.00  0.00     0.127 A   
ATOM     4   N3  UNL     1       1.517  -0.138  -0.309  1.00  0.00    -0.132 NA  
ATOM     5   N4  UNL     1       1.660  -1.243  -1.021  1.00  0.00    -0.076 NA  
ATOM     6   H9  UNL     1       0.769   0.804  -3.393  1.00  0.00     0.083 HD  
ENDROOT
BRANCH   1   7
ATOM     7   C7  UNL     1       1.455  -1.965  -3.338  1.00  0.00     0.172 C   
BRANCH   7   8
ATOM     8   C6  UNL     1       0.088  -2.509  -3.658  1.00  0.00     0.004 A   
ATOM     9   C2  UNL     1      -1.721  -4.071  -3.152  1.00  0.00     0.075 A   
ATOM     10  C3  UNL     1      -2.463  -3.549  -4.210  1.00  0.00     0.036 A   
ATOM     11  C23 UNL     1      -0.453  -3.547  -2.882  1.00  0.00     0.041 A   
ATOM     12  C4  UNL     1      -1.945  -2.508  -4.987  1.00  0.00     0.036 A   
ATOM     13  C5  UNL     1      -0.682  -1.993  -4.703  1.00  0.00     0.076 A   
BRANCH   9  14
ATOM     14  O1  UNL     1      -2.110  -5.077  -2.312  1.00  0.00    -0.349 OA  
ATOM     15  C1  UNL     1      -3.355  -5.707  -2.592  1.00  0.00     0.203 C   
ENDBRANCH   9  14
BRANCH  13  16
ATOM     16  O2  UNL     1      -0.178  -0.962  -5.444  1.00  0.00    -0.361 OA  
ATOM     17  H6  UNL     1      -0.765  -0.816  -6.207  1.00  0.00     0.218 HD  
ENDBRANCH  13  16
ENDBRANCH   7   8
ENDBRANCH   1   7
BRANCH   3  18
ATOM     18  C10 UNL     1       0.842   2.228  -0.591  1.00  0.00     0.120 C   
BRANCH  18  19
ATOM     19  N2  UNL     1       0.248   2.037   0.786  1.00  0.00     0.250 N   
ATOM     20  H11 UNL     1       0.345   2.862   1.382  1.00  0.00     0.199 HD  
ATOM     21  H12 UNL     1       0.805   1.294   1.238  1.00  0.00     0.199 HD  
BRANCH  19  22
ATOM     22  C11 UNL     1      -1.171   1.585   0.807  1.00  0.00     0.164 C   
BRANCH  22  23
ATOM     23  C12 UNL     1      -1.586   1.225   2.206  1.00  0.00    -0.002 A   
ATOM     24  C13 UNL     1      -2.141   2.201   3.067  1.00  0.00     0.012 A   
ATOM     25  C17 UNL     1      -1.373  -0.081   2.682  1.00  0.00     0.045 A   
ATOM     26  C14 UNL     1      -2.490   1.880   4.384  1.00  0.00     0.037 A   
ATOM     27  C16 UNL     1      -1.730  -0.364   3.983  1.00  0.00     0.109 A   
ATOM     28  C15 UNL     1      -2.271   0.588   4.811  1.00  0.00     0.108 A   
ATOM     29  O3  UNL     1      -1.599  -1.570   4.594  1.00  0.00    -0.316 OA  
ATOM     30  O4  UNL     1      -2.550   0.101   6.049  1.00  0.00    -0.316 OA  
ATOM     31  C18 UNL     1      -2.126  -1.273   5.907  1.00  0.00     0.337 C   
ENDBRANCH  22  23
ENDBRANCH  19  22
ENDBRANCH  18  19
BRANCH  18  32
ATOM     32  C19 UNL     1       2.080   3.187  -0.524  1.00  0.00     0.010 C   
ATOM     33  C20 UNL     1       1.639   4.600  -0.078  1.00  0.00     0.017 C   
ATOM     34  C21 UNL     1       2.716   3.337  -1.926  1.00  0.00     0.017 C   
ATOM     35  C22 UNL     1       3.167   2.688   0.449  1.00  0.00     0.017 C   
ENDBRANCH  18  32
ENDBRANCH   3  18
TORSDOF 9
