REMARK SMILES CN(C)c1ccc(Cn2cc([C@@H]([NH2+]Cc3ccc4c(c3)OCO4)C(C)(C)C)nn2)cc1F
REMARK SMILES IDX 9 1 10 2 11 3 28 4 29 5 8 7 7 8 4 9 5 10 31 11 6 12 30 13
REMARK SMILES IDX 32 14 2 15 1 16 3 17 12 18 13 19 14 22 15 23 16 24 20 25
REMARK SMILES IDX 17 26 19 27 18 28 21 29 23 30 22 31 24 32 25 33 26 34 27 35
REMARK H PARENT 10 6 13 20 13 21
ROOT
ATOM     1   N2  UNL     1       2.077   2.197  -0.907  1.00  0.00    -0.208 N   
ATOM     2   C8  UNL     1       1.658   1.068  -1.558  1.00  0.00     0.046 A   
ATOM     3   C9  UNL     1       0.367   0.888  -1.113  1.00  0.00     0.127 A   
ATOM     4   N4  UNL     1       0.049   1.895  -0.236  1.00  0.00    -0.132 NA  
ATOM     5   N5  UNL     1       1.100   2.688  -0.120  1.00  0.00    -0.076 NA  
ATOM     6   H11 UNL     1       2.304   0.506  -2.217  1.00  0.00     0.083 HD  
ENDROOT
BRANCH   1   7
ATOM     7   C7  UNL     1       3.396   2.807  -0.924  1.00  0.00     0.169 C   
BRANCH   7   8
ATOM     8   C6  UNL     1       4.345   2.025  -0.052  1.00  0.00    -0.026 A   
ATOM     9   C3  UNL     1       6.066   0.459   1.620  1.00  0.00     0.064 A   
ATOM     10  C4  UNL     1       5.151   1.388   2.152  1.00  0.00     0.027 A   
ATOM     11  C24 UNL     1       6.077   0.343   0.217  1.00  0.00     0.144 A   
ATOM     12  C5  UNL     1       4.310   2.159   1.339  1.00  0.00     0.007 A   
ATOM     13  C23 UNL     1       5.243   1.108  -0.606  1.00  0.00     0.046 A   
ATOM     14  F1  UNL     1       6.905  -0.512  -0.405  1.00  0.00    -0.205 F   
BRANCH   9  15
ATOM     15  N1  UNL     1       6.856  -0.309   2.499  1.00  0.00    -0.335 N   
ATOM     16  C1  UNL     1       7.646   0.486   3.450  1.00  0.00     0.129 C   
ATOM     17  C2  UNL     1       7.584  -1.454   1.947  1.00  0.00     0.129 C   
ENDBRANCH   9  15
ENDBRANCH   7   8
ENDBRANCH   1   7
BRANCH   3  18
ATOM     18  C10 UNL     1      -0.614  -0.222  -1.342  1.00  0.00     0.120 C   
BRANCH  18  19
ATOM     19  N3  UNL     1      -1.321  -0.509  -0.037  1.00  0.00     0.250 N   
ATOM     20  H13 UNL     1      -1.599   0.405   0.352  1.00  0.00     0.199 HD  
ATOM     21  H14 UNL     1      -2.187  -1.040  -0.165  1.00  0.00     0.199 HD  
BRANCH  19  22
ATOM     22  C11 UNL     1      -0.493  -1.188   0.999  1.00  0.00     0.164 C   
BRANCH  22  23
ATOM     23  C12 UNL     1      -1.271  -1.339   2.275  1.00  0.00    -0.002 A   
ATOM     24  C13 UNL     1      -1.281  -0.290   3.227  1.00  0.00     0.012 A   
ATOM     25  C17 UNL     1      -2.034  -2.496   2.509  1.00  0.00     0.045 A   
ATOM     26  C14 UNL     1      -2.031  -0.396   4.403  1.00  0.00     0.037 A   
ATOM     27  C16 UNL     1      -2.759  -2.567   3.680  1.00  0.00     0.109 A   
ATOM     28  C15 UNL     1      -2.759  -1.549   4.601  1.00  0.00     0.108 A   
ATOM     29  O1  UNL     1      -3.539  -3.614   4.062  1.00  0.00    -0.316 OA  
ATOM     30  O2  UNL     1      -3.541  -1.824   5.676  1.00  0.00    -0.316 OA  
ATOM     31  C18 UNL     1      -3.990  -3.157   5.358  1.00  0.00     0.337 C   
ENDBRANCH  22  23
ENDBRANCH  19  22
ENDBRANCH  18  19
BRANCH  18  32
ATOM     32  C19 UNL     1      -1.655   0.063  -2.479  1.00  0.00     0.010 C   
ATOM     33  C20 UNL     1      -2.515  -1.195  -2.743  1.00  0.00     0.017 C   
ATOM     34  C21 UNL     1      -2.602   1.233  -2.144  1.00  0.00     0.017 C   
ATOM     35  C22 UNL     1      -0.924   0.394  -3.800  1.00  0.00     0.017 C   
ENDBRANCH  18  32
ENDBRANCH   3  18
TORSDOF 8
