REMARK SMILES CCn1ccc(Cn2cc([C@@H]([NH2+]Cc3ccc4c(c3)OCO4)C(C)(C)C)nn2)n1
REMARK SMILES IDX 8 1 9 2 10 3 27 4 28 5 7 7 6 8 3 9 4 10 29 11 5 12 2 13 1 14
REMARK SMILES IDX 11 15 12 16 13 19 14 20 15 21 19 22 16 23 18 24 17 25 20 26
REMARK SMILES IDX 22 27 21 28 23 29 24 30 25 31 26 32
REMARK H PARENT 9 6 12 17 12 18
ROOT
ATOM     1   N2  UNL     1      -0.781  -0.037   2.697  1.00  0.00    -0.206 N   
ATOM     2   C7  UNL     1      -0.728  -0.872   1.611  1.00  0.00     0.046 A   
ATOM     3   C8  UNL     1       0.335  -0.396   0.874  1.00  0.00     0.127 A   
ATOM     4   N4  UNL     1       0.893   0.674   1.530  1.00  0.00    -0.132 NA  
ATOM     5   N5  UNL     1       0.192   0.897   2.630  1.00  0.00    -0.076 NA  
ATOM     6   H10 UNL     1      -1.437  -1.677   1.470  1.00  0.00     0.083 HD  
ENDROOT
BRANCH   1   7
ATOM     7   C6  UNL     1      -1.693  -0.077   3.827  1.00  0.00     0.191 C   
BRANCH   7   8
ATOM     8   C5  UNL     1      -3.096   0.159   3.383  1.00  0.00     0.079 A   
ATOM     9   N1  UNL     1      -5.048  -0.298   2.682  1.00  0.00    -0.233 N   
ATOM     10  C3  UNL     1      -5.075   1.044   2.927  1.00  0.00     0.097 A   
ATOM     11  N6  UNL     1      -3.842  -0.855   2.916  1.00  0.00    -0.185 NA  
ATOM     12  C4  UNL     1      -3.823   1.374   3.390  1.00  0.00     0.044 A   
BRANCH   9  13
ATOM     13  C2  UNL     1      -6.150  -1.124   2.224  1.00  0.00     0.128 C   
ATOM     14  C1  UNL     1      -6.141  -1.305   0.715  1.00  0.00     0.027 C   
ENDBRANCH   9  13
ENDBRANCH   7   8
ENDBRANCH   1   7
BRANCH   3  15
ATOM     15  C9  UNL     1       0.875  -0.802  -0.467  1.00  0.00     0.120 C   
BRANCH  15  16
ATOM     16  N3  UNL     1       1.453   0.421  -1.145  1.00  0.00     0.250 N   
ATOM     17  H12 UNL     1       2.031   0.180  -1.954  1.00  0.00     0.199 HD  
ATOM     18  H13 UNL     1       2.071   0.872  -0.457  1.00  0.00     0.199 HD  
BRANCH  16  19
ATOM     19  C10 UNL     1       0.456   1.448  -1.568  1.00  0.00     0.164 C   
BRANCH  19  20
ATOM     20  C11 UNL     1       1.141   2.563  -2.310  1.00  0.00    -0.002 A   
ATOM     21  C12 UNL     1       1.820   3.582  -1.596  1.00  0.00     0.012 A   
ATOM     22  C16 UNL     1       1.159   2.574  -3.716  1.00  0.00     0.045 A   
ATOM     23  C13 UNL     1       2.502   4.601  -2.273  1.00  0.00     0.037 A   
ATOM     24  C15 UNL     1       1.836   3.596  -4.350  1.00  0.00     0.109 A   
ATOM     25  C14 UNL     1       2.493   4.580  -3.651  1.00  0.00     0.108 A   
ATOM     26  O1  UNL     1       1.946   3.752  -5.695  1.00  0.00    -0.316 OA  
ATOM     27  O2  UNL     1       3.105   5.477  -4.470  1.00  0.00    -0.316 OA  
ATOM     28  C17 UNL     1       2.732   4.965  -5.768  1.00  0.00     0.337 C   
ENDBRANCH  19  20
ENDBRANCH  16  19
ENDBRANCH  15  16
BRANCH  15  29
ATOM     29  C18 UNL     1       1.949  -1.948  -0.406  1.00  0.00     0.010 C   
ATOM     30  C19 UNL     1       2.404  -2.347  -1.831  1.00  0.00     0.017 C   
ATOM     31  C20 UNL     1       1.340  -3.219   0.237  1.00  0.00     0.017 C   
ATOM     32  C21 UNL     1       3.196  -1.546   0.410  1.00  0.00     0.017 C   
ENDBRANCH  15  29
ENDBRANCH   3  15
TORSDOF 8
