REMARK SMILES Cc1cc(=[N+]2C=C([C@@H]([NH2+]Cc3ccc4c(c3)OCO4)C(C)C)N=N2)cc(C)n1C
REMARK SMILES IDX 8 1 7 2 5 3 6 4 24 5 23 6 4 7 2 8 3 9 28 10 26 11 25 12 1 13
REMARK SMILES IDX 29 14 27 15 9 16 10 19 11 20 12 21 16 22 13 23 15 24 14 25
REMARK SMILES IDX 17 26 19 27 18 28 20 29 21 30 22 31
REMARK H PARENT 9 17 9 18
ROOT
ATOM     1   C7  UNL     1      -1.390   1.226  -2.970  1.00  0.00     0.117 C   
ENDROOT
BRANCH   1   2
ATOM     2   C6  UNL     1      -1.187   0.952  -1.509  1.00  0.00     0.127 C   
ATOM     3   N1  UNL     1      -0.488   0.453   0.504  1.00  0.00    -0.181 N   
ATOM     4   C5  UNL     1      -0.041   0.794  -0.755  1.00  0.00     0.135 C   
ATOM     5   N4  UNL     1      -1.842   0.427   0.501  1.00  0.00    -0.071 NA  
ATOM     6   N3  UNL     1      -2.274   0.718  -0.714  1.00  0.00    -0.131 NA  
BRANCH   3   7
ATOM     7   C4  UNL     1       0.251   0.149   1.679  1.00  0.00     0.061 A   
ATOM     8   C2  UNL     1       0.286  -0.477   4.029  1.00  0.00     0.008 A   
ATOM     9   C3  UNL     1      -0.422  -0.178   2.854  1.00  0.00     0.045 A   
ATOM     10  N5  UNL     1       1.652  -0.410   4.034  1.00  0.00    -0.311 N   
ATOM     11  C20 UNL     1       2.340  -0.145   2.880  1.00  0.00     0.008 A   
ATOM     12  C19 UNL     1       1.641   0.155   1.696  1.00  0.00     0.045 A   
ATOM     13  C1  UNL     1      -0.490  -0.842   5.269  1.00  0.00     0.062 C   
ATOM     14  C22 UNL     1       2.396  -0.642   5.301  1.00  0.00     0.135 C   
ATOM     15  C21 UNL     1       3.846  -0.142   2.852  1.00  0.00     0.062 C   
ENDBRANCH   3   7
ENDBRANCH   1   2
BRANCH   1  16
ATOM     16  N2  UNL     1      -2.509   0.354  -3.510  1.00  0.00     0.249 N   
ATOM     17  H7  UNL     1      -3.181   0.223  -2.738  1.00  0.00     0.199 HD  
ATOM     18  H8  UNL     1      -3.023   0.850  -4.247  1.00  0.00     0.199 HD  
BRANCH  16  19
ATOM     19  C8  UNL     1      -2.120  -0.989  -4.038  1.00  0.00     0.164 C   
BRANCH  19  20
ATOM     20  C9  UNL     1      -1.419  -1.864  -3.034  1.00  0.00    -0.002 A   
ATOM     21  C10 UNL     1      -2.138  -2.441  -1.959  1.00  0.00     0.012 A   
ATOM     22  C14 UNL     1      -0.033  -2.075  -3.128  1.00  0.00     0.045 A   
ATOM     23  C11 UNL     1      -1.485  -3.197  -0.979  1.00  0.00     0.037 A   
ATOM     24  C13 UNL     1       0.579  -2.829  -2.148  1.00  0.00     0.109 A   
ATOM     25  C12 UNL     1      -0.125  -3.370  -1.100  1.00  0.00     0.108 A   
ATOM     26  O1  UNL     1       1.907  -3.110  -2.078  1.00  0.00    -0.316 OA  
ATOM     27  O2  UNL     1       0.675  -4.056  -0.242  1.00  0.00    -0.316 OA  
ATOM     28  C15 UNL     1       1.930  -4.021  -0.957  1.00  0.00     0.337 C   
ENDBRANCH  19  20
ENDBRANCH  16  19
ENDBRANCH   1  16
BRANCH   1  29
ATOM     29  C16 UNL     1      -1.716   2.708  -3.292  1.00  0.00     0.037 C   
ATOM     30  C17 UNL     1      -2.993   3.235  -2.626  1.00  0.00     0.014 C   
ATOM     31  C18 UNL     1      -0.538   3.629  -2.953  1.00  0.00     0.014 C   
ENDBRANCH   1  29
TORSDOF 6
