REMARK SMILES c1nc2c([nH]1)[C@H](Cn1cc([C@@H]([NH2+]Cc3ccc4c(c3)OCO4)C3CCCC3)nn1)NCC2
REMARK SMILES IDX 8 1 9 2 10 3 28 4 29 5 7 7 6 8 1 9 2 10 5 11 3 12 4 13 32 14
REMARK SMILES IDX 31 15 30 16 11 19 12 20 13 23 14 24 15 25 19 26 16 27 18 28
REMARK SMILES IDX 17 29 20 30 22 31 21 32 23 33 24 34 27 35 25 36 26 37
REMARK H PARENT 9 6 5 17 30 18 12 21 12 22
ROOT
ATOM     1   N3  UNL     1       2.055   1.113   2.064  1.00  0.00    -0.210 N   
ATOM     2   C6  UNL     1       2.021  -0.055   1.346  1.00  0.00     0.045 A   
ATOM     3   C7  UNL     1       1.464   0.332   0.144  1.00  0.00     0.127 A   
ATOM     4   N5  UNL     1       1.466   1.700   0.074  1.00  0.00    -0.132 NA  
ATOM     5   N6  UNL     1       1.856   2.171   1.249  1.00  0.00    -0.076 NA  
ATOM     6   H6  UNL     1       2.155  -1.019   1.816  1.00  0.00     0.083 HD  
ENDROOT
BRANCH   1   7
ATOM     7   C5  UNL     1       1.840   1.256   3.497  1.00  0.00     0.159 C   
BRANCH   7   8
ATOM     8   C4  UNL     1       0.510   0.605   3.987  1.00  0.00     0.120 C   
ATOM     9   C1  UNL     1      -2.052   1.735   1.626  1.00  0.00     0.186 A   
ATOM     10  N1  UNL     1      -2.108   0.439   1.379  1.00  0.00    -0.244 NA  
ATOM     11  N2  UNL     1      -1.130   2.036   2.598  1.00  0.00    -0.306 N   
ATOM     12  C2  UNL     1      -1.339  -0.117   2.365  1.00  0.00     0.062 A   
ATOM     13  C3  UNL     1      -0.617   0.845   3.030  1.00  0.00     0.049 A   
ATOM     14  C23 UNL     1      -1.194  -1.556   2.676  1.00  0.00     0.073 C   
ATOM     15  C22 UNL     1      -0.504  -1.681   4.057  1.00  0.00     0.088 C   
ATOM     16  N7  UNL     1       0.727  -0.864   4.156  1.00  0.00    -0.307 NA  
ATOM     17  H2  UNL     1      -0.866   2.968   2.894  1.00  0.00     0.154 HD  
ATOM     18  H26 UNL     1       1.158  -1.031   5.068  1.00  0.00     0.123 HD  
ENDBRANCH   7   8
ENDBRANCH   1   7
BRANCH   3  19
ATOM     19  C8  UNL     1       0.741  -0.504  -0.867  1.00  0.00     0.117 C   
BRANCH  19  20
ATOM     20  N4  UNL     1      -0.601   0.097  -1.209  1.00  0.00     0.249 N   
ATOM     21  H8  UNL     1      -1.256  -0.628  -1.512  1.00  0.00     0.199 HD  
ATOM     22  H9  UNL     1      -1.013   0.424  -0.310  1.00  0.00     0.199 HD  
BRANCH  20  23
ATOM     23  C9  UNL     1      -0.624   1.234  -2.171  1.00  0.00     0.164 C   
BRANCH  23  24
ATOM     24  C10 UNL     1      -1.819   2.129  -1.989  1.00  0.00    -0.002 A   
ATOM     25  C11 UNL     1      -1.640   3.469  -1.567  1.00  0.00     0.012 A   
ATOM     26  C15 UNL     1      -3.117   1.651  -2.239  1.00  0.00     0.045 A   
ATOM     27  C12 UNL     1      -2.734   4.324  -1.395  1.00  0.00     0.037 A   
ATOM     28  C14 UNL     1      -4.174   2.519  -2.055  1.00  0.00     0.109 A   
ATOM     29  C13 UNL     1      -3.989   3.816  -1.645  1.00  0.00     0.108 A   
ATOM     30  O1  UNL     1      -5.485   2.218  -2.250  1.00  0.00    -0.316 OA  
ATOM     31  O2  UNL     1      -5.159   4.495  -1.526  1.00  0.00    -0.316 OA  
ATOM     32  C16 UNL     1      -6.108   3.479  -1.919  1.00  0.00     0.337 C   
ENDBRANCH  23  24
ENDBRANCH  20  23
ENDBRANCH  19  20
BRANCH  19  33
ATOM     33  C17 UNL     1       1.561  -0.836  -2.122  1.00  0.00     0.043 C   
ATOM     34  C18 UNL     1       0.867  -1.817  -3.073  1.00  0.00     0.010 C   
ATOM     35  C21 UNL     1       2.864  -1.584  -1.815  1.00  0.00     0.010 C   
ATOM     36  C19 UNL     1       1.989  -2.353  -3.955  1.00  0.00     0.001 C   
ATOM     37  C20 UNL     1       3.277  -2.191  -3.151  1.00  0.00     0.001 C   
ENDBRANCH  19  33
ENDBRANCH   3  19
TORSDOF 7
