REMARK SMILES CC(C)(C)[C@H]([NH2+]Cc1ccc2c(c1)OCO2)c1cn(C[C@H](O)Cc2ccccc2)nn1
REMARK SMILES IDX 17 1 18 2 19 3 30 4 31 5 5 7 2 8 1 9 3 10 4 11 6 12 7 15
REMARK SMILES IDX 8 16 9 17 13 18 10 19 12 20 11 21 14 22 16 23 15 24 20 25
REMARK SMILES IDX 21 26 22 27 23 29 24 30 25 31 29 32 26 33 28 34 27 35
REMARK H PARENT 18 6 6 13 6 14 22 28
ROOT
ATOM     1   C14 UNL     1      -0.104   0.045   2.071  1.00  0.00     0.127 A   
ATOM     2   C15 UNL     1      -1.067   0.247   3.034  1.00  0.00     0.045 A   
ATOM     3   N2  UNL     1      -1.166   1.606   3.125  1.00  0.00    -0.210 N   
ATOM     4   N3  UNL     1      -0.300   2.208   2.286  1.00  0.00    -0.076 NA  
ATOM     5   N4  UNL     1       0.355   1.262   1.633  1.00  0.00    -0.132 NA  
ATOM     6   H20 UNL     1      -1.677  -0.418   3.631  1.00  0.00     0.083 HD  
ENDROOT
BRANCH   1   7
ATOM     7   C5  UNL     1       0.410  -1.210   1.435  1.00  0.00     0.120 C   
BRANCH   7   8
ATOM     8   C2  UNL     1       1.628  -1.863   2.181  1.00  0.00     0.010 C   
ATOM     9   C1  UNL     1       1.981  -3.227   1.543  1.00  0.00     0.017 C   
ATOM     10  C3  UNL     1       1.268  -2.141   3.658  1.00  0.00     0.017 C   
ATOM     11  C4  UNL     1       2.890  -0.975   2.150  1.00  0.00     0.017 C   
ENDBRANCH   7   8
BRANCH   7  12
ATOM     12  N1  UNL     1       0.779  -0.898   0.003  1.00  0.00     0.250 N   
ATOM     13  H11 UNL     1       1.316  -0.019   0.035  1.00  0.00     0.199 HD  
ATOM     14  H12 UNL     1       1.393  -1.599  -0.419  1.00  0.00     0.199 HD  
BRANCH  12  15
ATOM     15  C6  UNL     1      -0.379  -0.653  -0.904  1.00  0.00     0.164 C   
BRANCH  15  16
ATOM     16  C7  UNL     1       0.098  -0.135  -2.232  1.00  0.00    -0.002 A   
ATOM     17  C8  UNL     1       0.246   1.260  -2.432  1.00  0.00     0.012 A   
ATOM     18  C12 UNL     1       0.459  -1.026  -3.257  1.00  0.00     0.045 A   
ATOM     19  C9  UNL     1       0.727   1.763  -3.645  1.00  0.00     0.037 A   
ATOM     20  C11 UNL     1       0.936  -0.496  -4.438  1.00  0.00     0.109 A   
ATOM     21  C10 UNL     1       1.062   0.858  -4.629  1.00  0.00     0.108 A   
ATOM     22  O1  UNL     1       1.330  -1.214  -5.523  1.00  0.00    -0.316 OA  
ATOM     23  O2  UNL     1       1.544   1.164  -5.862  1.00  0.00    -0.316 OA  
ATOM     24  C13 UNL     1       1.701  -0.153  -6.433  1.00  0.00     0.337 C   
ENDBRANCH  15  16
ENDBRANCH  12  15
ENDBRANCH   7  12
ENDBRANCH   1   7
BRANCH   3  25
ATOM     25  C16 UNL     1      -1.922   2.390   4.076  1.00  0.00     0.166 C   
BRANCH  25  26
ATOM     26  C17 UNL     1      -3.446   2.211   4.058  1.00  0.00     0.138 C   
BRANCH  26  27
ATOM     27  O3  UNL     1      -3.815   0.882   4.435  1.00  0.00    -0.391 OA  
ATOM     28  H24 UNL     1      -4.771   0.887   4.620  1.00  0.00     0.211 HD  
ENDBRANCH  26  27
BRANCH  26  29
ATOM     29  C18 UNL     1      -4.160   2.682   2.776  1.00  0.00     0.069 C   
BRANCH  29  30
ATOM     30  C19 UNL     1      -3.950   1.901   1.496  1.00  0.00    -0.045 A   
ATOM     31  C20 UNL     1      -3.411   2.536   0.366  1.00  0.00     0.004 A   
ATOM     32  C24 UNL     1      -4.395   0.577   1.371  1.00  0.00     0.004 A   
ATOM     33  C21 UNL     1      -3.349   1.873  -0.862  1.00  0.00     0.000 A   
ATOM     34  C23 UNL     1      -4.323  -0.089   0.144  1.00  0.00     0.000 A   
ATOM     35  C22 UNL     1      -3.812   0.564  -0.975  1.00  0.00     0.000 A   
ENDBRANCH  29  30
ENDBRANCH  26  29
ENDBRANCH  25  26
ENDBRANCH   3  25
TORSDOF 10
