REMARK SMILES CC(C)(C)[C@H]([NH2+]Cc1ccc2c(c1)OCO2)c1cn(C[C@@H](O)Cc2ccccc2)nn1
REMARK SMILES IDX 17 1 18 2 19 3 30 4 31 5 5 7 2 8 1 9 3 10 4 11 6 12 7 15
REMARK SMILES IDX 8 16 9 17 13 18 10 19 12 20 11 21 14 22 16 23 15 24 20 25
REMARK SMILES IDX 21 26 22 27 23 29 24 30 25 31 29 32 26 33 28 34 27 35
REMARK H PARENT 18 6 6 13 6 14 22 28
ROOT
ATOM     1   C14 UNL     1       0.385   2.116  -0.321  1.00  0.00     0.127 A   
ATOM     2   C15 UNL     1       0.336   1.454   0.884  1.00  0.00     0.045 A   
ATOM     3   N2  UNL     1      -0.917   0.911   0.911  1.00  0.00    -0.210 N   
ATOM     4   N3  UNL     1      -1.609   1.235  -0.198  1.00  0.00    -0.076 NA  
ATOM     5   N4  UNL     1      -0.822   1.977  -0.961  1.00  0.00    -0.132 NA  
ATOM     6   H20 UNL     1       1.054   1.282   1.675  1.00  0.00     0.083 HD  
ENDROOT
BRANCH   1   7
ATOM     7   C5  UNL     1       1.510   2.815  -1.021  1.00  0.00     0.120 C   
BRANCH   7   8
ATOM     8   C2  UNL     1       1.574   4.359  -0.758  1.00  0.00     0.010 C   
ATOM     9   C1  UNL     1       0.335   5.108  -1.287  1.00  0.00     0.017 C   
ATOM     10  C3  UNL     1       2.834   4.959  -1.425  1.00  0.00     0.017 C   
ATOM     11  C4  UNL     1       1.694   4.634   0.759  1.00  0.00     0.017 C   
ENDBRANCH   7   8
BRANCH   7  12
ATOM     12  N1  UNL     1       1.385   2.533  -2.509  1.00  0.00     0.250 N   
ATOM     13  H11 UNL     1       1.569   3.368  -3.067  1.00  0.00     0.199 HD  
ATOM     14  H12 UNL     1       0.387   2.317  -2.665  1.00  0.00     0.199 HD  
BRANCH  12  15
ATOM     15  C6  UNL     1       2.196   1.403  -3.041  1.00  0.00     0.164 C   
BRANCH  15  16
ATOM     16  C7  UNL     1       1.823   0.055  -2.491  1.00  0.00    -0.002 A   
ATOM     17  C8  UNL     1       0.594  -0.550  -2.851  1.00  0.00     0.012 A   
ATOM     18  C12 UNL     1       2.684  -0.613  -1.604  1.00  0.00     0.045 A   
ATOM     19  C9  UNL     1       0.226  -1.796  -2.336  1.00  0.00     0.037 A   
ATOM     20  C11 UNL     1       2.294  -1.843  -1.118  1.00  0.00     0.109 A   
ATOM     21  C10 UNL     1       1.101  -2.419  -1.475  1.00  0.00     0.108 A   
ATOM     22  O1  UNL     1       3.006  -2.618  -0.257  1.00  0.00    -0.316 OA  
ATOM     23  O2  UNL     1       0.911  -3.627  -0.884  1.00  0.00    -0.316 OA  
ATOM     24  C13 UNL     1       2.151  -3.781  -0.164  1.00  0.00     0.337 C   
ENDBRANCH  15  16
ENDBRANCH  12  15
ENDBRANCH   7  12
ENDBRANCH   1   7
BRANCH   3  25
ATOM     25  C16 UNL     1      -1.502   0.053   1.925  1.00  0.00     0.166 C   
BRANCH  25  26
ATOM     26  C17 UNL     1      -0.931  -1.365   1.851  1.00  0.00     0.138 C   
BRANCH  26  27
ATOM     27  O3  UNL     1       0.403  -1.339   2.383  1.00  0.00    -0.391 OA  
ATOM     28  H24 UNL     1       0.747  -2.251   2.320  1.00  0.00     0.211 HD  
ENDBRANCH  26  27
BRANCH  26  29
ATOM     29  C18 UNL     1      -1.792  -2.341   2.671  1.00  0.00     0.069 C   
BRANCH  29  30
ATOM     30  C19 UNL     1      -1.368  -3.778   2.464  1.00  0.00    -0.045 A   
ATOM     31  C20 UNL     1      -0.621  -4.449   3.442  1.00  0.00     0.004 A   
ATOM     32  C24 UNL     1      -1.694  -4.453   1.278  1.00  0.00     0.004 A   
ATOM     33  C21 UNL     1      -0.208  -5.768   3.235  1.00  0.00     0.000 A   
ATOM     34  C23 UNL     1      -1.277  -5.770   1.074  1.00  0.00     0.000 A   
ATOM     35  C22 UNL     1      -0.534  -6.428   2.053  1.00  0.00     0.000 A   
ENDBRANCH  29  30
ENDBRANCH  26  29
ENDBRANCH  25  26
ENDBRANCH   3  25
TORSDOF 10
