REMARK SMILES Cc1ccc2c(n1)OCC[C@H]2n1cc([C@H](CC(C)C)[NH2+]Cc2ccc3c(c2)OCO3)nn1
REMARK SMILES IDX 15 1 14 2 12 3 13 4 32 5 31 6 11 8 2 9 3 10 7 11 4 12 6 13
REMARK SMILES IDX 5 14 8 15 9 16 10 17 1 18 16 19 17 20 18 21 19 22 20 23
REMARK SMILES IDX 21 26 22 27 23 28 27 29 24 30 26 31 25 32 28 33 30 34 29 35
REMARK H PARENT 13 7 20 24 20 25
ROOT
ATOM     1   C12 UNL     1       1.257   0.203   2.191  1.00  0.00     0.114 C   
ENDROOT
BRANCH   1   2
ATOM     2   C11 UNL     1       0.820  -1.079   1.575  1.00  0.00     0.127 A   
ATOM     3   N2  UNL     1       0.131  -2.693   0.299  1.00  0.00    -0.204 N   
ATOM     4   C10 UNL     1       0.609  -1.411   0.255  1.00  0.00     0.046 A   
ATOM     5   N5  UNL     1       0.028  -3.110   1.578  1.00  0.00    -0.075 NA  
ATOM     6   N4  UNL     1       0.452  -2.135   2.365  1.00  0.00    -0.132 NA  
ATOM     7   H11 UNL     1       0.742  -0.864  -0.670  1.00  0.00     0.083 HD  
BRANCH   3   8
ATOM     8   C9  UNL     1      -0.282  -3.576  -0.795  1.00  0.00     0.136 C   
ATOM     9   C2  UNL     1      -2.040  -1.284  -3.909  1.00  0.00     0.040 A   
ATOM     10  C3  UNL     1      -2.795  -1.518  -2.768  1.00  0.00     0.024 A   
ATOM     11  N1  UNL     1      -0.789  -1.776  -4.065  1.00  0.00    -0.229 NA  
ATOM     12  C4  UNL     1      -2.239  -2.282  -1.747  1.00  0.00     0.012 A   
ATOM     13  C6  UNL     1      -0.267  -2.522  -3.074  1.00  0.00     0.172 A   
ATOM     14  C5  UNL     1      -0.944  -2.794  -1.893  1.00  0.00     0.024 A   
ATOM     15  O1  UNL     1       0.980  -3.000  -3.356  1.00  0.00    -0.329 OA  
ATOM     16  C7  UNL     1       1.728  -3.531  -2.267  1.00  0.00     0.172 C   
ATOM     17  C8  UNL     1       0.888  -4.391  -1.338  1.00  0.00     0.059 C   
ATOM     18  C1  UNL     1      -2.601  -0.466  -5.033  1.00  0.00     0.067 C   
ENDBRANCH   3   8
ENDBRANCH   1   2
BRANCH   1  19
ATOM     19  C13 UNL     1       2.660   0.137   2.830  1.00  0.00     0.064 C   
BRANCH  19  20
ATOM     20  C14 UNL     1       3.878  -0.017   1.891  1.00  0.00    -0.012 C   
ATOM     21  C15 UNL     1       4.090  -1.448   1.397  1.00  0.00     0.007 C   
ATOM     22  C16 UNL     1       3.860   0.964   0.721  1.00  0.00     0.007 C   
ENDBRANCH  19  20
ENDBRANCH   1  19
BRANCH   1  23
ATOM     23  N3  UNL     1       0.301   0.600   3.307  1.00  0.00     0.249 N   
ATOM     24  H22 UNL     1       0.330  -0.159   4.001  1.00  0.00     0.199 HD  
ATOM     25  H23 UNL     1       0.646   1.447   3.768  1.00  0.00     0.199 HD  
BRANCH  23  26
ATOM     26  C17 UNL     1      -1.133   0.799   2.933  1.00  0.00     0.164 C   
BRANCH  26  27
ATOM     27  C18 UNL     1      -1.342   1.804   1.835  1.00  0.00    -0.002 A   
ATOM     28  C19 UNL     1      -1.076   3.178   2.050  1.00  0.00     0.012 A   
ATOM     29  C23 UNL     1      -1.782   1.376   0.570  1.00  0.00     0.045 A   
ATOM     30  C20 UNL     1      -1.230   4.109   1.016  1.00  0.00     0.037 A   
ATOM     31  C22 UNL     1      -1.922   2.318  -0.427  1.00  0.00     0.109 A   
ATOM     32  C21 UNL     1      -1.651   3.646  -0.211  1.00  0.00     0.108 A   
ATOM     33  O2  UNL     1      -2.326   2.069  -1.699  1.00  0.00    -0.316 OA  
ATOM     34  O3  UNL     1      -1.847   4.402  -1.322  1.00  0.00    -0.316 OA  
ATOM     35  C24 UNL     1      -2.285   3.399  -2.265  1.00  0.00     0.337 C   
ENDBRANCH  26  27
ENDBRANCH  23  26
ENDBRANCH   1  23
TORSDOF 7
