REMARK SMILES Cc1ccc2c(n1)OCC[C@@H]2n1cc([C@H](CC(C)C)[NH2+]Cc2ccc3c(c2)OCO3)nn1
REMARK SMILES IDX 15 1 14 2 12 3 13 4 32 5 31 6 11 8 2 9 3 10 7 11 4 12 6 13
REMARK SMILES IDX 5 14 8 15 9 16 10 17 1 18 16 19 17 20 18 21 19 22 20 23
REMARK SMILES IDX 21 26 22 27 23 28 27 29 24 30 26 31 25 32 28 33 30 34 29 35
REMARK H PARENT 13 7 20 24 20 25
ROOT
ATOM     1   C12 UNL     1      -0.983   1.604   0.714  1.00  0.00     0.114 C   
ENDROOT
BRANCH   1   2
ATOM     2   C11 UNL     1      -0.192   0.373   0.401  1.00  0.00     0.127 A   
ATOM     3   N2  UNL     1       1.073  -1.199  -0.390  1.00  0.00    -0.204 N   
ATOM     4   C10 UNL     1       0.588   0.048  -0.687  1.00  0.00     0.046 A   
ATOM     5   N5  UNL     1       0.567  -1.637   0.780  1.00  0.00    -0.075 NA  
ATOM     6   N4  UNL     1      -0.189  -0.675   1.284  1.00  0.00    -0.132 NA  
ATOM     7   H11 UNL     1       0.853   0.572  -1.596  1.00  0.00     0.083 HD  
BRANCH   3   8
ATOM     8   C9  UNL     1       1.984  -2.043  -1.166  1.00  0.00     0.136 C   
ATOM     9   C2  UNL     1       5.326   0.156  -2.630  1.00  0.00     0.040 A   
ATOM     10  C3  UNL     1       5.112   0.134  -1.257  1.00  0.00     0.024 A   
ATOM     11  N1  UNL     1       4.523  -0.499  -3.498  1.00  0.00    -0.229 NA  
ATOM     12  C4  UNL     1       4.028  -0.584  -0.759  1.00  0.00     0.012 A   
ATOM     13  C6  UNL     1       3.501  -1.215  -2.994  1.00  0.00     0.172 A   
ATOM     14  C5  UNL     1       3.182  -1.262  -1.643  1.00  0.00     0.024 A   
ATOM     15  O1  UNL     1       2.774  -1.892  -3.936  1.00  0.00    -0.329 OA  
ATOM     16  C7  UNL     1       2.184  -3.085  -3.419  1.00  0.00     0.172 C   
ATOM     17  C8  UNL     1       1.219  -2.725  -2.309  1.00  0.00     0.059 C   
ATOM     18  C1  UNL     1       6.478   0.926  -3.207  1.00  0.00     0.067 C   
ENDBRANCH   3   8
ENDBRANCH   1   2
BRANCH   1  19
ATOM     19  C13 UNL     1      -0.075   2.724   1.259  1.00  0.00     0.064 C   
BRANCH  19  20
ATOM     20  C14 UNL     1      -0.748   4.100   1.464  1.00  0.00    -0.012 C   
ATOM     21  C15 UNL     1      -1.365   4.651   0.172  1.00  0.00     0.007 C   
ATOM     22  C16 UNL     1       0.282   5.094   2.014  1.00  0.00     0.007 C   
ENDBRANCH  19  20
ENDBRANCH   1  19
BRANCH   1  23
ATOM     23  N3  UNL     1      -2.042   1.285   1.735  1.00  0.00     0.249 N   
ATOM     24  H22 UNL     1      -2.255   2.080   2.342  1.00  0.00     0.199 HD  
ATOM     25  H23 UNL     1      -1.643   0.564   2.357  1.00  0.00     0.199 HD  
BRANCH  23  26
ATOM     26  C17 UNL     1      -3.308   0.744   1.178  1.00  0.00     0.164 C   
BRANCH  26  27
ATOM     27  C18 UNL     1      -4.244   0.343   2.282  1.00  0.00    -0.002 A   
ATOM     28  C19 UNL     1      -4.198  -0.972   2.809  1.00  0.00     0.012 A   
ATOM     29  C23 UNL     1      -5.135   1.281   2.833  1.00  0.00     0.045 A   
ATOM     30  C20 UNL     1      -5.034  -1.352   3.864  1.00  0.00     0.037 A   
ATOM     31  C22 UNL     1      -5.949   0.870   3.869  1.00  0.00     0.109 A   
ATOM     32  C21 UNL     1      -5.899  -0.408   4.371  1.00  0.00     0.108 A   
ATOM     33  O2  UNL     1      -6.866   1.643   4.506  1.00  0.00    -0.316 OA  
ATOM     34  O3  UNL     1      -6.781  -0.600   5.386  1.00  0.00    -0.316 OA  
ATOM     35  C24 UNL     1      -7.418   0.695   5.448  1.00  0.00     0.337 C   
ENDBRANCH  26  27
ENDBRANCH  23  26
ENDBRANCH   1  23
TORSDOF 7
