REMARK SMILES CCc1ccc([C@H](O)Cn2cc([C@@H]([NH2+]Cc3ccc4c(c3)OCO4)C3CCCC3)nn2)cc1
REMARK SMILES IDX 10 1 11 2 12 3 30 4 31 5 9 7 7 8 6 9 3 10 4 11 33 12 5 13
REMARK SMILES IDX 32 14 2 15 1 16 8 17 13 19 14 20 15 23 16 24 17 25 21 26
REMARK SMILES IDX 18 27 20 28 19 29 22 30 24 31 23 32 25 33 26 34 29 35 27 36
REMARK SMILES IDX 28 37
REMARK H PARENT 11 6 8 18 14 21 14 22
ROOT
ATOM     1   N1  UNL     1      -3.295   0.207   0.338  1.00  0.00    -0.209 N   
ATOM     2   C9  UNL     1      -2.091  -0.083  -0.239  1.00  0.00     0.045 A   
ATOM     3   C10 UNL     1      -1.264   0.927   0.198  1.00  0.00     0.127 A   
ATOM     4   N3  UNL     1      -1.990   1.805   0.963  1.00  0.00    -0.132 NA  
ATOM     5   N4  UNL     1      -3.236   1.363   1.025  1.00  0.00    -0.076 NA  
ATOM     6   H12 UNL     1      -1.933  -0.967  -0.841  1.00  0.00     0.083 HD  
ENDROOT
BRANCH   1   7
ATOM     7   C8  UNL     1      -4.506  -0.581   0.312  1.00  0.00     0.170 C   
BRANCH   7   8
ATOM     8   C7  UNL     1      -4.795  -1.275   1.647  1.00  0.00     0.164 C   
BRANCH   8   9
ATOM     9   C6  UNL     1      -3.668  -2.180   2.106  1.00  0.00    -0.018 A   
ATOM     10  C3  UNL     1      -1.530  -3.817   2.946  1.00  0.00    -0.048 A   
ATOM     11  C4  UNL     1      -2.311  -4.180   1.843  1.00  0.00     0.004 A   
ATOM     12  C26 UNL     1      -1.819  -2.624   3.620  1.00  0.00     0.004 A   
ATOM     13  C5  UNL     1      -3.373  -3.372   1.428  1.00  0.00     0.007 A   
ATOM     14  C25 UNL     1      -2.878  -1.814   3.205  1.00  0.00     0.007 A   
BRANCH  10  15
ATOM     15  C2  UNL     1      -0.397  -4.698   3.407  1.00  0.00     0.032 C   
ATOM     16  C1  UNL     1       0.884  -4.430   2.635  1.00  0.00     0.009 C   
ENDBRANCH  10  15
ENDBRANCH   8   9
BRANCH   8  17
ATOM     17  O1  UNL     1      -5.992  -2.048   1.511  1.00  0.00    -0.387 OA  
ATOM     18  H9  UNL     1      -6.036  -2.651   2.276  1.00  0.00     0.211 HD  
ENDBRANCH   8  17
ENDBRANCH   7   8
ENDBRANCH   1   7
BRANCH   3  19
ATOM     19  C11 UNL     1       0.192   1.172  -0.031  1.00  0.00     0.117 C   
BRANCH  19  20
ATOM     20  N2  UNL     1       0.500   2.643   0.115  1.00  0.00     0.249 N   
ATOM     21  H14 UNL     1      -0.004   2.953   0.958  1.00  0.00     0.199 HD  
ATOM     22  H15 UNL     1       1.496   2.801   0.281  1.00  0.00     0.199 HD  
BRANCH  20  23
ATOM     23  C12 UNL     1       0.046   3.523  -1.002  1.00  0.00     0.164 C   
BRANCH  23  24
ATOM     24  C13 UNL     1       0.884   3.368  -2.241  1.00  0.00    -0.002 A   
ATOM     25  C14 UNL     1       2.155   3.984  -2.329  1.00  0.00     0.012 A   
ATOM     26  C18 UNL     1       0.419   2.586  -3.314  1.00  0.00     0.045 A   
ATOM     27  C15 UNL     1       2.951   3.829  -3.468  1.00  0.00     0.037 A   
ATOM     28  C17 UNL     1       1.231   2.449  -4.420  1.00  0.00     0.109 A   
ATOM     29  C16 UNL     1       2.460   3.054  -4.497  1.00  0.00     0.108 A   
ATOM     30  O2  UNL     1       0.936   1.725  -5.533  1.00  0.00    -0.316 OA  
ATOM     31  O3  UNL     1       3.090   2.799  -5.672  1.00  0.00    -0.316 OA  
ATOM     32  C19 UNL     1       2.100   1.991  -6.347  1.00  0.00     0.337 C   
ENDBRANCH  23  24
ENDBRANCH  20  23
ENDBRANCH  19  20
BRANCH  19  33
ATOM     33  C20 UNL     1       1.057   0.329   0.929  1.00  0.00     0.043 C   
ATOM     34  C21 UNL     1       2.556   0.347   0.625  1.00  0.00     0.010 C   
ATOM     35  C24 UNL     1       0.996   0.704   2.416  1.00  0.00     0.010 C   
ATOM     36  C22 UNL     1       3.158  -0.305   1.862  1.00  0.00     0.001 C   
ATOM     37  C23 UNL     1       2.306   0.195   3.024  1.00  0.00     0.001 C   
ENDBRANCH  19  33
ENDBRANCH   3  19
TORSDOF 10
