REMARK SMILES CCc1ccc([C@@H](O)Cn2cc([C@@H]([NH2+]Cc3ccc4c(c3)OCO4)C3CCCC3)nn2)cc1
REMARK SMILES IDX 10 1 11 2 12 3 30 4 31 5 9 7 7 8 6 9 3 10 4 11 33 12 5 13
REMARK SMILES IDX 32 14 2 15 1 16 8 17 13 19 14 20 15 23 16 24 17 25 21 26
REMARK SMILES IDX 18 27 20 28 19 29 22 30 24 31 23 32 25 33 26 34 29 35 27 36
REMARK SMILES IDX 28 37
REMARK H PARENT 11 6 8 18 14 21 14 22
ROOT
ATOM     1   N1  UNL     1       2.209  -2.200  -1.528  1.00  0.00    -0.209 N   
ATOM     2   C9  UNL     1       1.262  -2.786  -0.735  1.00  0.00     0.045 A   
ATOM     3   C10 UNL     1       0.123  -2.054  -0.987  1.00  0.00     0.127 A   
ATOM     4   N3  UNL     1       0.404  -1.091  -1.922  1.00  0.00    -0.132 NA  
ATOM     5   N4  UNL     1       1.678  -1.203  -2.259  1.00  0.00    -0.076 NA  
ATOM     6   H12 UNL     1       1.495  -3.590  -0.051  1.00  0.00     0.083 HD  
ENDROOT
BRANCH   1   7
ATOM     7   C8  UNL     1       3.633  -2.445  -1.533  1.00  0.00     0.170 C   
BRANCH   7   8
ATOM     8   C7  UNL     1       4.453  -1.238  -1.061  1.00  0.00     0.164 C   
BRANCH   8   9
ATOM     9   C6  UNL     1       4.012  -0.674   0.278  1.00  0.00    -0.018 A   
ATOM     10  C3  UNL     1       3.185   0.404   2.755  1.00  0.00    -0.048 A   
ATOM     11  C4  UNL     1       3.090   1.162   1.582  1.00  0.00     0.004 A   
ATOM     12  C26 UNL     1       3.695  -0.898   2.679  1.00  0.00     0.004 A   
ATOM     13  C5  UNL     1       3.495   0.627   0.356  1.00  0.00     0.007 A   
ATOM     14  C25 UNL     1       4.109  -1.430   1.454  1.00  0.00     0.007 A   
BRANCH  10  15
ATOM     15  C2  UNL     1       2.785   0.993   4.085  1.00  0.00     0.032 C   
ATOM     16  C1  UNL     1       1.280   1.179   4.209  1.00  0.00     0.009 C   
ENDBRANCH  10  15
ENDBRANCH   8   9
BRANCH   8  17
ATOM     17  O1  UNL     1       5.825  -1.630  -0.965  1.00  0.00    -0.387 OA  
ATOM     18  H9  UNL     1       6.290  -0.942  -0.456  1.00  0.00     0.211 HD  
ENDBRANCH   8  17
ENDBRANCH   7   8
ENDBRANCH   1   7
BRANCH   3  19
ATOM     19  C11 UNL     1      -1.210  -2.061  -0.315  1.00  0.00     0.117 C   
BRANCH  19  20
ATOM     20  N2  UNL     1      -1.614  -0.640  -0.010  1.00  0.00     0.249 N   
ATOM     21  H14 UNL     1      -1.471  -0.100  -0.876  1.00  0.00     0.199 HD  
ATOM     22  H15 UNL     1      -2.611  -0.569   0.216  1.00  0.00     0.199 HD  
BRANCH  20  23
ATOM     23  C12 UNL     1      -0.816   0.021   1.062  1.00  0.00     0.164 C   
BRANCH  23  24
ATOM     24  C13 UNL     1      -1.184   1.471   1.179  1.00  0.00    -0.002 A   
ATOM     25  C14 UNL     1      -0.584   2.425   0.322  1.00  0.00     0.012 A   
ATOM     26  C18 UNL     1      -2.149   1.886   2.111  1.00  0.00     0.045 A   
ATOM     27  C15 UNL     1      -0.928   3.778   0.400  1.00  0.00     0.037 A   
ATOM     28  C17 UNL     1      -2.464   3.228   2.163  1.00  0.00     0.109 A   
ATOM     29  C16 UNL     1      -1.870   4.147   1.333  1.00  0.00     0.108 A   
ATOM     30  O2  UNL     1      -3.366   3.795   3.006  1.00  0.00    -0.316 OA  
ATOM     31  O3  UNL     1      -2.321   5.409   1.552  1.00  0.00    -0.316 OA  
ATOM     32  C19 UNL     1      -3.260   5.186   2.627  1.00  0.00     0.337 C   
ENDBRANCH  23  24
ENDBRANCH  20  23
ENDBRANCH  19  20
BRANCH  19  33
ATOM     33  C20 UNL     1      -2.345  -2.724  -1.112  1.00  0.00     0.043 C   
ATOM     34  C21 UNL     1      -2.108  -4.195  -1.460  1.00  0.00     0.010 C   
ATOM     35  C24 UNL     1      -2.678  -2.121  -2.478  1.00  0.00     0.010 C   
ATOM     36  C22 UNL     1      -3.173  -4.510  -2.509  1.00  0.00     0.001 C   
ATOM     37  C23 UNL     1      -3.582  -3.169  -3.120  1.00  0.00     0.001 C   
ENDBRANCH  19  33
ENDBRANCH   3  19
TORSDOF 10
