REMARK SMILES CC(C)[C@H]([NH2+]Cc1ccc2c(c1)OCO2)c1cn(Cc2n[nH]c3c2CCC3)nn1
REMARK SMILES IDX 16 1 17 2 18 3 28 4 29 5 4 7 2 8 1 9 3 10 5 11 6 14 7 15
REMARK SMILES IDX 8 16 12 17 9 18 11 19 10 20 13 21 15 22 14 23 19 24 20 25
REMARK SMILES IDX 21 26 24 27 22 28 23 29 25 30 27 31 26 32
REMARK H PARENT 17 6 5 12 5 13 22 33
ROOT
ATOM     1   C13 UNL     1       0.375   1.581   0.704  1.00  0.00     0.127 A   
ATOM     2   C14 UNL     1      -0.421   2.371  -0.093  1.00  0.00     0.046 A   
ATOM     3   N2  UNL     1       0.348   2.611  -1.200  1.00  0.00    -0.206 N   
ATOM     4   N5  UNL     1       1.552   2.013  -1.085  1.00  0.00    -0.076 NA  
ATOM     5   N6  UNL     1       1.578   1.377   0.075  1.00  0.00    -0.132 NA  
ATOM     6   H18 UNL     1      -1.430   2.752  -0.006  1.00  0.00     0.083 HD  
ENDROOT
BRANCH   1   7
ATOM     7   C4  UNL     1       0.104   0.907   2.008  1.00  0.00     0.117 C   
BRANCH   7   8
ATOM     8   C2  UNL     1       0.495   1.743   3.253  1.00  0.00     0.037 C   
ATOM     9   C1  UNL     1      -0.367   3.004   3.380  1.00  0.00     0.014 C   
ATOM     10  C3  UNL     1       1.979   2.123   3.316  1.00  0.00     0.014 C   
ENDBRANCH   7   8
BRANCH   7  11
ATOM     11  N1  UNL     1       0.845  -0.407   2.062  1.00  0.00     0.249 N   
ATOM     12  H9  UNL     1       1.799  -0.221   1.716  1.00  0.00     0.199 HD  
ATOM     13  H10 UNL     1       0.945  -0.746   3.024  1.00  0.00     0.199 HD  
BRANCH  11  14
ATOM     14  C5  UNL     1       0.277  -1.490   1.213  1.00  0.00     0.164 C   
BRANCH  14  15
ATOM     15  C6  UNL     1       1.162  -2.703   1.252  1.00  0.00    -0.002 A   
ATOM     16  C7  UNL     1       2.256  -2.810   0.360  1.00  0.00     0.012 A   
ATOM     17  C11 UNL     1       0.945  -3.710   2.207  1.00  0.00     0.045 A   
ATOM     18  C8  UNL     1       3.118  -3.910   0.409  1.00  0.00     0.037 A   
ATOM     19  C10 UNL     1       1.815  -4.782   2.228  1.00  0.00     0.109 A   
ATOM     20  C9  UNL     1       2.870  -4.880   1.355  1.00  0.00     0.108 A   
ATOM     21  O1  UNL     1       1.748  -5.835   3.084  1.00  0.00    -0.316 OA  
ATOM     22  O2  UNL     1       3.599  -6.009   1.548  1.00  0.00    -0.316 OA  
ATOM     23  C12 UNL     1       2.872  -6.625   2.633  1.00  0.00     0.337 C   
ENDBRANCH  14  15
ENDBRANCH  11  14
ENDBRANCH   7  11
ENDBRANCH   1   7
BRANCH   3  24
ATOM     24  C15 UNL     1       0.015   3.407  -2.368  1.00  0.00     0.192 C   
BRANCH  24  25
ATOM     25  C16 UNL     1      -0.869   2.633  -3.279  1.00  0.00     0.083 A   
ATOM     26  N3  UNL     1      -2.199   2.538  -3.047  1.00  0.00    -0.187 NA  
ATOM     27  C18 UNL     1      -0.526   1.939  -4.444  1.00  0.00    -0.004 A   
ATOM     28  N4  UNL     1      -2.685   1.820  -4.095  1.00  0.00    -0.242 N   
ATOM     29  C17 UNL     1      -1.695   1.438  -4.924  1.00  0.00     0.030 A   
ATOM     30  C19 UNL     1       0.612   1.592  -5.312  1.00  0.00     0.039 C   
ATOM     31  C21 UNL     1      -1.592   0.681  -6.178  1.00  0.00     0.054 C   
ATOM     32  C20 UNL     1      -0.120   1.041  -6.591  1.00  0.00     0.011 C   
ATOM     33  H21 UNL     1      -3.685   1.651  -4.157  1.00  0.00     0.175 HD  
ENDBRANCH  24  25
ENDBRANCH   3  24
TORSDOF 7
