REMARK SMILES CC(C)(C)[C@H]([NH2+]Cc1ccc2c(c1)OCO2)c1cn([C@H](CO)c2cccnc2)nn1
REMARK SMILES IDX 17 1 18 2 19 3 29 4 30 5 5 7 2 8 1 9 3 10 4 11 6 12 7 15
REMARK SMILES IDX 8 16 9 17 13 18 10 19 12 20 11 21 14 22 16 23 15 24 20 25
REMARK SMILES IDX 21 26 22 27 23 29 24 30 28 31 25 32 27 33 26 34
REMARK H PARENT 18 6 6 13 6 14 22 28
ROOT
ATOM     1   C14 UNL     1       1.070  -0.786  -0.253  1.00  0.00     0.127 A   
ATOM     2   C15 UNL     1       0.913   0.209   0.684  1.00  0.00     0.046 A   
ATOM     3   N2  UNL     1       2.028   0.990   0.543  1.00  0.00    -0.202 N   
ATOM     4   N4  UNL     1       2.837   0.482  -0.413  1.00  0.00    -0.075 NA  
ATOM     5   N5  UNL     1       2.261  -0.604  -0.904  1.00  0.00    -0.132 NA  
ATOM     6   H20 UNL     1       0.117   0.450   1.376  1.00  0.00     0.083 HD  
ENDROOT
BRANCH   1   7
ATOM     7   C5  UNL     1       0.121  -1.856  -0.691  1.00  0.00     0.120 C   
BRANCH   7   8
ATOM     8   C2  UNL     1       0.438  -3.277  -0.105  1.00  0.00     0.010 C   
ATOM     9   C1  UNL     1       0.463  -3.215   1.440  1.00  0.00     0.017 C   
ATOM     10  C3  UNL     1       1.788  -3.844  -0.587  1.00  0.00     0.017 C   
ATOM     11  C4  UNL     1      -0.671  -4.280  -0.499  1.00  0.00     0.017 C   
ENDBRANCH   7   8
BRANCH   7  12
ATOM     12  N1  UNL     1       0.068  -1.906  -2.207  1.00  0.00     0.250 N   
ATOM     13  H11 UNL     1      -0.537  -2.669  -2.518  1.00  0.00     0.199 HD  
ATOM     14  H12 UNL     1       1.021  -2.111  -2.531  1.00  0.00     0.199 HD  
BRANCH  12  15
ATOM     15  C6  UNL     1      -0.359  -0.651  -2.908  1.00  0.00     0.164 C   
BRANCH  15  16
ATOM     16  C7  UNL     1      -1.702  -0.136  -2.471  1.00  0.00    -0.002 A   
ATOM     17  C8  UNL     1      -1.795   1.096  -1.779  1.00  0.00     0.012 A   
ATOM     18  C12 UNL     1      -2.869  -0.876  -2.723  1.00  0.00     0.045 A   
ATOM     19  C9  UNL     1      -3.027   1.579  -1.327  1.00  0.00     0.037 A   
ATOM     20  C11 UNL     1      -4.069  -0.371  -2.264  1.00  0.00     0.109 A   
ATOM     21  C10 UNL     1      -4.146   0.820  -1.584  1.00  0.00     0.108 A   
ATOM     22  O1  UNL     1      -5.282  -0.964  -2.413  1.00  0.00    -0.316 OA  
ATOM     23  O2  UNL     1      -5.418   1.127  -1.221  1.00  0.00    -0.316 OA  
ATOM     24  C13 UNL     1      -6.142   0.008  -1.775  1.00  0.00     0.337 C   
ENDBRANCH  15  16
ENDBRANCH  12  15
ENDBRANCH   7  12
ENDBRANCH   1   7
BRANCH   3  25
ATOM     25  C16 UNL     1       2.323   2.292   1.138  1.00  0.00     0.157 C   
BRANCH  25  26
ATOM     26  C17 UNL     1       2.375   2.260   2.679  1.00  0.00     0.186 C   
BRANCH  26  27
ATOM     27  O3  UNL     1       1.145   1.859   3.279  1.00  0.00    -0.394 OA  
ATOM     28  H24 UNL     1       1.252   1.960   4.245  1.00  0.00     0.210 HD  
ENDBRANCH  26  27
ENDBRANCH  25  26
BRANCH  25  29
ATOM     29  C18 UNL     1       1.422   3.348   0.522  1.00  0.00    -0.005 A   
ATOM     30  C19 UNL     1       1.881   4.138  -0.542  1.00  0.00     0.009 A   
ATOM     31  C22 UNL     1       0.102   3.540   0.920  1.00  0.00     0.116 A   
ATOM     32  C20 UNL     1       1.034   5.069  -1.138  1.00  0.00     0.020 A   
ATOM     33  N3  UNL     1      -0.750   4.414   0.337  1.00  0.00    -0.264 NA  
ATOM     34  C21 UNL     1      -0.262   5.171  -0.668  1.00  0.00     0.111 A   
ENDBRANCH  25  29
ENDBRANCH   3  25
TORSDOF 9
