REMARK SMILES CC(C)(C)[C@H]([NH2+]Cc1ccc2c(c1)OCO2)c1cn([C@@H](CO)c2cccnc2)nn1
REMARK SMILES IDX 17 1 18 2 19 3 29 4 30 5 5 7 2 8 1 9 3 10 4 11 6 12 7 15
REMARK SMILES IDX 8 16 9 17 13 18 10 19 12 20 11 21 14 22 16 23 15 24 20 25
REMARK SMILES IDX 21 26 22 27 23 29 24 30 28 31 25 32 27 33 26 34
REMARK H PARENT 18 6 6 13 6 14 22 28
ROOT
ATOM     1   C14 UNL     1      -0.533  -0.126   0.386  1.00  0.00     0.127 A   
ATOM     2   C15 UNL     1      -1.597  -0.903   0.782  1.00  0.00     0.046 A   
ATOM     3   N2  UNL     1      -2.533  -0.719  -0.201  1.00  0.00    -0.202 N   
ATOM     4   N4  UNL     1      -2.042   0.072  -1.179  1.00  0.00    -0.075 NA  
ATOM     5   N5  UNL     1      -0.824   0.447  -0.826  1.00  0.00    -0.132 NA  
ATOM     6   H20 UNL     1      -1.780  -1.530   1.644  1.00  0.00     0.083 HD  
ENDROOT
BRANCH   1   7
ATOM     7   C5  UNL     1       0.811   0.099   1.010  1.00  0.00     0.120 C   
BRANCH   7   8
ATOM     8   C2  UNL     1       0.868   1.331   1.982  1.00  0.00     0.010 C   
ATOM     9   C1  UNL     1       0.623   2.671   1.259  1.00  0.00     0.017 C   
ATOM     10  C3  UNL     1      -0.192   1.182   3.099  1.00  0.00     0.017 C   
ATOM     11  C4  UNL     1       2.246   1.401   2.682  1.00  0.00     0.017 C   
ENDBRANCH   7   8
BRANCH   7  12
ATOM     12  N1  UNL     1       1.834   0.252  -0.092  1.00  0.00     0.250 N   
ATOM     13  H11 UNL     1       2.693   0.707   0.228  1.00  0.00     0.199 HD  
ATOM     14  H12 UNL     1       1.416   0.884  -0.792  1.00  0.00     0.199 HD  
BRANCH  12  15
ATOM     15  C6  UNL     1       2.196  -1.008  -0.798  1.00  0.00     0.164 C   
BRANCH  15  16
ATOM     16  C7  UNL     1       3.183  -0.731  -1.898  1.00  0.00    -0.002 A   
ATOM     17  C8  UNL     1       4.568  -0.928  -1.686  1.00  0.00     0.012 A   
ATOM     18  C12 UNL     1       2.734  -0.229  -3.133  1.00  0.00     0.045 A   
ATOM     19  C9  UNL     1       5.495  -0.644  -2.694  1.00  0.00     0.037 A   
ATOM     20  C11 UNL     1       3.676   0.043  -4.104  1.00  0.00     0.109 A   
ATOM     21  C10 UNL     1       5.017  -0.161  -3.892  1.00  0.00     0.108 A   
ATOM     22  O1  UNL     1       3.415   0.530  -5.346  1.00  0.00    -0.316 OA  
ATOM     23  O2  UNL     1       5.768   0.165  -4.976  1.00  0.00    -0.316 OA  
ATOM     24  C13 UNL     1       4.745   0.574  -5.909  1.00  0.00     0.337 C   
ENDBRANCH  15  16
ENDBRANCH  12  15
ENDBRANCH   7  12
ENDBRANCH   1   7
BRANCH   3  25
ATOM     25  C16 UNL     1      -3.903  -1.225  -0.281  1.00  0.00     0.157 C   
BRANCH  25  26
ATOM     26  C17 UNL     1      -3.940  -2.720  -0.659  1.00  0.00     0.186 C   
BRANCH  26  27
ATOM     27  O3  UNL     1      -3.216  -3.545   0.254  1.00  0.00    -0.394 OA  
ATOM     28  H24 UNL     1      -3.379  -4.472  -0.009  1.00  0.00     0.210 HD  
ENDBRANCH  26  27
ENDBRANCH  25  26
BRANCH  25  29
ATOM     29  C18 UNL     1      -4.693  -0.810   0.946  1.00  0.00    -0.005 A   
ATOM     30  C19 UNL     1      -5.296   0.456   0.998  1.00  0.00     0.009 A   
ATOM     31  C22 UNL     1      -4.829  -1.613   2.075  1.00  0.00     0.116 A   
ATOM     32  C20 UNL     1      -6.000   0.852   2.132  1.00  0.00     0.020 A   
ATOM     33  N3  UNL     1      -5.496  -1.248   3.193  1.00  0.00    -0.264 NA  
ATOM     34  C21 UNL     1      -6.074  -0.028   3.195  1.00  0.00     0.111 A   
ENDBRANCH  25  29
ENDBRANCH   3  25
TORSDOF 9
