REMARK SMILES CC(C)C[C@H]([NH2+]Cc1ccc2c(c1)OCO2)c1cn(Cc2cccc(F)c2O)nn1
REMARK SMILES IDX 17 1 18 2 19 3 29 4 30 5 5 7 4 8 2 9 1 10 3 11 6 12 7 15
REMARK SMILES IDX 8 16 9 17 13 18 10 19 12 20 11 21 14 22 16 23 15 24 20 25
REMARK SMILES IDX 21 26 22 27 27 28 23 29 25 30 24 31 26 32 28 33
REMARK H PARENT 18 6 6 13 6 14 28 34
ROOT
ATOM     1   C14 UNL     1       1.190   0.471  -0.135  1.00  0.00     0.127 A   
ATOM     2   C15 UNL     1       2.010  -0.634  -0.209  1.00  0.00     0.046 A   
ATOM     3   N2  UNL     1       1.525  -1.339  -1.276  1.00  0.00    -0.208 N   
ATOM     4   N3  UNL     1       0.517  -0.670  -1.871  1.00  0.00    -0.076 NA  
ATOM     5   N4  UNL     1       0.292   0.429  -1.171  1.00  0.00    -0.132 NA  
ATOM     6   H20 UNL     1       2.827  -1.001   0.397  1.00  0.00     0.083 HD  
ENDROOT
BRANCH   1   7
ATOM     7   C5  UNL     1       1.151   1.600   0.840  1.00  0.00     0.114 C   
BRANCH   7   8
ATOM     8   C4  UNL     1       0.854   1.163   2.291  1.00  0.00     0.064 C   
BRANCH   8   9
ATOM     9   C2  UNL     1      -0.593   0.751   2.652  1.00  0.00    -0.012 C   
ATOM     10  C1  UNL     1      -0.696   0.553   4.169  1.00  0.00     0.007 C   
ATOM     11  C3  UNL     1      -1.059  -0.524   1.952  1.00  0.00     0.007 C   
ENDBRANCH   8   9
ENDBRANCH   7   8
BRANCH   7  12
ATOM     12  N1  UNL     1       0.163   2.657   0.433  1.00  0.00     0.249 N   
ATOM     13  H11 UNL     1      -0.131   3.227   1.232  1.00  0.00     0.199 HD  
ATOM     14  H12 UNL     1      -0.679   2.165   0.096  1.00  0.00     0.199 HD  
BRANCH  12  15
ATOM     15  C6  UNL     1       0.610   3.560  -0.666  1.00  0.00     0.164 C   
BRANCH  15  16
ATOM     16  C7  UNL     1      -0.495   4.507  -1.042  1.00  0.00    -0.002 A   
ATOM     17  C8  UNL     1      -1.463   4.124  -2.001  1.00  0.00     0.012 A   
ATOM     18  C12 UNL     1      -0.607   5.755  -0.405  1.00  0.00     0.045 A   
ATOM     19  C9  UNL     1      -2.521   4.979  -2.336  1.00  0.00     0.037 A   
ATOM     20  C11 UNL     1      -1.662   6.573  -0.757  1.00  0.00     0.109 A   
ATOM     21  C10 UNL     1      -2.592   6.198  -1.696  1.00  0.00     0.108 A   
ATOM     22  O1  UNL     1      -1.910   7.808  -0.244  1.00  0.00    -0.316 OA  
ATOM     23  O2  UNL     1      -3.543   7.149  -1.891  1.00  0.00    -0.316 OA  
ATOM     24  C13 UNL     1      -3.101   8.177  -0.978  1.00  0.00     0.337 C   
ENDBRANCH  15  16
ENDBRANCH  12  15
ENDBRANCH   7  12
ENDBRANCH   1   7
BRANCH   3  25
ATOM     25  C16 UNL     1       1.980  -2.621  -1.790  1.00  0.00     0.172 C   
BRANCH  25  26
ATOM     26  C17 UNL     1       1.085  -3.744  -1.332  1.00  0.00     0.005 A   
ATOM     27  C18 UNL     1       0.125  -4.285  -2.204  1.00  0.00     0.008 A   
ATOM     28  C22 UNL     1       1.172  -4.268  -0.038  1.00  0.00     0.112 A   
ATOM     29  C19 UNL     1      -0.709  -5.335  -1.790  1.00  0.00     0.004 A   
ATOM     30  C21 UNL     1       0.337  -5.310   0.370  1.00  0.00     0.153 A   
ATOM     31  C20 UNL     1      -0.602  -5.850  -0.497  1.00  0.00     0.042 A   
ATOM     32  F1  UNL     1       0.450  -5.789   1.620  1.00  0.00    -0.204 F   
BRANCH  28  33
ATOM     33  O3  UNL     1       2.090  -3.757   0.841  1.00  0.00    -0.358 OA  
ATOM     34  H26 UNL     1       2.024  -4.304   1.653  1.00  0.00     0.218 HD  
ENDBRANCH  28  33
ENDBRANCH  25  26
ENDBRANCH   3  25
TORSDOF 9
