REMARK SMILES Cc1c(Cl)ccnc1Cn1cc([C@@H]([NH2+]Cc2ccc3c(c2)OCO3)C2CCCCC2)nn1
REMARK SMILES IDX 10 1 11 2 12 3 31 4 32 5 9 7 8 8 2 9 3 10 5 11 7 12 6 13
REMARK SMILES IDX 1 14 4 15 13 16 14 17 15 20 16 21 17 22 21 23 18 24 20 25
REMARK SMILES IDX 19 26 22 27 24 28 23 29 25 30 26 31 30 32 27 33 29 34 28 35
REMARK H PARENT 11 6 14 18 14 19
ROOT
ATOM     1   N2  UNL     1      -0.464   2.871  -2.001  1.00  0.00    -0.206 N   
ATOM     2   C8  UNL     1      -1.620   2.323  -1.512  1.00  0.00     0.046 A   
ATOM     3   C9  UNL     1      -1.208   1.604  -0.412  1.00  0.00     0.127 A   
ATOM     4   N4  UNL     1       0.149   1.749  -0.263  1.00  0.00    -0.132 NA  
ATOM     5   N5  UNL     1       0.590   2.533  -1.232  1.00  0.00    -0.076 NA  
ATOM     6   H8  UNL     1      -2.575   2.464  -2.001  1.00  0.00     0.083 HD  
ENDROOT
BRANCH   1   7
ATOM     7   C7  UNL     1      -0.287   3.677  -3.195  1.00  0.00     0.190 C   
BRANCH   7   8
ATOM     8   C6  UNL     1      -0.098   2.779  -4.392  1.00  0.00     0.064 A   
ATOM     9   C2  UNL     1       1.154   2.298  -4.810  1.00  0.00    -0.009 A   
ATOM     10  C3  UNL     1       1.155   1.385  -5.877  1.00  0.00     0.047 A   
ATOM     11  C4  UNL     1      -0.027   1.022  -6.512  1.00  0.00     0.041 A   
ATOM     12  N1  UNL     1      -1.264   2.409  -4.999  1.00  0.00    -0.259 NA  
ATOM     13  C5  UNL     1      -1.203   1.563  -6.046  1.00  0.00     0.113 A   
ATOM     14  C1  UNL     1       2.434   2.666  -4.113  1.00  0.00     0.048 C   
ATOM     15  CL1 UNL     1       2.610   0.638  -6.442  1.00  0.00    -0.084 Cl  
ENDBRANCH   7   8
ENDBRANCH   1   7
BRANCH   3  16
ATOM     16  C10 UNL     1      -1.957   0.694   0.513  1.00  0.00     0.117 C   
BRANCH  16  17
ATOM     17  N3  UNL     1      -1.066  -0.439   0.917  1.00  0.00     0.249 N   
ATOM     18  H10 UNL     1      -1.381  -0.902   1.770  1.00  0.00     0.199 HD  
ATOM     19  H11 UNL     1      -0.145  -0.025   1.137  1.00  0.00     0.199 HD  
BRANCH  17  20
ATOM     20  C11 UNL     1      -0.841  -1.478  -0.125  1.00  0.00     0.164 C   
BRANCH  20  21
ATOM     21  C12 UNL     1       0.253  -2.416   0.302  1.00  0.00    -0.002 A   
ATOM     22  C13 UNL     1      -0.044  -3.571   1.066  1.00  0.00     0.012 A   
ATOM     23  C17 UNL     1       1.591  -2.115  -0.011  1.00  0.00     0.045 A   
ATOM     24  C14 UNL     1       0.977  -4.423   1.505  1.00  0.00     0.037 A   
ATOM     25  C16 UNL     1       2.572  -2.977   0.435  1.00  0.00     0.109 A   
ATOM     26  C15 UNL     1       2.274  -4.098   1.172  1.00  0.00     0.108 A   
ATOM     27  O1  UNL     1       3.906  -2.833   0.226  1.00  0.00    -0.316 OA  
ATOM     28  O2  UNL     1       3.384  -4.803   1.518  1.00  0.00    -0.316 OA  
ATOM     29  C18 UNL     1       4.417  -4.015   0.883  1.00  0.00     0.337 C   
ENDBRANCH  20  21
ENDBRANCH  17  20
ENDBRANCH  16  17
BRANCH  16  30
ATOM     30  C19 UNL     1      -2.529   1.458   1.745  1.00  0.00     0.043 C   
ATOM     31  C20 UNL     1      -1.496   1.942   2.784  1.00  0.00     0.010 C   
ATOM     32  C24 UNL     1      -3.706   0.727   2.425  1.00  0.00     0.010 C   
ATOM     33  C21 UNL     1      -1.116   0.915   3.848  1.00  0.00     0.001 C   
ATOM     34  C23 UNL     1      -3.314  -0.290   3.491  1.00  0.00     0.001 C   
ATOM     35  C22 UNL     1      -2.340   0.293   4.507  1.00  0.00     0.000 C   
ENDBRANCH  16  30
ENDBRANCH   3  16
TORSDOF 7
