REMARK SMILES Cc1cc([C@H](CO)n2cc([C@H](CC(C)C)[NH2+]Cc3ccc4c(c3)OCO4)nn2)n[nH]1
REMARK SMILES IDX 8 1 9 2 10 3 27 4 28 5 5 7 4 8 2 9 3 10 30 11 29 12 1 13
REMARK SMILES IDX 6 15 7 16 11 18 12 19 13 20 14 21 15 22 16 23 17 26 18 27
REMARK SMILES IDX 19 28 23 29 20 30 22 31 21 32 24 33 26 34 25 35
REMARK H PARENT 9 6 30 14 7 17 16 24 16 25
ROOT
ATOM     1   N1  UNL     1       1.206  -2.922  -0.045  1.00  0.00    -0.201 N   
ATOM     2   C7  UNL     1       0.649  -1.732   0.343  1.00  0.00     0.046 A   
ATOM     3   C8  UNL     1      -0.341  -1.503  -0.583  1.00  0.00     0.127 A   
ATOM     4   N3  UNL     1      -0.381  -2.548  -1.469  1.00  0.00    -0.132 NA  
ATOM     5   N4  UNL     1       0.571  -3.405  -1.137  1.00  0.00    -0.075 NA  
ATOM     6   H9  UNL     1       1.036  -1.158   1.174  1.00  0.00     0.083 HD  
ENDROOT
BRANCH   1   7
ATOM     7   C5  UNL     1       2.409  -3.585   0.453  1.00  0.00     0.175 C   
BRANCH   7   8
ATOM     8   C4  UNL     1       2.397  -3.659   1.956  1.00  0.00     0.085 A   
ATOM     9   C2  UNL     1       2.108  -4.315   4.056  1.00  0.00     0.024 A   
ATOM     10  C3  UNL     1       1.853  -4.692   2.758  1.00  0.00     0.048 A   
ATOM     11  N6  UNL     1       2.771  -3.123   3.977  1.00  0.00    -0.243 N   
ATOM     12  N5  UNL     1       2.946  -2.692   2.712  1.00  0.00    -0.187 NA  
ATOM     13  C1  UNL     1       1.805  -4.964   5.353  1.00  0.00     0.063 C   
ATOM     14  H29 UNL     1       3.130  -2.556   4.740  1.00  0.00     0.175 HD  
ENDBRANCH   7   8
BRANCH   7  15
ATOM     15  C6  UNL     1       3.672  -2.918  -0.123  1.00  0.00     0.187 C   
BRANCH  15  16
ATOM     16  O1  UNL     1       3.808  -1.544   0.266  1.00  0.00    -0.394 OA  
ATOM     17  H8  UNL     1       3.835  -1.559   1.251  1.00  0.00     0.210 HD  
ENDBRANCH  15  16
ENDBRANCH   7  15
ENDBRANCH   1   7
BRANCH   3  18
ATOM     18  C9  UNL     1      -1.222  -0.315  -0.788  1.00  0.00     0.114 C   
BRANCH  18  19
ATOM     19  C10 UNL     1      -2.670  -0.640  -0.363  1.00  0.00     0.064 C   
BRANCH  19  20
ATOM     20  C11 UNL     1      -3.725   0.490  -0.360  1.00  0.00    -0.012 C   
ATOM     21  C12 UNL     1      -3.194   1.827   0.152  1.00  0.00     0.007 C   
ATOM     22  C13 UNL     1      -4.436   0.660  -1.704  1.00  0.00     0.007 C   
ENDBRANCH  19  20
ENDBRANCH  18  19
BRANCH  18  23
ATOM     23  N2  UNL     1      -1.195   0.113  -2.233  1.00  0.00     0.249 N   
ATOM     24  H20 UNL     1      -1.548  -0.679  -2.785  1.00  0.00     0.199 HD  
ATOM     25  H21 UNL     1      -1.825   0.903  -2.373  1.00  0.00     0.199 HD  
BRANCH  23  26
ATOM     26  C14 UNL     1       0.143   0.488  -2.792  1.00  0.00     0.164 C   
BRANCH  26  27
ATOM     27  C15 UNL     1       0.764   1.670  -2.101  1.00  0.00    -0.002 A   
ATOM     28  C16 UNL     1       1.900   1.496  -1.275  1.00  0.00     0.012 A   
ATOM     29  C20 UNL     1       0.206   2.952  -2.247  1.00  0.00     0.045 A   
ATOM     30  C17 UNL     1       2.467   2.578  -0.593  1.00  0.00     0.037 A   
ATOM     31  C19 UNL     1       0.789   3.997  -1.559  1.00  0.00     0.109 A   
ATOM     32  C18 UNL     1       1.887   3.815  -0.754  1.00  0.00     0.108 A   
ATOM     33  O2  UNL     1       0.370   5.289  -1.583  1.00  0.00    -0.316 OA  
ATOM     34  O3  UNL     1       2.297   4.971  -0.171  1.00  0.00    -0.316 OA  
ATOM     35  C21 UNL     1       1.355   5.912  -0.727  1.00  0.00     0.337 C   
ENDBRANCH  26  27
ENDBRANCH  23  26
ENDBRANCH  18  23
ENDBRANCH   3  18
TORSDOF 10
