REMARK SMILES Cc1cc([C@@H](CO)n2cc([C@H](CC(C)C)[NH2+]Cc3ccc4c(c3)OCO4)nn2)n[nH]1
REMARK SMILES IDX 8 1 9 2 10 3 27 4 28 5 5 7 4 8 2 9 3 10 30 11 29 12 1 13
REMARK SMILES IDX 6 15 7 16 11 18 12 19 13 20 14 21 15 22 16 23 17 26 18 27
REMARK SMILES IDX 19 28 23 29 20 30 22 31 21 32 24 33 26 34 25 35
REMARK H PARENT 9 6 30 14 7 17 16 24 16 25
ROOT
ATOM     1   N1  UNL     1       0.901   2.760  -0.145  1.00  0.00    -0.201 N   
ATOM     2   C7  UNL     1      -0.284   2.070  -0.129  1.00  0.00     0.046 A   
ATOM     3   C8  UNL     1       0.089   0.746  -0.093  1.00  0.00     0.127 A   
ATOM     4   N3  UNL     1       1.462   0.670  -0.093  1.00  0.00    -0.132 NA  
ATOM     5   N4  UNL     1       1.946   1.901  -0.115  1.00  0.00    -0.075 NA  
ATOM     6   H9  UNL     1      -1.240   2.580  -0.141  1.00  0.00     0.083 HD  
ENDROOT
BRANCH   1   7
ATOM     7   C5  UNL     1       1.132   4.201  -0.181  1.00  0.00     0.175 C   
BRANCH   7   8
ATOM     8   C4  UNL     1       0.560   4.779  -1.449  1.00  0.00     0.085 A   
ATOM     9   C2  UNL     1       0.255   5.429  -3.553  1.00  0.00     0.024 A   
ATOM     10  C3  UNL     1       1.161   4.791  -2.733  1.00  0.00     0.048 A   
ATOM     11  N6  UNL     1      -0.796   5.776  -2.748  1.00  0.00    -0.243 N   
ATOM     12  N5  UNL     1      -0.651   5.369  -1.471  1.00  0.00    -0.187 NA  
ATOM     13  C1  UNL     1       0.280   5.750  -4.997  1.00  0.00     0.063 C   
ATOM     14  H29 UNL     1      -1.640   6.282  -3.006  1.00  0.00     0.175 HD  
ENDBRANCH   7   8
BRANCH   7  15
ATOM     15  C6  UNL     1       0.642   4.892   1.104  1.00  0.00     0.187 C   
BRANCH  15  16
ATOM     16  O1  UNL     1      -0.780   4.836   1.272  1.00  0.00    -0.394 OA  
ATOM     17  H8  UNL     1      -1.156   5.250   0.462  1.00  0.00     0.210 HD  
ENDBRANCH  15  16
ENDBRANCH   7  15
ENDBRANCH   1   7
BRANCH   3  18
ATOM     18  C9  UNL     1      -0.700  -0.527  -0.048  1.00  0.00     0.114 C   
BRANCH  18  19
ATOM     19  C10 UNL     1      -2.022  -0.395   0.729  1.00  0.00     0.064 C   
BRANCH  19  20
ATOM     20  C11 UNL     1      -2.921  -1.649   0.736  1.00  0.00    -0.012 C   
ATOM     21  C12 UNL     1      -3.427  -2.008  -0.662  1.00  0.00     0.007 C   
ATOM     22  C13 UNL     1      -4.116  -1.421   1.666  1.00  0.00     0.007 C   
ENDBRANCH  19  20
ENDBRANCH  18  19
BRANCH  18  23
ATOM     23  N2  UNL     1       0.152  -1.596   0.595  1.00  0.00     0.249 N   
ATOM     24  H20 UNL     1       1.073  -1.160   0.771  1.00  0.00     0.199 HD  
ATOM     25  H21 UNL     1      -0.190  -1.847   1.524  1.00  0.00     0.199 HD  
BRANCH  23  26
ATOM     26  C14 UNL     1       0.408  -2.805  -0.223  1.00  0.00     0.164 C   
BRANCH  26  27
ATOM     27  C15 UNL     1       1.337  -3.745   0.489  1.00  0.00    -0.002 A   
ATOM     28  C16 UNL     1       0.824  -4.849   1.212  1.00  0.00     0.012 A   
ATOM     29  C20 UNL     1       2.725  -3.512   0.476  1.00  0.00     0.045 A   
ATOM     30  C17 UNL     1       1.677  -5.720   1.899  1.00  0.00     0.037 A   
ATOM     31  C19 UNL     1       3.538  -4.390   1.162  1.00  0.00     0.109 A   
ATOM     32  C18 UNL     1       3.029  -5.463   1.852  1.00  0.00     0.108 A   
ATOM     33  O2  UNL     1       4.892  -4.312   1.246  1.00  0.00    -0.316 OA  
ATOM     34  O3  UNL     1       3.998  -6.199   2.452  1.00  0.00    -0.316 OA  
ATOM     35  C21 UNL     1       5.184  -5.490   2.031  1.00  0.00     0.337 C   
ENDBRANCH  26  27
ENDBRANCH  23  26
ENDBRANCH  18  23
ENDBRANCH   3  18
TORSDOF 10
