REMARK SMILES COc1ncc(F)cc1Cn1cc([C@H](CC(C)C)[NH2+]Cc2ccc3c(c2)OCO3)nn1
REMARK SMILES IDX 11 1 12 2 13 3 30 4 31 5 10 7 9 8 3 9 4 10 5 11 8 12 6 13
REMARK SMILES IDX 7 14 2 15 1 16 14 17 15 18 16 19 17 20 18 21 19 22 20 25
REMARK SMILES IDX 21 26 22 27 26 28 23 29 25 30 24 31 27 32 29 33 28 34
REMARK H PARENT 12 6 19 23 19 24
ROOT
ATOM     1   N2  UNL     1       0.439  -0.767  -2.011  1.00  0.00    -0.208 N   
ATOM     2   C8  UNL     1      -0.480  -0.119  -1.233  1.00  0.00     0.046 A   
ATOM     3   C9  UNL     1       0.106  -0.080   0.012  1.00  0.00     0.127 A   
ATOM     4   N4  UNL     1       1.294  -0.766  -0.030  1.00  0.00    -0.132 NA  
ATOM     5   N5  UNL     1       1.474  -1.203  -1.265  1.00  0.00    -0.076 NA  
ATOM     6   H8  UNL     1      -1.399   0.285  -1.639  1.00  0.00     0.083 HD  
ENDROOT
BRANCH   1   7
ATOM     7   C7  UNL     1       0.407  -0.997  -3.447  1.00  0.00     0.174 C   
BRANCH   7   8
ATOM     8   C6  UNL     1       1.105   0.114  -4.178  1.00  0.00     0.024 A   
ATOM     9   C2  UNL     1       0.462   1.320  -4.470  1.00  0.00     0.171 A   
ATOM     10  N1  UNL     1       1.059   2.364  -5.086  1.00  0.00    -0.229 NA  
ATOM     11  C3  UNL     1       2.356   2.204  -5.444  1.00  0.00     0.153 A   
ATOM     12  C5  UNL     1       2.451  -0.007  -4.555  1.00  0.00     0.050 A   
ATOM     13  C4  UNL     1       3.077   1.050  -5.198  1.00  0.00     0.142 A   
ATOM     14  F1  UNL     1       4.360   0.953  -5.565  1.00  0.00    -0.205 F   
BRANCH   9  15
ATOM     15  O1  UNL     1      -0.858   1.441  -4.076  1.00  0.00    -0.332 OA  
ATOM     16  C1  UNL     1      -1.461   2.662  -4.503  1.00  0.00     0.205 C   
ENDBRANCH   9  15
ENDBRANCH   7   8
ENDBRANCH   1   7
BRANCH   3  17
ATOM     17  C10 UNL     1      -0.341   0.535   1.298  1.00  0.00     0.114 C   
BRANCH  17  18
ATOM     18  C11 UNL     1       0.155   1.985   1.465  1.00  0.00     0.064 C   
BRANCH  18  19
ATOM     19  C12 UNL     1      -0.379   2.995   0.425  1.00  0.00    -0.012 C   
ATOM     20  C13 UNL     1       0.254   4.369   0.668  1.00  0.00     0.007 C   
ATOM     21  C14 UNL     1      -1.902   3.119   0.462  1.00  0.00     0.007 C   
ENDBRANCH  18  19
ENDBRANCH  17  18
BRANCH  17  22
ATOM     22  N3  UNL     1       0.220  -0.254   2.458  1.00  0.00     0.249 N   
ATOM     23  H19 UNL     1       1.207  -0.448   2.228  1.00  0.00     0.199 HD  
ATOM     24  H20 UNL     1       0.233   0.297   3.322  1.00  0.00     0.199 HD  
BRANCH  22  25
ATOM     25  C15 UNL     1      -0.437  -1.563   2.719  1.00  0.00     0.164 C   
BRANCH  25  26
ATOM     26  C16 UNL     1       0.298  -2.312   3.793  1.00  0.00    -0.002 A   
ATOM     27  C17 UNL     1       1.352  -3.192   3.448  1.00  0.00     0.012 A   
ATOM     28  C21 UNL     1      -0.010  -2.098   5.147  1.00  0.00     0.045 A   
ATOM     29  C18 UNL     1       2.082  -3.863   4.435  1.00  0.00     0.037 A   
ATOM     30  C20 UNL     1       0.733  -2.771   6.096  1.00  0.00     0.109 A   
ATOM     31  C19 UNL     1       1.747  -3.630   5.751  1.00  0.00     0.108 A   
ATOM     32  O2  UNL     1       0.571  -2.673   7.441  1.00  0.00    -0.316 OA  
ATOM     33  O3  UNL     1       2.347  -4.186   6.835  1.00  0.00    -0.316 OA  
ATOM     34  C22 UNL     1       1.592  -3.584   7.908  1.00  0.00     0.337 C   
ENDBRANCH  25  26
ENDBRANCH  22  25
ENDBRANCH  17  22
ENDBRANCH   3  17
TORSDOF 9
