REMARK SMILES CN1CCc2cc(-n3cc([C@@H]([NH2+]Cc4ccc5c(c4)OCO5)C(C)(C)C)nn3)ccc2C1
REMARK SMILES IDX 11 1 10 2 8 3 9 4 28 5 27 6 7 7 2 8 3 9 32 10 4 11 31 12
REMARK SMILES IDX 5 13 30 14 6 15 29 16 1 17 12 18 13 21 14 22 15 23 19 24
REMARK SMILES IDX 16 25 18 26 17 27 20 28 22 29 21 30 23 31 24 32 25 33 26 34
REMARK H PARENT 12 19 12 20
ROOT
ATOM     1   C9  UNL     1       0.637  -1.609  -2.167  1.00  0.00     0.120 C   
ENDROOT
BRANCH   1   2
ATOM     2   C8  UNL     1      -0.466  -1.039  -1.326  1.00  0.00     0.128 A   
ATOM     3   N2  UNL     1      -1.825   0.141  -0.077  1.00  0.00    -0.181 N   
ATOM     4   C7  UNL     1      -0.674   0.231  -0.836  1.00  0.00     0.135 A   
ATOM     5   N5  UNL     1      -2.253  -1.149  -0.091  1.00  0.00    -0.071 NA  
ATOM     6   N4  UNL     1      -1.444  -1.866  -0.852  1.00  0.00    -0.131 NA  
BRANCH   3   7
ATOM     7   C6  UNL     1      -2.498   1.154   0.649  1.00  0.00     0.058 A   
ATOM     8   N1  UNL     1      -5.455   3.696   3.959  1.00  0.00    -0.302 NA  
ATOM     9   C2  UNL     1      -6.337   2.661   3.403  1.00  0.00     0.089 C   
ATOM     10  C25 UNL     1      -4.569   4.219   2.906  1.00  0.00     0.120 C   
ATOM     11  C3  UNL     1      -5.518   1.439   2.969  1.00  0.00     0.051 C   
ATOM     12  C24 UNL     1      -3.840   3.132   2.139  1.00  0.00    -0.031 A   
ATOM     13  C4  UNL     1      -4.317   1.811   2.130  1.00  0.00    -0.040 A   
ATOM     14  C23 UNL     1      -2.711   3.456   1.375  1.00  0.00     0.007 A   
ATOM     15  C5  UNL     1      -3.639   0.825   1.397  1.00  0.00     0.030 A   
ATOM     16  C22 UNL     1      -2.040   2.477   0.635  1.00  0.00     0.026 A   
ATOM     17  C1  UNL     1      -6.237   4.782   4.550  1.00  0.00     0.105 C   
ENDBRANCH   3   7
ENDBRANCH   1   2
BRANCH   1  18
ATOM     18  N3  UNL     1       0.929  -3.024  -1.702  1.00  0.00     0.250 N   
ATOM     19  H11 UNL     1       1.479  -3.537  -2.393  1.00  0.00     0.199 HD  
ATOM     20  H12 UNL     1       0.016  -3.497  -1.631  1.00  0.00     0.199 HD  
BRANCH  18  21
ATOM     21  C10 UNL     1       1.597  -3.161  -0.372  1.00  0.00     0.164 C   
BRANCH  21  22
ATOM     22  C11 UNL     1       2.998  -2.614  -0.365  1.00  0.00    -0.002 A   
ATOM     23  C12 UNL     1       4.030  -3.269  -1.077  1.00  0.00     0.012 A   
ATOM     24  C16 UNL     1       3.283  -1.423   0.327  1.00  0.00     0.045 A   
ATOM     25  C13 UNL     1       5.327  -2.745  -1.108  1.00  0.00     0.037 A   
ATOM     26  C15 UNL     1       4.570  -0.933   0.276  1.00  0.00     0.109 A   
ATOM     27  C14 UNL     1       5.564  -1.575  -0.421  1.00  0.00     0.108 A   
ATOM     28  O1  UNL     1       5.009   0.202   0.880  1.00  0.00    -0.316 OA  
ATOM     29  O2  UNL     1       6.755  -0.927  -0.341  1.00  0.00    -0.316 OA  
ATOM     30  C17 UNL     1       6.410   0.180   0.520  1.00  0.00     0.337 C   
ENDBRANCH  21  22
ENDBRANCH  18  21
ENDBRANCH   1  18
BRANCH   1  31
ATOM     31  C18 UNL     1       0.344  -1.595  -3.710  1.00  0.00     0.010 C   
ATOM     32  C19 UNL     1      -0.843  -2.498  -4.100  1.00  0.00     0.017 C   
ATOM     33  C20 UNL     1       0.034  -0.155  -4.181  1.00  0.00     0.017 C   
ATOM     34  C21 UNL     1       1.591  -2.063  -4.498  1.00  0.00     0.017 C   
ENDBRANCH   1  31
TORSDOF 6
