REMARK SMILES Cc1cc(-n2cc([C@@H]([NH2+]Cc3ccc4c(c3)OCO4)C3CCCCC3)nn2)n(C)n1
REMARK SMILES IDX 8 1 7 2 5 3 6 4 27 5 26 6 4 7 2 8 3 9 30 10 28 11 1 12 29 13
REMARK SMILES IDX 9 14 10 17 11 18 12 19 16 20 13 21 15 22 14 23 17 24 19 25
REMARK SMILES IDX 18 26 20 27 21 28 25 29 22 30 24 31 23 32
REMARK H PARENT 9 15 9 16
ROOT
ATOM     1   C7  UNL     1      -1.404   0.213  -0.115  1.00  0.00     0.117 C   
ENDROOT
BRANCH   1   2
ATOM     2   C6  UNL     1      -0.516  -0.799   0.544  1.00  0.00     0.128 A   
ATOM     3   N1  UNL     1       0.469  -2.551   1.402  1.00  0.00    -0.165 N   
ATOM     4   C5  UNL     1      -0.683  -2.148   0.762  1.00  0.00     0.137 A   
ATOM     5   N4  UNL     1       1.271  -1.480   1.588  1.00  0.00    -0.070 NA  
ATOM     6   N3  UNL     1       0.691  -0.414   1.059  1.00  0.00    -0.131 NA  
BRANCH   3   7
ATOM     7   C4  UNL     1       0.849  -3.807   1.828  1.00  0.00     0.135 A   
ATOM     8   C2  UNL     1       0.958  -5.974   2.273  1.00  0.00     0.059 A   
ATOM     9   C3  UNL     1       0.146  -4.985   1.677  1.00  0.00     0.069 A   
ATOM     10  N6  UNL     1       2.083  -5.450   2.768  1.00  0.00    -0.185 NA  
ATOM     11  N5  UNL     1       2.009  -4.135   2.481  1.00  0.00    -0.213 N   
ATOM     12  C1  UNL     1       0.695  -7.429   2.397  1.00  0.00     0.068 C   
ATOM     13  C22 UNL     1       3.107  -3.292   2.900  1.00  0.00     0.161 C   
ENDBRANCH   3   7
ENDBRANCH   1   2
BRANCH   1  14
ATOM     14  N2  UNL     1      -0.985   1.608   0.262  1.00  0.00     0.249 N   
ATOM     15  H7  UNL     1       0.047   1.626   0.241  1.00  0.00     0.199 HD  
ATOM     16  H8  UNL     1      -1.293   2.307  -0.420  1.00  0.00     0.199 HD  
BRANCH  14  17
ATOM     17  C8  UNL     1      -1.400   2.055   1.622  1.00  0.00     0.164 C   
BRANCH  17  18
ATOM     18  C9  UNL     1      -0.759   3.372   1.954  1.00  0.00    -0.002 A   
ATOM     19  C10 UNL     1       0.521   3.404   2.561  1.00  0.00     0.012 A   
ATOM     20  C14 UNL     1      -1.392   4.578   1.606  1.00  0.00     0.045 A   
ATOM     21  C11 UNL     1       1.158   4.620   2.829  1.00  0.00     0.037 A   
ATOM     22  C13 UNL     1      -0.735   5.759   1.885  1.00  0.00     0.109 A   
ATOM     23  C12 UNL     1       0.503   5.780   2.480  1.00  0.00     0.108 A   
ATOM     24  O1  UNL     1      -1.202   7.005   1.611  1.00  0.00    -0.316 OA  
ATOM     25  O2  UNL     1       0.970   7.043   2.658  1.00  0.00    -0.316 OA  
ATOM     26  C15 UNL     1      -0.134   7.820   2.149  1.00  0.00     0.337 C   
ENDBRANCH  17  18
ENDBRANCH  14  17
ENDBRANCH   1  14
BRANCH   1  27
ATOM     27  C16 UNL     1      -1.419   0.054  -1.660  1.00  0.00     0.043 C   
ATOM     28  C17 UNL     1      -2.588   0.828  -2.301  1.00  0.00     0.010 C   
ATOM     29  C21 UNL     1      -0.089   0.436  -2.341  1.00  0.00     0.010 C   
ATOM     30  C18 UNL     1      -2.642   0.613  -3.812  1.00  0.00     0.001 C   
ATOM     31  C20 UNL     1      -0.151   0.223  -3.853  1.00  0.00     0.001 C   
ATOM     32  C19 UNL     1      -1.320   0.974  -4.480  1.00  0.00     0.000 C   
ENDBRANCH   1  27
TORSDOF 6
