REMARK SMILES CC(=O)c1cccc(-n2cc([C@@H]([NH2+]Cc3ccc4c(c3)OCO4)C3CCCC3)nn2)c1
REMARK SMILES IDX 9 1 10 2 11 3 29 4 30 5 8 6 4 7 5 8 31 9 6 10 7 11 2 12 1 13
REMARK SMILES IDX 3 14 12 15 13 16 14 19 15 20 16 21 20 22 17 23 19 24 18 25
REMARK SMILES IDX 21 26 23 27 22 28 24 29 25 30 28 31 26 32 27 33
REMARK H PARENT 13 17 13 18
ROOT
ATOM     1   N1  UNL     1       0.824  -0.544  -0.310  1.00  0.00    -0.181 N   
ATOM     2   C8  UNL     1      -0.141   0.248  -0.904  1.00  0.00     0.135 A   
ATOM     3   C9  UNL     1       0.559   1.095  -1.736  1.00  0.00     0.127 A   
ATOM     4   N3  UNL     1       1.893   0.815  -1.644  1.00  0.00    -0.131 NA  
ATOM     5   N4  UNL     1       2.045  -0.172  -0.776  1.00  0.00    -0.071 NA  
ENDROOT
BRANCH   1   6
ATOM     6   C7  UNL     1       0.663  -1.594   0.627  1.00  0.00     0.058 A   
ATOM     7   C3  UNL     1      -0.773  -3.038   1.967  1.00  0.00     0.019 A   
ATOM     8   C4  UNL     1       0.358  -3.709   2.448  1.00  0.00     0.012 A   
ATOM     9   C24 UNL     1      -0.615  -1.976   1.060  1.00  0.00     0.037 A   
ATOM     10  C5  UNL     1       1.631  -3.322   2.027  1.00  0.00     0.003 A   
ATOM     11  C6  UNL     1       1.787  -2.271   1.119  1.00  0.00     0.026 A   
BRANCH   7  12
ATOM     12  C2  UNL     1      -2.160  -3.404   2.377  1.00  0.00     0.159 C   
ATOM     13  C1  UNL     1      -2.374  -4.640   3.208  1.00  0.00     0.093 C   
ATOM     14  O1  UNL     1      -3.097  -2.692   2.022  1.00  0.00    -0.295 OA  
ENDBRANCH   7  12
ENDBRANCH   1   6
BRANCH   3  15
ATOM     15  C10 UNL     1       0.111   2.241  -2.585  1.00  0.00     0.117 C   
BRANCH  15  16
ATOM     16  N2  UNL     1       1.067   3.401  -2.374  1.00  0.00     0.249 N   
ATOM     17  H9  UNL     1       1.969   2.976  -2.106  1.00  0.00     0.199 HD  
ATOM     18  H10 UNL     1       1.247   3.895  -3.255  1.00  0.00     0.199 HD  
BRANCH  16  19
ATOM     19  C11 UNL     1       0.691   4.400  -1.331  1.00  0.00     0.164 C   
BRANCH  19  20
ATOM     20  C12 UNL     1       0.431   3.807   0.024  1.00  0.00    -0.002 A   
ATOM     21  C13 UNL     1       1.498   3.283   0.794  1.00  0.00     0.012 A   
ATOM     22  C17 UNL     1      -0.884   3.707   0.510  1.00  0.00     0.045 A   
ATOM     23  C14 UNL     1       1.256   2.635   2.013  1.00  0.00     0.037 A   
ATOM     24  C16 UNL     1      -1.087   3.061   1.714  1.00  0.00     0.109 A   
ATOM     25  C15 UNL     1      -0.049   2.534   2.441  1.00  0.00     0.108 A   
ATOM     26  O2  UNL     1      -2.294   2.852   2.303  1.00  0.00    -0.316 OA  
ATOM     27  O3  UNL     1      -0.472   1.927   3.580  1.00  0.00    -0.316 OA  
ATOM     28  C18 UNL     1      -1.894   2.161   3.509  1.00  0.00     0.337 C   
ENDBRANCH  19  20
ENDBRANCH  16  19
ENDBRANCH  15  16
BRANCH  15  29
ATOM     29  C19 UNL     1       0.094   1.875  -4.080  1.00  0.00     0.043 C   
ATOM     30  C20 UNL     1      -0.433   2.989  -4.995  1.00  0.00     0.010 C   
ATOM     31  C23 UNL     1      -0.853   0.717  -4.410  1.00  0.00     0.010 C   
ATOM     32  C21 UNL     1      -0.955   2.285  -6.249  1.00  0.00     0.001 C   
ATOM     33  C22 UNL     1      -0.994   0.797  -5.922  1.00  0.00     0.001 C   
ENDBRANCH  15  29
ENDBRANCH   3  15
TORSDOF 7
