REMARK SMILES CC(C)C[C@H]([NH2+]Cc1ccc2c(c1)OCO2)c1cn([C@@H](CO)c2cccnc2Cl)nn1
REMARK SMILES IDX 17 1 18 2 19 3 30 4 31 5 5 7 4 8 2 9 1 10 3 11 6 12 7 15
REMARK SMILES IDX 8 16 9 17 13 18 10 19 12 20 11 21 14 22 16 23 15 24 20 25
REMARK SMILES IDX 21 26 22 27 23 29 24 30 28 31 25 32 27 33 26 34 29 35
REMARK H PARENT 18 6 6 13 6 14 22 28
ROOT
ATOM     1   C14 UNL     1       0.994   0.415  -0.138  1.00  0.00     0.127 A   
ATOM     2   C15 UNL     1      -0.050  -0.335   0.349  1.00  0.00     0.046 A   
ATOM     3   N2  UNL     1       0.478  -0.968   1.442  1.00  0.00    -0.202 N   
ATOM     4   N4  UNL     1       1.749  -0.564   1.658  1.00  0.00    -0.075 NA  
ATOM     5   N5  UNL     1       2.079   0.273   0.689  1.00  0.00    -0.132 NA  
ATOM     6   H20 UNL     1      -1.072  -0.484   0.030  1.00  0.00     0.083 HD  
ENDROOT
BRANCH   1   7
ATOM     7   C5  UNL     1       1.092   1.332  -1.310  1.00  0.00     0.114 C   
BRANCH   7   8
ATOM     8   C4  UNL     1       1.817   0.682  -2.505  1.00  0.00     0.064 C   
BRANCH   8   9
ATOM     9   C2  UNL     1       1.127  -0.569  -3.091  1.00  0.00    -0.012 C   
ATOM     10  C1  UNL     1       1.970  -1.134  -4.237  1.00  0.00     0.007 C   
ATOM     11  C3  UNL     1      -0.288  -0.275  -3.591  1.00  0.00     0.007 C   
ENDBRANCH   8   9
ENDBRANCH   7   8
BRANCH   7  12
ATOM     12  N1  UNL     1       1.894   2.559  -0.910  1.00  0.00     0.249 N   
ATOM     13  H11 UNL     1       2.502   2.253  -0.133  1.00  0.00     0.199 HD  
ATOM     14  H12 UNL     1       2.529   2.837  -1.665  1.00  0.00     0.199 HD  
BRANCH  12  15
ATOM     15  C6  UNL     1       1.113   3.748  -0.466  1.00  0.00     0.164 C   
BRANCH  15  16
ATOM     16  C7  UNL     1       0.226   3.497   0.721  1.00  0.00    -0.002 A   
ATOM     17  C8  UNL     1       0.781   3.310   2.010  1.00  0.00     0.012 A   
ATOM     18  C12 UNL     1      -1.167   3.405   0.551  1.00  0.00     0.045 A   
ATOM     19  C9  UNL     1      -0.034   3.025   3.111  1.00  0.00     0.037 A   
ATOM     20  C11 UNL     1      -1.941   3.121   1.656  1.00  0.00     0.109 A   
ATOM     21  C10 UNL     1      -1.392   2.934   2.901  1.00  0.00     0.108 A   
ATOM     22  O1  UNL     1      -3.292   2.985   1.656  1.00  0.00    -0.316 OA  
ATOM     23  O2  UNL     1      -2.329   2.645   3.842  1.00  0.00    -0.316 OA  
ATOM     24  C13 UNL     1      -3.540   2.719   3.054  1.00  0.00     0.337 C   
ENDBRANCH  15  16
ENDBRANCH  12  15
ENDBRANCH   7  12
ENDBRANCH   1   7
BRANCH   3  25
ATOM     25  C16 UNL     1      -0.129  -1.969   2.327  1.00  0.00     0.158 C   
BRANCH  25  26
ATOM     26  C17 UNL     1      -0.750  -1.260   3.549  1.00  0.00     0.186 C   
BRANCH  26  27
ATOM     27  O3  UNL     1      -1.791  -0.355   3.182  1.00  0.00    -0.394 OA  
ATOM     28  H24 UNL     1      -1.946   0.230   3.949  1.00  0.00     0.210 HD  
ENDBRANCH  26  27
ENDBRANCH  25  26
BRANCH  25  29
ATOM     29  C18 UNL     1      -1.006  -2.945   1.555  1.00  0.00     0.014 A   
ATOM     30  C19 UNL     1      -2.399  -3.010   1.714  1.00  0.00     0.010 A   
ATOM     31  C22 UNL     1      -0.459  -3.837   0.625  1.00  0.00     0.134 A   
ATOM     32  C20 UNL     1      -3.156  -3.916   0.974  1.00  0.00     0.021 A   
ATOM     33  N3  UNL     1      -1.172  -4.713  -0.116  1.00  0.00    -0.244 NA  
ATOM     34  C21 UNL     1      -2.503  -4.741   0.079  1.00  0.00     0.113 A   
ATOM     35  CL1 UNL     1       1.226  -3.932   0.277  1.00  0.00    -0.062 Cl  
ENDBRANCH  25  29
ENDBRANCH   3  25
TORSDOF 10
