REMARK SMILES CC(C)C[C@H]([NH2+]Cc1ccc2c(c1)OCO2)c1cn([C@H](CO)c2cccnc2Cl)nn1
REMARK SMILES IDX 17 1 18 2 19 3 30 4 31 5 5 7 4 8 2 9 1 10 3 11 6 12 7 15
REMARK SMILES IDX 8 16 9 17 13 18 10 19 12 20 11 21 14 22 16 23 15 24 20 25
REMARK SMILES IDX 21 26 22 27 23 29 24 30 28 31 25 32 27 33 26 34 29 35
REMARK H PARENT 18 6 6 13 6 14 22 28
ROOT
ATOM     1   C14 UNL     1      -1.257  -0.500  -0.674  1.00  0.00     0.127 A   
ATOM     2   C15 UNL     1      -0.201   0.204  -1.205  1.00  0.00     0.046 A   
ATOM     3   N2  UNL     1      -0.522   0.336  -2.529  1.00  0.00    -0.202 N   
ATOM     4   N4  UNL     1      -1.680  -0.302  -2.803  1.00  0.00    -0.075 NA  
ATOM     5   N5  UNL     1      -2.139  -0.816  -1.675  1.00  0.00    -0.132 NA  
ATOM     6   H20 UNL     1       0.691   0.643  -0.777  1.00  0.00     0.083 HD  
ENDROOT
BRANCH   1   7
ATOM     7   C5  UNL     1      -1.593  -0.845   0.735  1.00  0.00     0.114 C   
BRANCH   7   8
ATOM     8   C4  UNL     1      -1.392  -2.341   1.046  1.00  0.00     0.064 C   
BRANCH   8   9
ATOM     9   C2  UNL     1       0.063  -2.842   0.923  1.00  0.00    -0.012 C   
ATOM     10  C1  UNL     1       1.011  -2.123   1.884  1.00  0.00     0.007 C   
ATOM     11  C3  UNL     1       0.113  -4.351   1.185  1.00  0.00     0.007 C   
ENDBRANCH   8   9
ENDBRANCH   7   8
BRANCH   7  12
ATOM     12  N1  UNL     1      -3.053  -0.530   1.002  1.00  0.00     0.249 N   
ATOM     13  H11 UNL     1      -3.335  -0.914   1.909  1.00  0.00     0.199 HD  
ATOM     14  H12 UNL     1      -3.592  -1.024   0.278  1.00  0.00     0.199 HD  
BRANCH  12  15
ATOM     15  C6  UNL     1      -3.443   0.913   0.935  1.00  0.00     0.164 C   
BRANCH  15  16
ATOM     16  C7  UNL     1      -2.786   1.749   1.998  1.00  0.00    -0.002 A   
ATOM     17  C8  UNL     1      -1.766   2.670   1.653  1.00  0.00     0.012 A   
ATOM     18  C12 UNL     1      -3.159   1.604   3.345  1.00  0.00     0.045 A   
ATOM     19  C9  UNL     1      -1.118   3.428   2.634  1.00  0.00     0.037 A   
ATOM     20  C11 UNL     1      -2.501   2.368   4.287  1.00  0.00     0.109 A   
ATOM     21  C10 UNL     1      -1.508   3.252   3.943  1.00  0.00     0.108 A   
ATOM     22  O1  UNL     1      -2.738   2.345   5.625  1.00  0.00    -0.316 OA  
ATOM     23  O2  UNL     1      -0.993   3.897   5.022  1.00  0.00    -0.316 OA  
ATOM     24  C13 UNL     1      -1.807   3.354   6.083  1.00  0.00     0.337 C   
ENDBRANCH  15  16
ENDBRANCH  12  15
ENDBRANCH   7  12
ENDBRANCH   1   7
BRANCH   3  25
ATOM     25  C16 UNL     1       0.141   1.129  -3.571  1.00  0.00     0.158 C   
BRANCH  25  26
ATOM     26  C17 UNL     1       1.187   0.252  -4.290  1.00  0.00     0.186 C   
BRANCH  26  27
ATOM     27  O3  UNL     1       2.207  -0.213  -3.404  1.00  0.00    -0.394 OA  
ATOM     28  H24 UNL     1       2.774  -0.821  -3.915  1.00  0.00     0.210 HD  
ENDBRANCH  26  27
ENDBRANCH  25  26
BRANCH  25  29
ATOM     29  C18 UNL     1       0.595   2.478  -3.029  1.00  0.00     0.014 A   
ATOM     30  C19 UNL     1       1.946   2.842  -2.930  1.00  0.00     0.010 A   
ATOM     31  C22 UNL     1      -0.323   3.430  -2.570  1.00  0.00     0.134 A   
ATOM     32  C20 UNL     1       2.311   4.077  -2.392  1.00  0.00     0.021 A   
ATOM     33  N3  UNL     1       0.004   4.618  -2.016  1.00  0.00    -0.244 NA  
ATOM     34  C21 UNL     1       1.313   4.923  -1.948  1.00  0.00     0.113 A   
ATOM     35  CL1 UNL     1      -2.031   3.201  -2.610  1.00  0.00    -0.062 Cl  
ENDBRANCH  25  29
ENDBRANCH   3  25
TORSDOF 10
