REMARK SMILES COc1ccc(-n2cc([C@@H]([NH2+]Cc3ccc4c(c3)OCO4)C(C)(C)C)nn2)c(C)c1
REMARK SMILES IDX 7 1 8 2 9 3 26 4 27 5 6 6 3 7 4 8 30 9 5 10 28 11 29 12 2 13
REMARK SMILES IDX 1 14 10 15 11 16 12 19 13 20 14 21 18 22 15 23 17 24 16 25
REMARK SMILES IDX 19 26 21 27 20 28 22 29 23 30 24 31 25 32
REMARK H PARENT 11 17 11 18
ROOT
ATOM     1   N1  UNL     1       1.223   1.678   0.414  1.00  0.00    -0.180 N   
ATOM     2   C6  UNL     1       0.920   1.089  -0.805  1.00  0.00     0.135 A   
ATOM     3   C7  UNL     1      -0.423   0.791  -0.748  1.00  0.00     0.128 A   
ATOM     4   N3  UNL     1      -0.903   1.153   0.475  1.00  0.00    -0.131 NA  
ATOM     5   N4  UNL     1       0.095   1.671   1.168  1.00  0.00    -0.071 NA  
ENDROOT
BRANCH   1   6
ATOM     6   C5  UNL     1       2.474   2.194   0.870  1.00  0.00     0.061 A   
ATOM     7   C2  UNL     1       5.014   3.180   1.650  1.00  0.00     0.075 A   
ATOM     8   C3  UNL     1       4.826   2.634   0.386  1.00  0.00     0.035 A   
ATOM     9   C23 UNL     1       3.933   3.233   2.527  1.00  0.00     0.038 A   
ATOM     10  C4  UNL     1       3.576   2.148  -0.005  1.00  0.00     0.029 A   
ATOM     11  C21 UNL     1       2.654   2.749   2.161  1.00  0.00    -0.025 A   
ATOM     12  C22 UNL     1       1.570   2.871   3.203  1.00  0.00     0.046 C   
BRANCH   7  13
ATOM     13  O1  UNL     1       6.282   3.616   1.901  1.00  0.00    -0.349 OA  
ATOM     14  C1  UNL     1       6.517   4.243   3.157  1.00  0.00     0.203 C   
ENDBRANCH   7  13
ENDBRANCH   1   6
BRANCH   3  15
ATOM     15  C8  UNL     1      -1.342   0.123  -1.729  1.00  0.00     0.120 C   
BRANCH  15  16
ATOM     16  N2  UNL     1      -2.383  -0.655  -0.958  1.00  0.00     0.250 N   
ATOM     17  H8  UNL     1      -3.218  -0.858  -1.513  1.00  0.00     0.199 HD  
ATOM     18  H9  UNL     1      -2.698  -0.041  -0.190  1.00  0.00     0.199 HD  
BRANCH  16  19
ATOM     19  C9  UNL     1      -1.910  -1.923  -0.335  1.00  0.00     0.164 C   
BRANCH  19  20
ATOM     20  C10 UNL     1      -2.998  -2.528   0.505  1.00  0.00    -0.002 A   
ATOM     21  C11 UNL     1      -3.908  -3.455  -0.056  1.00  0.00     0.012 A   
ATOM     22  C15 UNL     1      -3.157  -2.123   1.842  1.00  0.00     0.045 A   
ATOM     23  C12 UNL     1      -4.955  -3.984   0.708  1.00  0.00     0.037 A   
ATOM     24  C14 UNL     1      -4.201  -2.662   2.565  1.00  0.00     0.109 A   
ATOM     25  C13 UNL     1      -5.075  -3.566   2.014  1.00  0.00     0.108 A   
ATOM     26  O2  UNL     1      -4.494  -2.380   3.860  1.00  0.00    -0.316 OA  
ATOM     27  O3  UNL     1      -6.028  -3.967   2.894  1.00  0.00    -0.316 OA  
ATOM     28  C16 UNL     1      -5.654  -3.217   4.068  1.00  0.00     0.337 C   
ENDBRANCH  19  20
ENDBRANCH  16  19
ENDBRANCH  15  16
BRANCH  15  29
ATOM     29  C17 UNL     1      -2.034   1.110  -2.734  1.00  0.00     0.010 C   
ATOM     30  C18 UNL     1      -2.846   0.323  -3.789  1.00  0.00     0.017 C   
ATOM     31  C19 UNL     1      -0.970   1.922  -3.508  1.00  0.00     0.017 C   
ATOM     32  C20 UNL     1      -2.984   2.100  -2.032  1.00  0.00     0.017 C   
ENDBRANCH  15  29
ENDBRANCH   3  15
TORSDOF 7
