REMARK SMILES CC(C)(C)[C@H]([NH2+]Cc1ccc2c(c1)OCO2)c1cn(-c2cccc(O)c2)nn1
REMARK SMILES IDX 17 1 18 2 19 3 27 4 28 5 5 6 2 7 1 8 3 9 4 10 6 11 7 14 8 15
REMARK SMILES IDX 9 16 13 17 10 18 12 19 11 20 14 21 16 22 15 23 20 24 21 25
REMARK SMILES IDX 26 26 22 27 24 28 23 29 25 30
REMARK H PARENT 6 12 6 13 25 31
ROOT
ATOM     1   C14 UNL     1       0.440  -1.299   0.395  1.00  0.00     0.128 A   
ATOM     2   C15 UNL     1       0.620  -2.655   0.554  1.00  0.00     0.135 A   
ATOM     3   N2  UNL     1      -0.202  -3.242  -0.390  1.00  0.00    -0.181 N   
ATOM     4   N3  UNL     1      -0.805  -2.260  -1.110  1.00  0.00    -0.071 NA  
ATOM     5   N4  UNL     1      -0.431  -1.084  -0.636  1.00  0.00    -0.131 NA  
ENDROOT
BRANCH   1   6
ATOM     6   C5  UNL     1       1.067  -0.124   1.087  1.00  0.00     0.120 C   
BRANCH   6   7
ATOM     7   C2  UNL     1       0.281   0.372   2.351  1.00  0.00     0.010 C   
ATOM     8   C1  UNL     1      -1.116   0.924   2.003  1.00  0.00     0.017 C   
ATOM     9   C3  UNL     1       0.107  -0.783   3.363  1.00  0.00     0.017 C   
ATOM     10  C4  UNL     1       1.075   1.485   3.076  1.00  0.00     0.017 C   
ENDBRANCH   6   7
BRANCH   6  11
ATOM     11  N1  UNL     1       1.217   1.001   0.089  1.00  0.00     0.250 N   
ATOM     12  H11 UNL     1       0.327   1.060  -0.429  1.00  0.00     0.199 HD  
ATOM     13  H12 UNL     1       1.342   1.912   0.538  1.00  0.00     0.199 HD  
BRANCH  11  14
ATOM     14  C6  UNL     1       2.299   0.822  -0.921  1.00  0.00     0.164 C   
BRANCH  14  15
ATOM     15  C7  UNL     1       2.286   1.957  -1.905  1.00  0.00    -0.002 A   
ATOM     16  C8  UNL     1       1.450   1.898  -3.046  1.00  0.00     0.012 A   
ATOM     17  C12 UNL     1       3.057   3.108  -1.669  1.00  0.00     0.045 A   
ATOM     18  C9  UNL     1       1.390   2.965  -3.948  1.00  0.00     0.037 A   
ATOM     19  C11 UNL     1       2.974   4.142  -2.579  1.00  0.00     0.109 A   
ATOM     20  C10 UNL     1       2.165   4.073  -3.687  1.00  0.00     0.108 A   
ATOM     21  O1  UNL     1       3.649   5.318  -2.501  1.00  0.00    -0.316 OA  
ATOM     22  O2  UNL     1       2.231   5.196  -4.447  1.00  0.00    -0.316 OA  
ATOM     23  C13 UNL     1       3.191   5.977  -3.704  1.00  0.00     0.337 C   
ENDBRANCH  14  15
ENDBRANCH  11  14
ENDBRANCH   6  11
ENDBRANCH   1   6
BRANCH   3  24
ATOM     24  C16 UNL     1      -0.424  -4.615  -0.652  1.00  0.00     0.060 A   
ATOM     25  C17 UNL     1      -1.306  -4.993  -1.677  1.00  0.00     0.026 A   
ATOM     26  C21 UNL     1       0.223  -5.603   0.099  1.00  0.00     0.059 A   
ATOM     27  C18 UNL     1      -1.533  -6.346  -1.945  1.00  0.00     0.005 A   
ATOM     28  C20 UNL     1      -0.015  -6.946  -0.182  1.00  0.00     0.073 A   
ATOM     29  C19 UNL     1      -0.886  -7.328  -1.196  1.00  0.00     0.033 A   
BRANCH  28  30
ATOM     30  O3  UNL     1       0.640  -7.869   0.577  1.00  0.00    -0.361 OA  
ATOM     31  H24 UNL     1       0.376  -8.760   0.289  1.00  0.00     0.218 HD  
ENDBRANCH  28  30
ENDBRANCH   3  24
TORSDOF 7
