REMARK SMILES CC(C)(C)[C@H]([NH2+]Cc1ccc2c(c1)OCO2)c1cn(CCc2ccc(O)cc2)nn1
REMARK SMILES IDX 17 1 18 2 19 3 29 4 30 5 5 7 2 8 1 9 3 10 4 11 6 12 7 15
REMARK SMILES IDX 8 16 9 17 13 18 10 19 12 20 11 21 14 22 16 23 15 24 20 25
REMARK SMILES IDX 21 26 22 27 23 28 28 29 24 30 27 31 25 32 26 33
REMARK H PARENT 18 6 6 13 6 14 26 34
ROOT
ATOM     1   C14 UNL     1      -2.198   0.669  -0.289  1.00  0.00     0.127 A   
ATOM     2   C15 UNL     1      -2.534   1.963   0.043  1.00  0.00     0.045 A   
ATOM     3   N2  UNL     1      -2.826   1.893   1.377  1.00  0.00    -0.212 N   
ATOM     4   N3  UNL     1      -2.716   0.631   1.831  1.00  0.00    -0.076 NA  
ATOM     5   N4  UNL     1      -2.320  -0.127   0.822  1.00  0.00    -0.132 NA  
ATOM     6   H20 UNL     1      -2.534   2.896  -0.503  1.00  0.00     0.083 HD  
ENDROOT
BRANCH   1   7
ATOM     7   C5  UNL     1      -1.628   0.097  -1.552  1.00  0.00     0.120 C   
BRANCH   7   8
ATOM     8   C2  UNL     1      -2.671  -0.647  -2.453  1.00  0.00     0.010 C   
ATOM     9   C1  UNL     1      -2.022  -1.050  -3.798  1.00  0.00     0.017 C   
ATOM     10  C3  UNL     1      -3.238  -1.919  -1.792  1.00  0.00     0.017 C   
ATOM     11  C4  UNL     1      -3.851   0.295  -2.786  1.00  0.00     0.017 C   
ENDBRANCH   7   8
BRANCH   7  12
ATOM     12  N1  UNL     1      -0.489  -0.823  -1.182  1.00  0.00     0.250 N   
ATOM     13  H11 UNL     1      -0.826  -1.407  -0.401  1.00  0.00     0.199 HD  
ATOM     14  H12 UNL     1      -0.239  -1.468  -1.935  1.00  0.00     0.199 HD  
BRANCH  12  15
ATOM     15  C6  UNL     1       0.747  -0.134  -0.710  1.00  0.00     0.164 C   
BRANCH  15  16
ATOM     16  C7  UNL     1       1.743  -1.136  -0.202  1.00  0.00    -0.002 A   
ATOM     17  C8  UNL     1       1.676  -1.581   1.141  1.00  0.00     0.012 A   
ATOM     18  C12 UNL     1       2.710  -1.678  -1.065  1.00  0.00     0.045 A   
ATOM     19  C9  UNL     1       2.569  -2.544   1.623  1.00  0.00     0.037 A   
ATOM     20  C11 UNL     1       3.574  -2.626  -0.557  1.00  0.00     0.109 A   
ATOM     21  C10 UNL     1       3.506  -3.046   0.749  1.00  0.00     0.108 A   
ATOM     22  O1  UNL     1       4.561  -3.248  -1.253  1.00  0.00    -0.316 OA  
ATOM     23  O2  UNL     1       4.444  -3.985   1.040  1.00  0.00    -0.316 OA  
ATOM     24  C13 UNL     1       5.128  -4.095  -0.227  1.00  0.00     0.337 C   
ENDBRANCH  15  16
ENDBRANCH  12  15
ENDBRANCH   7  12
ENDBRANCH   1   7
BRANCH   3  25
ATOM     25  C16 UNL     1      -3.082   2.991   2.286  1.00  0.00     0.139 C   
BRANCH  25  26
ATOM     26  C17 UNL     1      -1.916   3.264   3.244  1.00  0.00     0.057 C   
BRANCH  26  27
ATOM     27  C18 UNL     1      -0.594   3.456   2.534  1.00  0.00    -0.046 A   
ATOM     28  C19 UNL     1      -0.350   4.600   1.761  1.00  0.00     0.006 A   
ATOM     29  C23 UNL     1       0.391   2.459   2.607  1.00  0.00     0.006 A   
ATOM     30  C20 UNL     1       0.846   4.732   1.051  1.00  0.00     0.033 A   
ATOM     31  C22 UNL     1       1.585   2.592   1.901  1.00  0.00     0.033 A   
ATOM     32  C21 UNL     1       1.798   3.720   1.120  1.00  0.00     0.071 A   
BRANCH  32  33
ATOM     33  O3  UNL     1       2.964   3.795   0.419  1.00  0.00    -0.361 OA  
ATOM     34  H27 UNL     1       3.120   4.724   0.176  1.00  0.00     0.218 HD  
ENDBRANCH  32  33
ENDBRANCH  26  27
ENDBRANCH  25  26
ENDBRANCH   3  25
TORSDOF 9
