REMARK SMILES CC(C)[C@H]([NH2+]Cc1ccc2c(c1)OCO2)c1cn(CCc2cccc(N(C)C)c2)nn1
REMARK SMILES IDX 16 1 17 2 18 3 30 4 31 5 4 7 2 8 1 9 3 10 5 11 6 14 7 15
REMARK SMILES IDX 8 16 12 17 9 18 11 19 10 20 13 21 15 22 14 23 19 24 20 25
REMARK SMILES IDX 21 26 22 27 29 28 23 29 25 30 24 31 26 32 27 33 28 34
REMARK H PARENT 17 6 5 12 5 13
ROOT
ATOM     1   C13 UNL     1       0.771  -0.582   2.653  1.00  0.00     0.127 A   
ATOM     2   C14 UNL     1       0.690  -1.956   2.659  1.00  0.00     0.045 A   
ATOM     3   N2  UNL     1      -0.590  -2.206   3.069  1.00  0.00    -0.212 N   
ATOM     4   N4  UNL     1      -1.238  -1.063   3.360  1.00  0.00    -0.076 NA  
ATOM     5   N5  UNL     1      -0.414  -0.058   3.106  1.00  0.00    -0.132 NA  
ATOM     6   H18 UNL     1       1.361  -2.743   2.345  1.00  0.00     0.083 HD  
ENDROOT
BRANCH   1   7
ATOM     7   C4  UNL     1       1.833   0.328   2.132  1.00  0.00     0.117 C   
BRANCH   7   8
ATOM     8   C2  UNL     1       2.777   0.899   3.219  1.00  0.00     0.037 C   
ATOM     9   C1  UNL     1       3.608  -0.209   3.878  1.00  0.00     0.014 C   
ATOM     10  C3  UNL     1       2.074   1.727   4.300  1.00  0.00     0.014 C   
ENDBRANCH   7   8
BRANCH   7  11
ATOM     11  N1  UNL     1       1.205   1.478   1.384  1.00  0.00     0.249 N   
ATOM     12  H9  UNL     1       0.474   1.872   1.993  1.00  0.00     0.199 HD  
ATOM     13  H10 UNL     1       1.883   2.225   1.206  1.00  0.00     0.199 HD  
BRANCH  11  14
ATOM     14  C5  UNL     1       0.539   1.100   0.102  1.00  0.00     0.164 C   
BRANCH  14  15
ATOM     15  C6  UNL     1      -0.022   2.322  -0.574  1.00  0.00    -0.002 A   
ATOM     16  C7  UNL     1       0.720   2.994  -1.574  1.00  0.00     0.012 A   
ATOM     17  C11 UNL     1      -1.275   2.825  -0.181  1.00  0.00     0.045 A   
ATOM     18  C8  UNL     1       0.217   4.148  -2.185  1.00  0.00     0.037 A   
ATOM     19  C10 UNL     1      -1.740   3.964  -0.803  1.00  0.00     0.109 A   
ATOM     20  C9  UNL     1      -1.016   4.607  -1.777  1.00  0.00     0.108 A   
ATOM     21  O1  UNL     1      -2.924   4.577  -0.546  1.00  0.00    -0.316 OA  
ATOM     22  O2  UNL     1      -1.655   5.706  -2.257  1.00  0.00    -0.316 OA  
ATOM     23  C12 UNL     1      -2.871   5.680  -1.479  1.00  0.00     0.337 C   
ENDBRANCH  14  15
ENDBRANCH  11  14
ENDBRANCH   7  11
ENDBRANCH   1   7
BRANCH   3  24
ATOM     24  C15 UNL     1      -1.291  -3.474   3.056  1.00  0.00     0.139 C   
BRANCH  24  25
ATOM     25  C16 UNL     1      -2.190  -3.639   1.826  1.00  0.00     0.057 C   
BRANCH  25  26
ATOM     26  C17 UNL     1      -1.426  -3.542   0.523  1.00  0.00    -0.045 A   
ATOM     27  C18 UNL     1      -0.665  -4.614   0.061  1.00  0.00     0.004 A   
ATOM     28  C24 UNL     1      -1.425  -2.336  -0.207  1.00  0.00     0.027 A   
ATOM     29  C19 UNL     1       0.094  -4.472  -1.095  1.00  0.00     0.002 A   
ATOM     30  C21 UNL     1      -0.678  -2.165  -1.389  1.00  0.00     0.028 A   
ATOM     31  C20 UNL     1       0.095  -3.262  -1.801  1.00  0.00     0.023 A   
BRANCH  30  32
ATOM     32  N3  UNL     1      -0.689  -0.921  -2.067  1.00  0.00    -0.337 N   
ATOM     33  C22 UNL     1       0.174  -0.801  -3.252  1.00  0.00     0.129 C   
ATOM     34  C23 UNL     1      -2.055  -0.414  -2.314  1.00  0.00     0.129 C   
ENDBRANCH  30  32
ENDBRANCH  25  26
ENDBRANCH  24  25
ENDBRANCH   3  24
TORSDOF 9
