REMARK SMILES Cc1ccc(F)cc1CCn1cc([C@@H]([NH2+]Cc2ccc3c(c2)OCO3)C(C)(C)C)nn1
REMARK SMILES IDX 11 1 12 2 13 3 30 4 31 5 10 7 9 8 8 9 2 10 3 11 4 12 7 13
REMARK SMILES IDX 5 14 1 15 6 16 14 17 15 18 16 21 17 22 18 23 22 24 19 25
REMARK SMILES IDX 21 26 20 27 23 28 25 29 24 30 26 31 27 32 28 33 29 34
REMARK H PARENT 12 6 15 19 15 20
ROOT
ATOM     1   N1  UNL     1       1.845  -1.555  -1.162  1.00  0.00    -0.212 N   
ATOM     2   C10 UNL     1       1.652  -0.303  -1.676  1.00  0.00     0.045 A   
ATOM     3   C11 UNL     1       1.675   0.517  -0.569  1.00  0.00     0.127 A   
ATOM     4   N3  UNL     1       1.892  -0.246   0.550  1.00  0.00    -0.132 NA  
ATOM     5   N4  UNL     1       1.998  -1.510   0.174  1.00  0.00    -0.076 NA  
ATOM     6   H11 UNL     1       1.478  -0.130  -2.729  1.00  0.00     0.083 HD  
ENDROOT
BRANCH   1   7
ATOM     7   C9  UNL     1       1.776  -2.825  -1.858  1.00  0.00     0.139 C   
BRANCH   7   8
ATOM     8   C8  UNL     1       0.480  -3.597  -1.580  1.00  0.00     0.057 C   
BRANCH   8   9
ATOM     9   C7  UNL     1      -0.764  -2.836  -1.995  1.00  0.00    -0.041 A   
ATOM     10  C2  UNL     1      -1.294  -2.889  -3.302  1.00  0.00    -0.048 A   
ATOM     11  C3  UNL     1      -2.418  -2.105  -3.621  1.00  0.00     0.007 A   
ATOM     12  C4  UNL     1      -3.000  -1.263  -2.672  1.00  0.00     0.039 A   
ATOM     13  C6  UNL     1      -1.381  -2.003  -1.043  1.00  0.00     0.043 A   
ATOM     14  C5  UNL     1      -2.472  -1.217  -1.393  1.00  0.00     0.123 A   
ATOM     15  C1  UNL     1      -0.717  -3.791  -4.361  1.00  0.00     0.044 C   
ATOM     16  F1  UNL     1      -2.991  -0.377  -0.486  1.00  0.00    -0.207 F   
ENDBRANCH   8   9
ENDBRANCH   7   8
ENDBRANCH   1   7
BRANCH   3  17
ATOM     17  C12 UNL     1       1.408   1.986  -0.426  1.00  0.00     0.120 C   
BRANCH  17  18
ATOM     18  N2  UNL     1       0.604   2.218   0.832  1.00  0.00     0.250 N   
ATOM     19  H13 UNL     1       0.604   3.200   1.118  1.00  0.00     0.199 HD  
ATOM     20  H14 UNL     1       1.071   1.695   1.588  1.00  0.00     0.199 HD  
BRANCH  18  21
ATOM     21  C13 UNL     1      -0.810   1.740   0.782  1.00  0.00     0.164 C   
BRANCH  21  22
ATOM     22  C14 UNL     1      -1.514   2.054   2.071  1.00  0.00    -0.002 A   
ATOM     23  C15 UNL     1      -1.482   1.129   3.142  1.00  0.00     0.012 A   
ATOM     24  C19 UNL     1      -2.167   3.288   2.238  1.00  0.00     0.045 A   
ATOM     25  C16 UNL     1      -2.104   1.421   4.361  1.00  0.00     0.037 A   
ATOM     26  C18 UNL     1      -2.769   3.543   3.452  1.00  0.00     0.109 A   
ATOM     27  C17 UNL     1      -2.741   2.637   4.483  1.00  0.00     0.108 A   
ATOM     28  O1  UNL     1      -3.440   4.679   3.777  1.00  0.00    -0.316 OA  
ATOM     29  O2  UNL     1      -3.395   3.086   5.586  1.00  0.00    -0.316 OA  
ATOM     30  C20 UNL     1      -3.860   4.374   5.127  1.00  0.00     0.337 C   
ENDBRANCH  21  22
ENDBRANCH  18  21
ENDBRANCH  17  18
BRANCH  17  31
ATOM     31  C21 UNL     1       2.699   2.877  -0.424  1.00  0.00     0.010 C   
ATOM     32  C22 UNL     1       2.318   4.376  -0.425  1.00  0.00     0.017 C   
ATOM     33  C23 UNL     1       3.606   2.610   0.794  1.00  0.00     0.017 C   
ATOM     34  C24 UNL     1       3.522   2.623  -1.708  1.00  0.00     0.017 C   
ENDBRANCH  17  31
ENDBRANCH   3  17
TORSDOF 8
