REMARK SMILES COc1cc(F)c(F)cc1Cn1cc([C@@H]([NH2+]Cc2ccc3c(c2)OCO3)C(C)C)nn1
REMARK SMILES IDX 12 1 13 2 14 3 30 4 31 5 11 7 10 8 3 9 4 10 5 11 9 12 7 13
REMARK SMILES IDX 6 14 8 15 2 16 1 17 15 18 16 19 17 22 18 23 19 24 23 25
REMARK SMILES IDX 20 26 22 27 21 28 24 29 26 30 25 31 27 32 28 33 29 34
REMARK H PARENT 13 6 16 20 16 21
ROOT
ATOM     1   N1  UNL     1       0.427  -0.015  -1.436  1.00  0.00    -0.208 N   
ATOM     2   C9  UNL     1      -0.847   0.290  -1.040  1.00  0.00     0.046 A   
ATOM     3   C10 UNL     1      -0.759   1.599  -0.624  1.00  0.00     0.127 A   
ATOM     4   N3  UNL     1       0.530   2.042  -0.793  1.00  0.00    -0.132 NA  
ATOM     5   N4  UNL     1       1.244   1.048  -1.292  1.00  0.00    -0.076 NA  
ATOM     6   H8  UNL     1      -1.649  -0.434  -1.069  1.00  0.00     0.083 HD  
ENDROOT
BRANCH   1   7
ATOM     7   C8  UNL     1       0.931  -1.269  -1.968  1.00  0.00     0.172 C   
BRANCH   7   8
ATOM     8   C7  UNL     1       1.251  -2.240  -0.856  1.00  0.00     0.005 A   
ATOM     9   C2  UNL     1       0.312  -3.202  -0.427  1.00  0.00     0.083 A   
ATOM     10  C3  UNL     1       0.644  -4.083   0.607  1.00  0.00     0.076 A   
ATOM     11  C4  UNL     1       1.895  -4.001   1.213  1.00  0.00     0.161 A   
ATOM     12  C6  UNL     1       2.506  -2.171  -0.224  1.00  0.00     0.050 A   
ATOM     13  C5  UNL     1       2.818  -3.050   0.805  1.00  0.00     0.159 A   
ATOM     14  F1  UNL     1       2.190  -4.844   2.212  1.00  0.00    -0.204 F   
ATOM     15  F2  UNL     1       4.015  -2.967   1.401  1.00  0.00    -0.204 F   
BRANCH   9  16
ATOM     16  O1  UNL     1      -0.899  -3.181  -1.069  1.00  0.00    -0.349 OA  
ATOM     17  C1  UNL     1      -1.787  -4.266  -0.816  1.00  0.00     0.203 C   
ENDBRANCH   9  16
ENDBRANCH   7   8
ENDBRANCH   1   7
BRANCH   3  18
ATOM     18  C11 UNL     1      -1.766   2.517  -0.009  1.00  0.00     0.117 C   
BRANCH  18  19
ATOM     19  N2  UNL     1      -1.064   3.483   0.920  1.00  0.00     0.249 N   
ATOM     20  H10 UNL     1      -0.078   3.500   0.609  1.00  0.00     0.199 HD  
ATOM     21  H11 UNL     1      -1.406   4.438   0.793  1.00  0.00     0.199 HD  
BRANCH  19  22
ATOM     22  C12 UNL     1      -1.089   3.147   2.370  1.00  0.00     0.164 C   
BRANCH  22  23
ATOM     23  C13 UNL     1      -0.487   1.813   2.715  1.00  0.00    -0.002 A   
ATOM     24  C14 UNL     1       0.903   1.589   2.567  1.00  0.00     0.012 A   
ATOM     25  C18 UNL     1      -1.306   0.770   3.182  1.00  0.00     0.045 A   
ATOM     26  C15 UNL     1       1.470   0.346   2.872  1.00  0.00     0.037 A   
ATOM     27  C17 UNL     1      -0.715  -0.440   3.480  1.00  0.00     0.109 A   
ATOM     28  C16 UNL     1       0.633  -0.646   3.331  1.00  0.00     0.108 A   
ATOM     29  O2  UNL     1      -1.361  -1.542   3.946  1.00  0.00    -0.316 OA  
ATOM     30  O3  UNL     1       1.008  -1.901   3.689  1.00  0.00    -0.316 OA  
ATOM     31  C19 UNL     1      -0.250  -2.448   4.136  1.00  0.00     0.337 C   
ENDBRANCH  22  23
ENDBRANCH  19  22
ENDBRANCH  18  19
BRANCH  18  32
ATOM     32  C20 UNL     1      -2.593   3.284  -1.074  1.00  0.00     0.037 C   
ATOM     33  C21 UNL     1      -1.773   4.263  -1.924  1.00  0.00     0.014 C   
ATOM     34  C22 UNL     1      -3.782   4.016  -0.440  1.00  0.00     0.014 C   
ENDBRANCH  18  32
ENDBRANCH   3  18
TORSDOF 8
