REMARK SMILES CC(=O)c1ccc(-n2cc([C@@H]([NH2+]Cc3ccc4c(c3)OCO4)C3CCCC3)nn2)cc1
REMARK SMILES IDX 8 1 9 2 10 3 28 4 29 5 7 6 4 7 5 8 31 9 6 10 30 11 2 12 1 13
REMARK SMILES IDX 3 14 11 15 12 16 13 19 14 20 15 21 19 22 16 23 18 24 17 25
REMARK SMILES IDX 20 26 22 27 21 28 23 29 24 30 27 31 25 32 26 33
REMARK H PARENT 12 17 12 18
ROOT
ATOM     1   N1  UNL     1       1.013   2.537  -0.067  1.00  0.00    -0.181 N   
ATOM     2   C7  UNL     1      -0.345   2.328  -0.226  1.00  0.00     0.135 A   
ATOM     3   C8  UNL     1      -0.541   1.000   0.084  1.00  0.00     0.127 A   
ATOM     4   N3  UNL     1       0.661   0.434   0.404  1.00  0.00    -0.131 NA  
ATOM     5   N4  UNL     1       1.594   1.365   0.298  1.00  0.00    -0.071 NA  
ENDROOT
BRANCH   1   6
ATOM     6   C6  UNL     1       1.763   3.727  -0.243  1.00  0.00     0.058 A   
ATOM     7   C3  UNL     1       3.291   6.069  -0.581  1.00  0.00     0.017 A   
ATOM     8   C4  UNL     1       3.910   4.875  -0.197  1.00  0.00     0.014 A   
ATOM     9   C24 UNL     1       1.905   6.082  -0.794  1.00  0.00     0.014 A   
ATOM     10  C5  UNL     1       3.150   3.710  -0.029  1.00  0.00     0.027 A   
ATOM     11  C23 UNL     1       1.141   4.921  -0.627  1.00  0.00     0.027 A   
BRANCH   7  12
ATOM     12  C2  UNL     1       4.051   7.339  -0.779  1.00  0.00     0.159 C   
ATOM     13  C1  UNL     1       5.530   7.361  -0.498  1.00  0.00     0.093 C   
ATOM     14  O1  UNL     1       3.458   8.343  -1.169  1.00  0.00    -0.295 OA  
ENDBRANCH   7  12
ENDBRANCH   1   6
BRANCH   3  15
ATOM     15  C9  UNL     1      -1.780   0.160   0.102  1.00  0.00     0.117 C   
BRANCH  15  16
ATOM     16  N2  UNL     1      -1.424  -1.296  -0.041  1.00  0.00     0.249 N   
ATOM     17  H8  UNL     1      -0.586  -1.455   0.540  1.00  0.00     0.199 HD  
ATOM     18  H9  UNL     1      -2.148  -1.914   0.337  1.00  0.00     0.199 HD  
BRANCH  16  19
ATOM     19  C10 UNL     1      -1.085  -1.735  -1.423  1.00  0.00     0.164 C   
BRANCH  19  20
ATOM     20  C11 UNL     1      -0.652  -3.173  -1.426  1.00  0.00    -0.002 A   
ATOM     21  C12 UNL     1      -1.582  -4.203  -1.703  1.00  0.00     0.012 A   
ATOM     22  C16 UNL     1       0.676  -3.506  -1.104  1.00  0.00     0.045 A   
ATOM     23  C13 UNL     1      -1.193  -5.547  -1.674  1.00  0.00     0.037 A   
ATOM     24  C15 UNL     1       1.025  -4.840  -1.084  1.00  0.00     0.109 A   
ATOM     25  C14 UNL     1       0.118  -5.832  -1.362  1.00  0.00     0.108 A   
ATOM     26  O2  UNL     1       2.259  -5.330  -0.794  1.00  0.00    -0.316 OA  
ATOM     27  O3  UNL     1       0.668  -7.072  -1.289  1.00  0.00    -0.316 OA  
ATOM     28  C17 UNL     1       2.037  -6.748  -0.963  1.00  0.00     0.337 C   
ENDBRANCH  19  20
ENDBRANCH  16  19
ENDBRANCH  15  16
BRANCH  15  29
ATOM     29  C18 UNL     1      -2.605   0.390   1.383  1.00  0.00     0.043 C   
ATOM     30  C19 UNL     1      -1.988  -0.127   2.687  1.00  0.00     0.010 C   
ATOM     31  C22 UNL     1      -4.011  -0.235   1.358  1.00  0.00     0.010 C   
ATOM     32  C20 UNL     1      -3.170  -0.113   3.642  1.00  0.00     0.001 C   
ATOM     33  C21 UNL     1      -4.321  -0.645   2.799  1.00  0.00     0.001 C   
ENDBRANCH  15  29
ENDBRANCH   3  15
TORSDOF 7
