REMARK SMILES c1cc2n(c1)CC[C@@H](n1cc([C@@H]([NH2+]Cc3ccc4c(c3)OCO4)C3CCCCC3)nn1)C2
REMARK SMILES IDX 12 1 11 2 9 3 10 4 31 5 30 6 8 8 1 9 2 10 5 11 3 12 4 13
REMARK SMILES IDX 32 14 6 15 7 16 13 17 14 20 15 21 16 22 20 23 17 24 19 25
REMARK SMILES IDX 18 26 21 27 23 28 22 29 24 30 25 31 29 32 26 33 28 34 27 35
REMARK H PARENT 10 7 13 18 13 19
ROOT
ATOM     1   C10 UNL     1       0.201  -1.484  -1.093  1.00  0.00     0.117 C   
ENDROOT
BRANCH   1   2
ATOM     2   C9  UNL     1      -0.677  -0.463  -0.447  1.00  0.00     0.127 A   
ATOM     3   N2  UNL     1      -1.684   0.961   0.835  1.00  0.00    -0.209 N   
ATOM     4   C8  UNL     1      -0.480   0.342   0.651  1.00  0.00     0.046 A   
ATOM     5   N5  UNL     1      -2.554   0.598  -0.132  1.00  0.00    -0.076 NA  
ATOM     6   N4  UNL     1      -1.958  -0.295  -0.903  1.00  0.00    -0.132 NA  
ATOM     7   H9  UNL     1       0.367   0.493   1.303  1.00  0.00     0.083 HD  
BRANCH   3   8
ATOM     8   C7  UNL     1      -2.114   1.900   1.865  1.00  0.00     0.107 C   
ATOM     9   C1  UNL     1       1.815   2.300   4.380  1.00  0.00     0.017 A   
ATOM     10  C2  UNL     1       0.632   1.539   4.538  1.00  0.00     0.020 A   
ATOM     11  C4  UNL     1       1.615   3.162   3.323  1.00  0.00     0.075 A   
ATOM     12  C3  UNL     1      -0.261   1.959   3.571  1.00  0.00     0.011 A   
ATOM     13  N1  UNL     1       0.349   2.956   2.849  1.00  0.00    -0.311 N   
ATOM     14  C25 UNL     1      -1.655   1.511   3.279  1.00  0.00     0.076 C   
ATOM     15  C5  UNL     1      -0.230   3.617   1.692  1.00  0.00     0.112 C   
ATOM     16  C6  UNL     1      -1.726   3.351   1.537  1.00  0.00     0.045 C   
ENDBRANCH   3   8
ENDBRANCH   1   2
BRANCH   1  17
ATOM     17  N3  UNL     1      -0.644  -2.680  -1.487  1.00  0.00     0.249 N   
ATOM     18  H11 UNL     1      -0.368  -3.025  -2.409  1.00  0.00     0.199 HD  
ATOM     19  H12 UNL     1      -1.605  -2.323  -1.598  1.00  0.00     0.199 HD  
BRANCH  17  20
ATOM     20  C11 UNL     1      -0.664  -3.830  -0.539  1.00  0.00     0.164 C   
BRANCH  20  21
ATOM     21  C12 UNL     1      -1.039  -3.494   0.878  1.00  0.00    -0.002 A   
ATOM     22  C13 UNL     1      -0.100  -3.690   1.922  1.00  0.00     0.012 A   
ATOM     23  C17 UNL     1      -2.313  -2.987   1.187  1.00  0.00     0.045 A   
ATOM     24  C14 UNL     1      -0.419  -3.382   3.249  1.00  0.00     0.037 A   
ATOM     25  C16 UNL     1      -2.592  -2.685   2.506  1.00  0.00     0.109 A   
ATOM     26  C15 UNL     1      -1.674  -2.882   3.507  1.00  0.00     0.108 A   
ATOM     27  O1  UNL     1      -3.758  -2.159   2.967  1.00  0.00    -0.316 OA  
ATOM     28  O2  UNL     1      -2.152  -2.521   4.725  1.00  0.00    -0.316 OA  
ATOM     29  C18 UNL     1      -3.495  -2.113   4.387  1.00  0.00     0.337 C   
ENDBRANCH  20  21
ENDBRANCH  17  20
ENDBRANCH   1  17
BRANCH   1  30
ATOM     30  C19 UNL     1       0.960  -0.971  -2.345  1.00  0.00     0.043 C   
ATOM     31  C20 UNL     1       1.993   0.112  -1.974  1.00  0.00     0.010 C   
ATOM     32  C24 UNL     1       0.052  -0.469  -3.486  1.00  0.00     0.010 C   
ATOM     33  C21 UNL     1       2.806   0.556  -3.190  1.00  0.00     0.001 C   
ATOM     34  C23 UNL     1       0.872  -0.028  -4.698  1.00  0.00     0.001 C   
ATOM     35  C22 UNL     1       1.905   1.031  -4.325  1.00  0.00     0.000 C   
ENDBRANCH   1  30
TORSDOF 6
