REMARK SMILES c1cc2n(c1)CC[C@H](n1cc([C@@H]([NH2+]Cc3ccc4c(c3)OCO4)C3CCCCC3)nn1)C2
REMARK SMILES IDX 12 1 11 2 9 3 10 4 31 5 30 6 8 8 1 9 2 10 5 11 3 12 4 13
REMARK SMILES IDX 32 14 6 15 7 16 13 17 14 20 15 21 16 22 20 23 17 24 19 25
REMARK SMILES IDX 18 26 21 27 23 28 22 29 24 30 25 31 29 32 26 33 28 34 27 35
REMARK H PARENT 10 7 13 18 13 19
ROOT
ATOM     1   C10 UNL     1      -1.266  -0.640   0.649  1.00  0.00     0.117 C   
ENDROOT
BRANCH   1   2
ATOM     2   C9  UNL     1      -0.167   0.051   1.394  1.00  0.00     0.127 A   
ATOM     3   N2  UNL     1       1.425   1.310   2.162  1.00  0.00    -0.209 N   
ATOM     4   C8  UNL     1       0.593   1.157   1.087  1.00  0.00     0.046 A   
ATOM     5   N5  UNL     1       1.230   0.313   3.049  1.00  0.00    -0.076 NA  
ATOM     6   N4  UNL     1       0.252  -0.452   2.598  1.00  0.00    -0.132 NA  
ATOM     7   H9  UNL     1       0.590   1.835   0.246  1.00  0.00     0.083 HD  
BRANCH   3   8
ATOM     8   C7  UNL     1       2.421   2.337   2.446  1.00  0.00     0.107 C   
ATOM     9   C1  UNL     1       2.398   4.817  -1.534  1.00  0.00     0.017 A   
ATOM     10  C2  UNL     1       1.788   5.002  -0.270  1.00  0.00     0.020 A   
ATOM     11  C4  UNL     1       3.241   3.732  -1.433  1.00  0.00     0.075 A   
ATOM     12  C3  UNL     1       2.275   4.022   0.572  1.00  0.00     0.011 A   
ATOM     13  N1  UNL     1       3.166   3.265  -0.151  1.00  0.00    -0.311 N   
ATOM     14  C25 UNL     1       1.992   3.751   2.015  1.00  0.00     0.076 C   
ATOM     15  C5  UNL     1       3.856   2.092   0.354  1.00  0.00     0.112 C   
ATOM     16  C6  UNL     1       3.807   1.984   1.877  1.00  0.00     0.045 C   
ENDBRANCH   3   8
ENDBRANCH   1   2
BRANCH   1  17
ATOM     17  N3  UNL     1      -1.397  -2.067   1.144  1.00  0.00     0.249 N   
ATOM     18  H11 UNL     1      -2.325  -2.444   0.934  1.00  0.00     0.199 HD  
ATOM     19  H12 UNL     1      -1.314  -2.019   2.170  1.00  0.00     0.199 HD  
BRANCH  17  20
ATOM     20  C11 UNL     1      -0.356  -3.024   0.671  1.00  0.00     0.164 C   
BRANCH  20  21
ATOM     21  C12 UNL     1      -0.565  -3.450  -0.755  1.00  0.00    -0.002 A   
ATOM     22  C13 UNL     1       0.297  -2.980  -1.776  1.00  0.00     0.012 A   
ATOM     23  C17 UNL     1      -1.623  -4.313  -1.088  1.00  0.00     0.045 A   
ATOM     24  C14 UNL     1       0.110  -3.362  -3.109  1.00  0.00     0.037 A   
ATOM     25  C16 UNL     1      -1.779  -4.671  -2.412  1.00  0.00     0.109 A   
ATOM     26  C15 UNL     1      -0.937  -4.210  -3.394  1.00  0.00     0.108 A   
ATOM     27  O1  UNL     1      -2.742  -5.497  -2.899  1.00  0.00    -0.316 OA  
ATOM     28  O2  UNL     1      -1.262  -4.689  -4.623  1.00  0.00    -0.316 OA  
ATOM     29  C18 UNL     1      -2.390  -5.532  -4.302  1.00  0.00     0.337 C   
ENDBRANCH  20  21
ENDBRANCH  17  20
ENDBRANCH   1  17
BRANCH   1  30
ATOM     30  C19 UNL     1      -2.656   0.041   0.773  1.00  0.00     0.043 C   
ATOM     31  C20 UNL     1      -3.157   0.191   2.224  1.00  0.00     0.010 C   
ATOM     32  C24 UNL     1      -2.695   1.404   0.053  1.00  0.00     0.010 C   
ATOM     33  C21 UNL     1      -4.545   0.829   2.277  1.00  0.00     0.001 C   
ATOM     34  C23 UNL     1      -4.087   2.031   0.108  1.00  0.00     0.001 C   
ATOM     35  C22 UNL     1      -4.585   2.166   1.544  1.00  0.00     0.000 C   
ENDBRANCH   1  30
TORSDOF 6
