REMARK SMILES Cc1cnn(C)c1CCn1cc([C@@H]([NH2+]Cc2ccc3c(c2)OCO3)C2CCCCC2)nn1
REMARK SMILES IDX 10 1 11 2 12 3 31 4 32 5 9 7 8 8 7 9 2 10 3 11 4 12 5 13
REMARK SMILES IDX 1 14 6 15 13 16 14 17 15 20 16 21 17 22 21 23 18 24 20 25
REMARK SMILES IDX 19 26 22 27 24 28 23 29 25 30 26 31 30 32 27 33 29 34 28 35
REMARK H PARENT 11 6 14 18 14 19
ROOT
ATOM     1   N3  UNL     1      -1.078   2.775  -0.931  1.00  0.00    -0.212 N   
ATOM     2   C8  UNL     1      -0.257   2.382   0.092  1.00  0.00     0.045 A   
ATOM     3   C9  UNL     1      -0.538   1.040   0.245  1.00  0.00     0.127 A   
ATOM     4   N5  UNL     1      -1.578   0.708  -0.581  1.00  0.00    -0.132 NA  
ATOM     5   N6  UNL     1      -1.910   1.781  -1.286  1.00  0.00    -0.076 NA  
ATOM     6   H12 UNL     1       0.502   3.033   0.502  1.00  0.00     0.083 HD  
ENDROOT
BRANCH   1   7
ATOM     7   C7  UNL     1      -0.894   3.931  -1.788  1.00  0.00     0.140 C   
BRANCH   7   8
ATOM     8   C6  UNL     1      -0.125   3.593  -3.080  1.00  0.00     0.075 C   
BRANCH   8   9
ATOM     9   C5  UNL     1       1.095   2.758  -2.805  1.00  0.00     0.034 A   
ATOM     10  C2  UNL     1       2.341   3.103  -2.304  1.00  0.00    -0.012 A   
ATOM     11  C3  UNL     1       2.954   1.863  -2.015  1.00  0.00     0.136 A   
ATOM     12  N1  UNL     1       2.142   0.824  -2.245  1.00  0.00    -0.190 NA  
ATOM     13  N2  UNL     1       1.139   1.392  -2.969  1.00  0.00    -0.232 N   
ATOM     14  C1  UNL     1       2.892   4.460  -2.070  1.00  0.00     0.048 C   
ATOM     15  C4  UNL     1       0.247   0.548  -3.735  1.00  0.00     0.159 C   
ENDBRANCH   8   9
ENDBRANCH   7   8
ENDBRANCH   1   7
BRANCH   3  16
ATOM     16  C10 UNL     1       0.183  -0.023   1.021  1.00  0.00     0.117 C   
BRANCH  16  17
ATOM     17  N4  UNL     1       1.398  -0.454   0.222  1.00  0.00     0.249 N   
ATOM     18  H14 UNL     1       1.336  -0.059  -0.742  1.00  0.00     0.199 HD  
ATOM     19  H15 UNL     1       2.238   0.007   0.579  1.00  0.00     0.199 HD  
BRANCH  17  20
ATOM     20  C11 UNL     1       1.646  -1.912   0.058  1.00  0.00     0.164 C   
BRANCH  20  21
ATOM     21  C12 UNL     1       0.717  -2.588  -0.911  1.00  0.00    -0.002 A   
ATOM     22  C13 UNL     1      -0.442  -3.264  -0.457  1.00  0.00     0.012 A   
ATOM     23  C17 UNL     1       0.990  -2.542  -2.288  1.00  0.00     0.045 A   
ATOM     24  C14 UNL     1      -1.323  -3.869  -1.360  1.00  0.00     0.037 A   
ATOM     25  C16 UNL     1       0.099  -3.142  -3.152  1.00  0.00     0.109 A   
ATOM     26  C15 UNL     1      -1.027  -3.785  -2.703  1.00  0.00     0.108 A   
ATOM     27  O1  UNL     1       0.203  -3.163  -4.508  1.00  0.00    -0.316 OA  
ATOM     28  O2  UNL     1      -1.769  -4.301  -3.716  1.00  0.00    -0.316 OA  
ATOM     29  C18 UNL     1      -0.987  -3.903  -4.862  1.00  0.00     0.337 C   
ENDBRANCH  20  21
ENDBRANCH  17  20
ENDBRANCH  16  17
BRANCH  16  30
ATOM     30  C19 UNL     1       0.620   0.457   2.442  1.00  0.00     0.043 C   
ATOM     31  C20 UNL     1      -0.573   0.940   3.300  1.00  0.00     0.010 C   
ATOM     32  C24 UNL     1       1.401  -0.594   3.259  1.00  0.00     0.010 C   
ATOM     33  C21 UNL     1      -1.470  -0.203   3.772  1.00  0.00     0.001 C   
ATOM     34  C23 UNL     1       0.525  -1.752   3.737  1.00  0.00     0.001 C   
ATOM     35  C22 UNL     1      -0.676  -1.257   4.536  1.00  0.00     0.000 C   
ENDBRANCH  16  30
ENDBRANCH   3  16
TORSDOF 8
