REMARK SMILES [O-]N([O-])c1ccccc1-n1cc([C@@H]([NH2+]Cc2ccc3c(c2)OCO3)C2CCCC2)nn1
REMARK SMILES IDX 10 1 11 2 12 3 30 4 31 5 9 6 4 7 5 8 6 9 8 10 7 11 2 12 1 13
REMARK SMILES IDX 3 14 13 15 14 16 15 19 16 20 17 21 21 22 18 23 20 24 19 25
REMARK SMILES IDX 22 26 24 27 23 28 25 29 26 30 29 31 27 32 28 33
REMARK H PARENT 14 17 14 18
ROOT
ATOM     1   N2  UNL     1       1.344  -2.275  -0.304  1.00  0.00    -0.178 N   
ATOM     2   C7  UNL     1       0.722  -1.124  -0.746  1.00  0.00     0.135 A   
ATOM     3   C8  UNL     1       0.900  -0.203   0.263  1.00  0.00     0.127 A   
ATOM     4   N4  UNL     1       1.649  -0.769   1.252  1.00  0.00    -0.131 NA  
ATOM     5   N5  UNL     1       1.958  -2.000   0.877  1.00  0.00    -0.071 NA  
ENDROOT
BRANCH   1   6
ATOM     6   C6  UNL     1       1.424  -3.565  -0.889  1.00  0.00     0.086 A   
ATOM     7   C1  UNL     1       0.522  -4.055  -1.849  1.00  0.00     0.141 A   
ATOM     8   C2  UNL     1       0.697  -5.311  -2.449  1.00  0.00     0.033 A   
ATOM     9   C3  UNL     1       1.776  -6.107  -2.072  1.00  0.00     0.002 A   
ATOM     10  C5  UNL     1       2.484  -4.404  -0.497  1.00  0.00     0.028 A   
ATOM     11  C4  UNL     1       2.658  -5.659  -1.090  1.00  0.00     0.002 A   
BRANCH   7  12
ATOM     12  N1  UNL     1      -0.712  -3.364  -2.163  1.00  0.00     0.094 N   
ATOM     13  O1  UNL     1      -0.888  -3.030  -3.340  1.00  0.00    -0.138 OA  
ATOM     14  O2  UNL     1      -1.475  -3.115  -1.219  1.00  0.00    -0.138 OA  
ENDBRANCH   7  12
ENDBRANCH   1   6
BRANCH   3  15
ATOM     15  C9  UNL     1       0.362   1.181   0.423  1.00  0.00     0.117 C   
BRANCH  15  16
ATOM     16  N3  UNL     1      -0.072   1.420   1.854  1.00  0.00     0.249 N   
ATOM     17  H7  UNL     1      -0.296   2.410   1.988  1.00  0.00     0.199 HD  
ATOM     18  H8  UNL     1       0.739   1.206   2.451  1.00  0.00     0.199 HD  
BRANCH  16  19
ATOM     19  C10 UNL     1      -1.216   0.593   2.349  1.00  0.00     0.164 C   
BRANCH  19  20
ATOM     20  C11 UNL     1      -2.497   0.853   1.607  1.00  0.00    -0.002 A   
ATOM     21  C12 UNL     1      -3.009  -0.115   0.707  1.00  0.00     0.012 A   
ATOM     22  C16 UNL     1      -3.182   2.068   1.776  1.00  0.00     0.045 A   
ATOM     23  C13 UNL     1      -4.180   0.125  -0.019  1.00  0.00     0.037 A   
ATOM     24  C15 UNL     1      -4.336   2.271   1.048  1.00  0.00     0.109 A   
ATOM     25  C14 UNL     1      -4.821   1.329   0.174  1.00  0.00     0.108 A   
ATOM     26  O3  UNL     1      -5.113   3.385   1.095  1.00  0.00    -0.316 OA  
ATOM     27  O4  UNL     1      -5.965   1.730  -0.437  1.00  0.00    -0.316 OA  
ATOM     28  C17 UNL     1      -6.169   3.021   0.177  1.00  0.00     0.337 C   
ENDBRANCH  19  20
ENDBRANCH  16  19
ENDBRANCH  15  16
BRANCH  15  29
ATOM     29  C18 UNL     1       1.339   2.307   0.032  1.00  0.00     0.043 C   
ATOM     30  C19 UNL     1       2.643   2.400   0.832  1.00  0.00     0.010 C   
ATOM     31  C22 UNL     1       1.839   2.250  -1.412  1.00  0.00     0.010 C   
ATOM     32  C20 UNL     1       3.594   3.216  -0.046  1.00  0.00     0.001 C   
ATOM     33  C21 UNL     1       2.950   3.292  -1.429  1.00  0.00     0.001 C   
ENDBRANCH  15  29
ENDBRANCH   3  15
TORSDOF 7
