REMARK SMILES Cc1c[nH]c(C)c1Cn1cc([C@H](CC(C)C)[NH2+]Cc2ccc3c(c2)OCO3)nn1
REMARK SMILES IDX 9 1 10 2 11 3 28 4 29 5 8 7 7 8 2 9 3 10 4 11 5 12 1 13 6 15
REMARK SMILES IDX 12 16 13 17 14 18 15 19 16 20 17 21 18 24 19 25 20 26 24 27
REMARK SMILES IDX 21 28 23 29 22 30 25 31 27 32 26 33
REMARK H PARENT 10 6 4 14 17 22 17 23
ROOT
ATOM     1   N2  UNL     1      -0.714   0.580  -1.807  1.00  0.00    -0.208 N   
ATOM     2   C8  UNL     1       0.059   1.252  -0.900  1.00  0.00     0.046 A   
ATOM     3   C9  UNL     1       1.291   0.648  -1.003  1.00  0.00     0.127 A   
ATOM     4   N4  UNL     1       1.250  -0.300  -1.991  1.00  0.00    -0.132 NA  
ATOM     5   N5  UNL     1       0.021  -0.329  -2.481  1.00  0.00    -0.076 NA  
ATOM     6   H11 UNL     1      -0.344   2.013  -0.247  1.00  0.00     0.083 HD  
ENDROOT
BRANCH   1   7
ATOM     7   C7  UNL     1      -2.147   0.698  -2.021  1.00  0.00     0.171 C   
BRANCH   7   8
ATOM     8   C6  UNL     1      -2.887  -0.068  -0.963  1.00  0.00    -0.008 A   
ATOM     9   C2  UNL     1      -3.429   0.453   0.261  1.00  0.00    -0.031 A   
ATOM     10  C3  UNL     1      -4.007  -0.609   0.926  1.00  0.00     0.075 A   
ATOM     11  N1  UNL     1      -3.869  -1.733   0.162  1.00  0.00    -0.324 N   
ATOM     12  C4  UNL     1      -3.182  -1.427  -0.986  1.00  0.00     0.009 A   
ATOM     13  C1  UNL     1      -3.396   1.859   0.748  1.00  0.00     0.046 C   
ATOM     14  H5  UNL     1      -4.230  -2.648   0.404  1.00  0.00     0.152 HD  
ATOM     15  C5  UNL     1      -2.878  -2.472  -2.000  1.00  0.00     0.062 C   
ENDBRANCH   7   8
ENDBRANCH   1   7
BRANCH   3  16
ATOM     16  C10 UNL     1       2.514   0.795  -0.168  1.00  0.00     0.114 C   
BRANCH  16  17
ATOM     17  C11 UNL     1       3.670   1.486  -0.917  1.00  0.00     0.064 C   
BRANCH  17  18
ATOM     18  C12 UNL     1       3.387   2.940  -1.355  1.00  0.00    -0.012 C   
ATOM     19  C13 UNL     1       3.096   3.861  -0.169  1.00  0.00     0.007 C   
ATOM     20  C14 UNL     1       4.580   3.480  -2.148  1.00  0.00     0.007 C   
ENDBRANCH  17  18
ENDBRANCH  16  17
BRANCH  16  21
ATOM     21  N3  UNL     1       3.022  -0.570   0.261  1.00  0.00     0.249 N   
ATOM     22  H22 UNL     1       3.223  -1.089  -0.604  1.00  0.00     0.199 HD  
ATOM     23  H23 UNL     1       3.903  -0.466   0.771  1.00  0.00     0.199 HD  
BRANCH  21  24
ATOM     24  C15 UNL     1       2.079  -1.413   1.063  1.00  0.00     0.164 C   
BRANCH  24  25
ATOM     25  C16 UNL     1       1.608  -0.754   2.330  1.00  0.00    -0.002 A   
ATOM     26  C17 UNL     1       2.502  -0.539   3.406  1.00  0.00     0.012 A   
ATOM     27  C21 UNL     1       0.275  -0.320   2.441  1.00  0.00     0.045 A   
ATOM     28  C18 UNL     1       2.080   0.112   4.570  1.00  0.00     0.037 A   
ATOM     29  C20 UNL     1      -0.108   0.322   3.600  1.00  0.00     0.109 A   
ATOM     30  C19 UNL     1       0.769   0.533   4.634  1.00  0.00     0.108 A   
ATOM     31  O1  UNL     1      -1.346   0.817   3.860  1.00  0.00    -0.316 OA  
ATOM     32  O2  UNL     1       0.192   1.181   5.679  1.00  0.00    -0.316 OA  
ATOM     33  C22 UNL     1      -1.161   1.328   5.199  1.00  0.00     0.337 C   
ENDBRANCH  24  25
ENDBRANCH  21  24
ENDBRANCH  16  21
ENDBRANCH   3  16
TORSDOF 8
