REMARK SMILES CC(C)[C@H]([NH2+]Cc1ccc2c(c1)OCO2)c1cn([C@@H](CO)c2cccc(O)c2)nn1
REMARK SMILES IDX 16 1 17 2 18 3 29 4 30 5 4 7 2 8 1 9 3 10 5 11 6 14 7 15
REMARK SMILES IDX 8 16 12 17 9 18 11 19 10 20 13 21 15 22 14 23 19 24 20 25
REMARK SMILES IDX 21 26 22 28 23 29 28 30 24 31 26 32 25 33 27 34
REMARK H PARENT 17 6 5 12 5 13 21 27 27 35
ROOT
ATOM     1   C13 UNL     1      -0.839   0.351  -0.499  1.00  0.00     0.127 A   
ATOM     2   C14 UNL     1      -0.505   1.419  -1.298  1.00  0.00     0.046 A   
ATOM     3   N2  UNL     1      -0.040   2.365  -0.423  1.00  0.00    -0.202 N   
ATOM     4   N3  UNL     1      -0.044   1.883   0.839  1.00  0.00    -0.075 NA  
ATOM     5   N4  UNL     1      -0.540   0.656   0.805  1.00  0.00    -0.132 NA  
ATOM     6   H18 UNL     1      -0.553   1.598  -2.364  1.00  0.00     0.083 HD  
ENDROOT
BRANCH   1   7
ATOM     7   C4  UNL     1      -1.377  -0.999  -0.839  1.00  0.00     0.117 C   
BRANCH   7   8
ATOM     8   C2  UNL     1      -2.926  -1.075  -0.877  1.00  0.00     0.037 C   
ATOM     9   C1  UNL     1      -3.507  -0.228  -2.015  1.00  0.00     0.014 C   
ATOM     10  C3  UNL     1      -3.606  -0.702   0.446  1.00  0.00     0.014 C   
ENDBRANCH   7   8
BRANCH   7  11
ATOM     11  N1  UNL     1      -0.876  -2.014   0.159  1.00  0.00     0.249 N   
ATOM     12  H9  UNL     1      -1.456  -2.858   0.164  1.00  0.00     0.199 HD  
ATOM     13  H10 UNL     1      -0.974  -1.585   1.091  1.00  0.00     0.199 HD  
BRANCH  11  14
ATOM     14  C5  UNL     1       0.554  -2.401   0.006  1.00  0.00     0.164 C   
BRANCH  14  15
ATOM     15  C6  UNL     1       0.967  -3.322   1.119  1.00  0.00    -0.002 A   
ATOM     16  C7  UNL     1       1.417  -2.786   2.350  1.00  0.00     0.012 A   
ATOM     17  C11 UNL     1       0.853  -4.714   0.970  1.00  0.00     0.045 A   
ATOM     18  C8  UNL     1       1.761  -3.625   3.416  1.00  0.00     0.037 A   
ATOM     19  C10 UNL     1       1.200  -5.512   2.040  1.00  0.00     0.109 A   
ATOM     20  C9  UNL     1       1.641  -4.984   3.229  1.00  0.00     0.108 A   
ATOM     21  O1  UNL     1       1.147  -6.870   2.063  1.00  0.00    -0.316 OA  
ATOM     22  O2  UNL     1       1.924  -5.943   4.148  1.00  0.00    -0.316 OA  
ATOM     23  C12 UNL     1       1.626  -7.141   3.400  1.00  0.00     0.337 C   
ENDBRANCH  14  15
ENDBRANCH  11  14
ENDBRANCH   7  11
ENDBRANCH   1   7
BRANCH   3  24
ATOM     24  C15 UNL     1       0.431   3.722  -0.695  1.00  0.00     0.155 C   
BRANCH  24  25
ATOM     25  C16 UNL     1       1.885   3.721  -1.212  1.00  0.00     0.185 C   
BRANCH  25  26
ATOM     26  O3  UNL     1       2.076   2.891  -2.358  1.00  0.00    -0.394 OA  
ATOM     27  H22 UNL     1       2.977   3.068  -2.688  1.00  0.00     0.210 HD  
ENDBRANCH  25  26
ENDBRANCH  24  25
BRANCH  24  28
ATOM     28  C17 UNL     1      -0.594   4.495  -1.517  1.00  0.00    -0.021 A   
ATOM     29  C18 UNL     1      -1.687   5.093  -0.860  1.00  0.00     0.006 A   
ATOM     30  C22 UNL     1      -0.515   4.615  -2.912  1.00  0.00     0.039 A   
ATOM     31  C19 UNL     1      -2.657   5.800  -1.576  1.00  0.00     0.003 A   
ATOM     32  C21 UNL     1      -1.489   5.319  -3.616  1.00  0.00     0.072 A   
ATOM     33  C20 UNL     1      -2.558   5.916  -2.961  1.00  0.00     0.033 A   
BRANCH  32  34
ATOM     34  O4  UNL     1      -1.354   5.394  -4.971  1.00  0.00    -0.361 OA  
ATOM     35  H26 UNL     1      -2.051   5.974  -5.324  1.00  0.00     0.218 HD  
ENDBRANCH  32  34
ENDBRANCH  24  28
ENDBRANCH   3  24
TORSDOF 10
