REMARK SMILES CC(C)[C@H]([NH2+]Cc1ccc2c(c1)OCO2)c1cn([C@H](CO)c2cccc(O)c2)nn1
REMARK SMILES IDX 16 1 17 2 18 3 29 4 30 5 4 7 2 8 1 9 3 10 5 11 6 14 7 15
REMARK SMILES IDX 8 16 12 17 9 18 11 19 10 20 13 21 15 22 14 23 19 24 20 25
REMARK SMILES IDX 21 26 22 28 23 29 28 30 24 31 26 32 25 33 27 34
REMARK H PARENT 17 6 5 12 5 13 21 27 27 35
ROOT
ATOM     1   C13 UNL     1       0.802   1.870   1.671  1.00  0.00     0.127 A   
ATOM     2   C14 UNL     1       0.541   1.573   0.356  1.00  0.00     0.046 A   
ATOM     3   N2  UNL     1       1.554   0.725  -0.005  1.00  0.00    -0.202 N   
ATOM     4   N3  UNL     1       2.388   0.512   1.038  1.00  0.00    -0.075 NA  
ATOM     5   N4  UNL     1       1.937   1.208   2.068  1.00  0.00    -0.132 NA  
ATOM     6   H18 UNL     1      -0.232   1.872  -0.337  1.00  0.00     0.083 HD  
ENDROOT
BRANCH   1   7
ATOM     7   C4  UNL     1       0.060   2.710   2.659  1.00  0.00     0.117 C   
BRANCH   7   8
ATOM     8   C2  UNL     1       0.483   4.202   2.600  1.00  0.00     0.037 C   
ATOM     9   C1  UNL     1      -0.462   5.088   3.421  1.00  0.00     0.014 C   
ATOM     10  C3  UNL     1       1.934   4.463   3.019  1.00  0.00     0.014 C   
ENDBRANCH   7   8
BRANCH   7  11
ATOM     11  N1  UNL     1       0.271   2.154   4.051  1.00  0.00     0.249 N   
ATOM     12  H9  UNL     1       0.448   2.900   4.725  1.00  0.00     0.199 HD  
ATOM     13  H10 UNL     1       1.146   1.609   3.999  1.00  0.00     0.199 HD  
BRANCH  11  14
ATOM     14  C5  UNL     1      -0.802   1.266   4.579  1.00  0.00     0.164 C   
BRANCH  14  15
ATOM     15  C6  UNL     1      -1.064   0.038   3.750  1.00  0.00    -0.002 A   
ATOM     16  C7  UNL     1      -0.095  -0.989   3.656  1.00  0.00     0.012 A   
ATOM     17  C11 UNL     1      -2.274  -0.093   3.049  1.00  0.00     0.045 A   
ATOM     18  C8  UNL     1      -0.320  -2.125   2.869  1.00  0.00     0.037 A   
ATOM     19  C10 UNL     1      -2.468  -1.228   2.288  1.00  0.00     0.109 A   
ATOM     20  C9  UNL     1      -1.520  -2.216   2.200  1.00  0.00     0.108 A   
ATOM     21  O1  UNL     1      -3.581  -1.509   1.562  1.00  0.00    -0.316 OA  
ATOM     22  O2  UNL     1      -1.917  -3.245   1.406  1.00  0.00    -0.316 OA  
ATOM     23  C12 UNL     1      -3.240  -2.809   1.032  1.00  0.00     0.337 C   
ENDBRANCH  14  15
ENDBRANCH  11  14
ENDBRANCH   7  11
ENDBRANCH   1   7
BRANCH   3  24
ATOM     24  C15 UNL     1       1.820   0.097  -1.298  1.00  0.00     0.155 C   
BRANCH  24  25
ATOM     25  C16 UNL     1       2.469   1.087  -2.289  1.00  0.00     0.185 C   
BRANCH  25  26
ATOM     26  O3  UNL     1       1.701   2.275  -2.486  1.00  0.00    -0.394 OA  
ATOM     27  H22 UNL     1       2.144   2.788  -3.187  1.00  0.00     0.210 HD  
ENDBRANCH  25  26
ENDBRANCH  24  25
BRANCH  24  28
ATOM     28  C17 UNL     1       0.599  -0.666  -1.798  1.00  0.00    -0.021 A   
ATOM     29  C18 UNL     1       0.413  -2.004  -1.399  1.00  0.00     0.006 A   
ATOM     30  C22 UNL     1      -0.366  -0.088  -2.637  1.00  0.00     0.039 A   
ATOM     31  C19 UNL     1      -0.686  -2.742  -1.849  1.00  0.00     0.003 A   
ATOM     32  C21 UNL     1      -1.462  -0.830  -3.073  1.00  0.00     0.072 A   
ATOM     33  C20 UNL     1      -1.628  -2.155  -2.691  1.00  0.00     0.033 A   
BRANCH  32  34
ATOM     34  O4  UNL     1      -2.360  -0.206  -3.886  1.00  0.00    -0.361 OA  
ATOM     35  H26 UNL     1      -3.024  -0.851  -4.182  1.00  0.00     0.218 HD  
ENDBRANCH  32  34
ENDBRANCH  24  28
ENDBRANCH   3  24
TORSDOF 10
