REMARK SMILES c1cc2c(cc1C[NH2+][C@H](c1cn(Cc3cnn[nH]3)nn1)C1CCCC1)OCO2
REMARK SMILES IDX 10 1 11 2 12 3 19 4 20 5 9 7 8 8 7 11 6 12 1 13 2 14 3 15
REMARK SMILES IDX 5 16 4 17 28 18 26 19 27 20 21 21 22 22 25 23 23 24 24 25
REMARK SMILES IDX 13 26 14 27 15 28 18 29 16 30 17 31
REMARK H PARENT 11 6 8 9 8 10 18 32
ROOT
ATOM     1   C9  UNL     1       1.041   0.445   1.238  1.00  0.00     0.127 A   
ATOM     2   C10 UNL     1       1.831   0.269   0.124  1.00  0.00     0.046 A   
ATOM     3   N2  UNL     1       2.705  -0.715   0.493  1.00  0.00    -0.206 N   
ATOM     4   N6  UNL     1       2.459  -1.135   1.749  1.00  0.00    -0.076 NA  
ATOM     5   N7  UNL     1       1.451  -0.420   2.222  1.00  0.00    -0.132 NA  
ATOM     6   H9  UNL     1       1.848   0.723  -0.857  1.00  0.00     0.083 HD  
ENDROOT
BRANCH   1   7
ATOM     7   C8  UNL     1      -0.120   1.354   1.496  1.00  0.00     0.117 C   
BRANCH   7   8
ATOM     8   N1  UNL     1      -1.019   0.759   2.556  1.00  0.00     0.249 N   
ATOM     9   H6  UNL     1      -1.325   1.469   3.227  1.00  0.00     0.199 HD  
ATOM     10  H7  UNL     1      -0.427   0.105   3.093  1.00  0.00     0.199 HD  
BRANCH   8  11
ATOM     11  C7  UNL     1      -2.209   0.007   2.066  1.00  0.00     0.164 C   
BRANCH  11  12
ATOM     12  C6  UNL     1      -1.862  -1.257   1.333  1.00  0.00    -0.002 A   
ATOM     13  C1  UNL     1      -1.435  -2.402   2.050  1.00  0.00     0.012 A   
ATOM     14  C2  UNL     1      -1.080  -3.578   1.382  1.00  0.00     0.037 A   
ATOM     15  C3  UNL     1      -1.158  -3.585   0.007  1.00  0.00     0.108 A   
ATOM     16  C5  UNL     1      -1.928  -1.306  -0.070  1.00  0.00     0.045 A   
ATOM     17  C4  UNL     1      -1.567  -2.481  -0.697  1.00  0.00     0.109 A   
ATOM     18  O2  UNL     1      -0.860  -4.635  -0.800  1.00  0.00    -0.316 OA  
ATOM     19  O1  UNL     1      -1.571  -2.692  -2.039  1.00  0.00    -0.316 OA  
ATOM     20  C19 UNL     1      -1.141  -4.074  -2.101  1.00  0.00     0.337 C   
ENDBRANCH  11  12
ENDBRANCH   8  11
ENDBRANCH   7   8
BRANCH   7  21
ATOM     21  C14 UNL     1       0.349   2.764   1.906  1.00  0.00     0.043 C   
ATOM     22  C15 UNL     1      -0.769   3.804   2.010  1.00  0.00     0.010 C   
ATOM     23  C18 UNL     1       1.077   2.875   3.255  1.00  0.00     0.010 C   
ATOM     24  C16 UNL     1      -0.081   4.961   2.718  1.00  0.00     0.001 C   
ATOM     25  C17 UNL     1       0.799   4.291   3.766  1.00  0.00     0.001 C   
ENDBRANCH   7  21
ENDBRANCH   1   7
BRANCH   3  26
ATOM     26  C11 UNL     1       3.780  -1.308  -0.287  1.00  0.00     0.188 C   
BRANCH  26  27
ATOM     27  C12 UNL     1       3.262  -2.373  -1.170  1.00  0.00     0.066 A   
ATOM     28  C13 UNL     1       3.176  -2.495  -2.538  1.00  0.00     0.159 A   
ATOM     29  N5  UNL     1       2.737  -3.551  -0.707  1.00  0.00    -0.221 N   
ATOM     30  N3  UNL     1       2.606  -3.693  -2.852  1.00  0.00    -0.141 NA  
ATOM     31  N4  UNL     1       2.348  -4.335  -1.721  1.00  0.00    -0.079 NA  
ATOM     32  H13 UNL     1       2.604  -3.881   0.244  1.00  0.00     0.177 HD  
ENDBRANCH  26  27
ENDBRANCH   3  26
TORSDOF 7
