REMARK SMILES CC(C)[C@H]([NH2+]Cc1ccc2c(c1)OCO2)c1cn(CCCn2cccn2)nn1
REMARK SMILES IDX 16 1 17 2 18 3 27 4 28 5 4 7 2 8 1 9 3 10 5 11 6 14 7 15
REMARK SMILES IDX 8 16 12 17 9 18 11 19 10 20 13 21 15 22 14 23 19 24 20 25
REMARK SMILES IDX 21 26 22 27 23 28 26 29 24 30 25 31
REMARK H PARENT 17 6 5 12 5 13
ROOT
ATOM     1   C13 UNL     1      -0.030   1.104   0.359  1.00  0.00     0.127 A   
ATOM     2   C14 UNL     1       0.231   0.035   1.183  1.00  0.00     0.045 A   
ATOM     3   N2  UNL     1      -0.813   0.030   2.062  1.00  0.00    -0.212 N   
ATOM     4   N5  UNL     1      -1.675   1.029   1.792  1.00  0.00    -0.076 NA  
ATOM     5   N6  UNL     1      -1.206   1.696   0.750  1.00  0.00    -0.132 NA  
ATOM     6   H18 UNL     1       1.017  -0.708   1.214  1.00  0.00     0.083 HD  
ENDROOT
BRANCH   1   7
ATOM     7   C4  UNL     1       0.685   1.618  -0.849  1.00  0.00     0.117 C   
BRANCH   7   8
ATOM     8   C2  UNL     1       1.696   2.753  -0.537  1.00  0.00     0.037 C   
ATOM     9   C1  UNL     1       2.458   3.198  -1.795  1.00  0.00     0.014 C   
ATOM     10  C3  UNL     1       2.728   2.331   0.519  1.00  0.00     0.014 C   
ENDBRANCH   7   8
BRANCH   7  11
ATOM     11  N1  UNL     1      -0.361   2.143  -1.820  1.00  0.00     0.249 N   
ATOM     12  H9  UNL     1      -0.167   3.113  -2.084  1.00  0.00     0.199 HD  
ATOM     13  H10 UNL     1      -1.239   2.198  -1.278  1.00  0.00     0.199 HD  
BRANCH  11  14
ATOM     14  C5  UNL     1      -0.611   1.319  -3.032  1.00  0.00     0.164 C   
BRANCH  14  15
ATOM     15  C6  UNL     1      -1.224  -0.019  -2.729  1.00  0.00    -0.002 A   
ATOM     16  C7  UNL     1      -2.573  -0.108  -2.305  1.00  0.00     0.012 A   
ATOM     17  C11 UNL     1      -0.457  -1.191  -2.840  1.00  0.00     0.045 A   
ATOM     18  C8  UNL     1      -3.147  -1.344  -1.990  1.00  0.00     0.037 A   
ATOM     19  C10 UNL     1      -1.053  -2.392  -2.518  1.00  0.00     0.109 A   
ATOM     20  C9  UNL     1      -2.359  -2.467  -2.101  1.00  0.00     0.108 A   
ATOM     21  O1  UNL     1      -0.451  -3.609  -2.566  1.00  0.00    -0.316 OA  
ATOM     22  O2  UNL     1      -2.742  -3.740  -1.819  1.00  0.00    -0.316 OA  
ATOM     23  C12 UNL     1      -1.531  -4.465  -2.130  1.00  0.00     0.337 C   
ENDBRANCH  14  15
ENDBRANCH  11  14
ENDBRANCH   7  11
ENDBRANCH   1   7
BRANCH   3  24
ATOM     24  C15 UNL     1      -1.050  -0.875   3.165  1.00  0.00     0.135 C   
BRANCH  24  25
ATOM     25  C16 UNL     1      -2.316  -1.725   3.018  1.00  0.00     0.043 C   
BRANCH  25  26
ATOM     26  C17 UNL     1      -2.360  -2.591   1.759  1.00  0.00     0.134 C   
BRANCH  26  27
ATOM     27  N3  UNL     1      -1.319  -3.598   1.717  1.00  0.00    -0.233 N   
ATOM     28  C18 UNL     1      -1.420  -4.897   2.121  1.00  0.00     0.097 A   
ATOM     29  N4  UNL     1      -0.096  -3.279   1.246  1.00  0.00    -0.190 NA  
ATOM     30  C19 UNL     1      -0.185  -5.460   1.902  1.00  0.00     0.039 A   
ATOM     31  C20 UNL     1       0.591  -4.420   1.361  1.00  0.00     0.132 A   
ENDBRANCH  26  27
ENDBRANCH  25  26
ENDBRANCH  24  25
ENDBRANCH   3  24
TORSDOF 9
