REMARK SMILES Cc1c(Cl)ccnc1Cn1cc([C@@H]([NH2+]Cc2ccc3c(c2)OCO3)C(C)(C)C)nn1
REMARK SMILES IDX 10 1 11 2 12 3 29 4 30 5 9 7 8 8 2 9 3 10 5 11 7 12 6 13
REMARK SMILES IDX 1 14 4 15 13 16 14 17 15 20 16 21 17 22 21 23 18 24 20 25
REMARK SMILES IDX 19 26 22 27 24 28 23 29 25 30 26 31 27 32 28 33
REMARK H PARENT 11 6 14 18 14 19
ROOT
ATOM     1   N2  UNL     1      -0.687   0.573   1.986  1.00  0.00    -0.206 N   
ATOM     2   C8  UNL     1       0.088  -0.480   1.578  1.00  0.00     0.046 A   
ATOM     3   C9  UNL     1       1.064   0.102   0.803  1.00  0.00     0.127 A   
ATOM     4   N4  UNL     1       0.850   1.457   0.754  1.00  0.00    -0.132 NA  
ATOM     5   N5  UNL     1      -0.214   1.734   1.489  1.00  0.00    -0.076 NA  
ATOM     6   H8  UNL     1      -0.130  -1.499   1.868  1.00  0.00     0.083 HD  
ENDROOT
BRANCH   1   7
ATOM     7   C7  UNL     1      -1.800   0.569   2.917  1.00  0.00     0.190 C   
BRANCH   7   8
ATOM     8   C6  UNL     1      -2.923  -0.318   2.440  1.00  0.00     0.064 A   
ATOM     9   C2  UNL     1      -3.957   0.130   1.606  1.00  0.00    -0.009 A   
ATOM     10  C3  UNL     1      -4.980  -0.791   1.324  1.00  0.00     0.047 A   
ATOM     11  C4  UNL     1      -4.934  -2.092   1.812  1.00  0.00     0.041 A   
ATOM     12  N1  UNL     1      -2.858  -1.600   2.900  1.00  0.00    -0.259 NA  
ATOM     13  C5  UNL     1      -3.856  -2.449   2.586  1.00  0.00     0.113 A   
ATOM     14  C1  UNL     1      -4.028   1.538   1.086  1.00  0.00     0.048 C   
ATOM     15  CL1 UNL     1      -6.359  -0.358   0.372  1.00  0.00    -0.084 Cl  
ENDBRANCH   7   8
ENDBRANCH   1   7
BRANCH   3  16
ATOM     16  C10 UNL     1       2.192  -0.488   0.011  1.00  0.00     0.120 C   
BRANCH  16  17
ATOM     17  N3  UNL     1       2.374   0.348  -1.245  1.00  0.00     0.250 N   
ATOM     18  H10 UNL     1       3.361   0.539  -1.431  1.00  0.00     0.199 HD  
ATOM     19  H11 UNL     1       1.958   1.269  -1.027  1.00  0.00     0.199 HD  
BRANCH  17  20
ATOM     20  C11 UNL     1       1.736  -0.171  -2.486  1.00  0.00     0.164 C   
BRANCH  20  21
ATOM     21  C12 UNL     1       0.238  -0.272  -2.411  1.00  0.00    -0.002 A   
ATOM     22  C13 UNL     1      -0.559   0.897  -2.371  1.00  0.00     0.012 A   
ATOM     23  C17 UNL     1      -0.383  -1.532  -2.361  1.00  0.00     0.045 A   
ATOM     24  C14 UNL     1      -1.953   0.816  -2.279  1.00  0.00     0.037 A   
ATOM     25  C16 UNL     1      -1.759  -1.577  -2.275  1.00  0.00     0.109 A   
ATOM     26  C15 UNL     1      -2.522  -0.436  -2.236  1.00  0.00     0.108 A   
ATOM     27  O1  UNL     1      -2.511  -2.707  -2.225  1.00  0.00    -0.316 OA  
ATOM     28  O2  UNL     1      -3.850  -0.705  -2.157  1.00  0.00    -0.316 OA  
ATOM     29  C18 UNL     1      -3.844  -2.146  -2.206  1.00  0.00     0.337 C   
ENDBRANCH  20  21
ENDBRANCH  17  20
ENDBRANCH  16  17
BRANCH  16  30
ATOM     30  C19 UNL     1       3.544  -0.596   0.799  1.00  0.00     0.010 C   
ATOM     31  C20 UNL     1       4.607  -1.316  -0.064  1.00  0.00     0.017 C   
ATOM     32  C21 UNL     1       4.102   0.778   1.219  1.00  0.00     0.017 C   
ATOM     33  C22 UNL     1       3.351  -1.449   2.073  1.00  0.00     0.017 C   
ENDBRANCH  16  30
ENDBRANCH   3  16
TORSDOF 7
