REMARK SMILES CC(C)[C@H]([NH2+]Cc1ccc2c(c1)OCO2)c1cn(Cc2nc3c(o2)CCCC3)nn1
REMARK SMILES IDX 4 1 2 2 1 3 3 4 5 5 6 8 7 9 8 10 12 11 9 12 11 13 10 14
REMARK SMILES IDX 13 15 15 16 14 17 16 18 17 19 30 20 18 21 29 22 19 24 20 25
REMARK SMILES IDX 21 26 24 27 22 28 23 29 28 30 25 31 27 32 26 33
REMARK H PARENT 5 6 5 7 17 23
ROOT
ATOM     1   C4  UNL     1      -2.116   0.256  -0.300  1.00  0.00     0.117 C   
ENDROOT
BRANCH   1   2
ATOM     2   C2  UNL     1      -3.425  -0.541  -0.549  1.00  0.00     0.037 C   
ATOM     3   C1  UNL     1      -3.760  -1.460   0.632  1.00  0.00     0.014 C   
ATOM     4   C3  UNL     1      -4.638   0.339  -0.880  1.00  0.00     0.014 C   
ENDBRANCH   1   2
BRANCH   1   5
ATOM     5   N1  UNL     1      -2.333   1.295   0.775  1.00  0.00     0.249 N   
ATOM     6   H9  UNL     1      -2.973   0.955   1.497  1.00  0.00     0.199 HD  
ATOM     7   H10 UNL     1      -2.794   2.091   0.310  1.00  0.00     0.199 HD  
BRANCH   5   8
ATOM     8   C5  UNL     1      -1.101   1.828   1.428  1.00  0.00     0.164 C   
BRANCH   8   9
ATOM     9   C6  UNL     1      -0.464   0.832   2.357  1.00  0.00    -0.002 A   
ATOM     10  C7  UNL     1       0.730   0.169   1.984  1.00  0.00     0.012 A   
ATOM     11  C11 UNL     1      -1.065   0.530   3.591  1.00  0.00     0.045 A   
ATOM     12  C8  UNL     1       1.315  -0.785   2.824  1.00  0.00     0.037 A   
ATOM     13  C10 UNL     1      -0.460  -0.414   4.397  1.00  0.00     0.109 A   
ATOM     14  C9  UNL     1       0.695  -1.054   4.024  1.00  0.00     0.108 A   
ATOM     15  O1  UNL     1      -0.909  -0.819   5.614  1.00  0.00    -0.316 OA  
ATOM     16  O2  UNL     1       1.119  -1.942   4.961  1.00  0.00    -0.316 OA  
ATOM     17  C12 UNL     1       0.118  -1.767   5.984  1.00  0.00     0.337 C   
ENDBRANCH   8   9
ENDBRANCH   5   8
ENDBRANCH   1   5
BRANCH   1  18
ATOM     18  C13 UNL     1      -1.598   0.903  -1.546  1.00  0.00     0.127 A   
ATOM     19  C14 UNL     1      -0.868   0.395  -2.596  1.00  0.00     0.046 A   
ATOM     20  N5  UNL     1      -1.804   2.243  -1.750  1.00  0.00    -0.132 NA  
ATOM     21  N2  UNL     1      -0.625   1.482  -3.393  1.00  0.00    -0.204 N   
ATOM     22  N4  UNL     1      -1.208   2.585  -2.881  1.00  0.00    -0.075 NA  
ATOM     23  H18 UNL     1      -0.483  -0.589  -2.832  1.00  0.00     0.083 HD  
BRANCH  21  24
ATOM     24  C15 UNL     1       0.101   1.541  -4.647  1.00  0.00     0.217 C   
BRANCH  24  25
ATOM     25  C16 UNL     1       1.530   1.229  -4.417  1.00  0.00     0.167 A   
ATOM     26  N3  UNL     1       2.079   0.065  -4.096  1.00  0.00    -0.229 NA  
ATOM     27  O3  UNL     1       2.425   2.264  -4.573  1.00  0.00    -0.296 OA  
ATOM     28  C17 UNL     1       3.416   0.346  -4.062  1.00  0.00     0.070 A   
ATOM     29  C18 UNL     1       3.622   1.669  -4.348  1.00  0.00     0.082 A   
ATOM     30  C22 UNL     1       4.520  -0.607  -3.804  1.00  0.00     0.059 C   
ATOM     31  C19 UNL     1       4.900   2.399  -4.412  1.00  0.00     0.064 C   
ATOM     32  C21 UNL     1       5.831   0.165  -3.517  1.00  0.00     0.007 C   
ATOM     33  C20 UNL     1       6.048   1.364  -4.471  1.00  0.00     0.007 C   
ENDBRANCH  24  25
ENDBRANCH  21  24
ENDBRANCH   1  18
TORSDOF 7
