REMARK SMILES OC[C@@H](c1ccc(O)cc1F)n1cc([C@@H]([NH2+]Cc2ccc3c(c2)OCO3)C2CCCC2)nn1
REMARK SMILES IDX 12 1 13 2 14 3 32 4 33 5 3 7 2 8 1 9 4 11 5 12 10 13 6 14
REMARK SMILES IDX 9 15 7 16 11 17 8 18 15 20 16 21 17 24 18 25 19 26 23 27
REMARK SMILES IDX 20 28 22 29 21 30 24 31 26 32 25 33 27 34 28 35 31 36 29 37
REMARK SMILES IDX 30 38
REMARK H PARENT 13 6 1 10 8 19 16 22 16 23
ROOT
ATOM     1   N1  UNL     1       1.539   2.825   0.580  1.00  0.00    -0.202 N   
ATOM     2   C9  UNL     1       0.489   2.197   1.195  1.00  0.00     0.046 A   
ATOM     3   C10 UNL     1       0.892   0.884   1.284  1.00  0.00     0.127 A   
ATOM     4   N3  UNL     1       2.161   0.765   0.779  1.00  0.00    -0.132 NA  
ATOM     5   N4  UNL     1       2.549   1.958   0.356  1.00  0.00    -0.075 NA  
ATOM     6   H9  UNL     1      -0.429   2.714   1.445  1.00  0.00     0.083 HD  
ENDROOT
BRANCH   1   7
ATOM     7   C2  UNL     1       1.622   4.221   0.142  1.00  0.00     0.158 C   
BRANCH   7   8
ATOM     8   C1  UNL     1       2.820   4.903   0.831  1.00  0.00     0.186 C   
BRANCH   8   9
ATOM     9   O1  UNL     1       2.739   6.321   0.688  1.00  0.00    -0.394 OA  
ATOM     10  H1  UNL     1       3.494   6.707   1.169  1.00  0.00     0.210 HD  
ENDBRANCH   8   9
ENDBRANCH   7   8
BRANCH   7  11
ATOM     11  C3  UNL     1       1.554   4.292  -1.379  1.00  0.00     0.013 A   
ATOM     12  C4  UNL     1       2.604   4.763  -2.184  1.00  0.00     0.011 A   
ATOM     13  C8  UNL     1       0.380   3.869  -2.026  1.00  0.00     0.131 A   
ATOM     14  C5  UNL     1       2.481   4.796  -3.578  1.00  0.00     0.034 A   
ATOM     15  C7  UNL     1       0.249   3.895  -3.409  1.00  0.00     0.072 A   
ATOM     16  C6  UNL     1       1.305   4.359  -4.178  1.00  0.00     0.074 A   
ATOM     17  F1  UNL     1      -0.651   3.413  -1.298  1.00  0.00    -0.207 F   
BRANCH  16  18
ATOM     18  O2  UNL     1       1.147   4.369  -5.530  1.00  0.00    -0.361 OA  
ATOM     19  H7  UNL     1       1.927   4.779  -5.942  1.00  0.00     0.218 HD  
ENDBRANCH  16  18
ENDBRANCH   7  11
ENDBRANCH   1   7
BRANCH   3  20
ATOM     20  C11 UNL     1       0.155  -0.336   1.727  1.00  0.00     0.117 C   
BRANCH  20  21
ATOM     21  N2  UNL     1       0.443  -1.487   0.790  1.00  0.00     0.249 N   
ATOM     22  H11 UNL     1       1.467  -1.555   0.718  1.00  0.00     0.199 HD  
ATOM     23  H12 UNL     1       0.105  -2.369   1.183  1.00  0.00     0.199 HD  
BRANCH  21  24
ATOM     24  C12 UNL     1      -0.070  -1.345  -0.608  1.00  0.00     0.164 C   
BRANCH  24  25
ATOM     25  C13 UNL     1      -1.566  -1.220  -0.682  1.00  0.00    -0.002 A   
ATOM     26  C14 UNL     1      -2.157   0.015  -1.043  1.00  0.00     0.012 A   
ATOM     27  C18 UNL     1      -2.389  -2.314  -0.361  1.00  0.00     0.045 A   
ATOM     28  C15 UNL     1      -3.547   0.167  -1.071  1.00  0.00     0.037 A   
ATOM     29  C17 UNL     1      -3.755  -2.130  -0.399  1.00  0.00     0.109 A   
ATOM     30  C16 UNL     1      -4.319  -0.925  -0.741  1.00  0.00     0.108 A   
ATOM     31  O3  UNL     1      -4.687  -3.075  -0.108  1.00  0.00    -0.316 OA  
ATOM     32  O4  UNL     1      -5.676  -0.959  -0.707  1.00  0.00    -0.316 OA  
ATOM     33  C19 UNL     1      -5.909  -2.336  -0.336  1.00  0.00     0.337 C   
ENDBRANCH  24  25
ENDBRANCH  21  24
ENDBRANCH  20  21
BRANCH  20  34
ATOM     34  C20 UNL     1       0.498  -0.720   3.181  1.00  0.00     0.043 C   
ATOM     35  C21 UNL     1       1.921  -1.229   3.439  1.00  0.00     0.010 C   
ATOM     36  C24 UNL     1      -0.416  -1.804   3.785  1.00  0.00     0.010 C   
ATOM     37  C22 UNL     1       1.793  -1.925   4.785  1.00  0.00     0.001 C   
ATOM     38  C23 UNL     1       0.478  -2.679   4.663  1.00  0.00     0.001 C   
ENDBRANCH  20  34
ENDBRANCH   3  20
TORSDOF 10
