REMARK SMILES OC[C@H](c1ccc(O)cc1F)n1cc([C@@H]([NH2+]Cc2ccc3c(c2)OCO3)C2CCCC2)nn1
REMARK SMILES IDX 12 1 13 2 14 3 32 4 33 5 3 7 2 8 1 9 4 11 5 12 10 13 6 14
REMARK SMILES IDX 9 15 7 16 11 17 8 18 15 20 16 21 17 24 18 25 19 26 23 27
REMARK SMILES IDX 20 28 22 29 21 30 24 31 26 32 25 33 27 34 28 35 31 36 29 37
REMARK SMILES IDX 30 38
REMARK H PARENT 13 6 1 10 8 19 16 22 16 23
ROOT
ATOM     1   N1  UNL     1      -2.685   1.272   0.011  1.00  0.00    -0.202 N   
ATOM     2   C9  UNL     1      -1.982   0.231  -0.537  1.00  0.00     0.046 A   
ATOM     3   C10 UNL     1      -1.242  -0.262   0.513  1.00  0.00     0.127 A   
ATOM     4   N3  UNL     1      -1.539   0.445   1.648  1.00  0.00    -0.132 NA  
ATOM     5   N4  UNL     1      -2.425   1.376   1.331  1.00  0.00    -0.075 NA  
ATOM     6   H9  UNL     1      -2.048  -0.020  -1.587  1.00  0.00     0.083 HD  
ENDROOT
BRANCH   1   7
ATOM     7   C2  UNL     1      -3.551   2.248  -0.656  1.00  0.00     0.158 C   
BRANCH   7   8
ATOM     8   C1  UNL     1      -4.966   1.664  -0.844  1.00  0.00     0.186 C   
BRANCH   8   9
ATOM     9   O1  UNL     1      -4.974   0.486  -1.652  1.00  0.00    -0.394 OA  
ATOM     10  H1  UNL     1      -5.898   0.174  -1.693  1.00  0.00     0.210 HD  
ENDBRANCH   8   9
ENDBRANCH   7   8
BRANCH   7  11
ATOM     11  C3  UNL     1      -2.858   2.833  -1.883  1.00  0.00     0.013 A   
ATOM     12  C4  UNL     1      -3.276   2.604  -3.203  1.00  0.00     0.011 A   
ATOM     13  C8  UNL     1      -1.722   3.637  -1.692  1.00  0.00     0.131 A   
ATOM     14  C5  UNL     1      -2.578   3.161  -4.283  1.00  0.00     0.034 A   
ATOM     15  C7  UNL     1      -1.020   4.192  -2.756  1.00  0.00     0.072 A   
ATOM     16  C6  UNL     1      -1.455   3.948  -4.049  1.00  0.00     0.074 A   
ATOM     17  F1  UNL     1      -1.273   3.861  -0.448  1.00  0.00    -0.207 F   
BRANCH  16  18
ATOM     18  O2  UNL     1      -0.744   4.502  -5.071  1.00  0.00    -0.361 OA  
ATOM     19  H7  UNL     1      -1.210   4.343  -5.913  1.00  0.00     0.218 HD  
ENDBRANCH  16  18
ENDBRANCH   7  11
ENDBRANCH   1   7
BRANCH   3  20
ATOM     20  C11 UNL     1      -0.184  -1.313   0.541  1.00  0.00     0.117 C   
BRANCH  20  21
ATOM     21  N2  UNL     1       0.984  -0.874   1.393  1.00  0.00     0.249 N   
ATOM     22  H11 UNL     1       0.609  -0.673   2.329  1.00  0.00     0.199 HD  
ATOM     23  H12 UNL     1       1.665  -1.630   1.487  1.00  0.00     0.199 HD  
BRANCH  21  24
ATOM     24  C12 UNL     1       1.700   0.369   0.958  1.00  0.00     0.164 C   
BRANCH  24  25
ATOM     25  C13 UNL     1       2.200   0.317  -0.459  1.00  0.00    -0.002 A   
ATOM     26  C14 UNL     1       1.587   1.116  -1.455  1.00  0.00     0.012 A   
ATOM     27  C18 UNL     1       3.250  -0.547  -0.816  1.00  0.00     0.045 A   
ATOM     28  C15 UNL     1       1.997   1.046  -2.791  1.00  0.00     0.037 A   
ATOM     29  C17 UNL     1       3.632  -0.589  -2.142  1.00  0.00     0.109 A   
ATOM     30  C16 UNL     1       3.022   0.180  -3.102  1.00  0.00     0.108 A   
ATOM     31  O3  UNL     1       4.619  -1.370  -2.654  1.00  0.00    -0.316 OA  
ATOM     32  O4  UNL     1       3.542  -0.026  -4.340  1.00  0.00    -0.316 OA  
ATOM     33  C19 UNL     1       4.591  -0.972  -4.045  1.00  0.00     0.337 C   
ENDBRANCH  24  25
ENDBRANCH  21  24
ENDBRANCH  20  21
BRANCH  20  34
ATOM     34  C20 UNL     1      -0.742  -2.669   1.019  1.00  0.00     0.043 C   
ATOM     35  C21 UNL     1       0.210  -3.854   0.836  1.00  0.00     0.010 C   
ATOM     36  C24 UNL     1      -1.110  -2.788   2.501  1.00  0.00     0.010 C   
ATOM     37  C22 UNL     1      -0.433  -4.974   1.651  1.00  0.00     0.001 C   
ATOM     38  C23 UNL     1      -1.300  -4.288   2.708  1.00  0.00     0.001 C   
ENDBRANCH  20  34
ENDBRANCH   3  20
TORSDOF 10
