REMARK SMILES Cc1cc(C(=O)n2cc([C@H](CC(C)C)[NH2+]Cc3ccc4c(c3)OCO4)nn2)nc(Cl)n1
REMARK SMILES IDX 7 1 8 2 9 3 26 4 27 5 5 6 6 7 4 8 2 9 3 10 31 11 29 12 28 13
REMARK SMILES IDX 1 14 30 15 10 16 11 17 12 18 13 19 14 20 15 21 16 24 17 25
REMARK SMILES IDX 18 26 22 27 19 28 21 29 20 30 23 31 25 32 24 33
REMARK H PARENT 15 22 15 23
ROOT
ATOM     1   N1  UNL     1      -0.613  -1.545  -0.954  1.00  0.00    -0.142 N   
ATOM     2   C6  UNL     1      -0.103  -1.057   0.238  1.00  0.00     0.139 A   
ATOM     3   C7  UNL     1      -1.153  -1.101   1.126  1.00  0.00     0.127 A   
ATOM     4   N3  UNL     1      -2.236  -1.660   0.513  1.00  0.00    -0.131 NA  
ATOM     5   N4  UNL     1      -1.899  -1.946  -0.733  1.00  0.00    -0.068 NA  
ENDROOT
BRANCH   1   6
ATOM     6   C5  UNL     1      -0.069  -1.632  -2.252  1.00  0.00     0.289 C   
ATOM     7   O1  UNL     1      -0.771  -2.147  -3.124  1.00  0.00    -0.268 OA  
BRANCH   6   8
ATOM     8   C4  UNL     1       1.273  -1.127  -2.651  1.00  0.00     0.133 A   
ATOM     9   C2  UNL     1       2.910  -0.717  -4.289  1.00  0.00     0.043 A   
ATOM     10  C3  UNL     1       1.667  -1.229  -3.975  1.00  0.00     0.057 A   
ATOM     11  N6  UNL     1       3.701  -0.147  -3.360  1.00  0.00    -0.223 NA  
ATOM     12  C21 UNL     1       3.223  -0.118  -2.114  1.00  0.00     0.223 A   
ATOM     13  N5  UNL     1       2.037  -0.572  -1.695  1.00  0.00    -0.213 NA  
ATOM     14  C1  UNL     1       3.423  -0.775  -5.697  1.00  0.00     0.067 C   
ATOM     15  CL1 UNL     1       4.197   0.623  -0.928  1.00  0.00    -0.041 Cl  
ENDBRANCH   6   8
ENDBRANCH   1   6
BRANCH   3  16
ATOM     16  C8  UNL     1      -1.299  -0.555   2.508  1.00  0.00     0.114 C   
BRANCH  16  17
ATOM     17  C9  UNL     1      -1.423  -1.662   3.571  1.00  0.00     0.064 C   
BRANCH  17  18
ATOM     18  C10 UNL     1      -0.196  -2.591   3.692  1.00  0.00    -0.012 C   
ATOM     19  C11 UNL     1      -0.474  -3.680   4.732  1.00  0.00     0.007 C   
ATOM     20  C12 UNL     1       1.077  -1.832   4.068  1.00  0.00     0.007 C   
ENDBRANCH  17  18
ENDBRANCH  16  17
BRANCH  16  21
ATOM     21  N2  UNL     1      -2.568   0.280   2.572  1.00  0.00     0.249 N   
ATOM     22  H16 UNL     1      -3.232  -0.155   1.912  1.00  0.00     0.199 HD  
ATOM     23  H17 UNL     1      -3.001   0.198   3.497  1.00  0.00     0.199 HD  
BRANCH  21  24
ATOM     24  C13 UNL     1      -2.436   1.730   2.233  1.00  0.00     0.164 C   
BRANCH  24  25
ATOM     25  C14 UNL     1      -1.880   2.004   0.863  1.00  0.00    -0.002 A   
ATOM     26  C15 UNL     1      -2.637   1.704  -0.296  1.00  0.00     0.012 A   
ATOM     27  C19 UNL     1      -0.579   2.520   0.720  1.00  0.00     0.045 A   
ATOM     28  C16 UNL     1      -2.099   1.886  -1.576  1.00  0.00     0.037 A   
ATOM     29  C18 UNL     1      -0.082   2.693  -0.556  1.00  0.00     0.109 A   
ATOM     30  C17 UNL     1      -0.818   2.379  -1.672  1.00  0.00     0.108 A   
ATOM     31  O2  UNL     1       1.155   3.161  -0.866  1.00  0.00    -0.316 OA  
ATOM     32  O3  UNL     1      -0.130   2.600  -2.823  1.00  0.00    -0.316 OA  
ATOM     33  C20 UNL     1       1.080   3.198  -2.308  1.00  0.00     0.337 C   
ENDBRANCH  24  25
ENDBRANCH  21  24
ENDBRANCH  16  21
ENDBRANCH   3  16
TORSDOF 8
