REMARK SMILES COc1ccc(Cn2cc([C@@H]([NH2+]Cc3ccc4c(c3)OCO4)C(C)(C)C)nn2)c(O)c1
REMARK SMILES IDX 8 1 9 2 10 3 27 4 28 5 7 7 6 8 3 9 4 10 31 11 5 12 29 13
REMARK SMILES IDX 2 14 1 15 30 16 11 18 12 19 13 22 14 23 15 24 19 25 16 26
REMARK SMILES IDX 18 27 17 28 20 29 22 30 21 31 23 32 24 33 25 34 26 35
REMARK H PARENT 9 6 30 17 12 20 12 21
ROOT
ATOM     1   N1  UNL     1       1.161  -0.538   0.778  1.00  0.00    -0.208 N   
ATOM     2   C7  UNL     1       0.146   0.377   0.732  1.00  0.00     0.046 A   
ATOM     3   C8  UNL     1      -0.889  -0.301   0.129  1.00  0.00     0.127 A   
ATOM     4   N3  UNL     1      -0.503  -1.595  -0.107  1.00  0.00    -0.132 NA  
ATOM     5   N4  UNL     1       0.749  -1.731   0.300  1.00  0.00    -0.076 NA  
ATOM     6   H8  UNL     1       0.281   1.402   1.052  1.00  0.00     0.083 HD  
ENDROOT
BRANCH   1   7
ATOM     7   C6  UNL     1       2.535  -0.331   1.202  1.00  0.00     0.172 C   
BRANCH   7   8
ATOM     8   C5  UNL     1       3.432  -0.072   0.018  1.00  0.00     0.002 A   
ATOM     9   C2  UNL     1       5.081   0.361  -2.229  1.00  0.00     0.077 A   
ATOM     10  C3  UNL     1       5.085  -0.874  -1.584  1.00  0.00     0.034 A   
ATOM     11  C23 UNL     1       4.250   1.378  -1.755  1.00  0.00     0.067 A   
ATOM     12  C4  UNL     1       4.265  -1.090  -0.470  1.00  0.00     0.011 A   
ATOM     13  C22 UNL     1       3.438   1.160  -0.643  1.00  0.00     0.079 A   
BRANCH   9  14
ATOM     14  O1  UNL     1       5.824   0.699  -3.327  1.00  0.00    -0.349 OA  
ATOM     15  C1  UNL     1       6.772  -0.259  -3.783  1.00  0.00     0.203 C   
ENDBRANCH   9  14
BRANCH  13  16
ATOM     16  O4  UNL     1       2.614   2.154  -0.194  1.00  0.00    -0.361 OA  
ATOM     17  H28 UNL     1       2.683   2.913  -0.807  1.00  0.00     0.218 HD  
ENDBRANCH  13  16
ENDBRANCH   7   8
ENDBRANCH   1   7
BRANCH   3  18
ATOM     18  C9  UNL     1      -2.207   0.196  -0.371  1.00  0.00     0.120 C   
BRANCH  18  19
ATOM     19  N2  UNL     1      -2.480  -0.360  -1.758  1.00  0.00     0.250 N   
ATOM     20  H10 UNL     1      -2.505  -1.384  -1.664  1.00  0.00     0.199 HD  
ATOM     21  H11 UNL     1      -3.396  -0.055  -2.092  1.00  0.00     0.199 HD  
BRANCH  19  22
ATOM     22  C10 UNL     1      -1.466  -0.065  -2.822  1.00  0.00     0.164 C   
BRANCH  22  23
ATOM     23  C11 UNL     1      -1.163   1.398  -2.995  1.00  0.00    -0.002 A   
ATOM     24  C12 UNL     1      -2.133   2.287  -3.514  1.00  0.00     0.012 A   
ATOM     25  C16 UNL     1       0.096   1.897  -2.612  1.00  0.00     0.045 A   
ATOM     26  C13 UNL     1      -1.859   3.654  -3.636  1.00  0.00     0.037 A   
ATOM     27  C15 UNL     1       0.333   3.249  -2.738  1.00  0.00     0.109 A   
ATOM     28  C14 UNL     1      -0.619   4.103  -3.237  1.00  0.00     0.108 A   
ATOM     29  O2  UNL     1       1.481   3.892  -2.391  1.00  0.00    -0.316 OA  
ATOM     30  O3  UNL     1      -0.189   5.391  -3.278  1.00  0.00    -0.316 OA  
ATOM     31  C17 UNL     1       1.160   5.248  -2.786  1.00  0.00     0.337 C   
ENDBRANCH  22  23
ENDBRANCH  19  22
ENDBRANCH  18  19
BRANCH  18  32
ATOM     32  C18 UNL     1      -3.415  -0.105   0.587  1.00  0.00     0.010 C   
ATOM     33  C19 UNL     1      -3.684  -1.613   0.766  1.00  0.00     0.017 C   
ATOM     34  C20 UNL     1      -3.144   0.506   1.981  1.00  0.00     0.017 C   
ATOM     35  C21 UNL     1      -4.707   0.553   0.049  1.00  0.00     0.017 C   
ENDBRANCH  18  32
ENDBRANCH   3  18
TORSDOF 9
