REMARK SMILES [O-]N([O-])c1ccc(-n2cc([C@@H]([NH2+]Cc3ccc4c(c3)OCO4)C3CCCCC3)nn2)c(F)c1
REMARK SMILES IDX 8 1 9 2 10 3 29 4 30 5 7 6 4 7 5 8 33 9 6 10 31 11 32 12
REMARK SMILES IDX 2 13 1 14 3 15 11 16 12 17 13 20 14 21 15 22 19 23 16 24
REMARK SMILES IDX 18 25 17 26 20 27 22 28 21 29 23 30 24 31 28 32 25 33 27 34
REMARK SMILES IDX 26 35
REMARK H PARENT 12 18 12 19
ROOT
ATOM     1   N2  UNL     1      -0.240  -1.700   0.634  1.00  0.00    -0.178 N   
ATOM     2   C5  UNL     1      -0.677  -0.880  -0.394  1.00  0.00     0.135 A   
ATOM     3   C6  UNL     1       0.437  -0.170  -0.784  1.00  0.00     0.127 A   
ATOM     4   N4  UNL     1       1.510  -0.591  -0.056  1.00  0.00    -0.131 NA  
ATOM     5   N5  UNL     1       1.094  -1.521   0.785  1.00  0.00    -0.071 NA  
ENDROOT
BRANCH   1   6
ATOM     6   C4  UNL     1      -1.000  -2.569   1.456  1.00  0.00     0.093 A   
ATOM     7   C1  UNL     1      -2.489  -4.277   3.109  1.00  0.00     0.121 A   
ATOM     8   C2  UNL     1      -3.114  -3.616   2.043  1.00  0.00     0.033 A   
ATOM     9   C23 UNL     1      -1.127  -4.088   3.359  1.00  0.00     0.072 A   
ATOM     10  C3  UNL     1      -2.371  -2.761   1.219  1.00  0.00     0.031 A   
ATOM     11  C22 UNL     1      -0.394  -3.240   2.530  1.00  0.00     0.148 A   
ATOM     12  F1  UNL     1       0.905  -3.083   2.816  1.00  0.00    -0.205 F   
BRANCH   7  13
ATOM     13  N1  UNL     1      -3.272  -5.163   3.977  1.00  0.00     0.092 N   
ATOM     14  O1  UNL     1      -4.413  -5.465   3.601  1.00  0.00    -0.138 OA  
ATOM     15  O2  UNL     1      -2.745  -5.546   5.030  1.00  0.00    -0.138 OA  
ENDBRANCH   7  13
ENDBRANCH   1   6
BRANCH   3  16
ATOM     16  C7  UNL     1       0.599   0.993  -1.711  1.00  0.00     0.117 C   
BRANCH  16  17
ATOM     17  N3  UNL     1       1.498   2.030  -1.059  1.00  0.00     0.249 N   
ATOM     18  H5  UNL     1       2.067   2.509  -1.764  1.00  0.00     0.199 HD  
ATOM     19  H6  UNL     1       2.161   1.501  -0.469  1.00  0.00     0.199 HD  
BRANCH  17  20
ATOM     20  C8  UNL     1       0.828   3.059  -0.204  1.00  0.00     0.164 C   
BRANCH  20  21
ATOM     21  C9  UNL     1       0.039   2.489   0.944  1.00  0.00    -0.002 A   
ATOM     22  C10 UNL     1       0.701   1.921   2.058  1.00  0.00     0.012 A   
ATOM     23  C14 UNL     1      -1.367   2.456   0.887  1.00  0.00     0.045 A   
ATOM     24  C11 UNL     1      -0.019   1.300   3.085  1.00  0.00     0.037 A   
ATOM     25  C13 UNL     1      -2.045   1.833   1.913  1.00  0.00     0.109 A   
ATOM     26  C12 UNL     1      -1.392   1.266   2.980  1.00  0.00     0.108 A   
ATOM     27  O3  UNL     1      -3.392   1.671   1.983  1.00  0.00    -0.316 OA  
ATOM     28  O4  UNL     1      -2.247   0.680   3.857  1.00  0.00    -0.316 OA  
ATOM     29  C15 UNL     1      -3.520   0.998   3.256  1.00  0.00     0.337 C   
ENDBRANCH  20  21
ENDBRANCH  17  20
ENDBRANCH  16  17
BRANCH  16  30
ATOM     30  C16 UNL     1       1.184   0.626  -3.100  1.00  0.00     0.043 C   
ATOM     31  C17 UNL     1       0.216  -0.269  -3.898  1.00  0.00     0.010 C   
ATOM     32  C21 UNL     1       2.585  -0.015  -3.057  1.00  0.00     0.010 C   
ATOM     33  C18 UNL     1       0.747  -0.567  -5.299  1.00  0.00     0.001 C   
ATOM     34  C20 UNL     1       3.111  -0.313  -4.461  1.00  0.00     0.001 C   
ATOM     35  C19 UNL     1       2.140  -1.184  -5.252  1.00  0.00     0.000 C   
ENDBRANCH  16  30
ENDBRANCH   3  16
TORSDOF 7
