REMARK SMILES Cc1ccc(CCn2cc([C@@H]([NH2+]Cc3ccc4c(c3)OCO4)C3CCCCC3)nn2)c(Cl)n1
REMARK SMILES IDX 8 1 9 2 10 3 29 4 30 5 7 7 6 8 5 9 2 10 3 11 33 12 4 13
REMARK SMILES IDX 31 14 1 15 32 16 11 17 12 18 13 21 14 22 15 23 19 24 16 25
REMARK SMILES IDX 18 26 17 27 20 28 22 29 21 30 23 31 24 32 28 33 25 34 27 35
REMARK SMILES IDX 26 36
REMARK H PARENT 9 6 12 19 12 20
ROOT
ATOM     1   N1  UNL     1      -0.745  -0.636  -3.683  1.00  0.00    -0.212 N   
ATOM     2   C8  UNL     1      -0.883  -1.440  -2.585  1.00  0.00     0.045 A   
ATOM     3   C9  UNL     1      -1.002  -0.545  -1.543  1.00  0.00     0.127 A   
ATOM     4   N3  UNL     1      -1.039   0.729  -2.044  1.00  0.00    -0.132 NA  
ATOM     5   N4  UNL     1      -0.896   0.658  -3.358  1.00  0.00    -0.076 NA  
ATOM     6   H10 UNL     1      -0.768  -2.514  -2.632  1.00  0.00     0.083 HD  
ENDROOT
BRANCH   1   7
ATOM     7   C7  UNL     1      -0.242  -1.007  -4.991  1.00  0.00     0.139 C   
BRANCH   7   8
ATOM     8   C6  UNL     1       1.282  -0.833  -5.110  1.00  0.00     0.060 C   
BRANCH   8   9
ATOM     9   C5  UNL     1       2.056  -1.715  -4.157  1.00  0.00    -0.009 A   
ATOM     10  C2  UNL     1       3.281  -3.396  -2.329  1.00  0.00     0.039 A   
ATOM     11  C3  UNL     1       2.885  -3.908  -3.559  1.00  0.00     0.024 A   
ATOM     12  N5  UNL     1       3.092  -2.100  -1.986  1.00  0.00    -0.241 NA  
ATOM     13  C4  UNL     1       2.253  -3.064  -4.471  1.00  0.00     0.009 A   
ATOM     14  C25 UNL     1       2.538  -1.291  -2.920  1.00  0.00     0.132 A   
ATOM     15  C1  UNL     1       3.977  -4.280  -1.337  1.00  0.00     0.067 C   
ATOM     16  CL1 UNL     1       2.436   0.333  -2.359  1.00  0.00    -0.062 Cl  
ENDBRANCH   8   9
ENDBRANCH   7   8
ENDBRANCH   1   7
BRANCH   3  17
ATOM     17  C10 UNL     1      -0.906  -0.758  -0.065  1.00  0.00     0.117 C   
BRANCH  17  18
ATOM     18  N2  UNL     1       0.331  -0.031   0.410  1.00  0.00     0.249 N   
ATOM     19  H12 UNL     1       0.880   0.233  -0.425  1.00  0.00     0.199 HD  
ATOM     20  H13 UNL     1       0.082   0.880   0.811  1.00  0.00     0.199 HD  
BRANCH  18  21
ATOM     21  C11 UNL     1       1.253  -0.794   1.286  1.00  0.00     0.164 C   
BRANCH  21  22
ATOM     22  C12 UNL     1       2.398   0.058   1.754  1.00  0.00    -0.002 A   
ATOM     23  C13 UNL     1       3.691  -0.116   1.204  1.00  0.00     0.012 A   
ATOM     24  C17 UNL     1       2.189   1.047   2.732  1.00  0.00     0.045 A   
ATOM     25  C14 UNL     1       4.764   0.678   1.625  1.00  0.00     0.037 A   
ATOM     26  C16 UNL     1       3.268   1.815   3.120  1.00  0.00     0.109 A   
ATOM     27  C15 UNL     1       4.520   1.633   2.586  1.00  0.00     0.108 A   
ATOM     28  O1  UNL     1       3.236   2.808   4.047  1.00  0.00    -0.316 OA  
ATOM     29  O2  UNL     1       5.436   2.487   3.112  1.00  0.00    -0.316 OA  
ATOM     30  C18 UNL     1       4.623   3.218   4.055  1.00  0.00     0.337 C   
ENDBRANCH  21  22
ENDBRANCH  18  21
ENDBRANCH  17  18
BRANCH  17  31
ATOM     31  C19 UNL     1      -2.163  -0.262   0.702  1.00  0.00     0.043 C   
ATOM     32  C20 UNL     1      -3.421  -1.029   0.236  1.00  0.00     0.010 C   
ATOM     33  C24 UNL     1      -2.015  -0.393   2.232  1.00  0.00     0.010 C   
ATOM     34  C21 UNL     1      -4.678  -0.611   0.996  1.00  0.00     0.001 C   
ATOM     35  C23 UNL     1      -3.280   0.019   2.982  1.00  0.00     0.001 C   
ATOM     36  C22 UNL     1      -4.498  -0.755   2.500  1.00  0.00     0.000 C   
ENDBRANCH  17  31
ENDBRANCH   3  17
TORSDOF 8
