REMARK SMILES CCOc1cccc(Cn2cc([C@H](CC(C)C)[NH2+]Cc3ccc4c(c3)OCO4)nn2)c1
REMARK SMILES IDX 10 1 11 2 12 3 29 4 30 5 9 7 8 8 4 9 5 10 31 11 6 12 7 13
REMARK SMILES IDX 3 14 2 15 1 16 13 17 14 18 15 19 16 20 17 21 18 22 19 25
REMARK SMILES IDX 20 26 21 27 25 28 22 29 24 30 23 31 26 32 28 33 27 34
REMARK H PARENT 11 6 18 23 18 24
ROOT
ATOM     1   N1  UNL     1      -0.414  -2.186   1.160  1.00  0.00    -0.208 N   
ATOM     2   C9  UNL     1      -0.639  -1.611  -0.061  1.00  0.00     0.046 A   
ATOM     3   C10 UNL     1       0.534  -1.825  -0.749  1.00  0.00     0.127 A   
ATOM     4   N3  UNL     1       1.417  -2.494   0.061  1.00  0.00    -0.132 NA  
ATOM     5   N4  UNL     1       0.823  -2.720   1.220  1.00  0.00    -0.076 NA  
ATOM     6   H11 UNL     1      -1.570  -1.118  -0.307  1.00  0.00     0.083 HD  
ENDROOT
BRANCH   1   7
ATOM     7   C8  UNL     1      -1.339  -2.328   2.271  1.00  0.00     0.169 C   
BRANCH   7   8
ATOM     8   C7  UNL     1      -1.246  -1.163   3.221  1.00  0.00    -0.026 A   
ATOM     9   C3  UNL     1      -2.139   0.935   4.089  1.00  0.00     0.075 A   
ATOM     10  C4  UNL     1      -1.095   0.994   5.010  1.00  0.00     0.033 A   
ATOM     11  C24 UNL     1      -2.200  -0.133   3.188  1.00  0.00     0.038 A   
ATOM     12  C5  UNL     1      -0.132  -0.018   5.045  1.00  0.00     0.003 A   
ATOM     13  C6  UNL     1      -0.208  -1.091   4.159  1.00  0.00     0.005 A   
BRANCH   9  14
ATOM     14  O1  UNL     1      -3.131   1.865   3.942  1.00  0.00    -0.346 OA  
BRANCH  14  15
ATOM     15  C2  UNL     1      -3.421   2.709   5.058  1.00  0.00     0.164 C   
ATOM     16  C1  UNL     1      -2.752   4.061   4.887  1.00  0.00     0.035 C   
ENDBRANCH  14  15
ENDBRANCH   9  14
ENDBRANCH   7   8
ENDBRANCH   1   7
BRANCH   3  17
ATOM     17  C11 UNL     1       0.978  -1.417  -2.113  1.00  0.00     0.114 C   
BRANCH  17  18
ATOM     18  C12 UNL     1       0.964  -2.590  -3.113  1.00  0.00     0.064 C   
BRANCH  18  19
ATOM     19  C13 UNL     1      -0.426  -3.203  -3.387  1.00  0.00    -0.012 C   
ATOM     20  C14 UNL     1      -0.283  -4.404  -4.327  1.00  0.00     0.007 C   
ATOM     21  C15 UNL     1      -1.401  -2.190  -3.990  1.00  0.00     0.007 C   
ENDBRANCH  18  19
ENDBRANCH  17  18
BRANCH  17  22
ATOM     22  N2  UNL     1       2.412  -0.917  -2.027  1.00  0.00     0.249 N   
ATOM     23  H22 UNL     1       2.806  -1.343  -1.173  1.00  0.00     0.199 HD  
ATOM     24  H23 UNL     1       2.970  -1.289  -2.801  1.00  0.00     0.199 HD  
BRANCH  22  25
ATOM     25  C16 UNL     1       2.598   0.557  -1.955  1.00  0.00     0.164 C   
BRANCH  25  26
ATOM     26  C17 UNL     1       1.901   1.214  -0.797  1.00  0.00    -0.002 A   
ATOM     27  C18 UNL     1       2.352   1.008   0.529  1.00  0.00     0.012 A   
ATOM     28  C22 UNL     1       0.773   2.022  -1.024  1.00  0.00     0.045 A   
ATOM     29  C19 UNL     1       1.693   1.599   1.613  1.00  0.00     0.037 A   
ATOM     30  C21 UNL     1       0.144   2.586   0.067  1.00  0.00     0.109 A   
ATOM     31  C20 UNL     1       0.594   2.385   1.348  1.00  0.00     0.108 A   
ATOM     32  O2  UNL     1      -0.956   3.381   0.019  1.00  0.00    -0.316 OA  
ATOM     33  O3  UNL     1      -0.155   3.045   2.268  1.00  0.00    -0.316 OA  
ATOM     34  C23 UNL     1      -1.155   3.654   1.425  1.00  0.00     0.337 C   
ENDBRANCH  25  26
ENDBRANCH  22  25
ENDBRANCH  17  22
ENDBRANCH   3  17
TORSDOF 10
