REMARK SMILES CCCc1nc(C)c(Cn2cc([C@@H]([NH2+]Cc3ccc4c(c3)OCO4)C3CCCCC3)nn2)o1
REMARK SMILES IDX 10 1 11 2 12 3 31 4 32 5 9 7 8 8 4 9 5 10 33 11 6 12 7 13
REMARK SMILES IDX 3 14 2 15 1 16 13 17 14 18 15 21 16 22 17 23 21 24 18 25
REMARK SMILES IDX 20 26 19 27 22 28 24 29 23 30 25 31 26 32 30 33 27 34 29 35
REMARK SMILES IDX 28 36
REMARK H PARENT 11 6 14 19 14 20
ROOT
ATOM     1   N2  UNL     1       0.834  -3.445  -0.268  1.00  0.00    -0.206 N   
ATOM     2   C9  UNL     1       0.253  -2.449   0.469  1.00  0.00     0.046 A   
ATOM     3   C10 UNL     1      -0.633  -1.861  -0.407  1.00  0.00     0.127 A   
ATOM     4   N4  UNL     1      -0.559  -2.501  -1.618  1.00  0.00    -0.132 NA  
ATOM     5   N5  UNL     1       0.339  -3.467  -1.521  1.00  0.00    -0.076 NA  
ATOM     6   H13 UNL     1       0.532  -2.250   1.495  1.00  0.00     0.083 HD  
ENDROOT
BRANCH   1   7
ATOM     7   C8  UNL     1       1.873  -4.375   0.139  1.00  0.00     0.197 C   
BRANCH   7   8
ATOM     8   C7  UNL     1       3.196  -3.739  -0.015  1.00  0.00     0.102 A   
ATOM     9   C4  UNL     1       4.929  -2.635   0.650  1.00  0.00     0.148 A   
ATOM     10  N1  UNL     1       5.179  -2.874  -0.621  1.00  0.00    -0.231 NA  
ATOM     11  O3  UNL     1       3.725  -3.120   1.086  1.00  0.00    -0.296 OA  
ATOM     12  C5  UNL     1       4.089  -3.590  -1.056  1.00  0.00     0.068 A   
ATOM     13  C6  UNL     1       4.008  -4.063  -2.455  1.00  0.00     0.069 C   
BRANCH   9  14
ATOM     14  C3  UNL     1       5.766  -1.919   1.647  1.00  0.00     0.083 C   
BRANCH  14  15
ATOM     15  C2  UNL     1       6.070  -0.479   1.236  1.00  0.00     0.005 C   
ATOM     16  C1  UNL     1       4.833   0.408   1.206  1.00  0.00     0.004 C   
ENDBRANCH  14  15
ENDBRANCH   9  14
ENDBRANCH   7   8
ENDBRANCH   1   7
BRANCH   3  17
ATOM     17  C11 UNL     1      -1.520  -0.668  -0.259  1.00  0.00     0.117 C   
BRANCH  17  18
ATOM     18  N3  UNL     1      -1.540   0.127  -1.548  1.00  0.00     0.249 N   
ATOM     19  H15 UNL     1      -2.304   0.810  -1.532  1.00  0.00     0.199 HD  
ATOM     20  H16 UNL     1      -1.743  -0.546  -2.301  1.00  0.00     0.199 HD  
BRANCH  18  21
ATOM     21  C12 UNL     1      -0.269   0.819  -1.921  1.00  0.00     0.164 C   
BRANCH  21  22
ATOM     22  C13 UNL     1       0.095   1.927  -0.972  1.00  0.00    -0.002 A   
ATOM     23  C14 UNL     1      -0.609   3.154  -0.996  1.00  0.00     0.012 A   
ATOM     24  C18 UNL     1       1.119   1.735  -0.028  1.00  0.00     0.045 A   
ATOM     25  C15 UNL     1      -0.303   4.175  -0.089  1.00  0.00     0.037 A   
ATOM     26  C17 UNL     1       1.393   2.760   0.853  1.00  0.00     0.109 A   
ATOM     27  C16 UNL     1       0.702   3.945   0.824  1.00  0.00     0.108 A   
ATOM     28  O1  UNL     1       2.336   2.732   1.831  1.00  0.00    -0.316 OA  
ATOM     29  O2  UNL     1       1.126   4.816   1.776  1.00  0.00    -0.316 OA  
ATOM     30  C19 UNL     1       2.185   4.054   2.395  1.00  0.00     0.337 C   
ENDBRANCH  21  22
ENDBRANCH  18  21
ENDBRANCH  17  18
BRANCH  17  31
ATOM     31  C20 UNL     1      -2.985  -1.003   0.133  1.00  0.00     0.043 C   
ATOM     32  C21 UNL     1      -3.066  -1.613   1.547  1.00  0.00     0.010 C   
ATOM     33  C25 UNL     1      -3.728  -1.901  -0.875  1.00  0.00     0.010 C   
ATOM     34  C22 UNL     1      -4.512  -1.861   1.973  1.00  0.00     0.001 C   
ATOM     35  C24 UNL     1      -5.173  -2.155  -0.443  1.00  0.00     0.001 C   
ATOM     36  C23 UNL     1      -5.250  -2.736   0.965  1.00  0.00     0.000 C   
ENDBRANCH  17  31
ENDBRANCH   3  17
TORSDOF 9
