REMARK SMILES COc1c(F)cccc1Cn1cc([C@@H]([NH2+]Cc2ccc3c(c2)OCO3)C(C)C)nn1
REMARK SMILES IDX 11 1 12 2 13 3 29 4 30 5 10 7 9 8 3 9 4 10 6 11 8 12 7 13
REMARK SMILES IDX 5 14 2 15 1 16 14 17 15 18 16 21 17 22 18 23 22 24 19 25
REMARK SMILES IDX 21 26 20 27 23 28 25 29 24 30 26 31 27 32 28 33
REMARK H PARENT 12 6 15 19 15 20
ROOT
ATOM     1   N1  UNL     1      -2.368   0.644   1.339  1.00  0.00    -0.208 N   
ATOM     2   C9  UNL     1      -1.648  -0.412   1.828  1.00  0.00     0.046 A   
ATOM     3   C10 UNL     1      -0.338  -0.005   1.713  1.00  0.00     0.127 A   
ATOM     4   N3  UNL     1      -0.304   1.260   1.182  1.00  0.00    -0.132 NA  
ATOM     5   N4  UNL     1      -1.549   1.647   0.961  1.00  0.00    -0.076 NA  
ATOM     6   H9  UNL     1      -2.123  -1.317   2.180  1.00  0.00     0.083 HD  
ENDROOT
BRANCH   1   7
ATOM     7   C8  UNL     1      -3.810   0.780   1.233  1.00  0.00     0.172 C   
BRANCH   7   8
ATOM     8   C7  UNL     1      -4.289   0.452  -0.160  1.00  0.00     0.005 A   
ATOM     9   C2  UNL     1      -4.525  -0.878  -0.560  1.00  0.00     0.115 A   
ATOM     10  C3  UNL     1      -4.943  -1.126  -1.875  1.00  0.00     0.153 A   
ATOM     11  C4  UNL     1      -5.141  -0.084  -2.778  1.00  0.00     0.042 A   
ATOM     12  C6  UNL     1      -4.484   1.497  -1.083  1.00  0.00     0.008 A   
ATOM     13  C5  UNL     1      -4.913   1.231  -2.383  1.00  0.00     0.004 A   
ATOM     14  F1  UNL     1      -5.147  -2.374  -2.320  1.00  0.00    -0.204 F   
BRANCH   9  15
ATOM     15  O1  UNL     1      -4.292  -1.832   0.399  1.00  0.00    -0.346 OA  
ATOM     16  C1  UNL     1      -4.833  -3.128   0.160  1.00  0.00     0.203 C   
ENDBRANCH   9  15
ENDBRANCH   7   8
ENDBRANCH   1   7
BRANCH   3  17
ATOM     17  C11 UNL     1       0.945  -0.707   2.025  1.00  0.00     0.117 C   
BRANCH  17  18
ATOM     18  N2  UNL     1       2.052  -0.178   1.154  1.00  0.00     0.249 N   
ATOM     19  H11 UNL     1       2.978  -0.382   1.538  1.00  0.00     0.199 HD  
ATOM     20  H12 UNL     1       1.957   0.849   1.151  1.00  0.00     0.199 HD  
BRANCH  18  21
ATOM     21  C12 UNL     1       2.009  -0.621  -0.268  1.00  0.00     0.164 C   
BRANCH  21  22
ATOM     22  C13 UNL     1       3.132   0.010  -1.042  1.00  0.00    -0.002 A   
ATOM     23  C14 UNL     1       2.966   1.293  -1.616  1.00  0.00     0.012 A   
ATOM     24  C18 UNL     1       4.372  -0.642  -1.148  1.00  0.00     0.045 A   
ATOM     25  C15 UNL     1       4.018   1.917  -2.296  1.00  0.00     0.037 A   
ATOM     26  C17 UNL     1       5.388   0.002  -1.824  1.00  0.00     0.109 A   
ATOM     27  C16 UNL     1       5.217   1.245  -2.381  1.00  0.00     0.108 A   
ATOM     28  O2  UNL     1       6.642  -0.484  -2.013  1.00  0.00    -0.316 OA  
ATOM     29  O3  UNL     1       6.342   1.698  -2.993  1.00  0.00    -0.316 OA  
ATOM     30  C19 UNL     1       7.243   0.592  -2.768  1.00  0.00     0.337 C   
ENDBRANCH  21  22
ENDBRANCH  18  21
ENDBRANCH  17  18
BRANCH  17  31
ATOM     31  C20 UNL     1       1.331  -0.581   3.522  1.00  0.00     0.037 C   
ATOM     32  C21 UNL     1       1.726   0.839   3.946  1.00  0.00     0.014 C   
ATOM     33  C22 UNL     1       2.446  -1.563   3.903  1.00  0.00     0.014 C   
ENDBRANCH  17  31
ENDBRANCH   3  17
TORSDOF 8
