REMARK SMILES CC(=O)c1ccc(Cn2cc([C@@H]([NH2+]Cc3ccc4c(c3)OCO4)C(C)C)nn2)cc1
REMARK SMILES IDX 9 1 10 2 11 3 27 4 28 5 8 7 7 8 4 9 5 10 30 11 6 12 29 13
REMARK SMILES IDX 2 14 1 15 3 16 12 17 13 18 14 21 15 22 16 23 20 24 17 25
REMARK SMILES IDX 19 26 18 27 21 28 23 29 22 30 24 31 25 32 26 33
REMARK H PARENT 10 6 13 19 13 20
ROOT
ATOM     1   N1  UNL     1      -0.676   2.473   1.198  1.00  0.00    -0.208 N   
ATOM     2   C8  UNL     1      -1.331   1.287   1.003  1.00  0.00     0.046 A   
ATOM     3   C9  UNL     1      -0.890   0.490   2.036  1.00  0.00     0.127 A   
ATOM     4   N3  UNL     1      -0.054   1.220   2.842  1.00  0.00    -0.132 NA  
ATOM     5   N4  UNL     1       0.072   2.428   2.317  1.00  0.00    -0.076 NA  
ATOM     6   H8  UNL     1      -1.957   1.105   0.141  1.00  0.00     0.083 HD  
ENDROOT
BRANCH   1   7
ATOM     7   C7  UNL     1      -0.582   3.599   0.281  1.00  0.00     0.169 C   
BRANCH   7   8
ATOM     8   C6  UNL     1       0.205   3.195  -0.944  1.00  0.00    -0.029 A   
ATOM     9   C3  UNL     1       1.656   2.236  -3.158  1.00  0.00     0.017 A   
ATOM     10  C4  UNL     1       0.276   2.437  -3.256  1.00  0.00     0.012 A   
ATOM     11  C23 UNL     1       2.313   2.538  -1.959  1.00  0.00     0.012 A   
ATOM     12  C5  UNL     1      -0.445   2.913  -2.155  1.00  0.00     0.006 A   
ATOM     13  C22 UNL     1       1.595   3.019  -0.862  1.00  0.00     0.006 A   
BRANCH   9  14
ATOM     14  C2  UNL     1       2.457   1.670  -4.281  1.00  0.00     0.159 C   
ATOM     15  C1  UNL     1       1.860   1.642  -5.663  1.00  0.00     0.093 C   
ATOM     16  O1  UNL     1       3.578   1.218  -4.056  1.00  0.00    -0.295 OA  
ENDBRANCH   9  14
ENDBRANCH   7   8
ENDBRANCH   1   7
BRANCH   3  17
ATOM     17  C10 UNL     1      -1.080  -0.969   2.284  1.00  0.00     0.117 C   
BRANCH  17  18
ATOM     18  N2  UNL     1       0.220  -1.613   2.727  1.00  0.00     0.249 N   
ATOM     19  H10 UNL     1       0.055  -2.591   2.977  1.00  0.00     0.199 HD  
ATOM     20  H11 UNL     1       0.519  -1.120   3.578  1.00  0.00     0.199 HD  
BRANCH  18  21
ATOM     21  C11 UNL     1       1.371  -1.533   1.772  1.00  0.00     0.164 C   
BRANCH  21  22
ATOM     22  C12 UNL     1       1.089  -2.132   0.422  1.00  0.00    -0.002 A   
ATOM     23  C13 UNL     1       0.966  -3.533   0.266  1.00  0.00     0.012 A   
ATOM     24  C17 UNL     1       0.933  -1.294  -0.698  1.00  0.00     0.045 A   
ATOM     25  C14 UNL     1       0.689  -4.092  -0.987  1.00  0.00     0.037 A   
ATOM     26  C16 UNL     1       0.661  -1.877  -1.917  1.00  0.00     0.109 A   
ATOM     27  C15 UNL     1       0.544  -3.238  -2.058  1.00  0.00     0.108 A   
ATOM     28  O2  UNL     1       0.477  -1.216  -3.090  1.00  0.00    -0.316 OA  
ATOM     29  O3  UNL     1       0.282  -3.605  -3.339  1.00  0.00    -0.316 OA  
ATOM     30  C18 UNL     1       0.321  -2.325  -4.004  1.00  0.00     0.337 C   
ENDBRANCH  21  22
ENDBRANCH  18  21
ENDBRANCH  17  18
BRANCH  17  31
ATOM     31  C19 UNL     1      -2.179  -1.305   3.326  1.00  0.00     0.037 C   
ATOM     32  C20 UNL     1      -1.930  -0.732   4.726  1.00  0.00     0.014 C   
ATOM     33  C21 UNL     1      -3.566  -0.873   2.833  1.00  0.00     0.014 C   
ENDBRANCH  17  31
ENDBRANCH   3  17
TORSDOF 8
