REMARK SMILES CC(C)[C@H]([NH2+]Cc1ccc2c(c1)OCO2)c1cn(-c2cc(N([O-])[O-])ccc2F)nn1
REMARK SMILES IDX 16 1 17 2 18 3 29 4 30 5 4 6 2 7 1 8 3 9 5 10 6 13 7 14 8 15
REMARK SMILES IDX 12 16 9 17 11 18 10 19 13 20 15 21 14 22 19 23 20 24 27 25
REMARK SMILES IDX 21 26 26 27 25 28 28 29 22 30 23 31 24 32
REMARK H PARENT 5 11 5 12
ROOT
ATOM     1   C13 UNL     1       0.430   1.521  -0.450  1.00  0.00     0.127 A   
ATOM     2   C14 UNL     1       0.798   2.479   0.469  1.00  0.00     0.135 A   
ATOM     3   N2  UNL     1      -0.224   2.506   1.398  1.00  0.00    -0.178 N   
ATOM     4   N4  UNL     1      -1.138   1.559   1.057  1.00  0.00    -0.071 NA  
ATOM     5   N5  UNL     1      -0.757   0.969  -0.063  1.00  0.00    -0.131 NA  
ENDROOT
BRANCH   1   6
ATOM     6   C4  UNL     1       1.114   1.011  -1.681  1.00  0.00     0.117 C   
BRANCH   6   7
ATOM     7   C2  UNL     1       0.808   1.829  -2.962  1.00  0.00     0.037 C   
ATOM     8   C1  UNL     1       1.374   3.251  -2.878  1.00  0.00     0.014 C   
ATOM     9   C3  UNL     1      -0.679   1.884  -3.332  1.00  0.00     0.014 C   
ENDBRANCH   6   7
BRANCH   6  10
ATOM     10  N1  UNL     1       0.724  -0.425  -1.933  1.00  0.00     0.249 N   
ATOM     11  H9  UNL     1      -0.297  -0.491  -1.800  1.00  0.00     0.199 HD  
ATOM     12  H10 UNL     1       0.904  -0.699  -2.905  1.00  0.00     0.199 HD  
BRANCH  10  13
ATOM     13  C5  UNL     1       1.348  -1.429  -1.026  1.00  0.00     0.164 C   
BRANCH  13  14
ATOM     14  C6  UNL     1       0.813  -2.801  -1.318  1.00  0.00    -0.002 A   
ATOM     15  C7  UNL     1      -0.381  -3.244  -0.699  1.00  0.00     0.012 A   
ATOM     16  C11 UNL     1       1.460  -3.631  -2.249  1.00  0.00     0.045 A   
ATOM     17  C8  UNL     1      -0.919  -4.502  -0.993  1.00  0.00     0.037 A   
ATOM     18  C10 UNL     1       0.903  -4.865  -2.516  1.00  0.00     0.109 A   
ATOM     19  C9  UNL     1      -0.253  -5.288  -1.906  1.00  0.00     0.108 A   
ATOM     20  O1  UNL     1       1.398  -5.784  -3.385  1.00  0.00    -0.316 OA  
ATOM     21  O2  UNL     1      -0.628  -6.529  -2.313  1.00  0.00    -0.316 OA  
ATOM     22  C12 UNL     1       0.434  -6.851  -3.235  1.00  0.00     0.337 C   
ENDBRANCH  13  14
ENDBRANCH  10  13
ENDBRANCH   6  10
ENDBRANCH   1   6
BRANCH   3  23
ATOM     23  C15 UNL     1      -0.399   3.314   2.549  1.00  0.00     0.095 A   
ATOM     24  C16 UNL     1      -1.544   3.139   3.349  1.00  0.00     0.060 A   
ATOM     25  C20 UNL     1       0.539   4.286   2.910  1.00  0.00     0.146 A   
ATOM     26  C17 UNL     1      -1.728   3.936   4.491  1.00  0.00     0.120 A   
ATOM     27  C19 UNL     1       0.351   5.076   4.046  1.00  0.00     0.043 A   
ATOM     28  C18 UNL     1      -0.782   4.906   4.843  1.00  0.00     0.034 A   
ATOM     29  F1  UNL     1       1.647   4.497   2.190  1.00  0.00    -0.205 F   
BRANCH  26  30
ATOM     30  N3  UNL     1      -2.924   3.748   5.327  1.00  0.00     0.092 N   
ATOM     31  O3  UNL     1      -3.709   2.846   5.004  1.00  0.00    -0.138 OA  
ATOM     32  O4  UNL     1      -3.068   4.500   6.299  1.00  0.00    -0.138 OA  
ENDBRANCH  26  30
ENDBRANCH   3  23
TORSDOF 7
