REMARK SMILES Cc1ccc(CCn2cc([C@H](CC(C)C)[NH2+]Cc3ccc4c(c3)OCO4)nn2)cc1F
REMARK SMILES IDX 8 1 9 2 10 3 27 4 28 5 7 7 6 8 5 9 2 10 3 11 30 12 4 13
REMARK SMILES IDX 29 14 1 15 31 16 11 17 12 18 13 19 14 20 15 21 16 22 17 25
REMARK SMILES IDX 18 26 19 27 23 28 20 29 22 30 21 31 24 32 26 33 25 34
REMARK H PARENT 9 6 16 23 16 24
ROOT
ATOM     1   N1  UNL     1       1.846   0.154   3.583  1.00  0.00    -0.212 N   
ATOM     2   C8  UNL     1       1.132   0.245   2.422  1.00  0.00     0.045 A   
ATOM     3   C9  UNL     1       1.742   1.268   1.732  1.00  0.00     0.127 A   
ATOM     4   N3  UNL     1       2.735   1.803   2.510  1.00  0.00    -0.132 NA  
ATOM     5   N4  UNL     1       2.780   1.120   3.643  1.00  0.00    -0.076 NA  
ATOM     6   H10 UNL     1       0.335  -0.437   2.172  1.00  0.00     0.083 HD  
ENDROOT
BRANCH   1   7
ATOM     7   C7  UNL     1       1.693  -0.793   4.671  1.00  0.00     0.139 C   
BRANCH   7   8
ATOM     8   C6  UNL     1       2.344  -2.151   4.389  1.00  0.00     0.057 C   
BRANCH   8   9
ATOM     9   C5  UNL     1       1.568  -2.964   3.381  1.00  0.00    -0.043 A   
ATOM     10  C2  UNL     1       0.058  -4.376   1.465  1.00  0.00    -0.015 A   
ATOM     11  C3  UNL     1      -0.406  -4.247   2.781  1.00  0.00     0.007 A   
ATOM     12  C24 UNL     1       1.281  -3.799   1.128  1.00  0.00     0.126 A   
ATOM     13  C4  UNL     1       0.343  -3.550   3.729  1.00  0.00     0.004 A   
ATOM     14  C23 UNL     1       2.040  -3.108   2.070  1.00  0.00     0.043 A   
ATOM     15  C1  UNL     1      -0.727  -5.108   0.432  1.00  0.00     0.047 C   
ATOM     16  F1  UNL     1       1.735  -3.879  -0.134  1.00  0.00    -0.207 F   
ENDBRANCH   8   9
ENDBRANCH   7   8
ENDBRANCH   1   7
BRANCH   3  17
ATOM     17  C10 UNL     1       1.492   1.824   0.372  1.00  0.00     0.114 C   
BRANCH  17  18
ATOM     18  C11 UNL     1       2.482   1.277  -0.675  1.00  0.00     0.064 C   
BRANCH  18  19
ATOM     19  C12 UNL     1       2.395  -0.244  -0.932  1.00  0.00    -0.012 C   
ATOM     20  C13 UNL     1       3.496  -0.670  -1.914  1.00  0.00     0.007 C   
ATOM     21  C14 UNL     1       1.025  -0.667  -1.478  1.00  0.00     0.007 C   
ENDBRANCH  18  19
ENDBRANCH  17  18
BRANCH  17  22
ATOM     22  N2  UNL     1       1.669   3.326   0.377  1.00  0.00     0.249 N   
ATOM     23  H21 UNL     1       2.594   3.499   0.800  1.00  0.00     0.199 HD  
ATOM     24  H22 UNL     1       1.699   3.672  -0.584  1.00  0.00     0.199 HD  
BRANCH  22  25
ATOM     25  C15 UNL     1       0.669   4.118   1.151  1.00  0.00     0.164 C   
BRANCH  25  26
ATOM     26  C16 UNL     1      -0.735   3.939   0.652  1.00  0.00    -0.002 A   
ATOM     27  C17 UNL     1      -1.131   4.481  -0.594  1.00  0.00     0.012 A   
ATOM     28  C21 UNL     1      -1.650   3.187   1.405  1.00  0.00     0.045 A   
ATOM     29  C18 UNL     1      -2.417   4.270  -1.090  1.00  0.00     0.037 A   
ATOM     30  C20 UNL     1      -2.909   2.984   0.880  1.00  0.00     0.109 A   
ATOM     31  C19 UNL     1      -3.283   3.511  -0.330  1.00  0.00     0.108 A   
ATOM     32  O1  UNL     1      -3.898   2.257   1.459  1.00  0.00    -0.316 OA  
ATOM     33  O2  UNL     1      -4.556   3.185  -0.666  1.00  0.00    -0.316 OA  
ATOM     34  C22 UNL     1      -4.952   2.403   0.480  1.00  0.00     0.337 C   
ENDBRANCH  25  26
ENDBRANCH  22  25
ENDBRANCH  17  22
ENDBRANCH   3  17
TORSDOF 9
