REMARK SMILES Cc1cc(Cn2cc([C@@H]([NH2+]Cc3ccc4c(c3)OCO4)C(C)(C)C)nn2)c(C)[nH]1
REMARK SMILES IDX 6 1 7 2 8 3 25 4 26 5 5 7 4 8 2 9 3 10 29 11 27 12 1 13
REMARK SMILES IDX 28 15 9 16 10 17 11 20 12 21 13 22 17 23 14 24 16 25 15 26
REMARK SMILES IDX 18 27 20 28 19 29 21 30 22 31 23 32 24 33
REMARK H PARENT 7 6 29 14 10 18 10 19
ROOT
ATOM     1   N1  UNL     1      -0.549  -1.040  -2.546  1.00  0.00    -0.208 N   
ATOM     2   C6  UNL     1       0.315  -1.463  -1.570  1.00  0.00     0.046 A   
ATOM     3   C7  UNL     1      -0.480  -1.594  -0.454  1.00  0.00     0.127 A   
ATOM     4   N3  UNL     1      -1.770  -1.260  -0.779  1.00  0.00    -0.132 NA  
ATOM     5   N4  UNL     1      -1.801  -0.927  -2.058  1.00  0.00    -0.076 NA  
ATOM     6   H7  UNL     1       1.372  -1.592  -1.756  1.00  0.00     0.083 HD  
ENDROOT
BRANCH   1   7
ATOM     7   C5  UNL     1      -0.253  -0.720  -3.933  1.00  0.00     0.171 C   
BRANCH   7   8
ATOM     8   C4  UNL     1       0.531   0.551  -4.020  1.00  0.00    -0.010 A   
ATOM     9   C2  UNL     1       1.053   2.759  -3.955  1.00  0.00     0.004 A   
ATOM     10  C3  UNL     1       0.029   1.859  -3.757  1.00  0.00     0.025 A   
ATOM     11  N5  UNL     1       2.157   2.047  -4.347  1.00  0.00    -0.322 N   
ATOM     12  C21 UNL     1       1.864   0.705  -4.382  1.00  0.00     0.008 A   
ATOM     13  C1  UNL     1       1.074   4.237  -3.833  1.00  0.00     0.061 C   
ATOM     14  H30 UNL     1       3.052   2.455  -4.588  1.00  0.00     0.152 HD  
ATOM     15  C22 UNL     1       2.891  -0.296  -4.773  1.00  0.00     0.062 C   
ENDBRANCH   7   8
ENDBRANCH   1   7
BRANCH   3  16
ATOM     16  C8  UNL     1      -0.145  -1.919   0.970  1.00  0.00     0.120 C   
BRANCH  16  17
ATOM     17  N2  UNL     1      -1.003  -1.056   1.865  1.00  0.00     0.250 N   
ATOM     18  H9  UNL     1      -1.956  -1.087   1.472  1.00  0.00     0.199 HD  
ATOM     19  H10 UNL     1      -1.076  -1.421   2.818  1.00  0.00     0.199 HD  
BRANCH  17  20
ATOM     20  C9  UNL     1      -0.610   0.380   1.929  1.00  0.00     0.164 C   
BRANCH  20  21
ATOM     21  C10 UNL     1      -1.618   1.163   2.721  1.00  0.00    -0.002 A   
ATOM     22  C11 UNL     1      -2.751   1.716   2.076  1.00  0.00     0.012 A   
ATOM     23  C15 UNL     1      -1.476   1.302   4.112  1.00  0.00     0.045 A   
ATOM     24  C12 UNL     1      -3.722   2.412   2.803  1.00  0.00     0.037 A   
ATOM     25  C14 UNL     1      -2.454   1.991   4.798  1.00  0.00     0.109 A   
ATOM     26  C13 UNL     1      -3.544   2.533   4.163  1.00  0.00     0.108 A   
ATOM     27  O1  UNL     1      -2.471   2.212   6.138  1.00  0.00    -0.316 OA  
ATOM     28  O2  UNL     1      -4.382   3.167   5.023  1.00  0.00    -0.316 OA  
ATOM     29  C16 UNL     1      -3.691   2.976   6.274  1.00  0.00     0.337 C   
ENDBRANCH  20  21
ENDBRANCH  17  20
ENDBRANCH  16  17
BRANCH  16  30
ATOM     30  C17 UNL     1      -0.312  -3.432   1.344  1.00  0.00     0.010 C   
ATOM     31  C18 UNL     1       0.217  -3.687   2.775  1.00  0.00     0.017 C   
ATOM     32  C19 UNL     1       0.526  -4.314   0.392  1.00  0.00     0.017 C   
ATOM     33  C20 UNL     1      -1.778  -3.905   1.279  1.00  0.00     0.017 C   
ENDBRANCH  16  30
ENDBRANCH   3  16
TORSDOF 7
