REMARK SMILES CC(C)(C)[C@H]([NH2+]Cc1ccc2c(c1)OCO2)c1cn(CCc2[nH]nc3c2CCCC3)nn1
REMARK SMILES IDX 17 1 18 2 19 3 31 4 32 5 5 7 2 8 1 9 3 10 4 11 6 12 7 15
REMARK SMILES IDX 8 16 9 17 13 18 10 19 12 20 11 21 14 22 16 23 15 24 20 25
REMARK SMILES IDX 21 26 22 27 23 28 26 29 24 30 25 31 27 32 30 33 28 34 29 35
REMARK H PARENT 18 6 6 13 6 14 23 36
ROOT
ATOM     1   C14 UNL     1       1.046   0.117   1.610  1.00  0.00     0.127 A   
ATOM     2   C15 UNL     1       1.490  -1.174   1.820  1.00  0.00     0.045 A   
ATOM     3   N2  UNL     1       2.856  -1.065   1.856  1.00  0.00    -0.212 N   
ATOM     4   N5  UNL     1       3.230   0.228   1.791  1.00  0.00    -0.076 NA  
ATOM     5   N6  UNL     1       2.135   0.957   1.633  1.00  0.00    -0.132 NA  
ATOM     6   H20 UNL     1       1.006  -2.140   1.823  1.00  0.00     0.083 HD  
ENDROOT
BRANCH   1   7
ATOM     7   C5  UNL     1      -0.291   0.683   1.210  1.00  0.00     0.120 C   
BRANCH   7   8
ATOM     8   C2  UNL     1      -1.577  -0.052   1.736  1.00  0.00     0.010 C   
ATOM     9   C1  UNL     1      -1.871  -1.384   1.011  1.00  0.00     0.017 C   
ATOM     10  C3  UNL     1      -2.809   0.869   1.536  1.00  0.00     0.017 C   
ATOM     11  C4  UNL     1      -1.474  -0.326   3.254  1.00  0.00     0.017 C   
ENDBRANCH   7   8
BRANCH   7  12
ATOM     12  N1  UNL     1      -0.350   0.830  -0.302  1.00  0.00     0.250 N   
ATOM     13  H11 UNL     1       0.207   0.060  -0.732  1.00  0.00     0.199 HD  
ATOM     14  H12 UNL     1      -1.297   0.720  -0.663  1.00  0.00     0.199 HD  
BRANCH  12  15
ATOM     15  C6  UNL     1       0.232   2.079  -0.879  1.00  0.00     0.164 C   
BRANCH  15  16
ATOM     16  C7  UNL     1      -0.527   3.329  -0.536  1.00  0.00    -0.002 A   
ATOM     17  C8  UNL     1      -1.877   3.503  -0.925  1.00  0.00     0.012 A   
ATOM     18  C12 UNL     1       0.126   4.362   0.162  1.00  0.00     0.045 A   
ATOM     19  C9  UNL     1      -2.577   4.671  -0.597  1.00  0.00     0.037 A   
ATOM     20  C11 UNL     1      -0.584   5.508   0.451  1.00  0.00     0.109 A   
ATOM     21  C10 UNL     1      -1.901   5.655   0.091  1.00  0.00     0.108 A   
ATOM     22  O1  UNL     1      -0.092   6.599   1.096  1.00  0.00    -0.316 OA  
ATOM     23  O2  UNL     1      -2.409   6.855   0.475  1.00  0.00    -0.316 OA  
ATOM     24  C13 UNL     1      -1.246   7.469   1.074  1.00  0.00     0.337 C   
ENDBRANCH  15  16
ENDBRANCH  12  15
ENDBRANCH   7  12
ENDBRANCH   1   7
BRANCH   3  25
ATOM     25  C16 UNL     1       3.816  -2.119   1.566  1.00  0.00     0.140 C   
BRANCH  25  26
ATOM     26  C17 UNL     1       4.362  -2.046   0.123  1.00  0.00     0.074 C   
BRANCH  26  27
ATOM     27  C18 UNL     1       3.270  -1.863  -0.886  1.00  0.00     0.032 A   
ATOM     28  N3  UNL     1       2.762  -0.612  -1.152  1.00  0.00    -0.242 N   
ATOM     29  C20 UNL     1       2.538  -2.725  -1.669  1.00  0.00    -0.006 A   
ATOM     30  N4  UNL     1       1.552  -0.653  -1.768  1.00  0.00    -0.189 NA  
ATOM     31  C19 UNL     1       1.498  -1.921  -2.203  1.00  0.00     0.063 A   
ATOM     32  C21 UNL     1       2.653  -4.188  -1.917  1.00  0.00     0.039 C   
ATOM     33  C24 UNL     1       0.445  -2.437  -3.124  1.00  0.00     0.058 C   
ATOM     34  C22 UNL     1       1.799  -4.608  -3.127  1.00  0.00     0.005 C   
ATOM     35  C23 UNL     1       0.395  -3.975  -3.098  1.00  0.00     0.007 C   
ATOM     36  H25 UNL     1       3.102   0.266  -0.767  1.00  0.00     0.175 HD  
ENDBRANCH  26  27
ENDBRANCH  25  26
ENDBRANCH   3  25
TORSDOF 8
