REMARK SMILES NS(=O)(=O)c1ccc(-n2cc([C@@H]([NH2+]Cc3ccc4c(c3)OCO4)C3CCCCC3)nn2)cc1
REMARK SMILES IDX 9 1 10 2 11 3 30 4 31 5 8 6 5 7 6 8 33 9 7 10 32 11 2 12
REMARK SMILES IDX 3 13 4 14 1 15 12 18 13 19 14 22 15 23 16 24 20 25 17 26
REMARK SMILES IDX 19 27 18 28 21 29 23 30 22 31 24 32 25 33 29 34 26 35 28 36
REMARK SMILES IDX 27 37
REMARK H PARENT 1 16 1 17 13 20 13 21
ROOT
ATOM     1   N2  UNL     1      -0.177   0.433  -1.132  1.00  0.00    -0.181 N   
ATOM     2   C5  UNL     1       1.075   0.933  -0.828  1.00  0.00     0.135 A   
ATOM     3   C6  UNL     1       1.744  -0.120  -0.244  1.00  0.00     0.127 A   
ATOM     4   N4  UNL     1       0.942  -1.224  -0.254  1.00  0.00    -0.131 NA  
ATOM     5   N5  UNL     1      -0.211  -0.886  -0.806  1.00  0.00    -0.071 NA  
ENDROOT
BRANCH   1   6
ATOM     6   C4  UNL     1      -1.313   1.113  -1.639  1.00  0.00     0.058 A   
ATOM     7   C1  UNL     1      -3.590   2.429  -2.588  1.00  0.00     0.338 A   
ATOM     8   C2  UNL     1      -3.640   1.054  -2.340  1.00  0.00     0.140 A   
ATOM     9   C23 UNL     1      -2.411   3.147  -2.378  1.00  0.00     0.140 A   
ATOM     10  C3  UNL     1      -2.503   0.398  -1.861  1.00  0.00     0.038 A   
ATOM     11  C22 UNL     1      -1.272   2.490  -1.901  1.00  0.00     0.038 A   
BRANCH   7  12
ATOM     12  S1  UNL     1      -5.027   3.249  -3.220  1.00  0.00    -0.114 S   
ATOM     13  O1  UNL     1      -4.673   4.599  -3.588  1.00  0.00    -0.479 OA  
ATOM     14  O2  UNL     1      -5.721   2.349  -4.111  1.00  0.00    -0.479 OA  
BRANCH  12  15
ATOM     15  N1  UNL     1      -5.981   3.387  -1.842  1.00  0.00    -0.094 NA  
ATOM     16  H1  UNL     1      -6.854   2.872  -1.980  1.00  0.00     0.263 HD  
ATOM     17  H2  UNL     1      -6.135   4.378  -1.641  1.00  0.00     0.263 HD  
ENDBRANCH  12  15
ENDBRANCH   7  12
ENDBRANCH   1   6
BRANCH   3  18
ATOM     18  C7  UNL     1       3.058  -0.181   0.475  1.00  0.00     0.117 C   
BRANCH  18  19
ATOM     19  N3  UNL     1       2.806  -0.861   1.815  1.00  0.00     0.249 N   
ATOM     20  H7  UNL     1       1.975  -1.460   1.675  1.00  0.00     0.199 HD  
ATOM     21  H8  UNL     1       3.557  -1.514   2.054  1.00  0.00     0.199 HD  
BRANCH  19  22
ATOM     22  C8  UNL     1       2.545   0.037   2.982  1.00  0.00     0.164 C   
BRANCH  22  23
ATOM     23  C9  UNL     1       1.381   0.971   2.788  1.00  0.00    -0.002 A   
ATOM     24  C10 UNL     1       1.603   2.355   2.586  1.00  0.00     0.012 A   
ATOM     25  C14 UNL     1       0.068   0.470   2.744  1.00  0.00     0.045 A   
ATOM     26  C11 UNL     1       0.540   3.223   2.309  1.00  0.00     0.037 A   
ATOM     27  C13 UNL     1      -0.957   1.351   2.464  1.00  0.00     0.109 A   
ATOM     28  C12 UNL     1      -0.727   2.687   2.245  1.00  0.00     0.108 A   
ATOM     29  O3  UNL     1      -2.270   1.024   2.349  1.00  0.00    -0.316 OA  
ATOM     30  O4  UNL     1      -1.865   3.368   1.958  1.00  0.00    -0.316 OA  
ATOM     31  C15 UNL     1      -2.850   2.314   2.049  1.00  0.00     0.337 C   
ENDBRANCH  22  23
ENDBRANCH  19  22
ENDBRANCH  18  19
BRANCH  18  32
ATOM     32  C16 UNL     1       4.149  -0.972  -0.305  1.00  0.00     0.043 C   
ATOM     33  C17 UNL     1       5.524  -0.972   0.403  1.00  0.00     0.010 C   
ATOM     34  C21 UNL     1       4.355  -0.445  -1.744  1.00  0.00     0.010 C   
ATOM     35  C18 UNL     1       6.206   0.396   0.384  1.00  0.00     0.001 C   
ATOM     36  C20 UNL     1       5.009   0.936  -1.780  1.00  0.00     0.001 C   
ATOM     37  C19 UNL     1       6.340   0.942  -1.034  1.00  0.00     0.000 C   
ENDBRANCH  18  32
ENDBRANCH   3  18
TORSDOF 8
