REMARK SMILES CC(C)(C)[C@H]([NH2+]Cc1ccc2c(c1)OCO2)c1cn(CCc2cnc3ccccn23)nn1
REMARK SMILES IDX 17 1 18 2 19 3 31 4 32 5 5 7 2 8 1 9 3 10 4 11 6 12 7 15
REMARK SMILES IDX 8 16 9 17 13 18 10 19 12 20 11 21 14 22 16 23 15 24 20 25
REMARK SMILES IDX 21 26 22 27 23 28 30 29 24 30 25 31 29 32 26 33 28 34 27 35
REMARK H PARENT 18 6 6 13 6 14
ROOT
ATOM     1   C14 UNL     1      -1.086  -1.294   2.033  1.00  0.00     0.127 A   
ATOM     2   C15 UNL     1      -0.930  -0.501   3.148  1.00  0.00     0.045 A   
ATOM     3   N2  UNL     1       0.225  -0.956   3.715  1.00  0.00    -0.212 N   
ATOM     4   N5  UNL     1       0.708  -2.014   3.043  1.00  0.00    -0.076 NA  
ATOM     5   N6  UNL     1      -0.077  -2.219   1.997  1.00  0.00    -0.132 NA  
ATOM     6   H20 UNL     1      -1.459   0.362   3.522  1.00  0.00     0.083 HD  
ENDROOT
BRANCH   1   7
ATOM     7   C5  UNL     1      -2.026  -1.154   0.876  1.00  0.00     0.120 C   
BRANCH   7   8
ATOM     8   C2  UNL     1      -3.128  -2.263   0.792  1.00  0.00     0.010 C   
ATOM     9   C1  UNL     1      -4.116  -1.952  -0.355  1.00  0.00     0.017 C   
ATOM     10  C3  UNL     1      -3.947  -2.286   2.105  1.00  0.00     0.017 C   
ATOM     11  C4  UNL     1      -2.559  -3.673   0.559  1.00  0.00     0.017 C   
ENDBRANCH   7   8
BRANCH   7  12
ATOM     12  N1  UNL     1      -1.233  -1.080  -0.408  1.00  0.00     0.250 N   
ATOM     13  H11 UNL     1      -0.678  -1.941  -0.493  1.00  0.00     0.199 HD  
ATOM     14  H12 UNL     1      -1.845  -1.037  -1.223  1.00  0.00     0.199 HD  
BRANCH  12  15
ATOM     15  C6  UNL     1      -0.268   0.064  -0.487  1.00  0.00     0.164 C   
BRANCH  15  16
ATOM     16  C7  UNL     1       0.268   0.203  -1.883  1.00  0.00    -0.002 A   
ATOM     17  C8  UNL     1      -0.308   1.135  -2.779  1.00  0.00     0.012 A   
ATOM     18  C12 UNL     1       1.333  -0.609  -2.316  1.00  0.00     0.045 A   
ATOM     19  C9  UNL     1       0.177   1.269  -4.084  1.00  0.00     0.037 A   
ATOM     20  C11 UNL     1       1.785  -0.452  -3.609  1.00  0.00     0.109 A   
ATOM     21  C10 UNL     1       1.225   0.461  -4.469  1.00  0.00     0.108 A   
ATOM     22  O1  UNL     1       2.808  -1.146  -4.181  1.00  0.00    -0.316 OA  
ATOM     23  O2  UNL     1       1.825   0.460  -5.689  1.00  0.00    -0.316 OA  
ATOM     24  C13 UNL     1       2.790  -0.599  -5.521  1.00  0.00     0.337 C   
ENDBRANCH  15  16
ENDBRANCH  12  15
ENDBRANCH   7  12
ENDBRANCH   1   7
BRANCH   3  25
ATOM     25  C16 UNL     1       1.006  -0.310   4.750  1.00  0.00     0.140 C   
BRANCH  25  26
ATOM     26  C17 UNL     1       2.379   0.176   4.264  1.00  0.00     0.075 C   
BRANCH  26  27
ATOM     27  C18 UNL     1       2.317   0.981   2.999  1.00  0.00     0.036 A   
ATOM     28  C19 UNL     1       1.485   2.023   2.635  1.00  0.00     0.133 A   
ATOM     29  N4  UNL     1       3.128   0.777   1.895  1.00  0.00    -0.263 N   
ATOM     30  N3  UNL     1       1.665   2.377   1.327  1.00  0.00    -0.239 NA  
ATOM     31  C20 UNL     1       2.698   1.673   0.917  1.00  0.00     0.128 A   
ATOM     32  C24 UNL     1       4.167  -0.126   1.681  1.00  0.00     0.082 A   
ATOM     33  C21 UNL     1       3.385   1.663  -0.331  1.00  0.00     0.045 A   
ATOM     34  C23 UNL     1       4.795  -0.145   0.493  1.00  0.00     0.016 A   
ATOM     35  C22 UNL     1       4.386   0.788  -0.538  1.00  0.00     0.005 A   
ENDBRANCH  26  27
ENDBRANCH  25  26
ENDBRANCH   3  25
TORSDOF 8
