REMARK SMILES COc1ncc(F)cc1Cn1cc([C@@H]([NH2+]Cc2ccc3c(c2)OCO3)C(C)(C)C)nn1
REMARK SMILES IDX 11 1 12 2 13 3 30 4 31 5 10 7 9 8 3 9 4 10 5 11 8 12 6 13
REMARK SMILES IDX 7 14 2 15 1 16 14 17 15 18 16 21 17 22 18 23 22 24 19 25
REMARK SMILES IDX 21 26 20 27 23 28 25 29 24 30 26 31 27 32 28 33 29 34
REMARK H PARENT 12 6 15 19 15 20
ROOT
ATOM     1   N2  UNL     1       0.509  -1.945  -1.732  1.00  0.00    -0.208 N   
ATOM     2   C8  UNL     1       1.421  -1.939  -0.712  1.00  0.00     0.046 A   
ATOM     3   C9  UNL     1       0.702  -1.497   0.376  1.00  0.00     0.127 A   
ATOM     4   N4  UNL     1      -0.592  -1.254  -0.009  1.00  0.00    -0.132 NA  
ATOM     5   N5  UNL     1      -0.698  -1.532  -1.298  1.00  0.00    -0.076 NA  
ATOM     6   H8  UNL     1       2.454  -2.220  -0.860  1.00  0.00     0.083 HD  
ENDROOT
BRANCH   1   7
ATOM     7   C7  UNL     1       0.712  -2.309  -3.124  1.00  0.00     0.174 C   
BRANCH   7   8
ATOM     8   C6  UNL     1       0.988  -1.092  -3.960  1.00  0.00     0.024 A   
ATOM     9   C2  UNL     1       2.264  -0.532  -4.042  1.00  0.00     0.171 A   
ATOM     10  N1  UNL     1       2.554   0.585  -4.745  1.00  0.00    -0.229 NA  
ATOM     11  C3  UNL     1       1.532   1.165  -5.420  1.00  0.00     0.153 A   
ATOM     12  C5  UNL     1      -0.044  -0.454  -4.662  1.00  0.00     0.050 A   
ATOM     13  C4  UNL     1       0.238   0.684  -5.402  1.00  0.00     0.142 A   
ATOM     14  F1  UNL     1      -0.734   1.308  -6.077  1.00  0.00    -0.205 F   
BRANCH   9  15
ATOM     15  O1  UNL     1       3.272  -1.150  -3.326  1.00  0.00    -0.332 OA  
ATOM     16  C1  UNL     1       4.568  -0.633  -3.627  1.00  0.00     0.205 C   
ENDBRANCH   9  15
ENDBRANCH   7   8
ENDBRANCH   1   7
BRANCH   3  17
ATOM     17  C10 UNL     1       1.122  -1.181   1.781  1.00  0.00     0.120 C   
BRANCH  17  18
ATOM     18  N3  UNL     1       0.334   0.019   2.255  1.00  0.00     0.250 N   
ATOM     19  H10 UNL     1      -0.645  -0.144   1.974  1.00  0.00     0.199 HD  
ATOM     20  H11 UNL     1       0.325   0.109   3.274  1.00  0.00     0.199 HD  
BRANCH  18  21
ATOM     21  C11 UNL     1       0.745   1.324   1.665  1.00  0.00     0.164 C   
BRANCH  21  22
ATOM     22  C12 UNL     1      -0.177   2.417   2.124  1.00  0.00    -0.002 A   
ATOM     23  C13 UNL     1      -1.381   2.671   1.423  1.00  0.00     0.012 A   
ATOM     24  C17 UNL     1       0.119   3.155   3.283  1.00  0.00     0.045 A   
ATOM     25  C14 UNL     1      -2.274   3.654   1.862  1.00  0.00     0.037 A   
ATOM     26  C16 UNL     1      -0.784   4.117   3.687  1.00  0.00     0.109 A   
ATOM     27  C15 UNL     1      -1.946   4.360   2.998  1.00  0.00     0.108 A   
ATOM     28  O2  UNL     1      -0.651   4.915   4.779  1.00  0.00    -0.316 OA  
ATOM     29  O3  UNL     1      -2.691   5.342   3.567  1.00  0.00    -0.316 OA  
ATOM     30  C18 UNL     1      -1.858   5.706   4.689  1.00  0.00     0.337 C   
ENDBRANCH  21  22
ENDBRANCH  18  21
ENDBRANCH  17  18
BRANCH  17  31
ATOM     31  C19 UNL     1       0.958  -2.374   2.786  1.00  0.00     0.010 C   
ATOM     32  C20 UNL     1       1.738  -3.609   2.280  1.00  0.00     0.017 C   
ATOM     33  C21 UNL     1      -0.514  -2.781   2.992  1.00  0.00     0.017 C   
ATOM     34  C22 UNL     1       1.556  -2.000   4.163  1.00  0.00     0.017 C   
ENDBRANCH  17  31
ENDBRANCH   3  17
TORSDOF 8
