REMARK SMILES c1cnc2c(c1)CCC[C@@H]2n1cc([C@@H]([NH2+]Cc2ccc3c(c2)OCO3)C2CCCC2)nn1
REMARK SMILES IDX 14 1 13 2 11 3 12 4 32 5 31 6 10 8 1 9 2 10 6 11 3 12 5 13
REMARK SMILES IDX 4 14 7 15 8 16 9 17 15 18 16 21 17 22 18 23 22 24 19 25
REMARK SMILES IDX 21 26 20 27 23 28 25 29 24 30 26 31 27 32 30 33 28 34 29 35
REMARK H PARENT 12 7 15 19 15 20
ROOT
ATOM     1   C12 UNL     1      -0.692  -0.461   1.417  1.00  0.00     0.117 C   
ENDROOT
BRANCH   1   2
ATOM     2   C11 UNL     1       0.313  -0.526   0.319  1.00  0.00     0.127 A   
ATOM     3   N2  UNL     1       1.446  -0.389  -1.521  1.00  0.00    -0.203 N   
ATOM     4   C10 UNL     1       0.529   0.294  -0.766  1.00  0.00     0.046 A   
ATOM     5   N5  UNL     1       1.827  -1.524  -0.893  1.00  0.00    -0.075 NA  
ATOM     6   N4  UNL     1       1.125  -1.625   0.223  1.00  0.00    -0.132 NA  
ATOM     7   H11 UNL     1       0.098   1.228  -1.092  1.00  0.00     0.083 HD  
BRANCH   3   8
ATOM     8   C9  UNL     1       1.976  -0.022  -2.833  1.00  0.00     0.149 C   
ATOM     9   C1  UNL     1      -0.384  -1.753  -5.953  1.00  0.00     0.020 A   
ATOM     10  C2  UNL     1      -0.927  -1.241  -4.791  1.00  0.00     0.111 A   
ATOM     11  C5  UNL     1       0.996  -1.707  -6.107  1.00  0.00     0.007 A   
ATOM     12  N1  UNL     1      -0.193  -0.705  -3.788  1.00  0.00    -0.259 NA  
ATOM     13  C4  UNL     1       1.794  -1.153  -5.099  1.00  0.00    -0.024 A   
ATOM     14  C3  UNL     1       1.164  -0.685  -3.938  1.00  0.00     0.066 A   
ATOM     15  C6  UNL     1       3.290  -1.129  -5.271  1.00  0.00     0.037 C   
ATOM     16  C7  UNL     1       3.967  -0.096  -4.372  1.00  0.00     0.007 C   
ATOM     17  C8  UNL     1       3.492  -0.267  -2.935  1.00  0.00     0.032 C   
ENDBRANCH   3   8
ENDBRANCH   1   2
BRANCH   1  18
ATOM     18  N3  UNL     1      -1.319  -1.832   1.583  1.00  0.00     0.249 N   
ATOM     19  H13 UNL     1      -0.534  -2.495   1.663  1.00  0.00     0.199 HD  
ATOM     20  H14 UNL     1      -1.856  -1.886   2.452  1.00  0.00     0.199 HD  
BRANCH  18  21
ATOM     21  C13 UNL     1      -2.176  -2.302   0.449  1.00  0.00     0.164 C   
BRANCH  21  22
ATOM     22  C14 UNL     1      -3.421  -1.475   0.283  1.00  0.00    -0.002 A   
ATOM     23  C15 UNL     1      -3.563  -0.617  -0.835  1.00  0.00     0.012 A   
ATOM     24  C19 UNL     1      -4.437  -1.520   1.255  1.00  0.00     0.045 A   
ATOM     25  C16 UNL     1      -4.692   0.198  -0.978  1.00  0.00     0.037 A   
ATOM     26  C18 UNL     1      -5.534  -0.700   1.085  1.00  0.00     0.109 A   
ATOM     27  C17 UNL     1      -5.658   0.136   0.003  1.00  0.00     0.108 A   
ATOM     28  O1  UNL     1      -6.591  -0.608   1.936  1.00  0.00    -0.316 OA  
ATOM     29  O2  UNL     1      -6.809   0.857   0.036  1.00  0.00    -0.316 OA  
ATOM     30  C20 UNL     1      -7.423   0.346   1.239  1.00  0.00     0.337 C   
ENDBRANCH  21  22
ENDBRANCH  18  21
ENDBRANCH   1  18
BRANCH   1  31
ATOM     31  C21 UNL     1      -0.062  -0.045   2.760  1.00  0.00     0.043 C   
ATOM     32  C22 UNL     1       0.494   1.383   2.751  1.00  0.00     0.010 C   
ATOM     33  C25 UNL     1      -1.050   0.003   3.932  1.00  0.00     0.010 C   
ATOM     34  C23 UNL     1       0.695   1.688   4.229  1.00  0.00     0.001 C   
ATOM     35  C24 UNL     1      -0.455   0.984   4.942  1.00  0.00     0.001 C   
ENDBRANCH   1  31
TORSDOF 6
