REMARK SMILES c1cnc2c(c1)CCC[C@H]2n1cc([C@@H]([NH2+]Cc2ccc3c(c2)OCO3)C2CCCC2)nn1
REMARK SMILES IDX 14 1 13 2 11 3 12 4 32 5 31 6 10 8 1 9 2 10 6 11 3 12 5 13
REMARK SMILES IDX 4 14 7 15 8 16 9 17 15 18 16 21 17 22 18 23 22 24 19 25
REMARK SMILES IDX 21 26 20 27 23 28 25 29 24 30 26 31 27 32 30 33 28 34 29 35
REMARK H PARENT 12 7 15 19 15 20
ROOT
ATOM     1   C12 UNL     1      -1.801   1.154  -0.669  1.00  0.00     0.117 C   
ENDROOT
BRANCH   1   2
ATOM     2   C11 UNL     1      -0.829   2.103  -0.054  1.00  0.00     0.127 A   
ATOM     3   N2  UNL     1       0.862   3.090   0.872  1.00  0.00    -0.203 N   
ATOM     4   C10 UNL     1       0.543   2.049   0.041  1.00  0.00     0.046 A   
ATOM     5   N5  UNL     1      -0.249   3.782   1.205  1.00  0.00    -0.075 NA  
ATOM     6   N4  UNL     1      -1.288   3.184   0.647  1.00  0.00    -0.132 NA  
ATOM     7   H11 UNL     1       1.283   1.355  -0.335  1.00  0.00     0.083 HD  
BRANCH   3   8
ATOM     8   C9  UNL     1       2.157   3.491   1.426  1.00  0.00     0.149 C   
ATOM     9   C1  UNL     1       4.648   0.078   2.047  1.00  0.00     0.020 A   
ATOM     10  C2  UNL     1       3.475   0.300   2.741  1.00  0.00     0.111 A   
ATOM     11  C5  UNL     1       5.028   1.007   1.085  1.00  0.00     0.007 A   
ATOM     12  N1  UNL     1       2.671   1.367   2.533  1.00  0.00    -0.259 NA  
ATOM     13  C4  UNL     1       4.230   2.132   0.846  1.00  0.00    -0.024 A   
ATOM     14  C3  UNL     1       3.066   2.287   1.609  1.00  0.00     0.066 A   
ATOM     15  C6  UNL     1       4.678   3.162  -0.157  1.00  0.00     0.037 C   
ATOM     16  C7  UNL     1       3.548   4.084  -0.606  1.00  0.00     0.007 C   
ATOM     17  C8  UNL     1       2.792   4.623   0.604  1.00  0.00     0.032 C   
ENDBRANCH   3   8
ENDBRANCH   1   2
BRANCH   1  18
ATOM     18  N3  UNL     1      -2.909   0.837   0.316  1.00  0.00     0.249 N   
ATOM     19  H13 UNL     1      -3.607   0.230  -0.120  1.00  0.00     0.199 HD  
ATOM     20  H14 UNL     1      -3.368   1.731   0.536  1.00  0.00     0.199 HD  
BRANCH  18  21
ATOM     21  C13 UNL     1      -2.494   0.232   1.620  1.00  0.00     0.164 C   
BRANCH  21  22
ATOM     22  C14 UNL     1      -1.770  -1.077   1.470  1.00  0.00    -0.002 A   
ATOM     23  C15 UNL     1      -0.388  -1.163   1.773  1.00  0.00     0.012 A   
ATOM     24  C19 UNL     1      -2.449  -2.219   1.010  1.00  0.00     0.045 A   
ATOM     25  C16 UNL     1       0.311  -2.363   1.612  1.00  0.00     0.037 A   
ATOM     26  C18 UNL     1      -1.729  -3.386   0.864  1.00  0.00     0.109 A   
ATOM     27  C17 UNL     1      -0.389  -3.457   1.155  1.00  0.00     0.108 A   
ATOM     28  O1  UNL     1      -2.227  -4.572   0.425  1.00  0.00    -0.316 OA  
ATOM     29  O2  UNL     1       0.124  -4.697   0.942  1.00  0.00    -0.316 OA  
ATOM     30  C20 UNL     1      -1.052  -5.411   0.506  1.00  0.00     0.337 C   
ENDBRANCH  21  22
ENDBRANCH  18  21
ENDBRANCH   1  18
BRANCH   1  31
ATOM     31  C21 UNL     1      -2.443   1.735  -1.944  1.00  0.00     0.043 C   
ATOM     32  C22 UNL     1      -3.433   0.797  -2.639  1.00  0.00     0.010 C   
ATOM     33  C25 UNL     1      -1.432   2.000  -3.067  1.00  0.00     0.010 C   
ATOM     34  C23 UNL     1      -3.581   1.381  -4.039  1.00  0.00     0.001 C   
ATOM     35  C24 UNL     1      -2.280   2.126  -4.327  1.00  0.00     0.001 C   
ENDBRANCH   1  31
TORSDOF 6
