REMARK SMILES CC(C)C[C@H]([NH2+]Cc1ccc2c(c1)OCO2)c1cn(-c2nnc(C(F)(F)F)[nH]2)nn1
REMARK SMILES IDX 17 1 18 2 19 3 29 4 30 5 5 6 4 7 2 8 1 9 3 10 6 11 7 14 8 15
REMARK SMILES IDX 9 16 13 17 10 18 12 19 11 20 14 21 16 22 15 23 20 24 21 25
REMARK SMILES IDX 28 26 22 27 23 28 24 30 25 31 26 32 27 33
REMARK H PARENT 6 12 6 13 28 29
ROOT
ATOM     1   C14 UNL     1       0.342   0.635   1.504  1.00  0.00     0.127 A   
ATOM     2   C15 UNL     1       0.488   0.818   0.147  1.00  0.00     0.138 A   
ATOM     3   N2  UNL     1       1.030  -0.361  -0.302  1.00  0.00    -0.148 N   
ATOM     4   N6  UNL     1       1.278  -1.187   0.742  1.00  0.00    -0.068 NA  
ATOM     5   N7  UNL     1       0.846  -0.594   1.846  1.00  0.00    -0.131 NA  
ENDROOT
BRANCH   1   6
ATOM     6   C5  UNL     1      -0.341   1.467   2.537  1.00  0.00     0.114 C   
BRANCH   6   7
ATOM     7   C4  UNL     1       0.612   1.937   3.659  1.00  0.00     0.064 C   
BRANCH   7   8
ATOM     8   C2  UNL     1       1.641   3.039   3.322  1.00  0.00    -0.012 C   
ATOM     9   C1  UNL     1       0.980   4.322   2.813  1.00  0.00     0.007 C   
ATOM     10  C3  UNL     1       2.745   2.588   2.370  1.00  0.00     0.007 C   
ENDBRANCH   7   8
ENDBRANCH   6   7
BRANCH   6  11
ATOM     11  N1  UNL     1      -1.423   0.631   3.214  1.00  0.00     0.249 N   
ATOM     12  H11 UNL     1      -1.025  -0.305   3.364  1.00  0.00     0.199 HD  
ATOM     13  H12 UNL     1      -1.616   1.012   4.145  1.00  0.00     0.199 HD  
BRANCH  11  14
ATOM     14  C6  UNL     1      -2.735   0.497   2.505  1.00  0.00     0.164 C   
BRANCH  14  15
ATOM     15  C7  UNL     1      -2.678  -0.313   1.240  1.00  0.00    -0.002 A   
ATOM     16  C8  UNL     1      -2.365  -1.694   1.278  1.00  0.00     0.012 A   
ATOM     17  C12 UNL     1      -2.888   0.309  -0.003  1.00  0.00     0.045 A   
ATOM     18  C9  UNL     1      -2.210  -2.431   0.096  1.00  0.00     0.037 A   
ATOM     19  C11 UNL     1      -2.720  -0.445  -1.149  1.00  0.00     0.109 A   
ATOM     20  C10 UNL     1      -2.378  -1.773  -1.101  1.00  0.00     0.108 A   
ATOM     21  O1  UNL     1      -2.834   0.016  -2.422  1.00  0.00    -0.316 OA  
ATOM     22  O2  UNL     1      -2.216  -2.313  -2.337  1.00  0.00    -0.316 OA  
ATOM     23  C13 UNL     1      -2.495  -1.169  -3.177  1.00  0.00     0.337 C   
ENDBRANCH  14  15
ENDBRANCH  11  14
ENDBRANCH   6  11
ENDBRANCH   1   6
BRANCH   3  24
ATOM     24  C16 UNL     1       1.261  -0.801  -1.585  1.00  0.00     0.233 A   
ATOM     25  N3  UNL     1       0.998  -0.121  -2.676  1.00  0.00    -0.114 NA  
ATOM     26  N5  UNL     1       1.747  -2.034  -1.906  1.00  0.00    -0.263 N   
ATOM     27  N4  UNL     1       1.294  -0.937  -3.743  1.00  0.00    -0.126 NA  
ATOM     28  C17 UNL     1       1.740  -2.091  -3.279  1.00  0.00     0.229 A   
ATOM     29  H21 UNL     1       2.016  -2.772  -1.267  1.00  0.00     0.157 HD  
BRANCH  28  30
ATOM     30  C18 UNL     1       2.173  -3.303  -4.017  1.00  0.00     0.449 C   
ATOM     31  F1  UNL     1       3.027  -4.047  -3.261  1.00  0.00    -0.163 F   
ATOM     32  F2  UNL     1       2.813  -3.021  -5.174  1.00  0.00    -0.163 F   
ATOM     33  F3  UNL     1       1.123  -4.109  -4.315  1.00  0.00    -0.163 F   
ENDBRANCH  28  30
ENDBRANCH   3  24
TORSDOF 8
