REMARK SMILES CC(C)[C@H]([NH2+]Cc1ccc2c(c1)OCO2)c1cn(Cc2ccccc2N([O-])[O-])nn1
REMARK SMILES IDX 16 1 17 2 18 3 29 4 30 5 4 7 2 8 1 9 3 10 5 11 6 14 7 15
REMARK SMILES IDX 8 16 12 17 9 18 11 19 10 20 13 21 15 22 14 23 19 24 20 25
REMARK SMILES IDX 21 26 25 27 22 28 24 29 23 30 26 31 27 32 28 33
REMARK H PARENT 17 6 5 12 5 13
ROOT
ATOM     1   C13 UNL     1       1.013   0.587  -1.188  1.00  0.00     0.127 A   
ATOM     2   C14 UNL     1       0.851  -0.323  -2.208  1.00  0.00     0.046 A   
ATOM     3   N2  UNL     1       1.822  -1.258  -1.974  1.00  0.00    -0.208 N   
ATOM     4   N4  UNL     1       2.582  -0.904  -0.920  1.00  0.00    -0.076 NA  
ATOM     5   N5  UNL     1       2.087   0.216  -0.420  1.00  0.00    -0.132 NA  
ATOM     6   H18 UNL     1       0.123  -0.428  -3.002  1.00  0.00     0.083 HD  
ENDROOT
BRANCH   1   7
ATOM     7   C4  UNL     1       0.188   1.767  -0.785  1.00  0.00     0.117 C   
BRANCH   7   8
ATOM     8   C2  UNL     1       0.714   3.094  -1.392  1.00  0.00     0.037 C   
ATOM     9   C1  UNL     1       2.052   3.566  -0.810  1.00  0.00     0.014 C   
ATOM     10  C3  UNL     1      -0.324   4.217  -1.271  1.00  0.00     0.014 C   
ENDBRANCH   7   8
BRANCH   7  11
ATOM     11  N1  UNL     1       0.125   1.865   0.721  1.00  0.00     0.249 N   
ATOM     12  H9  UNL     1       1.089   1.731   1.058  1.00  0.00     0.199 HD  
ATOM     13  H10 UNL     1      -0.173   2.797   1.017  1.00  0.00     0.199 HD  
BRANCH  11  14
ATOM     14  C5  UNL     1      -0.724   0.842   1.406  1.00  0.00     0.164 C   
BRANCH  14  15
ATOM     15  C6  UNL     1      -2.192   1.035   1.139  1.00  0.00    -0.002 A   
ATOM     16  C7  UNL     1      -2.898   0.106   0.338  1.00  0.00     0.012 A   
ATOM     17  C11 UNL     1      -2.868   2.153   1.659  1.00  0.00     0.045 A   
ATOM     18  C8  UNL     1      -4.254   0.289   0.048  1.00  0.00     0.037 A   
ATOM     19  C10 UNL     1      -4.205   2.304   1.353  1.00  0.00     0.109 A   
ATOM     20  C9  UNL     1      -4.878   1.401   0.568  1.00  0.00     0.108 A   
ATOM     21  O1  UNL     1      -4.998   3.327   1.765  1.00  0.00    -0.316 OA  
ATOM     22  O2  UNL     1      -6.181   1.740   0.389  1.00  0.00    -0.316 OA  
ATOM     23  C12 UNL     1      -6.262   2.948   1.175  1.00  0.00     0.337 C   
ENDBRANCH  14  15
ENDBRANCH  11  14
ENDBRANCH   7  11
ENDBRANCH   1   7
BRANCH   3  24
ATOM     24  C15 UNL     1       2.017  -2.534  -2.648  1.00  0.00     0.171 C   
BRANCH  24  25
ATOM     25  C16 UNL     1       2.046  -3.717  -1.699  1.00  0.00     0.000 A   
ATOM     26  C17 UNL     1       3.158  -4.577  -1.741  1.00  0.00     0.007 A   
ATOM     27  C21 UNL     1       1.027  -4.029  -0.772  1.00  0.00     0.122 A   
ATOM     28  C18 UNL     1       3.251  -5.681  -0.886  1.00  0.00     0.000 A   
ATOM     29  C20 UNL     1       1.117  -5.130   0.092  1.00  0.00     0.031 A   
ATOM     30  C19 UNL     1       2.236  -5.956   0.029  1.00  0.00     0.002 A   
BRANCH  27  31
ATOM     31  N3  UNL     1      -0.172  -3.212  -0.671  1.00  0.00     0.092 N   
ATOM     32  O3  UNL     1      -0.466  -2.753   0.443  1.00  0.00    -0.138 OA  
ATOM     33  O4  UNL     1      -0.799  -2.987  -1.715  1.00  0.00    -0.138 OA  
ENDBRANCH  27  31
ENDBRANCH  24  25
ENDBRANCH   3  24
TORSDOF 8
