REMARK SMILES COc1cccnc1CCn1cc([C@@H]([NH2+]Cc2ccc3c(c2)OCO3)C2CCCC2)nn1
REMARK SMILES IDX 11 1 12 2 13 3 31 4 32 5 10 7 9 8 8 9 3 10 4 11 5 12 7 13
REMARK SMILES IDX 6 14 2 15 1 16 14 17 15 18 16 21 17 22 18 23 22 24 19 25
REMARK SMILES IDX 21 26 20 27 23 28 25 29 24 30 26 31 27 32 30 33 28 34 29 35
REMARK H PARENT 12 6 15 19 15 20
ROOT
ATOM     1   N2  UNL     1       0.432   0.825  -2.318  1.00  0.00    -0.212 N   
ATOM     2   C9  UNL     1       0.498   1.321  -1.048  1.00  0.00     0.045 A   
ATOM     3   C10 UNL     1       1.228   0.378  -0.363  1.00  0.00     0.127 A   
ATOM     4   N4  UNL     1       1.614  -0.612  -1.228  1.00  0.00    -0.132 NA  
ATOM     5   N5  UNL     1       1.126  -0.323  -2.424  1.00  0.00    -0.076 NA  
ATOM     6   H11 UNL     1      -0.011   2.229  -0.757  1.00  0.00     0.083 HD  
ENDROOT
BRANCH   1   7
ATOM     7   C8  UNL     1      -0.278   1.366  -3.457  1.00  0.00     0.140 C   
BRANCH   7   8
ATOM     8   C7  UNL     1      -1.534   0.570  -3.806  1.00  0.00     0.080 C   
BRANCH   8   9
ATOM     9   C6  UNL     1      -2.652   0.654  -2.786  1.00  0.00     0.072 A   
ATOM     10  C2  UNL     1      -3.738  -0.232  -2.864  1.00  0.00     0.096 A   
ATOM     11  C3  UNL     1      -4.769  -0.084  -1.937  1.00  0.00     0.037 A   
ATOM     12  C4  UNL     1      -4.708   0.936  -0.991  1.00  0.00     0.023 A   
ATOM     13  N1  UNL     1      -2.579   1.649  -1.858  1.00  0.00    -0.259 NA  
ATOM     14  C5  UNL     1      -3.611   1.774  -0.997  1.00  0.00     0.111 A   
BRANCH  10  15
ATOM     15  O1  UNL     1      -3.694  -1.188  -3.841  1.00  0.00    -0.347 OA  
ATOM     16  C1  UNL     1      -4.883  -1.935  -4.077  1.00  0.00     0.203 C   
ENDBRANCH  10  15
ENDBRANCH   8   9
ENDBRANCH   7   8
ENDBRANCH   1   7
BRANCH   3  17
ATOM     17  C11 UNL     1       1.546   0.253   1.088  1.00  0.00     0.117 C   
BRANCH  17  18
ATOM     18  N3  UNL     1       1.406  -1.187   1.526  1.00  0.00     0.249 N   
ATOM     19  H13 UNL     1       1.979  -1.739   0.875  1.00  0.00     0.199 HD  
ATOM     20  H14 UNL     1       1.784  -1.325   2.465  1.00  0.00     0.199 HD  
BRANCH  18  21
ATOM     21  C12 UNL     1       0.029  -1.766   1.459  1.00  0.00     0.164 C   
BRANCH  21  22
ATOM     22  C13 UNL     1      -0.933  -1.129   2.423  1.00  0.00    -0.002 A   
ATOM     23  C14 UNL     1      -0.885  -1.449   3.800  1.00  0.00     0.012 A   
ATOM     24  C18 UNL     1      -1.867  -0.184   1.964  1.00  0.00     0.045 A   
ATOM     25  C15 UNL     1      -1.751  -0.834   4.710  1.00  0.00     0.037 A   
ATOM     26  C17 UNL     1      -2.706   0.405   2.886  1.00  0.00     0.109 A   
ATOM     27  C16 UNL     1      -2.645   0.092   4.222  1.00  0.00     0.108 A   
ATOM     28  O2  UNL     1      -3.659   1.336   2.612  1.00  0.00    -0.316 OA  
ATOM     29  O3  UNL     1      -3.548   0.789   4.959  1.00  0.00    -0.316 OA  
ATOM     30  C19 UNL     1      -4.199   1.571   3.935  1.00  0.00     0.337 C   
ENDBRANCH  21  22
ENDBRANCH  18  21
ENDBRANCH  17  18
BRANCH  17  31
ATOM     31  C20 UNL     1       2.953   0.796   1.410  1.00  0.00     0.043 C   
ATOM     32  C21 UNL     1       3.273   0.902   2.903  1.00  0.00     0.010 C   
ATOM     33  C24 UNL     1       4.149   0.021   0.833  1.00  0.00     0.010 C   
ATOM     34  C22 UNL     1       4.769   1.164   2.901  1.00  0.00     0.001 C   
ATOM     35  C23 UNL     1       5.303   0.241   1.813  1.00  0.00     0.001 C   
ENDBRANCH  17  31
ENDBRANCH   3  17
TORSDOF 9
