REMARK SMILES O[C@H](Cn1cc([C@@H]([NH2+]Cc2ccc3c(c2)OCO3)C2CCCC2)nn1)c1ccc(F)cc1F
REMARK SMILES IDX 4 1 5 2 6 3 24 4 25 5 3 7 2 8 1 9 26 11 27 12 32 13 28 14
REMARK SMILES IDX 31 15 29 16 33 17 30 18 7 19 8 20 9 23 10 24 11 25 15 26
REMARK SMILES IDX 12 27 14 28 13 29 16 30 18 31 17 32 19 33 20 34 23 35 21 36
REMARK SMILES IDX 22 37
REMARK H PARENT 5 6 1 10 8 21 8 22
ROOT
ATOM     1   N1  UNL     1      -2.145   2.041   0.645  1.00  0.00    -0.209 N   
ATOM     2   C3  UNL     1      -1.143   1.845  -0.264  1.00  0.00     0.045 A   
ATOM     3   C4  UNL     1      -0.423   0.795   0.261  1.00  0.00     0.127 A   
ATOM     4   N3  UNL     1      -0.968   0.435   1.467  1.00  0.00    -0.132 NA  
ATOM     5   N4  UNL     1      -2.008   1.218   1.699  1.00  0.00    -0.076 NA  
ATOM     6   H5  UNL     1      -1.066   2.418  -1.178  1.00  0.00     0.083 HD  
ENDROOT
BRANCH   1   7
ATOM     7   C2  UNL     1      -3.255   2.963   0.571  1.00  0.00     0.170 C   
BRANCH   7   8
ATOM     8   C1  UNL     1      -4.559   2.292   0.124  1.00  0.00     0.167 C   
BRANCH   8   9
ATOM     9   O1  UNL     1      -5.627   3.225   0.311  1.00  0.00    -0.387 OA  
ATOM     10  H1  UNL     1      -6.454   2.776   0.052  1.00  0.00     0.211 HD  
ENDBRANCH   8   9
BRANCH   8  11
ATOM     11  C19 UNL     1      -4.527   1.863  -1.328  1.00  0.00     0.018 A   
ATOM     12  C20 UNL     1      -4.767   2.774  -2.371  1.00  0.00     0.012 A   
ATOM     13  C24 UNL     1      -4.218   0.537  -1.663  1.00  0.00     0.131 A   
ATOM     14  C21 UNL     1      -4.708   2.355  -3.702  1.00  0.00     0.040 A   
ATOM     15  C23 UNL     1      -4.155   0.112  -2.984  1.00  0.00     0.078 A   
ATOM     16  C22 UNL     1      -4.402   1.030  -3.995  1.00  0.00     0.126 A   
ATOM     17  F2  UNL     1      -3.956  -0.350  -0.693  1.00  0.00    -0.207 F   
ATOM     18  F1  UNL     1      -4.336   0.635  -5.272  1.00  0.00    -0.207 F   
ENDBRANCH   8  11
ENDBRANCH   7   8
ENDBRANCH   1   7
BRANCH   3  19
ATOM     19  C5  UNL     1       0.768   0.053  -0.257  1.00  0.00     0.117 C   
BRANCH  19  20
ATOM     20  N2  UNL     1       1.454  -0.673   0.868  1.00  0.00     0.249 N   
ATOM     21  H7  UNL     1       2.010  -1.469   0.545  1.00  0.00     0.199 HD  
ATOM     22  H8  UNL     1       0.708  -1.068   1.461  1.00  0.00     0.199 HD  
BRANCH  20  23
ATOM     23  C6  UNL     1       2.295   0.180   1.753  1.00  0.00     0.164 C   
BRANCH  23  24
ATOM     24  C7  UNL     1       2.837  -0.628   2.898  1.00  0.00    -0.002 A   
ATOM     25  C8  UNL     1       2.067  -0.796   4.075  1.00  0.00     0.012 A   
ATOM     26  C12 UNL     1       4.082  -1.268   2.787  1.00  0.00     0.045 A   
ATOM     27  C9  UNL     1       2.535  -1.582   5.133  1.00  0.00     0.037 A   
ATOM     28  C11 UNL     1       4.512  -2.038   3.848  1.00  0.00     0.109 A   
ATOM     29  C10 UNL     1       3.762  -2.191   4.988  1.00  0.00     0.108 A   
ATOM     30  O2  UNL     1       5.684  -2.724   3.902  1.00  0.00    -0.316 OA  
ATOM     31  O3  UNL     1       4.367  -2.990   5.903  1.00  0.00    -0.316 OA  
ATOM     32  C13 UNL     1       5.597  -3.313   5.219  1.00  0.00     0.337 C   
ENDBRANCH  23  24
ENDBRANCH  20  23
ENDBRANCH  19  20
BRANCH  19  33
ATOM     33  C14 UNL     1       0.373  -0.927  -1.381  1.00  0.00     0.043 C   
ATOM     34  C15 UNL     1      -0.506  -2.120  -0.970  1.00  0.00     0.010 C   
ATOM     35  C18 UNL     1       1.550  -1.575  -2.115  1.00  0.00     0.010 C   
ATOM     36  C16 UNL     1      -0.159  -3.252  -1.941  1.00  0.00     0.001 C   
ATOM     37  C17 UNL     1       0.871  -2.682  -2.908  1.00  0.00     0.001 C   
ENDBRANCH  19  33
ENDBRANCH   3  19
TORSDOF 9
