REMARK SMILES O[C@@H](Cn1cc([C@@H]([NH2+]Cc2ccc3c(c2)OCO3)C2CCCC2)nn1)c1ccc(F)cc1F
REMARK SMILES IDX 4 1 5 2 6 3 24 4 25 5 3 7 2 8 1 9 26 11 27 12 32 13 28 14
REMARK SMILES IDX 31 15 29 16 33 17 30 18 7 19 8 20 9 23 10 24 11 25 15 26
REMARK SMILES IDX 12 27 14 28 13 29 16 30 18 31 17 32 19 33 20 34 23 35 21 36
REMARK SMILES IDX 22 37
REMARK H PARENT 5 6 1 10 8 21 8 22
ROOT
ATOM     1   N1  UNL     1      -2.724   0.658  -1.299  1.00  0.00    -0.209 N   
ATOM     2   C3  UNL     1      -2.419  -0.484  -0.615  1.00  0.00     0.045 A   
ATOM     3   C4  UNL     1      -1.217  -0.192  -0.008  1.00  0.00     0.127 A   
ATOM     4   N3  UNL     1      -0.852   1.090  -0.325  1.00  0.00    -0.132 NA  
ATOM     5   N4  UNL     1      -1.781   1.599  -1.115  1.00  0.00    -0.076 NA  
ATOM     6   H5  UNL     1      -3.043  -1.367  -0.648  1.00  0.00     0.083 HD  
ENDROOT
BRANCH   1   7
ATOM     7   C2  UNL     1      -3.839   0.908  -2.185  1.00  0.00     0.170 C   
BRANCH   7   8
ATOM     8   C1  UNL     1      -3.438   0.885  -3.665  1.00  0.00     0.167 C   
BRANCH   8   9
ATOM     9   O1  UNL     1      -4.527   1.415  -4.430  1.00  0.00    -0.387 OA  
ATOM     10  H1  UNL     1      -4.235   1.460  -5.360  1.00  0.00     0.211 HD  
ENDBRANCH   8   9
BRANCH   8  11
ATOM     11  C19 UNL     1      -3.113  -0.508  -4.164  1.00  0.00     0.018 A   
ATOM     12  C20 UNL     1      -4.122  -1.389  -4.593  1.00  0.00     0.012 A   
ATOM     13  C24 UNL     1      -1.786  -0.960  -4.183  1.00  0.00     0.131 A   
ATOM     14  C21 UNL     1      -3.798  -2.672  -5.040  1.00  0.00     0.040 A   
ATOM     15  C23 UNL     1      -1.457  -2.235  -4.628  1.00  0.00     0.078 A   
ATOM     16  C22 UNL     1      -2.470  -3.081  -5.055  1.00  0.00     0.126 A   
ATOM     17  F2  UNL     1      -0.802  -0.165  -3.740  1.00  0.00    -0.207 F   
ATOM     18  F1  UNL     1      -2.162  -4.315  -5.475  1.00  0.00    -0.207 F   
ENDBRANCH   8  11
ENDBRANCH   7   8
ENDBRANCH   1   7
BRANCH   3  19
ATOM     19  C5  UNL     1      -0.279  -1.029   0.799  1.00  0.00     0.117 C   
BRANCH  19  20
ATOM     20  N2  UNL     1       1.133  -0.727   0.356  1.00  0.00     0.249 N   
ATOM     21  H7  UNL     1       1.829  -0.998   1.056  1.00  0.00     0.199 HD  
ATOM     22  H8  UNL     1       1.198   0.300   0.273  1.00  0.00     0.199 HD  
BRANCH  20  23
ATOM     23  C6  UNL     1       1.514  -1.303  -0.962  1.00  0.00     0.164 C   
BRANCH  23  24
ATOM     24  C7  UNL     1       2.845  -0.773  -1.411  1.00  0.00    -0.002 A   
ATOM     25  C8  UNL     1       2.909   0.392  -2.213  1.00  0.00     0.012 A   
ATOM     26  C12 UNL     1       4.035  -1.398  -0.997  1.00  0.00     0.045 A   
ATOM     27  C9  UNL     1       4.141   0.920  -2.614  1.00  0.00     0.037 A   
ATOM     28  C11 UNL     1       5.232  -0.848  -1.407  1.00  0.00     0.109 A   
ATOM     29  C10 UNL     1       5.284   0.276  -2.195  1.00  0.00     0.108 A   
ATOM     30  O2  UNL     1       6.466  -1.326  -1.099  1.00  0.00    -0.316 OA  
ATOM     31  O3  UNL     1       6.558   0.645  -2.486  1.00  0.00    -0.316 OA  
ATOM     32  C13 UNL     1       7.308  -0.373  -1.789  1.00  0.00     0.337 C   
ENDBRANCH  23  24
ENDBRANCH  20  23
ENDBRANCH  19  20
BRANCH  19  33
ATOM     33  C14 UNL     1      -0.396  -0.748   2.309  1.00  0.00     0.043 C   
ATOM     34  C15 UNL     1       0.554  -1.580   3.181  1.00  0.00     0.010 C   
ATOM     35  C18 UNL     1      -1.769  -1.105   2.885  1.00  0.00     0.010 C   
ATOM     36  C16 UNL     1      -0.129  -1.717   4.543  1.00  0.00     0.001 C   
ATOM     37  C17 UNL     1      -1.522  -1.121   4.385  1.00  0.00     0.001 C   
ENDBRANCH  19  33
ENDBRANCH   3  19
TORSDOF 9
