REMARK SMILES NCc1ccc(Cn2cc([C@@H]([NH2+]Cc3ccc4c(c3)OCO4)C3CCCCC3)nn2)cc1
REMARK SMILES IDX 8 1 9 2 10 3 29 4 30 5 7 7 6 8 3 9 4 10 32 11 5 12 31 13
REMARK SMILES IDX 2 14 1 15 11 18 12 19 13 22 14 23 15 24 19 25 16 26 18 27
REMARK SMILES IDX 17 28 20 29 22 30 21 31 23 32 24 33 28 34 25 35 27 36 26 37
REMARK H PARENT 9 6 1 16 1 17 12 20 12 21
ROOT
ATOM     1   N2  UNL     1      -1.781   0.198  -1.600  1.00  0.00    -0.208 N   
ATOM     2   C7  UNL     1      -1.519   1.040  -0.553  1.00  0.00     0.046 A   
ATOM     3   C8  UNL     1      -0.320   1.625  -0.893  1.00  0.00     0.127 A   
ATOM     4   N4  UNL     1       0.088   1.144  -2.112  1.00  0.00    -0.132 NA  
ATOM     5   N5  UNL     1      -0.819   0.282  -2.540  1.00  0.00    -0.076 NA  
ATOM     6   H9  UNL     1      -2.166   1.111   0.310  1.00  0.00     0.083 HD  
ENDROOT
BRANCH   1   7
ATOM     7   C6  UNL     1      -2.909  -0.702  -1.770  1.00  0.00     0.169 C   
BRANCH   7   8
ATOM     8   C5  UNL     1      -2.604  -2.059  -1.191  1.00  0.00    -0.029 A   
ATOM     9   C2  UNL     1      -1.982  -4.585  -0.100  1.00  0.00    -0.034 A   
ATOM     10  C3  UNL     1      -2.640  -3.618   0.671  1.00  0.00     0.005 A   
ATOM     11  C25 UNL     1      -1.631  -4.275  -1.420  1.00  0.00     0.005 A   
ATOM     12  C4  UNL     1      -2.951  -2.368   0.132  1.00  0.00     0.006 A   
ATOM     13  C24 UNL     1      -1.938  -3.024  -1.960  1.00  0.00     0.006 A   
BRANCH   9  14
ATOM     14  C1  UNL     1      -1.617  -5.920   0.498  1.00  0.00     0.113 C   
BRANCH  14  15
ATOM     15  N1  UNL     1      -0.240  -5.925   0.975  1.00  0.00    -0.327 NA  
ATOM     16  H1  UNL     1      -0.099  -5.110   1.577  1.00  0.00     0.119 HD  
ATOM     17  H2  UNL     1       0.384  -5.787   0.183  1.00  0.00     0.119 HD  
ENDBRANCH  14  15
ENDBRANCH   9  14
ENDBRANCH   7   8
ENDBRANCH   1   7
BRANCH   3  18
ATOM     18  C9  UNL     1       0.574   2.570  -0.155  1.00  0.00     0.117 C   
BRANCH  18  19
ATOM     19  N3  UNL     1       2.014   2.235  -0.478  1.00  0.00     0.249 N   
ATOM     20  H11 UNL     1       1.980   1.665  -1.339  1.00  0.00     0.199 HD  
ATOM     21  H12 UNL     1       2.543   3.072  -0.735  1.00  0.00     0.199 HD  
BRANCH  19  22
ATOM     22  C10 UNL     1       2.774   1.479   0.557  1.00  0.00     0.164 C   
BRANCH  22  23
ATOM     23  C11 UNL     1       2.127   0.201   1.014  1.00  0.00    -0.002 A   
ATOM     24  C12 UNL     1       1.912  -0.871   0.114  1.00  0.00     0.012 A   
ATOM     25  C16 UNL     1       1.723   0.062   2.354  1.00  0.00     0.045 A   
ATOM     26  C13 UNL     1       1.294  -2.055   0.536  1.00  0.00     0.037 A   
ATOM     27  C15 UNL     1       1.124  -1.120   2.738  1.00  0.00     0.109 A   
ATOM     28  C14 UNL     1       0.916  -2.150   1.856  1.00  0.00     0.108 A   
ATOM     29  O1  UNL     1       0.679  -1.407   3.989  1.00  0.00    -0.316 OA  
ATOM     30  O2  UNL     1       0.321  -3.221   2.442  1.00  0.00    -0.316 OA  
ATOM     31  C17 UNL     1       0.201  -2.759   3.805  1.00  0.00     0.337 C   
ENDBRANCH  22  23
ENDBRANCH  19  22
ENDBRANCH  18  19
BRANCH  18  32
ATOM     32  C18 UNL     1       0.264   4.056  -0.474  1.00  0.00     0.043 C   
ATOM     33  C19 UNL     1       1.017   5.003   0.483  1.00  0.00     0.010 C   
ATOM     34  C23 UNL     1       0.518   4.460  -1.941  1.00  0.00     0.010 C   
ATOM     35  C20 UNL     1       0.670   6.467   0.222  1.00  0.00     0.001 C   
ATOM     36  C22 UNL     1       0.177   5.929  -2.189  1.00  0.00     0.001 C   
ATOM     37  C21 UNL     1       0.920   6.853  -1.231  1.00  0.00     0.000 C   
ENDBRANCH  18  32
ENDBRANCH   3  18
TORSDOF 9
