REMARK SMILES Cc1cccc([C@@H](CO)n2cc([C@@H]([NH2+]Cc3ccc4c(c3)OCO4)C(C)(C)C)nn2)c1
REMARK SMILES IDX 10 1 11 2 12 3 29 4 30 5 7 7 6 8 2 9 3 10 31 11 4 12 5 13
REMARK SMILES IDX 1 14 8 15 9 16 13 18 14 19 15 22 16 23 17 24 21 25 18 26
REMARK SMILES IDX 20 27 19 28 22 29 24 30 23 31 25 32 26 33 27 34 28 35
REMARK H PARENT 11 6 9 17 14 20 14 21
ROOT
ATOM     1   N1  UNL     1      -0.304  -2.635   1.623  1.00  0.00    -0.202 N   
ATOM     2   C9  UNL     1       0.316  -1.426   1.450  1.00  0.00     0.046 A   
ATOM     3   C10 UNL     1      -0.709  -0.511   1.485  1.00  0.00     0.127 A   
ATOM     4   N3  UNL     1      -1.894  -1.169   1.685  1.00  0.00    -0.132 NA  
ATOM     5   N4  UNL     1      -1.636  -2.465   1.766  1.00  0.00    -0.075 NA  
ATOM     6   H11 UNL     1       1.382  -1.346   1.286  1.00  0.00     0.083 HD  
ENDROOT
BRANCH   1   7
ATOM     7   C7  UNL     1       0.266  -3.977   1.518  1.00  0.00     0.155 C   
BRANCH   7   8
ATOM     8   C6  UNL     1       0.841  -4.178   0.119  1.00  0.00    -0.023 A   
ATOM     9   C2  UNL     1       0.422  -4.661  -2.248  1.00  0.00    -0.051 A   
ATOM     10  C3  UNL     1       1.779  -4.475  -2.518  1.00  0.00     0.003 A   
ATOM     11  C24 UNL     1      -0.039  -4.497  -0.935  1.00  0.00     0.009 A   
ATOM     12  C4  UNL     1       2.664  -4.156  -1.489  1.00  0.00     0.001 A   
ATOM     13  C5  UNL     1       2.200  -4.009  -0.181  1.00  0.00     0.006 A   
ATOM     14  C1  UNL     1      -0.538  -4.982  -3.357  1.00  0.00     0.044 C   
ENDBRANCH   7   8
BRANCH   7  15
ATOM     15  C8  UNL     1       1.177  -4.315   2.717  1.00  0.00     0.185 C   
BRANCH  15  16
ATOM     16  O1  UNL     1       2.248  -3.389   2.899  1.00  0.00    -0.394 OA  
ATOM     17  H10 UNL     1       2.789  -3.722   3.639  1.00  0.00     0.210 HD  
ENDBRANCH  15  16
ENDBRANCH   7  15
ENDBRANCH   1   7
BRANCH   3  18
ATOM     18  C11 UNL     1      -0.702   0.959   1.214  1.00  0.00     0.120 C   
BRANCH  18  19
ATOM     19  N2  UNL     1      -1.845   1.296   0.274  1.00  0.00     0.250 N   
ATOM     20  H13 UNL     1      -2.703   0.954   0.728  1.00  0.00     0.199 HD  
ATOM     21  H14 UNL     1      -1.935   2.307   0.161  1.00  0.00     0.199 HD  
BRANCH  19  22
ATOM     22  C12 UNL     1      -1.800   0.664  -1.083  1.00  0.00     0.164 C   
BRANCH  22  23
ATOM     23  C13 UNL     1      -0.605   1.077  -1.895  1.00  0.00    -0.002 A   
ATOM     24  C14 UNL     1      -0.512   2.389  -2.419  1.00  0.00     0.012 A   
ATOM     25  C18 UNL     1       0.445   0.167  -2.118  1.00  0.00     0.045 A   
ATOM     26  C15 UNL     1       0.613   2.793  -3.146  1.00  0.00     0.037 A   
ATOM     27  C17 UNL     1       1.539   0.598  -2.836  1.00  0.00     0.109 A   
ATOM     28  C16 UNL     1       1.622   1.875  -3.334  1.00  0.00     0.108 A   
ATOM     29  O2  UNL     1       2.636  -0.147  -3.132  1.00  0.00    -0.316 OA  
ATOM     30  O3  UNL     1       2.780   2.094  -4.010  1.00  0.00    -0.316 OA  
ATOM     31  C19 UNL     1       3.413   0.800  -3.898  1.00  0.00     0.337 C   
ENDBRANCH  22  23
ENDBRANCH  19  22
ENDBRANCH  18  19
BRANCH  18  32
ATOM     32  C20 UNL     1      -0.768   1.854   2.502  1.00  0.00     0.010 C   
ATOM     33  C21 UNL     1      -0.602   3.346   2.129  1.00  0.00     0.017 C   
ATOM     34  C22 UNL     1      -2.090   1.700   3.280  1.00  0.00     0.017 C   
ATOM     35  C23 UNL     1       0.398   1.496   3.454  1.00  0.00     0.017 C   
ENDBRANCH  18  32
ENDBRANCH   3  18
TORSDOF 9
