REMARK SMILES Cc1cccc([C@H](CO)n2cc([C@@H]([NH2+]Cc3ccc4c(c3)OCO4)C(C)(C)C)nn2)c1
REMARK SMILES IDX 10 1 11 2 12 3 29 4 30 5 7 7 6 8 2 9 3 10 31 11 4 12 5 13
REMARK SMILES IDX 1 14 8 15 9 16 13 18 14 19 15 22 16 23 17 24 21 25 18 26
REMARK SMILES IDX 20 27 19 28 22 29 24 30 23 31 25 32 26 33 27 34 28 35
REMARK H PARENT 11 6 9 17 14 20 14 21
ROOT
ATOM     1   N1  UNL     1      -1.565   1.945  -0.258  1.00  0.00    -0.202 N   
ATOM     2   C9  UNL     1      -1.016   1.540   0.929  1.00  0.00     0.046 A   
ATOM     3   C10 UNL     1      -0.502   0.293   0.658  1.00  0.00     0.127 A   
ATOM     4   N3  UNL     1      -0.789  -0.035  -0.645  1.00  0.00    -0.132 NA  
ATOM     5   N4  UNL     1      -1.458   0.969  -1.185  1.00  0.00    -0.075 NA  
ATOM     6   H11 UNL     1      -1.022   2.170   1.808  1.00  0.00     0.083 HD  
ENDROOT
BRANCH   1   7
ATOM     7   C7  UNL     1      -2.174   3.230  -0.602  1.00  0.00     0.155 C   
BRANCH   7   8
ATOM     8   C6  UNL     1      -1.169   4.359  -0.400  1.00  0.00    -0.023 A   
ATOM     9   C2  UNL     1       0.825   5.534  -1.217  1.00  0.00    -0.051 A   
ATOM     10  C3  UNL     1       0.766   6.386  -0.112  1.00  0.00     0.003 A   
ATOM     11  C24 UNL     1      -0.134   4.519  -1.345  1.00  0.00     0.009 A   
ATOM     12  C4  UNL     1      -0.247   6.239   0.835  1.00  0.00     0.001 A   
ATOM     13  C5  UNL     1      -1.208   5.234   0.694  1.00  0.00     0.006 A   
ATOM     14  C1  UNL     1       1.929   5.666  -2.226  1.00  0.00     0.044 C   
ENDBRANCH   7   8
BRANCH   7  15
ATOM     15  C8  UNL     1      -3.567   3.390   0.041  1.00  0.00     0.185 C   
BRANCH  15  16
ATOM     16  O1  UNL     1      -3.558   3.260   1.464  1.00  0.00    -0.394 OA  
ATOM     17  H10 UNL     1      -4.458   3.472   1.771  1.00  0.00     0.210 HD  
ENDBRANCH  15  16
ENDBRANCH   7  15
ENDBRANCH   1   7
BRANCH   3  18
ATOM     18  C11 UNL     1       0.220  -0.692   1.528  1.00  0.00     0.120 C   
BRANCH  18  19
ATOM     19  N2  UNL     1      -0.058  -2.086   1.016  1.00  0.00     0.250 N   
ATOM     20  H13 UNL     1       0.025  -2.040  -0.011  1.00  0.00     0.199 HD  
ATOM     21  H14 UNL     1       0.636  -2.768   1.328  1.00  0.00     0.199 HD  
BRANCH  19  22
ATOM     22  C12 UNL     1      -1.417  -2.616   1.321  1.00  0.00     0.164 C   
BRANCH  22  23
ATOM     23  C13 UNL     1      -1.578  -3.998   0.750  1.00  0.00    -0.002 A   
ATOM     24  C14 UNL     1      -1.384  -5.137   1.566  1.00  0.00     0.012 A   
ATOM     25  C18 UNL     1      -1.870  -4.164  -0.616  1.00  0.00     0.045 A   
ATOM     26  C15 UNL     1      -1.486  -6.427   1.034  1.00  0.00     0.037 A   
ATOM     27  C17 UNL     1      -1.964  -5.449  -1.107  1.00  0.00     0.109 A   
ATOM     28  C16 UNL     1      -1.776  -6.550  -0.307  1.00  0.00     0.108 A   
ATOM     29  O2  UNL     1      -2.238  -5.785  -2.395  1.00  0.00    -0.316 OA  
ATOM     30  O3  UNL     1      -1.910  -7.716  -0.989  1.00  0.00    -0.316 OA  
ATOM     31  C19 UNL     1      -2.218  -7.229  -2.313  1.00  0.00     0.337 C   
ENDBRANCH  22  23
ENDBRANCH  19  22
ENDBRANCH  18  19
BRANCH  18  32
ATOM     32  C20 UNL     1       1.768  -0.448   1.631  1.00  0.00     0.010 C   
ATOM     33  C21 UNL     1       2.048   0.967   2.186  1.00  0.00     0.017 C   
ATOM     34  C22 UNL     1       2.479  -0.587   0.271  1.00  0.00     0.017 C   
ATOM     35  C23 UNL     1       2.407  -1.452   2.619  1.00  0.00     0.017 C   
ENDBRANCH  18  32
ENDBRANCH   3  18
TORSDOF 9
