REMARK SMILES c1cc(-n2cc([C@@H]([NH2+]Cc3ccc4c(c3)OCO4)C3CCCCC3)nn2)c2cc[nH]c2n1
REMARK SMILES IDX 7 1 6 2 4 3 5 4 26 5 25 6 3 7 1 8 2 9 32 10 31 11 27 12
REMARK SMILES IDX 30 13 28 14 29 15 8 17 9 20 10 21 11 22 15 23 12 24 14 25
REMARK SMILES IDX 13 26 16 27 18 28 17 29 19 30 20 31 24 32 21 33 23 34 22 35
REMARK H PARENT 30 16 8 18 8 19
ROOT
ATOM     1   C6  UNL     1       1.244  -0.598  -1.804  1.00  0.00     0.117 C   
ENDROOT
BRANCH   1   2
ATOM     2   C5  UNL     1      -0.083   0.012  -1.473  1.00  0.00     0.127 A   
ATOM     3   N1  UNL     1      -1.913   0.761  -0.531  1.00  0.00    -0.180 N   
ATOM     4   C4  UNL     1      -0.568   0.556  -0.305  1.00  0.00     0.135 A   
ATOM     5   N4  UNL     1      -2.181   0.440  -1.828  1.00  0.00    -0.071 NA  
ATOM     6   N3  UNL     1      -1.088  -0.045  -2.393  1.00  0.00    -0.131 NA  
BRANCH   3   7
ATOM     7   C3  UNL     1      -2.939   1.181   0.347  1.00  0.00     0.070 A   
ATOM     8   C1  UNL     1      -5.250   1.817   0.646  1.00  0.00     0.115 A   
ATOM     9   C2  UNL     1      -4.221   1.415  -0.189  1.00  0.00     0.047 A   
ATOM     10  N6  UNL     1      -5.139   2.006   1.972  1.00  0.00    -0.241 NA  
ATOM     11  C24 UNL     1      -3.907   1.768   2.449  1.00  0.00     0.130 A   
ATOM     12  C21 UNL     1      -2.773   1.359   1.742  1.00  0.00     0.040 A   
ATOM     13  N5  UNL     1      -3.585   1.896   3.770  1.00  0.00    -0.306 N   
ATOM     14  C22 UNL     1      -1.750   1.216   2.729  1.00  0.00     0.029 A   
ATOM     15  C23 UNL     1      -2.274   1.556   3.959  1.00  0.00     0.074 A   
ATOM     16  H27 UNL     1      -4.242   2.188   4.480  1.00  0.00     0.154 HD  
ENDBRANCH   3   7
ENDBRANCH   1   2
BRANCH   1  17
ATOM     17  N2  UNL     1       0.970  -1.976  -2.393  1.00  0.00     0.249 N   
ATOM     18  H5  UNL     1       1.567  -2.164  -3.202  1.00  0.00     0.199 HD  
ATOM     19  H6  UNL     1       0.014  -1.932  -2.782  1.00  0.00     0.199 HD  
BRANCH  17  20
ATOM     20  C7  UNL     1       1.040  -3.132  -1.449  1.00  0.00     0.164 C   
BRANCH  20  21
ATOM     21  C8  UNL     1       0.124  -3.014  -0.262  1.00  0.00    -0.002 A   
ATOM     22  C9  UNL     1       0.660  -2.824   1.036  1.00  0.00     0.012 A   
ATOM     23  C13 UNL     1      -1.272  -3.042  -0.432  1.00  0.00     0.045 A   
ATOM     24  C10 UNL     1      -0.177  -2.636   2.141  1.00  0.00     0.037 A   
ATOM     25  C12 UNL     1      -2.068  -2.841   0.677  1.00  0.00     0.109 A   
ATOM     26  C11 UNL     1      -1.537  -2.641   1.926  1.00  0.00     0.108 A   
ATOM     27  O1  UNL     1      -3.426  -2.793   0.677  1.00  0.00    -0.316 OA  
ATOM     28  O2  UNL     1      -2.492  -2.448   2.872  1.00  0.00    -0.316 OA  
ATOM     29  C14 UNL     1      -3.694  -2.552   2.078  1.00  0.00     0.337 C   
ENDBRANCH  20  21
ENDBRANCH  17  20
ENDBRANCH   1  17
BRANCH   1  30
ATOM     30  C15 UNL     1       2.066   0.239  -2.827  1.00  0.00     0.043 C   
ATOM     31  C16 UNL     1       3.470  -0.350  -3.102  1.00  0.00     0.010 C   
ATOM     32  C20 UNL     1       2.244   1.712  -2.393  1.00  0.00     0.010 C   
ATOM     33  C17 UNL     1       4.423  -0.207  -1.914  1.00  0.00     0.001 C   
ATOM     34  C19 UNL     1       3.167   1.866  -1.186  1.00  0.00     0.001 C   
ATOM     35  C18 UNL     1       4.534   1.240  -1.447  1.00  0.00     0.000 C   
ENDBRANCH   1  30
TORSDOF 6
