REMARK SMILES CN(C)c1cccc(-n2cc([C@@H]([NH2+]Cc3ccc4c(c3)OCO4)C3CCCCC3)nn2)c1
REMARK SMILES IDX 9 1 10 2 11 3 30 4 31 5 8 6 4 7 5 8 32 9 6 10 7 11 2 12 1 13
REMARK SMILES IDX 3 14 12 15 13 16 14 19 15 20 16 21 20 22 17 23 19 24 18 25
REMARK SMILES IDX 21 26 23 27 22 28 24 29 25 30 29 31 26 32 28 33 27 34
REMARK H PARENT 13 17 13 18
ROOT
ATOM     1   N2  UNL     1      -1.855   1.170  -0.043  1.00  0.00    -0.181 N   
ATOM     2   C8  UNL     1      -0.735   1.753   0.520  1.00  0.00     0.135 A   
ATOM     3   C9  UNL     1       0.297   0.881   0.253  1.00  0.00     0.127 A   
ATOM     4   N4  UNL     1      -0.193  -0.195  -0.431  1.00  0.00    -0.131 NA  
ATOM     5   N5  UNL     1      -1.492  -0.015  -0.601  1.00  0.00    -0.071 NA  
ENDROOT
BRANCH   1   6
ATOM     6   C7  UNL     1      -3.192   1.637  -0.074  1.00  0.00     0.059 A   
ATOM     7   C3  UNL     1      -4.875   3.328   0.538  1.00  0.00     0.030 A   
ATOM     8   C4  UNL     1      -5.829   2.529  -0.112  1.00  0.00     0.023 A   
ATOM     9   C25 UNL     1      -3.550   2.846   0.549  1.00  0.00     0.049 A   
ATOM     10  C5  UNL     1      -5.486   1.327  -0.740  1.00  0.00     0.004 A   
ATOM     11  C6  UNL     1      -4.170   0.880  -0.725  1.00  0.00     0.026 A   
BRANCH   7  12
ATOM     12  N1  UNL     1      -5.203   4.524   1.195  1.00  0.00    -0.337 N   
ATOM     13  C1  UNL     1      -4.291   5.653   0.981  1.00  0.00     0.129 C   
ATOM     14  C2  UNL     1      -6.614   4.897   1.317  1.00  0.00     0.129 C   
ENDBRANCH   7  12
ENDBRANCH   1   6
BRANCH   3  15
ATOM     15  C10 UNL     1       1.752   0.932   0.599  1.00  0.00     0.117 C   
BRANCH  15  16
ATOM     16  N3  UNL     1       2.328  -0.457   0.635  1.00  0.00     0.249 N   
ATOM     17  H12 UNL     1       3.345  -0.462   0.521  1.00  0.00     0.199 HD  
ATOM     18  H13 UNL     1       1.947  -0.958  -0.182  1.00  0.00     0.199 HD  
BRANCH  16  19
ATOM     19  C11 UNL     1       1.978  -1.264   1.838  1.00  0.00     0.164 C   
BRANCH  19  20
ATOM     20  C12 UNL     1       2.470  -2.673   1.679  1.00  0.00    -0.002 A   
ATOM     21  C13 UNL     1       1.683  -3.624   0.986  1.00  0.00     0.012 A   
ATOM     22  C17 UNL     1       3.739  -3.041   2.158  1.00  0.00     0.045 A   
ATOM     23  C14 UNL     1       2.148  -4.927   0.779  1.00  0.00     0.037 A   
ATOM     24  C16 UNL     1       4.167  -4.334   1.936  1.00  0.00     0.109 A   
ATOM     25  C15 UNL     1       3.395  -5.250   1.266  1.00  0.00     0.108 A   
ATOM     26  O1  UNL     1       5.363  -4.849   2.328  1.00  0.00    -0.316 OA  
ATOM     27  O2  UNL     1       4.007  -6.458   1.151  1.00  0.00    -0.316 OA  
ATOM     28  C18 UNL     1       5.242  -6.211   1.857  1.00  0.00     0.337 C   
ENDBRANCH  19  20
ENDBRANCH  16  19
ENDBRANCH  15  16
BRANCH  15  29
ATOM     29  C19 UNL     1       2.554   1.824  -0.389  1.00  0.00     0.043 C   
ATOM     30  C20 UNL     1       3.954   2.163   0.160  1.00  0.00     0.010 C   
ATOM     31  C24 UNL     1       2.663   1.238  -1.812  1.00  0.00     0.010 C   
ATOM     32  C21 UNL     1       4.722   3.089  -0.783  1.00  0.00     0.001 C   
ATOM     33  C23 UNL     1       3.436   2.169  -2.747  1.00  0.00     0.001 C   
ATOM     34  C22 UNL     1       4.814   2.507  -2.190  1.00  0.00     0.000 C   
ENDBRANCH  15  29
ENDBRANCH   3  15
TORSDOF 7
