REMARK SMILES c1cc2c(cc1C[NH2+][C@H](c1cn(CCc3[nH]nc4c3CCC4)nn1)C1CCCC1)OCO2
REMARK SMILES IDX 10 1 11 2 12 3 23 4 24 5 9 7 8 8 7 11 6 12 1 13 2 14 3 15
REMARK SMILES IDX 5 16 4 17 32 18 30 19 31 20 25 21 26 22 29 23 27 24 28 25
REMARK SMILES IDX 13 26 14 27 15 28 16 29 19 30 17 31 18 32 20 33 22 34 21 35
REMARK H PARENT 11 6 8 9 8 10 16 36
ROOT
ATOM     1   C9  UNL     1       0.025  -1.789   0.715  1.00  0.00     0.127 A   
ATOM     2   C10 UNL     1       1.198  -2.383   0.293  1.00  0.00     0.045 A   
ATOM     3   N2  UNL     1       1.899  -2.590   1.455  1.00  0.00    -0.212 N   
ATOM     4   N5  UNL     1       1.148  -2.280   2.526  1.00  0.00    -0.076 NA  
ATOM     5   N6  UNL     1       0.005  -1.777   2.086  1.00  0.00    -0.132 NA  
ATOM     6   H9  UNL     1       1.651  -2.534  -0.676  1.00  0.00     0.083 HD  
ENDROOT
BRANCH   1   7
ATOM     7   C8  UNL     1      -1.037  -1.046  -0.042  1.00  0.00     0.117 C   
BRANCH   7   8
ATOM     8   N1  UNL     1      -0.402   0.088  -0.810  1.00  0.00     0.249 N   
ATOM     9   H6  UNL     1       0.300   0.549  -0.188  1.00  0.00     0.199 HD  
ATOM     10  H7  UNL     1       0.185  -0.287  -1.559  1.00  0.00     0.199 HD  
BRANCH   8  11
ATOM     11  C7  UNL     1      -1.269   1.173  -1.334  1.00  0.00     0.164 C   
BRANCH  11  12
ATOM     12  C6  UNL     1      -2.030   1.912  -0.271  1.00  0.00    -0.002 A   
ATOM     13  C1  UNL     1      -1.357   2.799   0.604  1.00  0.00     0.012 A   
ATOM     14  C2  UNL     1      -2.046   3.471   1.619  1.00  0.00     0.037 A   
ATOM     15  C3  UNL     1      -3.398   3.241   1.739  1.00  0.00     0.108 A   
ATOM     16  C5  UNL     1      -3.412   1.709  -0.117  1.00  0.00     0.045 A   
ATOM     17  C4  UNL     1      -4.061   2.385   0.895  1.00  0.00     0.109 A   
ATOM     18  O2  UNL     1      -4.223   3.800   2.662  1.00  0.00    -0.316 OA  
ATOM     19  O1  UNL     1      -5.387   2.295   1.181  1.00  0.00    -0.316 OA  
ATOM     20  C24 UNL     1      -5.488   3.207   2.298  1.00  0.00     0.337 C   
ENDBRANCH  11  12
ENDBRANCH   8  11
ENDBRANCH   7   8
BRANCH   7  21
ATOM     21  C19 UNL     1      -1.919  -1.901  -0.968  1.00  0.00     0.043 C   
ATOM     22  C20 UNL     1      -2.558  -3.119  -0.297  1.00  0.00     0.010 C   
ATOM     23  C23 UNL     1      -1.255  -2.521  -2.198  1.00  0.00     0.010 C   
ATOM     24  C21 UNL     1      -3.121  -3.923  -1.464  1.00  0.00     0.001 C   
ATOM     25  C22 UNL     1      -2.261  -3.566  -2.678  1.00  0.00     0.001 C   
ENDBRANCH   7  21
ENDBRANCH   1   7
BRANCH   3  26
ATOM     26  C11 UNL     1       3.344  -2.681   1.584  1.00  0.00     0.140 C   
BRANCH  26  27
ATOM     27  C12 UNL     1       3.982  -1.335   1.984  1.00  0.00     0.074 C   
BRANCH  27  28
ATOM     28  C13 UNL     1       3.506  -0.209   1.122  1.00  0.00     0.032 A   
ATOM     29  N3  UNL     1       2.343   0.489   1.415  1.00  0.00    -0.242 N   
ATOM     30  C15 UNL     1       3.950   0.350  -0.041  1.00  0.00    -0.006 A   
ATOM     31  N4  UNL     1       1.867   1.204   0.344  1.00  0.00    -0.189 NA  
ATOM     32  C14 UNL     1       2.938   1.220  -0.447  1.00  0.00     0.063 A   
ATOM     33  C16 UNL     1       5.056   0.288  -1.013  1.00  0.00     0.039 C   
ATOM     34  C18 UNL     1       3.228   1.870  -1.740  1.00  0.00     0.058 C   
ATOM     35  C17 UNL     1       4.431   1.010  -2.256  1.00  0.00     0.011 C   
ATOM     36  H14 UNL     1       1.759   0.384   2.244  1.00  0.00     0.175 HD  
ENDBRANCH  27  28
ENDBRANCH  26  27
ENDBRANCH   3  26
TORSDOF 8
