REMARK SMILES CCc1nc(Cn2cc([C@H](CC(C)C)[NH2+]Cc3ccc4c(c3)OCO4)nn2)cs1
REMARK SMILES IDX 7 1 8 2 9 3 26 4 27 5 6 7 5 8 3 9 4 10 29 11 28 12 2 13 1 14
REMARK SMILES IDX 10 15 11 16 12 17 13 18 14 19 15 20 16 23 17 24 18 25 22 26
REMARK SMILES IDX 19 27 21 28 20 29 23 30 25 31 24 32
REMARK H PARENT 8 6 15 21 15 22
ROOT
ATOM     1   N2  UNL     1      -2.372   1.969  -0.879  1.00  0.00    -0.206 N   
ATOM     2   C6  UNL     1      -1.401   1.624   0.023  1.00  0.00     0.046 A   
ATOM     3   C7  UNL     1      -0.226   1.973  -0.603  1.00  0.00     0.127 A   
ATOM     4   N4  UNL     1      -0.513   2.529  -1.824  1.00  0.00    -0.132 NA  
ATOM     5   N5  UNL     1      -1.826   2.515  -1.985  1.00  0.00    -0.076 NA  
ATOM     6   H8  UNL     1      -1.637   1.148   0.965  1.00  0.00     0.083 HD  
ENDROOT
BRANCH   1   7
ATOM     7   C5  UNL     1      -3.808   1.790  -0.765  1.00  0.00     0.190 C   
BRANCH   7   8
ATOM     8   C4  UNL     1      -4.161   0.372  -1.059  1.00  0.00     0.067 A   
ATOM     9   C3  UNL     1      -4.345  -1.771  -0.502  1.00  0.00     0.077 A   
ATOM     10  N1  UNL     1      -3.948  -0.589  -0.076  1.00  0.00    -0.248 NA  
ATOM     11  S1  UNL     1      -4.944  -1.809  -2.112  1.00  0.00    -0.081 S   
ATOM     12  C21 UNL     1      -4.694  -0.120  -2.236  1.00  0.00     0.072 A   
BRANCH   9  13
ATOM     13  C2  UNL     1      -4.290  -3.023   0.318  1.00  0.00     0.060 C   
ATOM     14  C1  UNL     1      -2.867  -3.547   0.430  1.00  0.00     0.011 C   
ENDBRANCH   9  13
ENDBRANCH   7   8
ENDBRANCH   1   7
BRANCH   3  15
ATOM     15  C8  UNL     1       1.196   1.779  -0.194  1.00  0.00     0.114 C   
BRANCH  15  16
ATOM     16  C9  UNL     1       1.762   3.067   0.441  1.00  0.00     0.064 C   
BRANCH  16  17
ATOM     17  C10 UNL     1       3.211   2.995   0.966  1.00  0.00    -0.012 C   
ATOM     18  C11 UNL     1       3.412   1.879   1.991  1.00  0.00     0.007 C   
ATOM     19  C12 UNL     1       3.598   4.342   1.587  1.00  0.00     0.007 C   
ENDBRANCH  16  17
ENDBRANCH  15  16
BRANCH  15  20
ATOM     20  N3  UNL     1       2.040   1.407  -1.390  1.00  0.00     0.249 N   
ATOM     21  H19 UNL     1       1.882   2.140  -2.095  1.00  0.00     0.199 HD  
ATOM     22  H20 UNL     1       3.033   1.420  -1.149  1.00  0.00     0.199 HD  
BRANCH  20  23
ATOM     23  C13 UNL     1       1.725   0.095  -2.036  1.00  0.00     0.164 C   
BRANCH  23  24
ATOM     24  C14 UNL     1       2.006  -1.079  -1.141  1.00  0.00    -0.002 A   
ATOM     25  C15 UNL     1       0.937  -1.806  -0.562  1.00  0.00     0.012 A   
ATOM     26  C19 UNL     1       3.331  -1.444  -0.846  1.00  0.00     0.045 A   
ATOM     27  C16 UNL     1       1.183  -2.876   0.305  1.00  0.00     0.037 A   
ATOM     28  C18 UNL     1       3.537  -2.503   0.014  1.00  0.00     0.109 A   
ATOM     29  C17 UNL     1       2.494  -3.198   0.574  1.00  0.00     0.108 A   
ATOM     30  O1  UNL     1       4.748  -2.975   0.408  1.00  0.00    -0.316 OA  
ATOM     31  O2  UNL     1       2.917  -4.199   1.389  1.00  0.00    -0.316 OA  
ATOM     32  C20 UNL     1       4.350  -4.074   1.260  1.00  0.00     0.337 C   
ENDBRANCH  23  24
ENDBRANCH  20  23
ENDBRANCH  15  20
ENDBRANCH   3  15
TORSDOF 9
