REMARK SMILES CCc1ccc([C@H](CO)n2cc([C@H](CC(C)C)[NH2+]Cc3ccc4c(c3)OCO4)nn2)cc1
REMARK SMILES IDX 10 1 11 2 12 3 29 4 30 5 7 7 6 8 3 9 4 10 32 11 5 12 31 13
REMARK SMILES IDX 2 14 1 15 8 16 9 17 13 19 14 20 15 21 16 22 17 23 18 24
REMARK SMILES IDX 19 27 20 28 21 29 25 30 22 31 24 32 23 33 26 34 28 35 27 36
REMARK H PARENT 11 6 9 18 18 25 18 26
ROOT
ATOM     1   N1  UNL     1       0.692  -0.282   2.432  1.00  0.00    -0.202 N   
ATOM     2   C9  UNL     1       0.330   0.792   1.663  1.00  0.00     0.046 A   
ATOM     3   C10 UNL     1       0.540   0.370   0.372  1.00  0.00     0.127 A   
ATOM     4   N3  UNL     1       1.044  -0.906   0.393  1.00  0.00    -0.132 NA  
ATOM     5   N4  UNL     1       1.147  -1.288   1.655  1.00  0.00    -0.075 NA  
ATOM     6   H12 UNL     1      -0.048   1.707   2.099  1.00  0.00     0.083 HD  
ENDROOT
BRANCH   1   7
ATOM     7   C7  UNL     1       0.601  -0.449   3.883  1.00  0.00     0.155 C   
BRANCH   7   8
ATOM     8   C6  UNL     1      -0.830  -0.216   4.352  1.00  0.00    -0.023 A   
ATOM     9   C3  UNL     1      -3.526   0.128   5.146  1.00  0.00    -0.048 A   
ATOM     10  C4  UNL     1      -2.594   1.156   5.320  1.00  0.00     0.004 A   
ATOM     11  C25 UNL     1      -3.107  -1.071   4.562  1.00  0.00     0.004 A   
ATOM     12  C5  UNL     1      -1.262   0.987   4.929  1.00  0.00     0.006 A   
ATOM     13  C24 UNL     1      -1.778  -1.241   4.170  1.00  0.00     0.006 A   
BRANCH   9  14
ATOM     14  C2  UNL     1      -4.965   0.318   5.556  1.00  0.00     0.032 C   
ATOM     15  C1  UNL     1      -5.821   0.814   4.402  1.00  0.00     0.009 C   
ENDBRANCH   9  14
ENDBRANCH   7   8
BRANCH   7  16
ATOM     16  C8  UNL     1       1.721   0.321   4.614  1.00  0.00     0.185 C   
BRANCH  16  17
ATOM     17  O1  UNL     1       1.742   1.717   4.309  1.00  0.00    -0.394 OA  
ATOM     18  H11 UNL     1       2.423   2.120   4.881  1.00  0.00     0.210 HD  
ENDBRANCH  16  17
ENDBRANCH   7  16
ENDBRANCH   1   7
BRANCH   3  19
ATOM     19  C11 UNL     1       0.311   1.055  -0.931  1.00  0.00     0.114 C   
BRANCH  19  20
ATOM     20  C12 UNL     1      -1.182   1.232  -1.273  1.00  0.00     0.064 C   
BRANCH  20  21
ATOM     21  C13 UNL     1      -2.110  -0.003  -1.193  1.00  0.00    -0.012 C   
ATOM     22  C14 UNL     1      -1.792  -1.087  -2.222  1.00  0.00     0.007 C   
ATOM     23  C15 UNL     1      -3.564   0.451  -1.377  1.00  0.00     0.007 C   
ENDBRANCH  20  21
ENDBRANCH  19  20
BRANCH  19  24
ATOM     24  N2  UNL     1       1.015   0.344  -2.050  1.00  0.00     0.249 N   
ATOM     25  H23 UNL     1       0.559   0.505  -2.954  1.00  0.00     0.199 HD  
ATOM     26  H24 UNL     1       0.937  -0.664  -1.855  1.00  0.00     0.199 HD  
BRANCH  24  27
ATOM     27  C16 UNL     1       2.470   0.635  -2.170  1.00  0.00     0.164 C   
BRANCH  27  28
ATOM     28  C17 UNL     1       3.079  -0.189  -3.269  1.00  0.00    -0.002 A   
ATOM     29  C18 UNL     1       3.216   0.344  -4.574  1.00  0.00     0.012 A   
ATOM     30  C22 UNL     1       3.464  -1.518  -3.019  1.00  0.00     0.045 A   
ATOM     31  C19 UNL     1       3.738  -0.432  -5.614  1.00  0.00     0.037 A   
ATOM     32  C21 UNL     1       3.975  -2.255  -4.067  1.00  0.00     0.109 A   
ATOM     33  C20 UNL     1       4.108  -1.728  -5.328  1.00  0.00     0.108 A   
ATOM     34  O2  UNL     1       4.391  -3.546  -3.997  1.00  0.00    -0.316 OA  
ATOM     35  O3  UNL     1       4.627  -2.620  -6.211  1.00  0.00    -0.316 OA  
ATOM     36  C23 UNL     1       4.829  -3.768  -5.357  1.00  0.00     0.337 C   
ENDBRANCH  27  28
ENDBRANCH  24  27
ENDBRANCH  19  24
ENDBRANCH   3  19
TORSDOF 11
