REMARK SMILES CCc1ccc([C@@H](CO)n2cc([C@H](CC(C)C)[NH2+]Cc3ccc4c(c3)OCO4)nn2)cc1
REMARK SMILES IDX 10 1 11 2 12 3 29 4 30 5 7 7 6 8 3 9 4 10 32 11 5 12 31 13
REMARK SMILES IDX 2 14 1 15 8 16 9 17 13 19 14 20 15 21 16 22 17 23 18 24
REMARK SMILES IDX 19 27 20 28 21 29 25 30 22 31 24 32 23 33 26 34 28 35 27 36
REMARK H PARENT 11 6 9 18 18 25 18 26
ROOT
ATOM     1   N1  UNL     1      -1.717  -1.863   0.547  1.00  0.00    -0.202 N   
ATOM     2   C9  UNL     1      -1.381  -0.586   0.915  1.00  0.00     0.046 A   
ATOM     3   C10 UNL     1      -1.460   0.135  -0.253  1.00  0.00     0.127 A   
ATOM     4   N3  UNL     1      -1.826  -0.703  -1.276  1.00  0.00    -0.132 NA  
ATOM     5   N4  UNL     1      -1.972  -1.920  -0.779  1.00  0.00    -0.075 NA  
ATOM     6   H12 UNL     1      -1.139  -0.330   1.938  1.00  0.00     0.083 HD  
ENDROOT
BRANCH   1   7
ATOM     7   C7  UNL     1      -1.798  -3.069   1.369  1.00  0.00     0.155 C   
BRANCH   7   8
ATOM     8   C6  UNL     1      -0.463  -3.334   2.057  1.00  0.00    -0.023 A   
ATOM     9   C3  UNL     1       2.063  -3.840   3.232  1.00  0.00    -0.048 A   
ATOM     10  C4  UNL     1       1.819  -4.187   1.901  1.00  0.00     0.004 A   
ATOM     11  C25 UNL     1       1.043  -3.229   3.968  1.00  0.00     0.004 A   
ATOM     12  C5  UNL     1       0.573  -3.937   1.320  1.00  0.00     0.006 A   
ATOM     13  C24 UNL     1      -0.205  -2.980   3.389  1.00  0.00     0.006 A   
BRANCH   9  14
ATOM     14  C2  UNL     1       3.410  -4.097   3.859  1.00  0.00     0.032 C   
ATOM     15  C1  UNL     1       4.356  -2.921   3.665  1.00  0.00     0.009 C   
ENDBRANCH   9  14
ENDBRANCH   7   8
BRANCH   7  16
ATOM     16  C8  UNL     1      -3.063  -3.066   2.253  1.00  0.00     0.185 C   
BRANCH  16  17
ATOM     17  O1  UNL     1      -3.155  -1.926   3.109  1.00  0.00    -0.394 OA  
ATOM     18  H11 UNL     1      -3.975  -2.029   3.628  1.00  0.00     0.210 HD  
ENDBRANCH  16  17
ENDBRANCH   7  16
ENDBRANCH   1   7
BRANCH   3  19
ATOM     19  C11 UNL     1      -1.197   1.579  -0.531  1.00  0.00     0.114 C   
BRANCH  19  20
ATOM     20  C12 UNL     1      -2.512   2.384  -0.438  1.00  0.00     0.064 C   
BRANCH  20  21
ATOM     21  C13 UNL     1      -2.463   3.925  -0.553  1.00  0.00    -0.012 C   
ATOM     22  C14 UNL     1      -1.262   4.559   0.143  1.00  0.00     0.007 C   
ATOM     23  C15 UNL     1      -2.596   4.431  -1.991  1.00  0.00     0.007 C   
ENDBRANCH  20  21
ENDBRANCH  19  20
BRANCH  19  24
ATOM     24  N2  UNL     1      -0.590   1.745  -1.892  1.00  0.00     0.249 N   
ATOM     25  H23 UNL     1      -1.209   1.268  -2.563  1.00  0.00     0.199 HD  
ATOM     26  H24 UNL     1      -0.554   2.727  -2.167  1.00  0.00     0.199 HD  
BRANCH  24  27
ATOM     27  C16 UNL     1       0.777   1.174  -2.061  1.00  0.00     0.164 C   
BRANCH  27  28
ATOM     28  C17 UNL     1       1.293   1.470  -3.441  1.00  0.00    -0.002 A   
ATOM     29  C18 UNL     1       2.072   2.627  -3.682  1.00  0.00     0.012 A   
ATOM     30  C22 UNL     1       0.948   0.629  -4.515  1.00  0.00     0.045 A   
ATOM     31  C19 UNL     1       2.513   2.939  -4.972  1.00  0.00     0.037 A   
ATOM     32  C21 UNL     1       1.398   0.967  -5.774  1.00  0.00     0.109 A   
ATOM     33  C20 UNL     1       2.159   2.089  -5.997  1.00  0.00     0.108 A   
ATOM     34  O2  UNL     1       1.151   0.271  -6.916  1.00  0.00    -0.316 OA  
ATOM     35  O3  UNL     1       2.490   2.239  -7.305  1.00  0.00    -0.316 OA  
ATOM     36  C23 UNL     1       1.875   1.067  -7.883  1.00  0.00     0.337 C   
ENDBRANCH  27  28
ENDBRANCH  24  27
ENDBRANCH  19  24
ENDBRANCH   3  19
TORSDOF 11
