REMARK SMILES CC(C)[C@H]([NH2+]Cc1ccc2c(c1)OCO2)c1cn([C@H](CO)c2cncc(F)c2)nn1
REMARK SMILES IDX 16 1 17 2 18 3 29 4 30 5 4 7 2 8 1 9 3 10 5 11 6 14 7 15
REMARK SMILES IDX 8 16 12 17 9 18 11 19 10 20 13 21 15 22 14 23 19 24 20 25
REMARK SMILES IDX 21 26 22 28 23 29 28 30 24 31 26 32 25 33 27 34
REMARK H PARENT 17 6 5 12 5 13 21 27
ROOT
ATOM     1   C13 UNL     1      -1.005   0.225  -0.895  1.00  0.00     0.127 A   
ATOM     2   C14 UNL     1      -1.127   1.513  -1.364  1.00  0.00     0.046 A   
ATOM     3   N2  UNL     1      -1.431   2.251  -0.251  1.00  0.00    -0.202 N   
ATOM     4   N4  UNL     1      -1.458   1.462   0.845  1.00  0.00    -0.075 NA  
ATOM     5   N5  UNL     1      -1.207   0.221   0.462  1.00  0.00    -0.132 NA  
ATOM     6   H18 UNL     1      -1.038   1.958  -2.345  1.00  0.00     0.083 HD  
ENDROOT
BRANCH   1   7
ATOM     7   C4  UNL     1      -0.647  -1.047  -1.593  1.00  0.00     0.117 C   
BRANCH   7   8
ATOM     8   C2  UNL     1      -1.864  -1.838  -2.139  1.00  0.00     0.037 C   
ATOM     9   C1  UNL     1      -2.583  -1.070  -3.253  1.00  0.00     0.014 C   
ATOM     10  C3  UNL     1      -2.874  -2.259  -1.065  1.00  0.00     0.014 C   
ENDBRANCH   7   8
BRANCH   7  11
ATOM     11  N1  UNL     1       0.124  -1.945  -0.656  1.00  0.00     0.249 N   
ATOM     12  H9  UNL     1       0.117  -2.919  -0.976  1.00  0.00     0.199 HD  
ATOM     13  H10 UNL     1      -0.373  -1.930   0.247  1.00  0.00     0.199 HD  
BRANCH  11  14
ATOM     14  C5  UNL     1       1.529  -1.528  -0.390  1.00  0.00     0.164 C   
BRANCH  14  15
ATOM     15  C6  UNL     1       2.158  -2.431   0.632  1.00  0.00    -0.002 A   
ATOM     16  C7  UNL     1       1.989  -2.165   2.013  1.00  0.00     0.012 A   
ATOM     17  C11 UNL     1       2.869  -3.573   0.228  1.00  0.00     0.045 A   
ATOM     18  C8  UNL     1       2.532  -3.018   2.979  1.00  0.00     0.037 A   
ATOM     19  C10 UNL     1       3.391  -4.393   1.207  1.00  0.00     0.109 A   
ATOM     20  C9  UNL     1       3.228  -4.123   2.544  1.00  0.00     0.108 A   
ATOM     21  O1  UNL     1       4.101  -5.530   0.989  1.00  0.00    -0.316 OA  
ATOM     22  O2  UNL     1       3.819  -5.055   3.336  1.00  0.00    -0.316 OA  
ATOM     23  C12 UNL     1       4.392  -5.936   2.346  1.00  0.00     0.337 C   
ENDBRANCH  14  15
ENDBRANCH  11  14
ENDBRANCH   7  11
ENDBRANCH   1   7
BRANCH   3  24
ATOM     24  C15 UNL     1      -1.642   3.693  -0.124  1.00  0.00     0.157 C   
BRANCH  24  25
ATOM     25  C16 UNL     1      -2.948   4.149  -0.806  1.00  0.00     0.186 C   
BRANCH  25  26
ATOM     26  O3  UNL     1      -2.986   3.849  -2.201  1.00  0.00    -0.394 OA  
ATOM     27  H22 UNL     1      -3.822   4.214  -2.549  1.00  0.00     0.210 HD  
ENDBRANCH  25  26
ENDBRANCH  24  25
BRANCH  24  28
ATOM     28  C17 UNL     1      -0.374   4.439  -0.496  1.00  0.00    -0.002 A   
ATOM     29  C18 UNL     1      -0.117   4.923  -1.779  1.00  0.00     0.117 A   
ATOM     30  C21 UNL     1       0.634   4.629   0.465  1.00  0.00     0.048 A   
ATOM     31  N3  UNL     1       1.027   5.552  -2.141  1.00  0.00    -0.261 NA  
ATOM     32  C20 UNL     1       1.808   5.283   0.115  1.00  0.00     0.141 A   
ATOM     33  C19 UNL     1       1.964   5.727  -1.182  1.00  0.00     0.150 A   
ATOM     34  F1  UNL     1       2.773   5.463   1.024  1.00  0.00    -0.205 F   
ENDBRANCH  24  28
ENDBRANCH   3  24
TORSDOF 9
