REMARK SMILES CC(C)[C@H]([NH2+]Cc1ccc2c(c1)OCO2)c1cn([C@@H](CO)c2cncc(F)c2)nn1
REMARK SMILES IDX 16 1 17 2 18 3 29 4 30 5 4 7 2 8 1 9 3 10 5 11 6 14 7 15
REMARK SMILES IDX 8 16 12 17 9 18 11 19 10 20 13 21 15 22 14 23 19 24 20 25
REMARK SMILES IDX 21 26 22 28 23 29 28 30 24 31 26 32 25 33 27 34
REMARK H PARENT 17 6 5 12 5 13 21 27
ROOT
ATOM     1   C13 UNL     1      -1.037  -0.698   0.277  1.00  0.00     0.127 A   
ATOM     2   C14 UNL     1      -0.074  -0.123   1.076  1.00  0.00     0.046 A   
ATOM     3   N2  UNL     1       0.887  -1.093   1.189  1.00  0.00    -0.202 N   
ATOM     4   N4  UNL     1       0.540  -2.191   0.482  1.00  0.00    -0.075 NA  
ATOM     5   N5  UNL     1      -0.641  -1.967  -0.065  1.00  0.00    -0.132 NA  
ATOM     6   H18 UNL     1       0.022   0.846   1.547  1.00  0.00     0.083 HD  
ENDROOT
BRANCH   1   7
ATOM     7   C4  UNL     1      -2.320  -0.163  -0.279  1.00  0.00     0.117 C   
BRANCH   7   8
ATOM     8   C2  UNL     1      -3.519  -0.386   0.681  1.00  0.00     0.037 C   
ATOM     9   C1  UNL     1      -4.768   0.371   0.212  1.00  0.00     0.014 C   
ATOM     10  C3  UNL     1      -3.867  -1.860   0.920  1.00  0.00     0.014 C   
ENDBRANCH   7   8
BRANCH   7  11
ATOM     11  N1  UNL     1      -2.590  -0.800  -1.625  1.00  0.00     0.249 N   
ATOM     12  H9  UNL     1      -3.577  -1.046  -1.730  1.00  0.00     0.199 HD  
ATOM     13  H10 UNL     1      -2.079  -1.698  -1.613  1.00  0.00     0.199 HD  
BRANCH  11  14
ATOM     14  C5  UNL     1      -2.148  -0.032  -2.823  1.00  0.00     0.164 C   
BRANCH  14  15
ATOM     15  C6  UNL     1      -0.669   0.227  -2.874  1.00  0.00    -0.002 A   
ATOM     16  C7  UNL     1       0.234  -0.820  -3.181  1.00  0.00     0.012 A   
ATOM     17  C11 UNL     1      -0.165   1.503  -2.573  1.00  0.00     0.045 A   
ATOM     18  C8  UNL     1       1.617  -0.602  -3.183  1.00  0.00     0.037 A   
ATOM     19  C10 UNL     1       1.203   1.681  -2.576  1.00  0.00     0.109 A   
ATOM     20  C9  UNL     1       2.070   0.660  -2.875  1.00  0.00     0.108 A   
ATOM     21  O1  UNL     1       1.849   2.840  -2.286  1.00  0.00    -0.316 OA  
ATOM     22  O2  UNL     1       3.370   1.047  -2.821  1.00  0.00    -0.316 OA  
ATOM     23  C12 UNL     1       3.229   2.438  -2.465  1.00  0.00     0.337 C   
ENDBRANCH  14  15
ENDBRANCH  11  14
ENDBRANCH   7  11
ENDBRANCH   1   7
BRANCH   3  24
ATOM     24  C15 UNL     1       2.143  -1.030   1.942  1.00  0.00     0.157 C   
BRANCH  24  25
ATOM     25  C16 UNL     1       2.318  -2.239   2.878  1.00  0.00     0.186 C   
BRANCH  25  26
ATOM     26  O3  UNL     1       1.418  -2.137   3.984  1.00  0.00    -0.394 OA  
ATOM     27  H22 UNL     1       1.554  -2.936   4.536  1.00  0.00     0.210 HD  
ENDBRANCH  25  26
ENDBRANCH  24  25
BRANCH  24  28
ATOM     28  C17 UNL     1       3.313  -0.825   1.004  1.00  0.00    -0.002 A   
ATOM     29  C18 UNL     1       3.984   0.399   0.982  1.00  0.00     0.117 A   
ATOM     30  C21 UNL     1       3.776  -1.823   0.134  1.00  0.00     0.048 A   
ATOM     31  N3  UNL     1       5.039   0.677   0.185  1.00  0.00    -0.261 NA  
ATOM     32  C20 UNL     1       4.860  -1.560  -0.692  1.00  0.00     0.141 A   
ATOM     33  C19 UNL     1       5.460  -0.317  -0.636  1.00  0.00     0.150 A   
ATOM     34  F1  UNL     1       5.310  -2.502  -1.532  1.00  0.00    -0.205 F   
ENDBRANCH  24  28
ENDBRANCH   3  24
TORSDOF 9
