REMARK SMILES CC(C)[C@H]([NH2+]Cc1ccc2c(c1)OCO2)c1cn(Cc2cc(F)ccc2N([O-])[O-])nn1
REMARK SMILES IDX 16 1 17 2 18 3 30 4 31 5 4 7 2 8 1 9 3 10 5 11 6 14 7 15
REMARK SMILES IDX 8 16 12 17 9 18 11 19 10 20 13 21 15 22 14 23 19 24 20 25
REMARK SMILES IDX 21 26 26 27 22 28 25 29 24 30 23 31 27 32 28 33 29 34
REMARK H PARENT 17 6 5 12 5 13
ROOT
ATOM     1   C13 UNL     1      -0.055   1.582   1.241  1.00  0.00     0.127 A   
ATOM     2   C14 UNL     1      -1.221   2.137   0.759  1.00  0.00     0.046 A   
ATOM     3   N2  UNL     1      -0.793   3.286   0.146  1.00  0.00    -0.208 N   
ATOM     4   N4  UNL     1       0.503   3.527   0.425  1.00  0.00    -0.076 NA  
ATOM     5   N5  UNL     1       0.974   2.475   1.072  1.00  0.00    -0.132 NA  
ATOM     6   H18 UNL     1      -2.227   1.752   0.636  1.00  0.00     0.083 HD  
ENDROOT
BRANCH   1   7
ATOM     7   C4  UNL     1       0.256   0.172   1.632  1.00  0.00     0.117 C   
BRANCH   7   8
ATOM     8   C2  UNL     1       0.523  -0.034   3.139  1.00  0.00     0.037 C   
ATOM     9   C1  UNL     1      -0.709   0.339   3.975  1.00  0.00     0.014 C   
ATOM     10  C3  UNL     1       1.758   0.698   3.684  1.00  0.00     0.014 C   
ENDBRANCH   7   8
BRANCH   7  11
ATOM     11  N1  UNL     1       1.435  -0.242   0.783  1.00  0.00     0.249 N   
ATOM     12  H9  UNL     1       1.182  -0.010  -0.198  1.00  0.00     0.199 HD  
ATOM     13  H10 UNL     1       2.205   0.412   0.984  1.00  0.00     0.199 HD  
BRANCH  11  14
ATOM     14  C5  UNL     1       1.911  -1.641   0.817  1.00  0.00     0.164 C   
BRANCH  14  15
ATOM     15  C6  UNL     1       0.923  -2.625   0.259  1.00  0.00    -0.002 A   
ATOM     16  C7  UNL     1       0.205  -3.486   1.125  1.00  0.00     0.012 A   
ATOM     17  C11 UNL     1       0.702  -2.696  -1.131  1.00  0.00     0.045 A   
ATOM     18  C8  UNL     1      -0.709  -4.414   0.617  1.00  0.00     0.037 A   
ATOM     19  C10 UNL     1      -0.200  -3.626  -1.601  1.00  0.00     0.109 A   
ATOM     20  C9  UNL     1      -0.882  -4.465  -0.751  1.00  0.00     0.108 A   
ATOM     21  O1  UNL     1      -0.514  -3.842  -2.910  1.00  0.00    -0.316 OA  
ATOM     22  O2  UNL     1      -1.704  -5.322  -1.415  1.00  0.00    -0.316 OA  
ATOM     23  C12 UNL     1      -1.410  -4.973  -2.789  1.00  0.00     0.337 C   
ENDBRANCH  14  15
ENDBRANCH  11  14
ENDBRANCH   7  11
ENDBRANCH   1   7
BRANCH   3  24
ATOM     24  C15 UNL     1      -1.460   4.008  -0.929  1.00  0.00     0.171 C   
BRANCH  24  25
ATOM     25  C16 UNL     1      -0.702   3.938  -2.245  1.00  0.00     0.003 A   
ATOM     26  C17 UNL     1      -0.421   5.145  -2.915  1.00  0.00     0.047 A   
ATOM     27  C21 UNL     1      -0.264   2.745  -2.870  1.00  0.00     0.123 A   
ATOM     28  C18 UNL     1       0.265   5.145  -4.132  1.00  0.00     0.123 A   
ATOM     29  C20 UNL     1       0.426   2.745  -4.094  1.00  0.00     0.034 A   
ATOM     30  C19 UNL     1       0.688   3.959  -4.726  1.00  0.00     0.041 A   
ATOM     31  F1  UNL     1       0.516   6.312  -4.740  1.00  0.00    -0.207 F   
BRANCH  27  32
ATOM     32  N3  UNL     1      -0.516   1.445  -2.270  1.00  0.00     0.092 N   
ATOM     33  O3  UNL     1       0.463   0.798  -1.851  1.00  0.00    -0.138 OA  
ATOM     34  O4  UNL     1      -1.696   1.095  -2.162  1.00  0.00    -0.138 OA  
ENDBRANCH  27  32
ENDBRANCH  24  25
ENDBRANCH   3  24
TORSDOF 8
