REMARK SMILES CC(C)Cc1n[nH]cc1Cn1cc([C@H](CC(C)C)[NH2+]Cc2ccc3c(c2)OCO3)nn1
REMARK SMILES IDX 11 1 12 2 13 3 30 4 31 5 10 7 9 8 5 9 6 10 7 11 8 12 4 14
REMARK SMILES IDX 2 15 1 16 3 17 14 18 15 19 16 20 17 21 18 22 19 23 20 26
REMARK SMILES IDX 21 27 22 28 26 29 23 30 25 31 24 32 27 33 29 34 28 35
REMARK H PARENT 12 6 7 13 19 24 19 25
ROOT
ATOM     1   N3  UNL     1       0.932   1.732  -1.170  1.00  0.00    -0.208 N   
ATOM     2   C9  UNL     1       0.297   1.224  -0.068  1.00  0.00     0.046 A   
ATOM     3   C10 UNL     1      -0.173   0.001  -0.490  1.00  0.00     0.127 A   
ATOM     4   N5  UNL     1       0.106  -0.152  -1.824  1.00  0.00    -0.132 NA  
ATOM     5   N6  UNL     1       0.757   0.925  -2.234  1.00  0.00    -0.076 NA  
ATOM     6   H14 UNL     1       0.297   1.734   0.885  1.00  0.00     0.083 HD  
ENDROOT
BRANCH   1   7
ATOM     7   C8  UNL     1       1.717   2.953  -1.277  1.00  0.00     0.172 C   
BRANCH   7   8
ATOM     8   C7  UNL     1       2.853   2.935  -0.315  1.00  0.00     0.010 A   
ATOM     9   C5  UNL     1       4.038   2.142  -0.363  1.00  0.00     0.065 A   
ATOM     10  N1  UNL     1       4.834   2.392   0.683  1.00  0.00    -0.189 NA  
ATOM     11  N2  UNL     1       4.193   3.335   1.383  1.00  0.00    -0.245 N   
ATOM     12  C6  UNL     1       2.997   3.690   0.835  1.00  0.00     0.099 A   
ATOM     13  H10 UNL     1       4.634   3.692   2.226  1.00  0.00     0.175 HD  
BRANCH   9  14
ATOM     14  C4  UNL     1       4.464   1.143  -1.397  1.00  0.00     0.061 C   
BRANCH  14  15
ATOM     15  C2  UNL     1       4.081  -0.312  -1.063  1.00  0.00    -0.011 C   
ATOM     16  C1  UNL     1       4.886  -0.873   0.112  1.00  0.00     0.008 C   
ATOM     17  C3  UNL     1       4.287  -1.198  -2.294  1.00  0.00     0.008 C   
ENDBRANCH  14  15
ENDBRANCH   9  14
ENDBRANCH   7   8
ENDBRANCH   1   7
BRANCH   3  18
ATOM     18  C11 UNL     1      -0.897  -1.076   0.243  1.00  0.00     0.114 C   
BRANCH  18  19
ATOM     19  C12 UNL     1       0.054  -2.183   0.743  1.00  0.00     0.064 C   
BRANCH  19  20
ATOM     20  C13 UNL     1       1.103  -1.732   1.783  1.00  0.00    -0.012 C   
ATOM     21  C14 UNL     1       0.460  -1.199   3.065  1.00  0.00     0.007 C   
ATOM     22  C15 UNL     1       2.032  -2.902   2.120  1.00  0.00     0.007 C   
ENDBRANCH  19  20
ENDBRANCH  18  19
BRANCH  18  23
ATOM     23  N4  UNL     1      -1.907  -1.748  -0.667  1.00  0.00     0.249 N   
ATOM     24  H25 UNL     1      -1.387  -2.049  -1.504  1.00  0.00     0.199 HD  
ATOM     25  H26 UNL     1      -2.279  -2.590  -0.216  1.00  0.00     0.199 HD  
BRANCH  23  26
ATOM     26  C16 UNL     1      -3.046  -0.904  -1.137  1.00  0.00     0.164 C   
BRANCH  26  27
ATOM     27  C17 UNL     1      -3.936  -0.438  -0.019  1.00  0.00    -0.002 A   
ATOM     28  C18 UNL     1      -4.835  -1.336   0.604  1.00  0.00     0.012 A   
ATOM     29  C22 UNL     1      -3.856   0.888   0.441  1.00  0.00     0.045 A   
ATOM     30  C19 UNL     1      -5.640  -0.923   1.672  1.00  0.00     0.037 A   
ATOM     31  C21 UNL     1      -4.661   1.261   1.496  1.00  0.00     0.109 A   
ATOM     32  C20 UNL     1      -5.528   0.382   2.096  1.00  0.00     0.108 A   
ATOM     33  O1  UNL     1      -4.702   2.499   2.057  1.00  0.00    -0.316 OA  
ATOM     34  O2  UNL     1      -6.225   0.955   3.112  1.00  0.00    -0.316 OA  
ATOM     35  C23 UNL     1      -5.730   2.311   3.057  1.00  0.00     0.337 C   
ENDBRANCH  26  27
ENDBRANCH  23  26
ENDBRANCH  18  23
ENDBRANCH   3  18
TORSDOF 10
