REMARK SMILES CC(C)(C)[C@H]([NH2+]Cc1ccc2c(c1)OCO2)c1cn(-c2ccc(CN)cc2)nn1
REMARK SMILES IDX 17 1 18 2 19 3 28 4 29 5 5 6 2 7 1 8 3 9 4 10 6 11 7 14 8 15
REMARK SMILES IDX 9 16 13 17 10 18 12 19 11 20 14 21 16 22 15 23 20 24 21 25
REMARK SMILES IDX 27 26 22 27 26 28 23 29 24 30 25 31
REMARK H PARENT 6 12 6 13 25 32 25 33
ROOT
ATOM     1   C14 UNL     1      -0.736  -0.360   0.721  1.00  0.00     0.128 A   
ATOM     2   C15 UNL     1       0.633  -0.486   0.792  1.00  0.00     0.135 A   
ATOM     3   N2  UNL     1       0.862  -1.837   0.973  1.00  0.00    -0.181 N   
ATOM     4   N4  UNL     1      -0.334  -2.484   0.961  1.00  0.00    -0.071 NA  
ATOM     5   N5  UNL     1      -1.304  -1.598   0.817  1.00  0.00    -0.131 NA  
ENDROOT
BRANCH   1   6
ATOM     6   C5  UNL     1      -1.611   0.838   0.499  1.00  0.00     0.120 C   
BRANCH   6   7
ATOM     7   C2  UNL     1      -2.096   1.534   1.821  1.00  0.00     0.010 C   
ATOM     8   C1  UNL     1      -2.852   2.842   1.492  1.00  0.00     0.017 C   
ATOM     9   C3  UNL     1      -0.882   1.927   2.694  1.00  0.00     0.017 C   
ATOM     10  C4  UNL     1      -3.025   0.635   2.662  1.00  0.00     0.017 C   
ENDBRANCH   6   7
BRANCH   6  11
ATOM     11  N1  UNL     1      -2.805   0.423  -0.341  1.00  0.00     0.250 N   
ATOM     12  H11 UNL     1      -3.166  -0.444   0.082  1.00  0.00     0.199 HD  
ATOM     13  H12 UNL     1      -3.555   1.115  -0.290  1.00  0.00     0.199 HD  
BRANCH  11  14
ATOM     14  C6  UNL     1      -2.531   0.127  -1.780  1.00  0.00     0.164 C   
BRANCH  14  15
ATOM     15  C7  UNL     1      -2.124   1.346  -2.560  1.00  0.00    -0.002 A   
ATOM     16  C8  UNL     1      -0.801   1.471  -3.049  1.00  0.00     0.012 A   
ATOM     17  C12 UNL     1      -3.045   2.384  -2.788  1.00  0.00     0.045 A   
ATOM     18  C9  UNL     1      -0.396   2.614  -3.746  1.00  0.00     0.037 A   
ATOM     19  C11 UNL     1      -2.612   3.498  -3.478  1.00  0.00     0.109 A   
ATOM     20  C10 UNL     1      -1.325   3.611  -3.942  1.00  0.00     0.108 A   
ATOM     21  O1  UNL     1      -3.369   4.587  -3.773  1.00  0.00    -0.316 OA  
ATOM     22  O2  UNL     1      -1.110   4.785  -4.590  1.00  0.00    -0.316 OA  
ATOM     23  C13 UNL     1      -2.418   5.390  -4.509  1.00  0.00     0.337 C   
ENDBRANCH  14  15
ENDBRANCH  11  14
ENDBRANCH   6  11
ENDBRANCH   1   6
BRANCH   3  24
ATOM     24  C16 UNL     1       2.091  -2.524   1.129  1.00  0.00     0.058 A   
ATOM     25  C17 UNL     1       2.089  -3.917   1.293  1.00  0.00     0.026 A   
ATOM     26  C22 UNL     1       3.308  -1.832   1.119  1.00  0.00     0.026 A   
ATOM     27  C18 UNL     1       3.294  -4.610   1.442  1.00  0.00     0.007 A   
ATOM     28  C21 UNL     1       4.508  -2.534   1.269  1.00  0.00     0.007 A   
ATOM     29  C19 UNL     1       4.514  -3.926   1.435  1.00  0.00    -0.034 A   
BRANCH  29  30
ATOM     30  C20 UNL     1       5.820  -4.666   1.587  1.00  0.00     0.113 C   
BRANCH  30  31
ATOM     31  N3  UNL     1       6.571  -4.659   0.339  1.00  0.00    -0.327 NA  
ATOM     32  H25 UNL     1       7.427  -5.198   0.463  1.00  0.00     0.119 HD  
ATOM     33  H26 UNL     1       6.032  -5.146  -0.374  1.00  0.00     0.119 HD  
ENDBRANCH  30  31
ENDBRANCH  29  30
ENDBRANCH   3  24
TORSDOF 8
