REMARK SMILES CC(C)[C@H]([NH2+]Cc1ccc2c(c1)OCO2)c1cn(-c2ccc(CO)cc2)nn1
REMARK SMILES IDX 16 1 17 2 18 3 27 4 28 5 4 6 2 7 1 8 3 9 5 10 6 13 7 14 8 15
REMARK SMILES IDX 12 16 9 17 11 18 10 19 13 20 15 21 14 22 19 23 20 24 26 25
REMARK SMILES IDX 21 26 25 27 22 28 23 29 24 30
REMARK H PARENT 5 11 5 12 24 31
ROOT
ATOM     1   C13 UNL     1       0.784  -0.069  -0.926  1.00  0.00     0.127 A   
ATOM     2   C14 UNL     1       2.102  -0.442  -1.070  1.00  0.00     0.135 A   
ATOM     3   N2  UNL     1       2.833   0.698  -0.786  1.00  0.00    -0.181 N   
ATOM     4   N3  UNL     1       1.969   1.696  -0.459  1.00  0.00    -0.071 NA  
ATOM     5   N4  UNL     1       0.730   1.245  -0.555  1.00  0.00    -0.131 NA  
ENDROOT
BRANCH   1   6
ATOM     6   C4  UNL     1      -0.486  -0.845  -1.087  1.00  0.00     0.117 C   
BRANCH   6   7
ATOM     7   C2  UNL     1      -0.861  -1.049  -2.579  1.00  0.00     0.037 C   
ATOM     8   C1  UNL     1      -1.966  -2.099  -2.748  1.00  0.00     0.014 C   
ATOM     9   C3  UNL     1      -1.261   0.243  -3.301  1.00  0.00     0.014 C   
ENDBRANCH   6   7
BRANCH   6  10
ATOM     10  N1  UNL     1      -1.614  -0.167  -0.355  1.00  0.00     0.249 N   
ATOM     11  H9  UNL     1      -2.532  -0.451  -0.708  1.00  0.00     0.199 HD  
ATOM     12  H10 UNL     1      -1.532   0.843  -0.547  1.00  0.00     0.199 HD  
BRANCH  10  13
ATOM     13  C5  UNL     1      -1.601  -0.330   1.127  1.00  0.00     0.164 C   
BRANCH  13  14
ATOM     14  C6  UNL     1      -2.697   0.485   1.750  1.00  0.00    -0.002 A   
ATOM     15  C7  UNL     1      -2.460   1.835   2.108  1.00  0.00     0.012 A   
ATOM     16  C11 UNL     1      -3.978  -0.064   1.925  1.00  0.00     0.045 A   
ATOM     17  C8  UNL     1      -3.482   2.624   2.647  1.00  0.00     0.037 A   
ATOM     18  C10 UNL     1      -4.962   0.743   2.457  1.00  0.00     0.109 A   
ATOM     19  C9  UNL     1      -4.722   2.048   2.808  1.00  0.00     0.108 A   
ATOM     20  O1  UNL     1      -6.248   0.371   2.689  1.00  0.00    -0.316 OA  
ATOM     21  O2  UNL     1      -5.825   2.662   3.309  1.00  0.00    -0.316 OA  
ATOM     22  C12 UNL     1      -6.791   1.589   3.247  1.00  0.00     0.337 C   
ENDBRANCH  13  14
ENDBRANCH  10  13
ENDBRANCH   6  10
ENDBRANCH   1   6
BRANCH   3  23
ATOM     23  C15 UNL     1       4.236   0.887  -0.798  1.00  0.00     0.058 A   
ATOM     24  C16 UNL     1       5.101  -0.157  -1.144  1.00  0.00     0.026 A   
ATOM     25  C21 UNL     1       4.768   2.140  -0.464  1.00  0.00     0.026 A   
ATOM     26  C17 UNL     1       6.484   0.055  -1.150  1.00  0.00     0.008 A   
ATOM     27  C20 UNL     1       6.152   2.342  -0.471  1.00  0.00     0.008 A   
ATOM     28  C18 UNL     1       7.027   1.300  -0.802  1.00  0.00    -0.023 A   
BRANCH  28  29
ATOM     29  C19 UNL     1       8.514   1.552  -0.838  1.00  0.00     0.191 C   
BRANCH  29  30
ATOM     30  O3  UNL     1       9.239   0.348  -0.622  1.00  0.00    -0.392 OA  
ATOM     31  H23 UNL     1      10.182   0.584  -0.645  1.00  0.00     0.211 HD  
ENDBRANCH  29  30
ENDBRANCH  28  29
ENDBRANCH   3  23
TORSDOF 8
