REMARK SMILES c1ccc(Cn2cc([C@@H]([NH2+]Cc3ccc4c(c3)OCO4)C3CCCCC3)nn2)nc1
REMARK SMILES IDX 9 1 8 2 6 3 7 4 28 5 27 6 5 8 4 9 1 10 2 11 30 12 3 13 29 14
REMARK SMILES IDX 10 15 11 18 12 19 13 20 17 21 14 22 16 23 15 24 18 25 20 26
REMARK SMILES IDX 19 27 21 28 22 29 26 30 23 31 25 32 24 33
REMARK H PARENT 7 7 10 16 10 17
ROOT
ATOM     1   C8  UNL     1       0.873  -0.260   0.793  1.00  0.00     0.117 C   
ENDROOT
BRANCH   1   2
ATOM     2   C7  UNL     1       1.641  -0.824  -0.357  1.00  0.00     0.127 A   
ATOM     3   N1  UNL     1       2.649  -1.220  -2.228  1.00  0.00    -0.206 N   
ATOM     4   C6  UNL     1       2.280  -0.195  -1.400  1.00  0.00     0.046 A   
ATOM     5   N4  UNL     1       2.300  -2.411  -1.702  1.00  0.00    -0.076 NA  
ATOM     6   N3  UNL     1       1.684  -2.181  -0.553  1.00  0.00    -0.132 NA  
ATOM     7   H6  UNL     1       2.445   0.842  -1.661  1.00  0.00     0.083 HD  
BRANCH   3   8
ATOM     8   C5  UNL     1       3.262  -1.130  -3.539  1.00  0.00     0.190 C   
BRANCH   8   9
ATOM     9   C4  UNL     1       2.213  -0.806  -4.569  1.00  0.00     0.060 A   
ATOM     10  C1  UNL     1       0.288  -0.139  -6.414  1.00  0.00     0.020 A   
ATOM     11  C2  UNL     1       0.797  -1.431  -6.400  1.00  0.00     0.004 A   
ATOM     12  C23 UNL     1       0.773   0.765  -5.485  1.00  0.00     0.111 A   
ATOM     13  C3  UNL     1       1.773  -1.775  -5.468  1.00  0.00     0.025 A   
ATOM     14  N5  UNL     1       1.712   0.459  -4.561  1.00  0.00    -0.260 NA  
ENDBRANCH   8   9
ENDBRANCH   3   8
ENDBRANCH   1   2
BRANCH   1  15
ATOM     15  N2  UNL     1      -0.472  -0.957   0.885  1.00  0.00     0.249 N   
ATOM     16  H8  UNL     1      -1.000  -0.611   1.688  1.00  0.00     0.199 HD  
ATOM     17  H9  UNL     1      -0.273  -1.954   1.043  1.00  0.00     0.199 HD  
BRANCH  15  18
ATOM     18  C9  UNL     1      -1.357  -0.872  -0.320  1.00  0.00     0.164 C   
BRANCH  18  19
ATOM     19  C10 UNL     1      -1.745   0.535  -0.681  1.00  0.00    -0.002 A   
ATOM     20  C11 UNL     1      -2.618   1.278   0.150  1.00  0.00     0.012 A   
ATOM     21  C15 UNL     1      -1.225   1.131  -1.844  1.00  0.00     0.045 A   
ATOM     22  C12 UNL     1      -2.961   2.597  -0.166  1.00  0.00     0.037 A   
ATOM     23  C14 UNL     1      -1.584   2.432  -2.127  1.00  0.00     0.109 A   
ATOM     24  C13 UNL     1      -2.425   3.145  -1.310  1.00  0.00     0.108 A   
ATOM     25  O1  UNL     1      -1.172   3.152  -3.204  1.00  0.00    -0.316 OA  
ATOM     26  O2  UNL     1      -2.648   4.405  -1.767  1.00  0.00    -0.316 OA  
ATOM     27  C16 UNL     1      -1.862   4.402  -2.978  1.00  0.00     0.337 C   
ENDBRANCH  18  19
ENDBRANCH  15  18
ENDBRANCH   1  15
BRANCH   1  28
ATOM     28  C17 UNL     1       1.632  -0.423   2.146  1.00  0.00     0.043 C   
ATOM     29  C18 UNL     1       2.998   0.301   2.096  1.00  0.00     0.010 C   
ATOM     30  C22 UNL     1       0.817   0.097   3.350  1.00  0.00     0.010 C   
ATOM     31  C19 UNL     1       3.759   0.216   3.417  1.00  0.00     0.001 C   
ATOM     32  C21 UNL     1       1.593   0.024   4.664  1.00  0.00     0.001 C   
ATOM     33  C20 UNL     1       2.929   0.747   4.576  1.00  0.00     0.000 C   
ENDBRANCH   1  28
TORSDOF 7
