REMARK SMILES Cn1ccc(-n2cc([C@@H]([NH2+]Cc3ccc4c(c3)OCO4)C3CCCC3)nn2)cc1=O
REMARK SMILES IDX 9 1 8 2 6 3 7 4 27 5 26 6 5 7 2 8 3 9 29 10 4 11 28 12 1 13
REMARK SMILES IDX 30 14 10 15 11 18 12 19 13 20 17 21 14 22 16 23 15 24 18 25
REMARK SMILES IDX 20 26 19 27 21 28 22 29 25 30 23 31 24 32
REMARK H PARENT 10 16 10 17
ROOT
ATOM     1   C7  UNL     1      -2.769   0.425   1.849  1.00  0.00     0.117 C   
ENDROOT
BRANCH   1   2
ATOM     2   C6  UNL     1      -1.297   0.202   1.727  1.00  0.00     0.127 A   
ATOM     3   N2  UNL     1       0.849   0.217   1.176  1.00  0.00    -0.180 N   
ATOM     4   C5  UNL     1      -0.294   1.016   1.260  1.00  0.00     0.135 A   
ATOM     5   N5  UNL     1       0.509  -1.001   1.712  1.00  0.00    -0.071 NA  
ATOM     6   N4  UNL     1      -0.780  -1.025   2.003  1.00  0.00    -0.131 NA  
BRANCH   3   7
ATOM     7   C4  UNL     1       2.096   0.563   0.610  1.00  0.00     0.064 A   
ATOM     8   N1  UNL     1       4.607   1.071  -0.549  1.00  0.00    -0.278 N   
ATOM     9   C2  UNL     1       4.376  -0.129   0.091  1.00  0.00     0.080 A   
ATOM     10  C22 UNL     1       3.629   2.050  -0.651  1.00  0.00     0.244 A   
ATOM     11  C3  UNL     1       3.191  -0.402   0.648  1.00  0.00     0.042 A   
ATOM     12  C21 UNL     1       2.327   1.741  -0.001  1.00  0.00     0.095 A   
ATOM     13  C1  UNL     1       5.913   1.300  -1.151  1.00  0.00     0.139 C   
ATOM     14  O3  UNL     1       3.746   3.123  -1.234  1.00  0.00    -0.272 OA  
ENDBRANCH   3   7
ENDBRANCH   1   2
BRANCH   1  15
ATOM     15  N3  UNL     1      -3.496  -0.698   1.129  1.00  0.00     0.249 N   
ATOM     16  H8  UNL     1      -2.897  -1.533   1.223  1.00  0.00     0.199 HD  
ATOM     17  H9  UNL     1      -4.370  -0.930   1.608  1.00  0.00     0.199 HD  
BRANCH  15  18
ATOM     18  C8  UNL     1      -3.791  -0.482  -0.321  1.00  0.00     0.164 C   
BRANCH  18  19
ATOM     19  C9  UNL     1      -2.570  -0.289  -1.177  1.00  0.00    -0.002 A   
ATOM     20  C10 UNL     1      -1.702  -1.375  -1.445  1.00  0.00     0.012 A   
ATOM     21  C14 UNL     1      -2.248   0.987  -1.672  1.00  0.00     0.045 A   
ATOM     22  C11 UNL     1      -0.521  -1.192  -2.173  1.00  0.00     0.037 A   
ATOM     23  C13 UNL     1      -1.072   1.135  -2.380  1.00  0.00     0.109 A   
ATOM     24  C12 UNL     1      -0.231   0.077  -2.621  1.00  0.00     0.108 A   
ATOM     25  O1  UNL     1      -0.595   2.303  -2.885  1.00  0.00    -0.316 OA  
ATOM     26  O2  UNL     1       0.878   0.445  -3.312  1.00  0.00    -0.316 OA  
ATOM     27  C15 UNL     1       0.618   1.849  -3.532  1.00  0.00     0.337 C   
ENDBRANCH  18  19
ENDBRANCH  15  18
ENDBRANCH   1  15
BRANCH   1  28
ATOM     28  C16 UNL     1      -3.234   0.452   3.318  1.00  0.00     0.043 C   
ATOM     29  C17 UNL     1      -2.577   1.563   4.144  1.00  0.00     0.010 C   
ATOM     30  C20 UNL     1      -4.740   0.719   3.495  1.00  0.00     0.010 C   
ATOM     31  C18 UNL     1      -3.490   1.674   5.354  1.00  0.00     0.001 C   
ATOM     32  C19 UNL     1      -4.886   1.563   4.763  1.00  0.00     0.001 C   
ENDBRANCH   1  28
TORSDOF 6
