REMARK SMILES CC(C)(C)[C@H]([NH2+]Cc1ccc2c(c1)OCO2)c1cn(Cc2cnc(Cl)s2)nn1
REMARK SMILES IDX 17 1 18 2 19 3 27 4 28 5 5 7 2 8 1 9 3 10 4 11 6 12 7 15
REMARK SMILES IDX 8 16 9 17 13 18 10 19 12 20 11 21 14 22 16 23 15 24 20 25
REMARK SMILES IDX 21 26 22 27 26 28 23 29 24 30 25 31
REMARK H PARENT 18 6 6 13 6 14
ROOT
ATOM     1   C14 UNL     1       0.353   1.073   0.834  1.00  0.00     0.127 A   
ATOM     2   C15 UNL     1       0.128   0.971  -0.521  1.00  0.00     0.046 A   
ATOM     3   N2  UNL     1       1.329   1.310  -1.081  1.00  0.00    -0.207 N   
ATOM     4   N4  UNL     1       2.238   1.605  -0.130  1.00  0.00    -0.076 NA  
ATOM     5   N5  UNL     1       1.656   1.450   1.046  1.00  0.00    -0.132 NA  
ATOM     6   H20 UNL     1      -0.728   0.679  -1.114  1.00  0.00     0.083 HD  
ENDROOT
BRANCH   1   7
ATOM     7   C5  UNL     1      -0.508   0.753   2.020  1.00  0.00     0.120 C   
BRANCH   7   8
ATOM     8   C2  UNL     1      -1.236   1.994   2.643  1.00  0.00     0.010 C   
ATOM     9   C1  UNL     1      -0.260   3.055   3.189  1.00  0.00     0.017 C   
ATOM     10  C3  UNL     1      -2.163   1.541   3.795  1.00  0.00     0.017 C   
ATOM     11  C4  UNL     1      -2.134   2.666   1.580  1.00  0.00     0.017 C   
ENDBRANCH   7   8
BRANCH   7  12
ATOM     12  N1  UNL     1       0.368   0.068   3.055  1.00  0.00     0.250 N   
ATOM     13  H11 UNL     1       1.341   0.312   2.804  1.00  0.00     0.199 HD  
ATOM     14  H12 UNL     1       0.234   0.466   3.987  1.00  0.00     0.199 HD  
BRANCH  12  15
ATOM     15  C6  UNL     1       0.266  -1.416   3.139  1.00  0.00     0.164 C   
BRANCH  15  16
ATOM     16  C7  UNL     1       0.543  -2.132   1.846  1.00  0.00    -0.002 A   
ATOM     17  C8  UNL     1       1.847  -2.153   1.294  1.00  0.00     0.012 A   
ATOM     18  C12 UNL     1      -0.504  -2.775   1.163  1.00  0.00     0.045 A   
ATOM     19  C9  UNL     1       2.104  -2.800   0.080  1.00  0.00     0.037 A   
ATOM     20  C11 UNL     1      -0.217  -3.402  -0.031  1.00  0.00     0.109 A   
ATOM     21  C10 UNL     1       1.051  -3.417  -0.556  1.00  0.00     0.108 A   
ATOM     22  O1  UNL     1      -1.112  -4.059  -0.814  1.00  0.00    -0.316 OA  
ATOM     23  O2  UNL     1       1.114  -4.092  -1.732  1.00  0.00    -0.316 OA  
ATOM     24  C13 UNL     1      -0.252  -4.534  -1.875  1.00  0.00     0.337 C   
ENDBRANCH  15  16
ENDBRANCH  12  15
ENDBRANCH   7  12
ENDBRANCH   1   7
BRANCH   3  25
ATOM     25  C16 UNL     1       1.688   1.368  -2.489  1.00  0.00     0.178 C   
BRANCH  25  26
ATOM     26  C17 UNL     1       2.332   0.092  -2.911  1.00  0.00     0.030 A   
ATOM     27  C18 UNL     1       3.607  -0.373  -2.642  1.00  0.00     0.126 A   
ATOM     28  S1  UNL     1       1.503  -1.059  -3.883  1.00  0.00    -0.059 S   
ATOM     29  N3  UNL     1       3.917  -1.610  -3.169  1.00  0.00    -0.237 NA  
ATOM     30  C19 UNL     1       2.887  -2.047  -3.849  1.00  0.00     0.167 A   
ATOM     31  CL1 UNL     1       2.892  -3.546  -4.681  1.00  0.00    -0.054 Cl  
ENDBRANCH  25  26
ENDBRANCH   3  25
TORSDOF 7
