REMARK SMILES CC(C)(C)[C@H]([NH2+]Cc1ccc2c(c1)OCO2)c1cn([C@@H](CO)c2cccc(F)c2)nn1
REMARK SMILES IDX 17 1 18 2 19 3 30 4 31 5 5 7 2 8 1 9 3 10 4 11 6 12 7 15
REMARK SMILES IDX 8 16 9 17 13 18 10 19 12 20 11 21 14 22 16 23 15 24 20 25
REMARK SMILES IDX 21 26 22 27 23 29 24 30 29 31 25 32 27 33 26 34 28 35
REMARK H PARENT 18 6 6 13 6 14 22 28
ROOT
ATOM     1   C14 UNL     1       0.083  -1.477  -0.294  1.00  0.00     0.127 A   
ATOM     2   C15 UNL     1       1.071  -1.005   0.538  1.00  0.00     0.046 A   
ATOM     3   N2  UNL     1       2.064  -1.944   0.448  1.00  0.00    -0.202 N   
ATOM     4   N3  UNL     1       1.718  -2.916  -0.422  1.00  0.00    -0.075 NA  
ATOM     5   N4  UNL     1       0.507  -2.643  -0.879  1.00  0.00    -0.132 NA  
ATOM     6   H20 UNL     1       1.166  -0.122   1.155  1.00  0.00     0.083 HD  
ENDROOT
BRANCH   1   7
ATOM     7   C5  UNL     1      -1.232  -0.879  -0.685  1.00  0.00     0.120 C   
BRANCH   7   8
ATOM     8   C2  UNL     1      -2.458  -1.440   0.119  1.00  0.00     0.010 C   
ATOM     9   C1  UNL     1      -3.740  -0.653  -0.241  1.00  0.00     0.017 C   
ATOM     10  C3  UNL     1      -2.227  -1.254   1.637  1.00  0.00     0.017 C   
ATOM     11  C4  UNL     1      -2.720  -2.935  -0.150  1.00  0.00     0.017 C   
ENDBRANCH   7   8
BRANCH   7  12
ATOM     12  N1  UNL     1      -1.442  -1.075  -2.175  1.00  0.00     0.250 N   
ATOM     13  H11 UNL     1      -1.306  -2.079  -2.354  1.00  0.00     0.199 HD  
ATOM     14  H12 UNL     1      -2.399  -0.841  -2.444  1.00  0.00     0.199 HD  
BRANCH  12  15
ATOM     15  C6  UNL     1      -0.500  -0.342  -3.076  1.00  0.00     0.164 C   
BRANCH  15  16
ATOM     16  C7  UNL     1      -0.634   1.152  -2.976  1.00  0.00    -0.002 A   
ATOM     17  C8  UNL     1       0.370   1.916  -2.333  1.00  0.00     0.012 A   
ATOM     18  C12 UNL     1      -1.773   1.798  -3.488  1.00  0.00     0.045 A   
ATOM     19  C9  UNL     1       0.242   3.302  -2.196  1.00  0.00     0.037 A   
ATOM     20  C11 UNL     1      -1.867   3.166  -3.334  1.00  0.00     0.109 A   
ATOM     21  C10 UNL     1      -0.890   3.897  -2.706  1.00  0.00     0.108 A   
ATOM     22  O1  UNL     1      -2.900   3.938  -3.763  1.00  0.00    -0.316 OA  
ATOM     23  O2  UNL     1      -1.182   5.222  -2.660  1.00  0.00    -0.316 OA  
ATOM     24  C13 UNL     1      -2.447   5.250  -3.356  1.00  0.00     0.337 C   
ENDBRANCH  15  16
ENDBRANCH  12  15
ENDBRANCH   7  12
ENDBRANCH   1   7
BRANCH   3  25
ATOM     25  C16 UNL     1       3.368  -1.977   1.112  1.00  0.00     0.155 C   
BRANCH  25  26
ATOM     26  C17 UNL     1       4.405  -1.144   0.331  1.00  0.00     0.185 C   
BRANCH  26  27
ATOM     27  O3  UNL     1       3.994   0.208   0.118  1.00  0.00    -0.394 OA  
ATOM     28  H24 UNL     1       4.758   0.676  -0.268  1.00  0.00     0.210 HD  
ENDBRANCH  26  27
ENDBRANCH  25  26
BRANCH  25  29
ATOM     29  C18 UNL     1       3.226  -1.688   2.603  1.00  0.00    -0.020 A   
ATOM     30  C19 UNL     1       2.772  -2.713   3.457  1.00  0.00     0.006 A   
ATOM     31  C23 UNL     1       3.501  -0.433   3.167  1.00  0.00     0.045 A   
ATOM     32  C20 UNL     1       2.608  -2.492   4.828  1.00  0.00     0.003 A   
ATOM     33  C22 UNL     1       3.333  -0.224   4.534  1.00  0.00     0.123 A   
ATOM     34  C21 UNL     1       2.890  -1.241   5.368  1.00  0.00     0.039 A   
ATOM     35  F1  UNL     1       3.595   0.984   5.048  1.00  0.00    -0.207 F   
ENDBRANCH  25  29
ENDBRANCH   3  25
TORSDOF 9
