REMARK SMILES [O-]N([O-])c1ccccc1-n1cc([C@@H]([NH2+]Cc2ccc3c(c2)OCO3)C2CCCCC2)nn1
REMARK SMILES IDX 10 1 11 2 12 3 31 4 32 5 9 6 4 7 5 8 6 9 8 10 7 11 2 12 1 13
REMARK SMILES IDX 3 14 13 15 14 16 15 19 16 20 17 21 21 22 18 23 20 24 19 25
REMARK SMILES IDX 22 26 24 27 23 28 25 29 26 30 30 31 27 32 29 33 28 34
REMARK H PARENT 14 17 14 18
ROOT
ATOM     1   N2  UNL     1       0.100   2.223   0.352  1.00  0.00    -0.178 N   
ATOM     2   C7  UNL     1       0.719   0.991   0.264  1.00  0.00     0.135 A   
ATOM     3   C8  UNL     1      -0.301   0.071   0.156  1.00  0.00     0.127 A   
ATOM     4   N4  UNL     1      -1.490   0.732   0.105  1.00  0.00    -0.131 NA  
ATOM     5   N5  UNL     1      -1.240   2.026   0.188  1.00  0.00    -0.071 NA  
ENDROOT
BRANCH   1   6
ATOM     6   C6  UNL     1       0.613   3.537   0.557  1.00  0.00     0.086 A   
ATOM     7   C1  UNL     1       1.942   3.847   0.882  1.00  0.00     0.141 A   
ATOM     8   C2  UNL     1       2.380   5.174   1.038  1.00  0.00     0.033 A   
ATOM     9   C3  UNL     1       1.476   6.220   0.876  1.00  0.00     0.002 A   
ATOM     10  C5  UNL     1      -0.281   4.618   0.418  1.00  0.00     0.028 A   
ATOM     11  C4  UNL     1       0.148   5.941   0.571  1.00  0.00     0.002 A   
BRANCH   7  12
ATOM     12  N1  UNL     1       2.936   2.837   1.142  1.00  0.00     0.094 N   
ATOM     13  O1  UNL     1       3.760   2.617   0.245  1.00  0.00    -0.138 OA  
ATOM     14  O2  UNL     1       2.856   2.235   2.220  1.00  0.00    -0.138 OA  
ENDBRANCH   7  12
ENDBRANCH   1   6
BRANCH   3  15
ATOM     15  C9  UNL     1      -0.287  -1.426   0.177  1.00  0.00     0.117 C   
BRANCH  15  16
ATOM     16  N3  UNL     1      -1.491  -1.935   0.940  1.00  0.00     0.249 N   
ATOM     17  H7  UNL     1      -2.219  -1.212   0.836  1.00  0.00     0.199 HD  
ATOM     18  H8  UNL     1      -1.876  -2.779   0.504  1.00  0.00     0.199 HD  
BRANCH  16  19
ATOM     19  C10 UNL     1      -1.300  -2.196   2.399  1.00  0.00     0.164 C   
BRANCH  19  20
ATOM     20  C11 UNL     1      -0.786  -1.017   3.179  1.00  0.00    -0.002 A   
ATOM     21  C12 UNL     1       0.545  -1.009   3.663  1.00  0.00     0.012 A   
ATOM     22  C16 UNL     1      -1.603   0.108   3.394  1.00  0.00     0.045 A   
ATOM     23  C13 UNL     1       1.065   0.106   4.328  1.00  0.00     0.037 A   
ATOM     24  C15 UNL     1      -1.057   1.195   4.049  1.00  0.00     0.109 A   
ATOM     25  C14 UNL     1       0.240   1.196   4.496  1.00  0.00     0.108 A   
ATOM     26  O3  UNL     1      -1.700   2.362   4.318  1.00  0.00    -0.316 OA  
ATOM     27  O4  UNL     1       0.578   2.363   5.102  1.00  0.00    -0.316 OA  
ATOM     28  C17 UNL     1      -0.655   3.101   4.986  1.00  0.00     0.337 C   
ENDBRANCH  19  20
ENDBRANCH  16  19
ENDBRANCH  15  16
BRANCH  15  29
ATOM     29  C18 UNL     1      -0.235  -2.035  -1.250  1.00  0.00     0.043 C   
ATOM     30  C19 UNL     1       0.129  -3.533  -1.204  1.00  0.00     0.010 C   
ATOM     31  C23 UNL     1      -1.514  -1.816  -2.083  1.00  0.00     0.010 C   
ATOM     32  C20 UNL     1       0.248  -4.128  -2.606  1.00  0.00     0.001 C   
ATOM     33  C22 UNL     1      -1.396  -2.430  -3.478  1.00  0.00     0.001 C   
ATOM     34  C21 UNL     1      -1.023  -3.908  -3.416  1.00  0.00     0.000 C   
ENDBRANCH  15  29
ENDBRANCH   3  15
TORSDOF 7
