REMARK SMILES OC[C@@H](c1ccc(F)cc1F)n1cc([C@@H]([NH2+]Cc2ccc3c(c2)OCO3)C2CCCC2)nn1
REMARK SMILES IDX 12 1 13 2 14 3 32 4 33 5 3 7 2 8 1 9 4 11 5 12 10 13 6 14
REMARK SMILES IDX 9 15 7 16 11 17 8 18 15 19 16 20 17 23 18 24 19 25 23 26
REMARK SMILES IDX 20 27 22 28 21 29 24 30 26 31 25 32 27 33 28 34 31 35 29 36
REMARK SMILES IDX 30 37
REMARK H PARENT 13 6 1 10 16 21 16 22
ROOT
ATOM     1   N1  UNL     1      -0.121   1.496  -0.910  1.00  0.00    -0.202 N   
ATOM     2   C9  UNL     1       0.645   0.366  -0.826  1.00  0.00     0.046 A   
ATOM     3   C10 UNL     1      -0.230  -0.657  -1.115  1.00  0.00     0.127 A   
ATOM     4   N3  UNL     1      -1.475  -0.131  -1.347  1.00  0.00    -0.132 NA  
ATOM     5   N4  UNL     1      -1.399   1.183  -1.215  1.00  0.00    -0.075 NA  
ATOM     6   H8  UNL     1       1.695   0.397  -0.568  1.00  0.00     0.083 HD  
ENDROOT
BRANCH   1   7
ATOM     7   C2  UNL     1       0.287   2.878  -0.645  1.00  0.00     0.158 C   
BRANCH   7   8
ATOM     8   C1  UNL     1       0.219   3.716  -1.933  1.00  0.00     0.186 C   
BRANCH   8   9
ATOM     9   O1  UNL     1       1.245   3.305  -2.840  1.00  0.00    -0.394 OA  
ATOM     10  H1  UNL     1       1.173   3.869  -3.632  1.00  0.00     0.210 HD  
ENDBRANCH   8   9
ENDBRANCH   7   8
BRANCH   7  11
ATOM     11  C3  UNL     1      -0.480   3.422   0.550  1.00  0.00     0.013 A   
ATOM     12  C4  UNL     1      -1.563   4.309   0.434  1.00  0.00     0.012 A   
ATOM     13  C8  UNL     1      -0.117   2.987   1.836  1.00  0.00     0.131 A   
ATOM     14  C5  UNL     1      -2.235   4.755   1.577  1.00  0.00     0.040 A   
ATOM     15  C7  UNL     1      -0.780   3.426   2.976  1.00  0.00     0.078 A   
ATOM     16  C6  UNL     1      -1.837   4.311   2.833  1.00  0.00     0.126 A   
ATOM     17  F2  UNL     1       0.887   2.109   1.975  1.00  0.00    -0.207 F   
ATOM     18  F1  UNL     1      -2.489   4.738   3.922  1.00  0.00    -0.207 F   
ENDBRANCH   7  11
ENDBRANCH   1   7
BRANCH   3  19
ATOM     19  C11 UNL     1      -0.032  -2.135  -1.115  1.00  0.00     0.117 C   
BRANCH  19  20
ATOM     20  N2  UNL     1      -1.244  -2.837  -0.535  1.00  0.00     0.249 N   
ATOM     21  H10 UNL     1      -1.145  -3.850  -0.648  1.00  0.00     0.199 HD  
ATOM     22  H11 UNL     1      -2.051  -2.539  -1.100  1.00  0.00     0.199 HD  
BRANCH  20  23
ATOM     23  C12 UNL     1      -1.577  -2.531   0.890  1.00  0.00     0.164 C   
BRANCH  23  24
ATOM     24  C13 UNL     1      -0.476  -2.884   1.851  1.00  0.00    -0.002 A   
ATOM     25  C14 UNL     1       0.278  -1.859   2.474  1.00  0.00     0.012 A   
ATOM     26  C18 UNL     1      -0.164  -4.229   2.112  1.00  0.00     0.045 A   
ATOM     27  C15 UNL     1       1.333  -2.167   3.338  1.00  0.00     0.037 A   
ATOM     28  C17 UNL     1       0.883  -4.497   2.969  1.00  0.00     0.109 A   
ATOM     29  C16 UNL     1       1.612  -3.497   3.563  1.00  0.00     0.108 A   
ATOM     30  O2  UNL     1       1.319  -5.736   3.318  1.00  0.00    -0.316 OA  
ATOM     31  O3  UNL     1       2.598  -3.980   4.362  1.00  0.00    -0.316 OA  
ATOM     32  C19 UNL     1       2.389  -5.402   4.233  1.00  0.00     0.337 C   
ENDBRANCH  23  24
ENDBRANCH  20  23
ENDBRANCH  19  20
BRANCH  19  33
ATOM     33  C20 UNL     1       0.248  -2.750  -2.500  1.00  0.00     0.043 C   
ATOM     34  C21 UNL     1       1.477  -2.186  -3.217  1.00  0.00     0.010 C   
ATOM     35  C24 UNL     1      -0.848  -2.596  -3.559  1.00  0.00     0.010 C   
ATOM     36  C22 UNL     1       1.353  -2.761  -4.622  1.00  0.00     0.001 C   
ATOM     37  C23 UNL     1      -0.147  -2.868  -4.892  1.00  0.00     0.001 C   
ENDBRANCH  19  33
ENDBRANCH   3  19
TORSDOF 9
