REMARK SMILES OC[C@H](c1ccc(F)cc1F)n1cc([C@@H]([NH2+]Cc2ccc3c(c2)OCO3)C2CCCC2)nn1
REMARK SMILES IDX 12 1 13 2 14 3 32 4 33 5 3 7 2 8 1 9 4 11 5 12 10 13 6 14
REMARK SMILES IDX 9 15 7 16 11 17 8 18 15 19 16 20 17 23 18 24 19 25 23 26
REMARK SMILES IDX 20 27 22 28 21 29 24 30 26 31 25 32 27 33 28 34 31 35 29 36
REMARK SMILES IDX 30 37
REMARK H PARENT 13 6 1 10 16 21 16 22
ROOT
ATOM     1   N1  UNL     1       1.374  -0.526  -1.641  1.00  0.00    -0.202 N   
ATOM     2   C9  UNL     1       1.363  -0.068  -0.351  1.00  0.00     0.046 A   
ATOM     3   C10 UNL     1       0.161  -0.508   0.153  1.00  0.00     0.127 A   
ATOM     4   N3  UNL     1      -0.492  -1.235  -0.808  1.00  0.00    -0.132 NA  
ATOM     5   N4  UNL     1       0.254  -1.234  -1.901  1.00  0.00    -0.075 NA  
ATOM     6   H8  UNL     1       2.171   0.522   0.061  1.00  0.00     0.083 HD  
ENDROOT
BRANCH   1   7
ATOM     7   C2  UNL     1       2.373  -0.311  -2.692  1.00  0.00     0.158 C   
BRANCH   7   8
ATOM     8   C1  UNL     1       3.451  -1.411  -2.622  1.00  0.00     0.186 C   
BRANCH   8   9
ATOM     9   O1  UNL     1       4.156  -1.407  -1.379  1.00  0.00    -0.394 OA  
ATOM     10  H1  UNL     1       4.786  -2.152  -1.407  1.00  0.00     0.210 HD  
ENDBRANCH   8   9
ENDBRANCH   7   8
BRANCH   7  11
ATOM     11  C3  UNL     1       2.844   1.140  -2.716  1.00  0.00     0.013 A   
ATOM     12  C4  UNL     1       4.157   1.539  -2.416  1.00  0.00     0.012 A   
ATOM     13  C8  UNL     1       1.916   2.144  -3.046  1.00  0.00     0.131 A   
ATOM     14  C5  UNL     1       4.511   2.892  -2.441  1.00  0.00     0.040 A   
ATOM     15  C7  UNL     1       2.259   3.490  -3.072  1.00  0.00     0.078 A   
ATOM     16  C6  UNL     1       3.560   3.853  -2.766  1.00  0.00     0.126 A   
ATOM     17  F2  UNL     1       0.648   1.804  -3.322  1.00  0.00    -0.207 F   
ATOM     18  F1  UNL     1       3.904   5.146  -2.775  1.00  0.00    -0.207 F   
ENDBRANCH   7  11
ENDBRANCH   1   7
BRANCH   3  19
ATOM     19  C11 UNL     1      -0.490  -0.256   1.470  1.00  0.00     0.117 C   
BRANCH  19  20
ATOM     20  N2  UNL     1      -1.974   0.005   1.295  1.00  0.00     0.249 N   
ATOM     21  H10 UNL     1      -2.373  -0.846   0.877  1.00  0.00     0.199 HD  
ATOM     22  H11 UNL     1      -2.415   0.139   2.208  1.00  0.00     0.199 HD  
BRANCH  20  23
ATOM     23  C12 UNL     1      -2.362   1.146   0.407  1.00  0.00     0.164 C   
BRANCH  23  24
ATOM     24  C13 UNL     1      -1.753   2.460   0.807  1.00  0.00    -0.002 A   
ATOM     25  C14 UNL     1      -2.154   3.114   1.997  1.00  0.00     0.012 A   
ATOM     26  C18 UNL     1      -0.750   3.035   0.006  1.00  0.00     0.045 A   
ATOM     27  C15 UNL     1      -1.556   4.317   2.389  1.00  0.00     0.037 A   
ATOM     28  C17 UNL     1      -0.180   4.219   0.423  1.00  0.00     0.109 A   
ATOM     29  C16 UNL     1      -0.570   4.842   1.582  1.00  0.00     0.108 A   
ATOM     30  O2  UNL     1       0.804   4.895  -0.226  1.00  0.00    -0.316 OA  
ATOM     31  O3  UNL     1       0.119   5.990   1.809  1.00  0.00    -0.316 OA  
ATOM     32  C19 UNL     1       0.973   6.036   0.645  1.00  0.00     0.337 C   
ENDBRANCH  23  24
ENDBRANCH  20  23
ENDBRANCH  19  20
BRANCH  19  33
ATOM     33  C20 UNL     1      -0.321  -1.450   2.432  1.00  0.00     0.043 C   
ATOM     34  C21 UNL     1      -0.940  -1.241   3.817  1.00  0.00     0.010 C   
ATOM     35  C24 UNL     1       1.142  -1.738   2.789  1.00  0.00     0.010 C   
ATOM     36  C22 UNL     1      -0.286  -2.309   4.684  1.00  0.00     0.001 C   
ATOM     37  C23 UNL     1       1.075  -2.590   4.052  1.00  0.00     0.001 C   
ENDBRANCH  19  33
ENDBRANCH   3  19
TORSDOF 9
