REMARK SMILES CC(C)C[C@H]([NH2+]Cc1ccc2c(c1)OCO2)c1cn(CCc2ncccc2F)nn1
REMARK SMILES IDX 17 1 18 2 19 3 29 4 30 5 5 7 4 8 2 9 1 10 3 11 6 12 7 15
REMARK SMILES IDX 8 16 9 17 13 18 10 19 12 20 11 21 14 22 16 23 15 24 20 25
REMARK SMILES IDX 21 26 22 27 23 28 27 29 24 30 26 31 25 32 28 33
REMARK H PARENT 18 6 6 13 6 14
ROOT
ATOM     1   C14 UNL     1       1.277  -0.945  -0.146  1.00  0.00     0.127 A   
ATOM     2   C15 UNL     1       2.361  -1.643   0.338  1.00  0.00     0.045 A   
ATOM     3   N2  UNL     1       2.556  -2.630  -0.587  1.00  0.00    -0.212 N   
ATOM     4   N4  UNL     1       1.685  -2.514  -1.607  1.00  0.00    -0.076 NA  
ATOM     5   N5  UNL     1       0.881  -1.499  -1.338  1.00  0.00    -0.132 NA  
ATOM     6   H20 UNL     1       2.967  -1.562   1.230  1.00  0.00     0.083 HD  
ENDROOT
BRANCH   1   7
ATOM     7   C5  UNL     1       0.534   0.231   0.402  1.00  0.00     0.114 C   
BRANCH   7   8
ATOM     8   C4  UNL     1      -0.469  -0.219   1.484  1.00  0.00     0.064 C   
BRANCH   8   9
ATOM     9   C2  UNL     1      -1.285   0.891   2.180  1.00  0.00    -0.012 C   
ATOM     10  C1  UNL     1      -0.399   1.969   2.806  1.00  0.00     0.007 C   
ATOM     11  C3  UNL     1      -2.183   0.269   3.256  1.00  0.00     0.007 C   
ENDBRANCH   8   9
ENDBRANCH   7   8
BRANCH   7  12
ATOM     12  N1  UNL     1      -0.207   0.930  -0.706  1.00  0.00     0.249 N   
ATOM     13  H11 UNL     1      -0.982   1.504  -0.363  1.00  0.00     0.199 HD  
ATOM     14  H12 UNL     1      -0.631   0.186  -1.283  1.00  0.00     0.199 HD  
BRANCH  12  15
ATOM     15  C6  UNL     1       0.642   1.757  -1.609  1.00  0.00     0.164 C   
BRANCH  15  16
ATOM     16  C7  UNL     1      -0.180   2.309  -2.739  1.00  0.00    -0.002 A   
ATOM     17  C8  UNL     1      -0.716   3.616  -2.668  1.00  0.00     0.012 A   
ATOM     18  C12 UNL     1      -0.465   1.502  -3.855  1.00  0.00     0.045 A   
ATOM     19  C9  UNL     1      -1.519   4.119  -3.699  1.00  0.00     0.037 A   
ATOM     20  C11 UNL     1      -1.264   2.027  -4.850  1.00  0.00     0.109 A   
ATOM     21  C10 UNL     1      -1.776   3.298  -4.775  1.00  0.00     0.108 A   
ATOM     22  O1  UNL     1      -1.637   1.382  -5.986  1.00  0.00    -0.316 OA  
ATOM     23  O2  UNL     1      -2.534   3.617  -5.857  1.00  0.00    -0.316 OA  
ATOM     24  C13 UNL     1      -2.443   2.397  -6.626  1.00  0.00     0.337 C   
ENDBRANCH  15  16
ENDBRANCH  12  15
ENDBRANCH   7  12
ENDBRANCH   1   7
BRANCH   3  25
ATOM     25  C16 UNL     1       3.540  -3.693  -0.578  1.00  0.00     0.140 C   
BRANCH  25  26
ATOM     26  C17 UNL     1       2.941  -5.048  -0.210  1.00  0.00     0.081 C   
BRANCH  26  27
ATOM     27  C18 UNL     1       2.440  -5.136   1.211  1.00  0.00     0.078 A   
ATOM     28  N3  UNL     1       3.054  -4.370   2.155  1.00  0.00    -0.258 NA  
ATOM     29  C22 UNL     1       1.432  -6.043   1.532  1.00  0.00     0.144 A   
ATOM     30  C19 UNL     1       2.645  -4.528   3.439  1.00  0.00     0.111 A   
ATOM     31  C21 UNL     1       1.020  -6.172   2.853  1.00  0.00     0.043 A   
ATOM     32  C20 UNL     1       1.639  -5.401   3.831  1.00  0.00     0.023 A   
ATOM     33  F1  UNL     1       0.856  -6.797   0.584  1.00  0.00    -0.205 F   
ENDBRANCH  26  27
ENDBRANCH  25  26
ENDBRANCH   3  25
TORSDOF 9
