REMARK SMILES COc1ccc(Cn2cc([C@H](CC(C)C)[NH2+]Cc3ccc4c(c3)OCO4)nn2)cc1F
REMARK SMILES IDX 8 1 9 2 10 3 27 4 28 5 7 7 6 8 3 9 4 10 30 11 5 12 29 13
REMARK SMILES IDX 31 14 2 15 1 16 11 17 12 18 13 19 14 20 15 21 16 22 17 25
REMARK SMILES IDX 18 26 19 27 23 28 20 29 22 30 21 31 24 32 26 33 25 34
REMARK H PARENT 9 6 16 23 16 24
ROOT
ATOM     1   N1  UNL     1      -2.643  -0.473  -2.423  1.00  0.00    -0.208 N   
ATOM     2   C7  UNL     1      -1.892   0.098  -1.432  1.00  0.00     0.046 A   
ATOM     3   C8  UNL     1      -1.450  -0.975  -0.690  1.00  0.00     0.127 A   
ATOM     4   N3  UNL     1      -1.993  -2.127  -1.200  1.00  0.00    -0.132 NA  
ATOM     5   N4  UNL     1      -2.737  -1.806  -2.245  1.00  0.00    -0.076 NA  
ATOM     6   H8  UNL     1      -1.709   1.163  -1.383  1.00  0.00     0.083 HD  
ENDROOT
BRANCH   1   7
ATOM     7   C6  UNL     1      -3.276   0.172  -3.562  1.00  0.00     0.169 C   
BRANCH   7   8
ATOM     8   C5  UNL     1      -2.243   0.710  -4.521  1.00  0.00    -0.025 A   
ATOM     9   C2  UNL     1      -0.272   1.711  -6.286  1.00  0.00     0.110 A   
ATOM     10  C3  UNL     1      -1.017   2.584  -5.490  1.00  0.00     0.037 A   
ATOM     11  C23 UNL     1      -0.523   0.338  -6.187  1.00  0.00     0.153 A   
ATOM     12  C4  UNL     1      -1.994   2.089  -4.615  1.00  0.00     0.008 A   
ATOM     13  C22 UNL     1      -1.492  -0.164  -5.319  1.00  0.00     0.047 A   
ATOM     14  F1  UNL     1       0.180  -0.536  -6.928  1.00  0.00    -0.204 F   
BRANCH   9  15
ATOM     15  O1  UNL     1       0.704   2.074  -7.171  1.00  0.00    -0.346 OA  
ATOM     16  C1  UNL     1       0.973   3.463  -7.316  1.00  0.00     0.203 C   
ENDBRANCH   9  15
ENDBRANCH   7   8
ENDBRANCH   1   7
BRANCH   3  17
ATOM     17  C9  UNL     1      -0.552  -1.046   0.499  1.00  0.00     0.114 C   
BRANCH  17  18
ATOM     18  C10 UNL     1       0.921  -1.294   0.113  1.00  0.00     0.064 C   
BRANCH  18  19
ATOM     19  C11 UNL     1       1.586  -0.181  -0.726  1.00  0.00    -0.012 C   
ATOM     20  C12 UNL     1       3.024  -0.582  -1.067  1.00  0.00     0.007 C   
ATOM     21  C13 UNL     1       1.585   1.171  -0.010  1.00  0.00     0.007 C   
ENDBRANCH  18  19
ENDBRANCH  17  18
BRANCH  17  22
ATOM     22  N2  UNL     1      -0.957  -2.197   1.403  1.00  0.00     0.249 N   
ATOM     23  H19 UNL     1      -1.011  -3.028   0.799  1.00  0.00     0.199 HD  
ATOM     24  H20 UNL     1      -0.227  -2.374   2.097  1.00  0.00     0.199 HD  
BRANCH  22  25
ATOM     25  C14 UNL     1      -2.277  -2.076   2.090  1.00  0.00     0.164 C   
BRANCH  25  26
ATOM     26  C15 UNL     1      -2.384  -0.871   2.985  1.00  0.00    -0.002 A   
ATOM     27  C16 UNL     1      -3.298   0.165   2.668  1.00  0.00     0.012 A   
ATOM     28  C20 UNL     1      -1.576  -0.754   4.130  1.00  0.00     0.045 A   
ATOM     29  C17 UNL     1      -3.405   1.304   3.474  1.00  0.00     0.037 A   
ATOM     30  C19 UNL     1      -1.704   0.384   4.902  1.00  0.00     0.109 A   
ATOM     31  C18 UNL     1      -2.592   1.383   4.585  1.00  0.00     0.108 A   
ATOM     32  O2  UNL     1      -0.998   0.658   6.030  1.00  0.00    -0.316 OA  
ATOM     33  O3  UNL     1      -2.563   2.407   5.476  1.00  0.00    -0.316 OA  
ATOM     34  C21 UNL     1      -1.583   1.922   6.419  1.00  0.00     0.337 C   
ENDBRANCH  25  26
ENDBRANCH  22  25
ENDBRANCH  17  22
ENDBRANCH   3  17
TORSDOF 9
