REMARK SMILES COc1cccc(CCn2cc([C@@H]([NH2+]Cc3ccc4c(c3)OCO4)C(C)C)nn2)n1
REMARK SMILES IDX 10 1 11 2 12 3 28 4 29 5 9 7 8 8 7 9 3 10 4 11 30 12 5 13
REMARK SMILES IDX 6 14 2 15 1 16 13 17 14 18 15 21 16 22 17 23 21 24 18 25
REMARK SMILES IDX 20 26 19 27 22 28 24 29 23 30 25 31 26 32 27 33
REMARK H PARENT 11 6 14 19 14 20
ROOT
ATOM     1   N1  UNL     1       3.072  -0.692  -1.203  1.00  0.00    -0.212 N   
ATOM     2   C9  UNL     1       2.018  -1.031  -2.009  1.00  0.00     0.045 A   
ATOM     3   C10 UNL     1       1.313   0.144  -2.134  1.00  0.00     0.127 A   
ATOM     4   N3  UNL     1       1.984   1.146  -1.480  1.00  0.00    -0.132 NA  
ATOM     5   N4  UNL     1       3.075   0.627  -0.941  1.00  0.00    -0.076 NA  
ATOM     6   H11 UNL     1       1.829  -2.048  -2.311  1.00  0.00     0.083 HD  
ENDROOT
BRANCH   1   7
ATOM     7   C8  UNL     1       4.008  -1.585  -0.552  1.00  0.00     0.140 C   
BRANCH   7   8
ATOM     8   C7  UNL     1       4.054  -1.425   0.968  1.00  0.00     0.077 C   
BRANCH   8   9
ATOM     9   C6  UNL     1       2.722  -1.585   1.668  1.00  0.00     0.045 A   
ATOM     10  C2  UNL     1       0.557  -2.399   1.693  1.00  0.00     0.166 A   
ATOM     11  C3  UNL     1       0.301  -1.876   2.948  1.00  0.00     0.055 A   
ATOM     12  N5  UNL     1       1.734  -2.268   1.034  1.00  0.00    -0.229 NA  
ATOM     13  C4  UNL     1       1.328  -1.198   3.590  1.00  0.00     0.006 A   
ATOM     14  C5  UNL     1       2.558  -1.059   2.950  1.00  0.00     0.024 A   
BRANCH  10  15
ATOM     15  O1  UNL     1      -0.495  -3.019   1.049  1.00  0.00    -0.333 OA  
ATOM     16  C1  UNL     1      -0.043  -4.061   0.183  1.00  0.00     0.205 C   
ENDBRANCH  10  15
ENDBRANCH   8   9
ENDBRANCH   7   8
ENDBRANCH   1   7
BRANCH   3  17
ATOM     17  C11 UNL     1      -0.039   0.410  -2.702  1.00  0.00     0.117 C   
BRANCH  17  18
ATOM     18  N2  UNL     1      -0.859   1.171  -1.691  1.00  0.00     0.249 N   
ATOM     19  H13 UNL     1      -1.641   1.657  -2.133  1.00  0.00     0.199 HD  
ATOM     20  H14 UNL     1      -0.242   1.899  -1.295  1.00  0.00     0.199 HD  
BRANCH  18  21
ATOM     21  C12 UNL     1      -1.361   0.344  -0.555  1.00  0.00     0.164 C   
BRANCH  21  22
ATOM     22  C13 UNL     1      -2.020   1.206   0.483  1.00  0.00    -0.002 A   
ATOM     23  C14 UNL     1      -1.319   1.553   1.665  1.00  0.00     0.012 A   
ATOM     24  C18 UNL     1      -3.314   1.711   0.270  1.00  0.00     0.045 A   
ATOM     25  C15 UNL     1      -1.909   2.375   2.635  1.00  0.00     0.037 A   
ATOM     26  C17 UNL     1      -3.860   2.531   1.239  1.00  0.00     0.109 A   
ATOM     27  C16 UNL     1      -3.180   2.851   2.390  1.00  0.00     0.108 A   
ATOM     28  O2  UNL     1      -5.088   3.116   1.182  1.00  0.00    -0.316 OA  
ATOM     29  O3  UNL     1      -3.894   3.671   3.204  1.00  0.00    -0.316 OA  
ATOM     30  C19 UNL     1      -5.080   3.887   2.408  1.00  0.00     0.337 C   
ENDBRANCH  21  22
ENDBRANCH  18  21
ENDBRANCH  17  18
BRANCH  17  31
ATOM     31  C20 UNL     1      -0.040   1.179  -4.044  1.00  0.00     0.037 C   
ATOM     32  C21 UNL     1       0.534   2.597  -3.970  1.00  0.00     0.014 C   
ATOM     33  C22 UNL     1       0.682   0.386  -5.138  1.00  0.00     0.014 C   
ENDBRANCH  17  31
ENDBRANCH   3  17
TORSDOF 9
