REMARK SMILES OC[C@@H](c1ccccc1)n1cc([C@@H]([NH2+]Cc2ccc3c(c2)OCO3)C2CCCC2)nn1
REMARK SMILES IDX 10 1 11 2 12 3 30 4 31 5 3 7 2 8 1 9 4 11 5 12 9 13 6 14
REMARK SMILES IDX 8 15 7 16 13 17 14 18 15 21 16 22 17 23 21 24 18 25 20 26
REMARK SMILES IDX 19 27 22 28 24 29 23 30 25 31 26 32 29 33 27 34 28 35
REMARK H PARENT 11 6 1 10 14 19 14 20
ROOT
ATOM     1   N1  UNL     1       1.379   2.029   0.786  1.00  0.00    -0.202 N   
ATOM     2   C9  UNL     1       0.019   1.888   0.723  1.00  0.00     0.046 A   
ATOM     3   C10 UNL     1      -0.171   0.553   0.456  1.00  0.00     0.127 A   
ATOM     4   N3  UNL     1       1.051  -0.055   0.319  1.00  0.00    -0.132 NA  
ATOM     5   N4  UNL     1       1.990   0.857   0.510  1.00  0.00    -0.075 NA  
ATOM     6   H10 UNL     1      -0.652   2.722   0.881  1.00  0.00     0.083 HD  
ENDROOT
BRANCH   1   7
ATOM     7   C2  UNL     1       2.170   3.221   1.092  1.00  0.00     0.155 C   
BRANCH   7   8
ATOM     8   C1  UNL     1       2.319   4.123  -0.151  1.00  0.00     0.185 C   
BRANCH   8   9
ATOM     9   O1  UNL     1       1.065   4.513  -0.717  1.00  0.00    -0.394 OA  
ATOM     10  H1  UNL     1       1.265   5.146  -1.432  1.00  0.00     0.210 HD  
ENDBRANCH   8   9
ENDBRANCH   7   8
BRANCH   7  11
ATOM     11  C3  UNL     1       1.678   3.876   2.378  1.00  0.00    -0.023 A   
ATOM     12  C4  UNL     1       0.887   5.036   2.394  1.00  0.00     0.006 A   
ATOM     13  C8  UNL     1       2.011   3.282   3.611  1.00  0.00     0.006 A   
ATOM     14  C5  UNL     1       0.452   5.588   3.602  1.00  0.00     0.000 A   
ATOM     15  C7  UNL     1       1.575   3.835   4.816  1.00  0.00     0.000 A   
ATOM     16  C6  UNL     1       0.796   4.989   4.811  1.00  0.00     0.000 A   
ENDBRANCH   7  11
ENDBRANCH   1   7
BRANCH   3  17
ATOM     17  C11 UNL     1      -1.420  -0.237   0.243  1.00  0.00     0.117 C   
BRANCH  17  18
ATOM     18  N2  UNL     1      -1.155  -1.347  -0.746  1.00  0.00     0.249 N   
ATOM     19  H12 UNL     1      -0.268  -1.790  -0.461  1.00  0.00     0.199 HD  
ATOM     20  H13 UNL     1      -1.873  -2.078  -0.694  1.00  0.00     0.199 HD  
BRANCH  18  21
ATOM     21  C12 UNL     1      -0.998  -0.915  -2.162  1.00  0.00     0.164 C   
BRANCH  21  22
ATOM     22  C13 UNL     1      -0.620  -2.085  -3.026  1.00  0.00    -0.002 A   
ATOM     23  C14 UNL     1       0.740  -2.454  -3.162  1.00  0.00     0.012 A   
ATOM     24  C18 UNL     1      -1.614  -2.853  -3.655  1.00  0.00     0.045 A   
ATOM     25  C15 UNL     1       1.109  -3.567  -3.925  1.00  0.00     0.037 A   
ATOM     26  C17 UNL     1      -1.214  -3.944  -4.400  1.00  0.00     0.109 A   
ATOM     27  C16 UNL     1       0.108  -4.292  -4.531  1.00  0.00     0.108 A   
ATOM     28  O2  UNL     1      -2.043  -4.786  -5.071  1.00  0.00    -0.316 OA  
ATOM     29  O3  UNL     1       0.279  -5.396  -5.303  1.00  0.00    -0.316 OA  
ATOM     30  C19 UNL     1      -1.088  -5.699  -5.658  1.00  0.00     0.337 C   
ENDBRANCH  21  22
ENDBRANCH  18  21
ENDBRANCH  17  18
BRANCH  17  31
ATOM     31  C20 UNL     1      -2.005  -0.876   1.517  1.00  0.00     0.043 C   
ATOM     32  C21 UNL     1      -1.093  -1.843   2.276  1.00  0.00     0.010 C   
ATOM     33  C24 UNL     1      -2.410   0.111   2.614  1.00  0.00     0.010 C   
ATOM     34  C22 UNL     1      -1.821  -2.049   3.599  1.00  0.00     0.001 C   
ATOM     35  C23 UNL     1      -2.593  -0.755   3.859  1.00  0.00     0.001 C   
ENDBRANCH  17  31
ENDBRANCH   3  17
TORSDOF 9
