REMARK SMILES OC[C@H](c1ccccc1)n1cc([C@@H]([NH2+]Cc2ccc3c(c2)OCO3)C2CCCC2)nn1
REMARK SMILES IDX 10 1 11 2 12 3 30 4 31 5 3 7 2 8 1 9 4 11 5 12 9 13 6 14
REMARK SMILES IDX 8 15 7 16 13 17 14 18 15 21 16 22 17 23 21 24 18 25 20 26
REMARK SMILES IDX 19 27 22 28 24 29 23 30 25 31 26 32 29 33 27 34 28 35
REMARK H PARENT 11 6 1 10 14 19 14 20
ROOT
ATOM     1   N1  UNL     1      -3.321   0.843   1.231  1.00  0.00    -0.202 N   
ATOM     2   C9  UNL     1      -2.472   0.722   0.164  1.00  0.00     0.046 A   
ATOM     3   C10 UNL     1      -2.011  -0.570   0.242  1.00  0.00     0.127 A   
ATOM     4   N3  UNL     1      -2.590  -1.192   1.317  1.00  0.00    -0.132 NA  
ATOM     5   N4  UNL     1      -3.383  -0.319   1.919  1.00  0.00    -0.075 NA  
ATOM     6   H10 UNL     1      -2.265   1.549  -0.502  1.00  0.00     0.083 HD  
ENDROOT
BRANCH   1   7
ATOM     7   C2  UNL     1      -4.001   2.037   1.730  1.00  0.00     0.155 C   
BRANCH   7   8
ATOM     8   C1  UNL     1      -5.155   2.473   0.803  1.00  0.00     0.185 C   
BRANCH   8   9
ATOM     9   O1  UNL     1      -4.742   2.728  -0.540  1.00  0.00    -0.394 OA  
ATOM     10  H1  UNL     1      -5.532   3.033  -1.026  1.00  0.00     0.210 HD  
ENDBRANCH   8   9
ENDBRANCH   7   8
BRANCH   7  11
ATOM     11  C3  UNL     1      -2.969   3.095   2.113  1.00  0.00    -0.023 A   
ATOM     12  C4  UNL     1      -2.610   4.155   1.267  1.00  0.00     0.006 A   
ATOM     13  C8  UNL     1      -2.312   2.983   3.354  1.00  0.00     0.006 A   
ATOM     14  C5  UNL     1      -1.633   5.077   1.653  1.00  0.00     0.000 A   
ATOM     15  C7  UNL     1      -1.338   3.906   3.737  1.00  0.00     0.000 A   
ATOM     16  C6  UNL     1      -0.999   4.954   2.886  1.00  0.00     0.000 A   
ENDBRANCH   7  11
ENDBRANCH   1   7
BRANCH   3  17
ATOM     17  C11 UNL     1      -0.977  -1.278  -0.565  1.00  0.00     0.117 C   
BRANCH  17  18
ATOM     18  N2  UNL     1      -0.087  -2.107   0.333  1.00  0.00     0.249 N   
ATOM     19  H12 UNL     1      -0.712  -2.719   0.876  1.00  0.00     0.199 HD  
ATOM     20  H13 UNL     1       0.526  -2.709  -0.222  1.00  0.00     0.199 HD  
BRANCH  18  21
ATOM     21  C12 UNL     1       0.735  -1.352   1.329  1.00  0.00     0.164 C   
BRANCH  21  22
ATOM     22  C13 UNL     1       1.683  -0.368   0.704  1.00  0.00    -0.002 A   
ATOM     23  C14 UNL     1       1.446   1.023   0.829  1.00  0.00     0.012 A   
ATOM     24  C18 UNL     1       2.792  -0.818  -0.033  1.00  0.00     0.045 A   
ATOM     25  C15 UNL     1       2.296   1.955   0.224  1.00  0.00     0.037 A   
ATOM     26  C17 UNL     1       3.609   0.128  -0.617  1.00  0.00     0.109 A   
ATOM     27  C16 UNL     1       3.369   1.474  -0.494  1.00  0.00     0.108 A   
ATOM     28  O2  UNL     1       4.713  -0.137  -1.365  1.00  0.00    -0.316 OA  
ATOM     29  O3  UNL     1       4.292   2.227  -1.146  1.00  0.00    -0.316 OA  
ATOM     30  C19 UNL     1       5.162   1.203  -1.672  1.00  0.00     0.337 C   
ENDBRANCH  21  22
ENDBRANCH  18  21
ENDBRANCH  17  18
BRANCH  17  31
ATOM     31  C20 UNL     1      -1.607  -2.151  -1.669  1.00  0.00     0.043 C   
ATOM     32  C21 UNL     1      -0.611  -2.659  -2.723  1.00  0.00     0.010 C   
ATOM     33  C24 UNL     1      -2.331  -3.422  -1.216  1.00  0.00     0.010 C   
ATOM     34  C22 UNL     1      -1.196  -3.969  -3.260  1.00  0.00     0.001 C   
ATOM     35  C23 UNL     1      -2.513  -4.179  -2.523  1.00  0.00     0.001 C   
ENDBRANCH  17  31
ENDBRANCH   3  17
TORSDOF 9
