REMARK SMILES Cc1cc(-n2cc([C@@H]([NH2+]Cc3ccc4c(c3)OCO4)C3CCCCC3)nn2)c2cc[nH]c2n1
REMARK SMILES IDX 8 1 7 2 5 3 6 4 27 5 26 6 4 7 2 8 3 9 33 10 32 11 28 12
REMARK SMILES IDX 31 13 29 14 30 15 1 16 9 18 10 21 11 22 12 23 16 24 13 25
REMARK SMILES IDX 15 26 14 27 17 28 19 29 18 30 20 31 21 32 25 33 22 34 24 35
REMARK SMILES IDX 23 36
REMARK H PARENT 31 17 9 19 9 20
ROOT
ATOM     1   C7  UNL     1       1.067  -0.816  -1.329  1.00  0.00     0.117 C   
ENDROOT
BRANCH   1   2
ATOM     2   C6  UNL     1       0.819  -1.119   0.115  1.00  0.00     0.127 A   
ATOM     3   N1  UNL     1       0.020  -1.343   2.144  1.00  0.00    -0.180 N   
ATOM     4   C5  UNL     1      -0.350  -1.310   0.815  1.00  0.00     0.135 A   
ATOM     5   N4  UNL     1       1.375  -1.230   2.212  1.00  0.00    -0.071 NA  
ATOM     6   N3  UNL     1       1.861  -1.077   0.994  1.00  0.00    -0.131 NA  
BRANCH   3   7
ATOM     7   C4  UNL     1      -0.765  -1.439   3.318  1.00  0.00     0.070 A   
ATOM     8   C2  UNL     1      -0.838  -1.478   5.750  1.00  0.00     0.041 A   
ATOM     9   C3  UNL     1      -0.109  -1.381   4.567  1.00  0.00     0.050 A   
ATOM     10  N6  UNL     1      -2.175  -1.625   5.795  1.00  0.00    -0.237 NA  
ATOM     11  C25 UNL     1      -2.766  -1.681   4.592  1.00  0.00     0.131 A   
ATOM     12  C22 UNL     1      -2.171  -1.589   3.332  1.00  0.00     0.040 A   
ATOM     13  N5  UNL     1      -4.114  -1.851   4.438  1.00  0.00    -0.305 N   
ATOM     14  C23 UNL     1      -3.251  -1.686   2.403  1.00  0.00     0.029 A   
ATOM     15  C24 UNL     1      -4.426  -1.851   3.109  1.00  0.00     0.074 A   
ATOM     16  C1  UNL     1      -0.119  -1.426   7.067  1.00  0.00     0.067 C   
ATOM     17  H29 UNL     1      -4.755  -1.962   5.213  1.00  0.00     0.154 HD  
ENDBRANCH   3   7
ENDBRANCH   1   2
BRANCH   1  18
ATOM     18  N2  UNL     1       1.993   0.380  -1.433  1.00  0.00     0.249 N   
ATOM     19  H7  UNL     1       2.648   0.269  -2.209  1.00  0.00     0.199 HD  
ATOM     20  H8  UNL     1       2.571   0.365  -0.579  1.00  0.00     0.199 HD  
BRANCH  18  21
ATOM     21  C8  UNL     1       1.356   1.727  -1.551  1.00  0.00     0.164 C   
BRANCH  21  22
ATOM     22  C9  UNL     1       0.306   2.030  -0.519  1.00  0.00    -0.002 A   
ATOM     23  C10 UNL     1      -1.046   2.192  -0.912  1.00  0.00     0.012 A   
ATOM     24  C14 UNL     1       0.641   2.122   0.844  1.00  0.00     0.045 A   
ATOM     25  C11 UNL     1      -2.053   2.411   0.035  1.00  0.00     0.037 A   
ATOM     26  C13 UNL     1      -0.380   2.311   1.753  1.00  0.00     0.109 A   
ATOM     27  C12 UNL     1      -1.688   2.452   1.360  1.00  0.00     0.108 A   
ATOM     28  O1  UNL     1      -0.240   2.334   3.102  1.00  0.00    -0.316 OA  
ATOM     29  O2  UNL     1      -2.534   2.615   2.410  1.00  0.00    -0.316 OA  
ATOM     30  C15 UNL     1      -1.606   2.579   3.516  1.00  0.00     0.337 C   
ENDBRANCH  21  22
ENDBRANCH  18  21
ENDBRANCH   1  18
BRANCH   1  31
ATOM     31  C16 UNL     1       1.645  -2.032  -2.103  1.00  0.00     0.043 C   
ATOM     32  C17 UNL     1       1.561  -1.812  -3.628  1.00  0.00     0.010 C   
ATOM     33  C21 UNL     1       3.079  -2.430  -1.697  1.00  0.00     0.010 C   
ATOM     34  C18 UNL     1       2.068  -3.024  -4.406  1.00  0.00     0.001 C   
ATOM     35  C20 UNL     1       3.577  -3.638  -2.488  1.00  0.00     0.001 C   
ATOM     36  C19 UNL     1       3.484  -3.406  -3.991  1.00  0.00     0.000 C   
ENDBRANCH   1  31
TORSDOF 6
