REMARK SMILES CC(C)[C@H]([NH2+]Cc1ccc2c(c1)OCO2)c1cn(C[C@@H](O)c2cc(F)cc(F)c2)nn1
REMARK SMILES IDX 16 1 17 2 18 3 30 4 31 5 4 7 2 8 1 9 3 10 5 11 6 14 7 15
REMARK SMILES IDX 8 16 12 17 9 18 11 19 10 20 13 21 15 22 14 23 19 24 20 25
REMARK SMILES IDX 21 26 22 28 23 29 29 30 24 31 27 32 26 33 25 34 28 35
REMARK H PARENT 17 6 5 12 5 13 21 27
ROOT
ATOM     1   C13 UNL     1       0.379   0.178  -0.461  1.00  0.00     0.127 A   
ATOM     2   C14 UNL     1      -0.115   0.553  -1.691  1.00  0.00     0.045 A   
ATOM     3   N2  UNL     1       0.351   1.826  -1.859  1.00  0.00    -0.209 N   
ATOM     4   N3  UNL     1       1.129   2.195  -0.826  1.00  0.00    -0.076 NA  
ATOM     5   N4  UNL     1       1.143   1.200   0.045  1.00  0.00    -0.132 NA  
ATOM     6   H18 UNL     1      -0.759   0.069  -2.414  1.00  0.00     0.083 HD  
ENDROOT
BRANCH   1   7
ATOM     7   C4  UNL     1       0.227  -1.087   0.322  1.00  0.00     0.117 C   
BRANCH   7   8
ATOM     8   C2  UNL     1      -1.066  -1.145   1.181  1.00  0.00     0.037 C   
ATOM     9   C1  UNL     1      -2.325  -1.227   0.307  1.00  0.00     0.014 C   
ATOM     10  C3  UNL     1      -1.209   0.006   2.184  1.00  0.00     0.014 C   
ENDBRANCH   7   8
BRANCH   7  11
ATOM     11  N1  UNL     1       1.413  -1.281   1.246  1.00  0.00     0.249 N   
ATOM     12  H9  UNL     1       1.198  -1.984   1.958  1.00  0.00     0.199 HD  
ATOM     13  H10 UNL     1       1.552  -0.384   1.731  1.00  0.00     0.199 HD  
BRANCH  11  14
ATOM     14  C5  UNL     1       2.712  -1.625   0.592  1.00  0.00     0.164 C   
BRANCH  14  15
ATOM     15  C6  UNL     1       2.693  -2.967  -0.086  1.00  0.00    -0.002 A   
ATOM     16  C7  UNL     1       2.724  -3.050  -1.500  1.00  0.00     0.012 A   
ATOM     17  C11 UNL     1       2.622  -4.148   0.674  1.00  0.00     0.045 A   
ATOM     18  C8  UNL     1       2.674  -4.287  -2.150  1.00  0.00     0.037 A   
ATOM     19  C10 UNL     1       2.570  -5.351   0.002  1.00  0.00     0.109 A   
ATOM     20  C9  UNL     1       2.592  -5.420  -1.370  1.00  0.00     0.108 A   
ATOM     21  O1  UNL     1       2.490  -6.577   0.583  1.00  0.00    -0.316 OA  
ATOM     22  O2  UNL     1       2.531  -6.697  -1.825  1.00  0.00    -0.316 OA  
ATOM     23  C12 UNL     1       2.493  -7.433  -0.582  1.00  0.00     0.337 C   
ENDBRANCH  14  15
ENDBRANCH  11  14
ENDBRANCH   7  11
ENDBRANCH   1   7
BRANCH   3  24
ATOM     24  C15 UNL     1       0.052   2.755  -2.925  1.00  0.00     0.170 C   
BRANCH  24  25
ATOM     25  C16 UNL     1      -0.819   3.930  -2.467  1.00  0.00     0.164 C   
BRANCH  25  26
ATOM     26  O3  UNL     1      -1.032   4.798  -3.581  1.00  0.00    -0.387 OA  
ATOM     27  H22 UNL     1      -1.548   5.561  -3.261  1.00  0.00     0.211 HD  
ENDBRANCH  25  26
BRANCH  25  28
ATOM     28  C17 UNL     1      -2.162   3.486  -1.923  1.00  0.00    -0.012 A   
ATOM     29  C18 UNL     1      -3.210   3.104  -2.777  1.00  0.00     0.046 A   
ATOM     30  C22 UNL     1      -2.364   3.394  -0.536  1.00  0.00     0.046 A   
ATOM     31  C19 UNL     1      -4.417   2.649  -2.249  1.00  0.00     0.126 A   
ATOM     32  C21 UNL     1      -3.577   2.928  -0.033  1.00  0.00     0.126 A   
ATOM     33  C20 UNL     1      -4.612   2.555  -0.878  1.00  0.00     0.078 A   
ATOM     34  F1  UNL     1      -5.397   2.279  -3.082  1.00  0.00    -0.207 F   
ATOM     35  F2  UNL     1      -3.737   2.816   1.292  1.00  0.00    -0.207 F   
ENDBRANCH  25  28
ENDBRANCH  24  25
ENDBRANCH   3  24
TORSDOF 9
