REMARK SMILES CC(C)[C@H]([NH2+]Cc1ccc2c(c1)OCO2)c1cn(C[C@H](O)c2cc(F)cc(F)c2)nn1
REMARK SMILES IDX 16 1 17 2 18 3 30 4 31 5 4 7 2 8 1 9 3 10 5 11 6 14 7 15
REMARK SMILES IDX 8 16 12 17 9 18 11 19 10 20 13 21 15 22 14 23 19 24 20 25
REMARK SMILES IDX 21 26 22 28 23 29 29 30 24 31 27 32 26 33 25 34 28 35
REMARK H PARENT 17 6 5 12 5 13 21 27
ROOT
ATOM     1   C13 UNL     1      -1.304   1.032  -1.028  1.00  0.00     0.127 A   
ATOM     2   C14 UNL     1      -2.646   1.130  -0.730  1.00  0.00     0.045 A   
ATOM     3   N2  UNL     1      -3.266   0.615  -1.834  1.00  0.00    -0.209 N   
ATOM     4   N3  UNL     1      -2.368   0.248  -2.766  1.00  0.00    -0.076 NA  
ATOM     5   N4  UNL     1      -1.161   0.488  -2.280  1.00  0.00    -0.132 NA  
ATOM     6   H18 UNL     1      -3.193   1.465   0.141  1.00  0.00     0.083 HD  
ENDROOT
BRANCH   1   7
ATOM     7   C4  UNL     1      -0.088   1.335  -0.210  1.00  0.00     0.117 C   
BRANCH   7   8
ATOM     8   C2  UNL     1       0.413   2.788  -0.416  1.00  0.00     0.037 C   
ATOM     9   C1  UNL     1       0.987   3.060  -1.811  1.00  0.00     0.014 C   
ATOM     10  C3  UNL     1       1.441   3.187   0.649  1.00  0.00     0.014 C   
ENDBRANCH   7   8
BRANCH   7  11
ATOM     11  N1  UNL     1       1.006   0.350  -0.523  1.00  0.00     0.249 N   
ATOM     12  H9  UNL     1       1.925   0.688  -0.221  1.00  0.00     0.199 HD  
ATOM     13  H10 UNL     1       1.052   0.267  -1.549  1.00  0.00     0.199 HD  
BRANCH  11  14
ATOM     14  C5  UNL     1       0.800  -1.021   0.023  1.00  0.00     0.164 C   
BRANCH  14  15
ATOM     15  C6  UNL     1       1.901  -1.936  -0.430  1.00  0.00    -0.002 A   
ATOM     16  C7  UNL     1       1.763  -2.673  -1.630  1.00  0.00     0.012 A   
ATOM     17  C11 UNL     1       3.097  -2.024   0.304  1.00  0.00     0.045 A   
ATOM     18  C8  UNL     1       2.795  -3.498  -2.088  1.00  0.00     0.037 A   
ATOM     19  C10 UNL     1       4.094  -2.846  -0.176  1.00  0.00     0.109 A   
ATOM     20  C9  UNL     1       3.948  -3.563  -1.338  1.00  0.00     0.108 A   
ATOM     21  O1  UNL     1       5.303  -3.045   0.409  1.00  0.00    -0.316 OA  
ATOM     22  O2  UNL     1       5.047  -4.306  -1.629  1.00  0.00    -0.316 OA  
ATOM     23  C12 UNL     1       5.895  -4.000  -0.501  1.00  0.00     0.337 C   
ENDBRANCH  14  15
ENDBRANCH  11  14
ENDBRANCH   7  11
ENDBRANCH   1   7
BRANCH   3  24
ATOM     24  C15 UNL     1      -4.672   0.327  -2.016  1.00  0.00     0.170 C   
BRANCH  24  25
ATOM     25  C16 UNL     1      -4.976  -1.178  -2.076  1.00  0.00     0.164 C   
BRANCH  25  26
ATOM     26  O3  UNL     1      -6.383  -1.365  -2.235  1.00  0.00    -0.387 OA  
ATOM     27  H22 UNL     1      -6.583  -1.340  -3.188  1.00  0.00     0.211 HD  
ENDBRANCH  25  26
BRANCH  25  28
ATOM     28  C17 UNL     1      -4.533  -1.903  -0.818  1.00  0.00    -0.012 A   
ATOM     29  C18 UNL     1      -3.264  -2.504  -0.768  1.00  0.00     0.046 A   
ATOM     30  C22 UNL     1      -5.334  -1.944   0.334  1.00  0.00     0.046 A   
ATOM     31  C19 UNL     1      -2.812  -3.101   0.408  1.00  0.00     0.126 A   
ATOM     32  C21 UNL     1      -4.869  -2.566   1.492  1.00  0.00     0.126 A   
ATOM     33  C20 UNL     1      -3.607  -3.142   1.543  1.00  0.00     0.078 A   
ATOM     34  F1  UNL     1      -1.570  -3.602   0.447  1.00  0.00    -0.207 F   
ATOM     35  F2  UNL     1      -5.644  -2.586   2.583  1.00  0.00    -0.207 F   
ENDBRANCH  25  28
ENDBRANCH  24  25
ENDBRANCH   3  24
TORSDOF 9
