REMARK SMILES Cc1c[nH]c(C)c1[C@@H](CO)n1cc([C@@H]([NH2+]Cc2ccc3c(c2)OCO3)C2CCCCC2)nn1
REMARK SMILES IDX 11 1 12 2 13 3 32 4 33 5 8 7 7 8 2 9 3 10 4 11 5 12 1 13
REMARK SMILES IDX 6 15 9 16 10 17 14 19 15 20 16 23 17 24 18 25 22 26 19 27
REMARK SMILES IDX 21 28 20 29 23 30 25 31 24 32 26 33 27 34 31 35 28 36 30 37
REMARK SMILES IDX 29 38
REMARK H PARENT 12 6 4 14 10 18 15 21 15 22
ROOT
ATOM     1   N2  UNL     1       1.066   1.226   2.258  1.00  0.00    -0.202 N   
ATOM     2   C9  UNL     1       0.468   0.203   1.569  1.00  0.00     0.046 A   
ATOM     3   C10 UNL     1       0.454   0.634   0.262  1.00  0.00     0.127 A   
ATOM     4   N4  UNL     1       1.024   1.877   0.190  1.00  0.00    -0.132 NA  
ATOM     5   N5  UNL     1       1.390   2.231   1.409  1.00  0.00    -0.075 NA  
ATOM     6   H13 UNL     1       0.132  -0.705   2.048  1.00  0.00     0.083 HD  
ENDROOT
BRANCH   1   7
ATOM     7   C7  UNL     1       1.403   1.335   3.679  1.00  0.00     0.157 C   
BRANCH   7   8
ATOM     8   C6  UNL     1       0.442   2.276   4.384  1.00  0.00    -0.002 A   
ATOM     9   C2  UNL     1      -0.982   2.147   4.561  1.00  0.00    -0.030 A   
ATOM     10  C3  UNL     1      -1.397   3.255   5.273  1.00  0.00     0.075 A   
ATOM     11  N1  UNL     1      -0.314   4.041   5.538  1.00  0.00    -0.324 N   
ATOM     12  C4  UNL     1       0.812   3.459   5.018  1.00  0.00     0.009 A   
ATOM     13  C1  UNL     1      -1.885   1.062   4.091  1.00  0.00     0.046 C   
ATOM     14  H5  UNL     1      -0.340   4.916   6.049  1.00  0.00     0.152 HD  
ATOM     15  C5  UNL     1       2.147   4.101   5.172  1.00  0.00     0.062 C   
ENDBRANCH   7   8
BRANCH   7  16
ATOM     16  C8  UNL     1       1.537  -0.012   4.413  1.00  0.00     0.186 C   
BRANCH  16  17
ATOM     17  O1  UNL     1       2.574  -0.810   3.842  1.00  0.00    -0.394 OA  
ATOM     18  H12 UNL     1       2.748  -1.544   4.460  1.00  0.00     0.210 HD  
ENDBRANCH  16  17
ENDBRANCH   7  16
ENDBRANCH   1   7
BRANCH   3  19
ATOM     19  C11 UNL     1      -0.075  -0.004  -0.980  1.00  0.00     0.117 C   
BRANCH  19  20
ATOM     20  N3  UNL     1      -0.419   1.053  -2.004  1.00  0.00     0.249 N   
ATOM     21  H15 UNL     1       0.375   1.709  -2.007  1.00  0.00     0.199 HD  
ATOM     22  H16 UNL     1      -0.487   0.652  -2.942  1.00  0.00     0.199 HD  
BRANCH  20  23
ATOM     23  C12 UNL     1      -1.644   1.861  -1.726  1.00  0.00     0.164 C   
BRANCH  23  24
ATOM     24  C13 UNL     1      -2.908   1.049  -1.805  1.00  0.00    -0.002 A   
ATOM     25  C14 UNL     1      -3.373   0.563  -3.050  1.00  0.00     0.012 A   
ATOM     26  C18 UNL     1      -3.614   0.733  -0.631  1.00  0.00     0.045 A   
ATOM     27  C15 UNL     1      -4.523  -0.232  -3.126  1.00  0.00     0.037 A   
ATOM     28  C17 UNL     1      -4.743  -0.050  -0.742  1.00  0.00     0.109 A   
ATOM     29  C16 UNL     1      -5.184  -0.521  -1.954  1.00  0.00     0.108 A   
ATOM     30  O2  UNL     1      -5.534  -0.448   0.288  1.00  0.00    -0.316 OA  
ATOM     31  O3  UNL     1      -6.307  -1.276  -1.839  1.00  0.00    -0.316 OA  
ATOM     32  C19 UNL     1      -6.558  -1.183  -0.421  1.00  0.00     0.337 C   
ENDBRANCH  23  24
ENDBRANCH  20  23
ENDBRANCH  19  20
BRANCH  19  33
ATOM     33  C20 UNL     1       0.919  -1.036  -1.579  1.00  0.00     0.043 C   
ATOM     34  C21 UNL     1       0.237  -1.936  -2.629  1.00  0.00     0.010 C   
ATOM     35  C25 UNL     1       2.199  -0.410  -2.167  1.00  0.00     0.010 C   
ATOM     36  C22 UNL     1       1.194  -3.001  -3.162  1.00  0.00     0.001 C   
ATOM     37  C24 UNL     1       3.151  -1.478  -2.704  1.00  0.00     0.001 C   
ATOM     38  C23 UNL     1       2.468  -2.382  -3.725  1.00  0.00     0.000 C   
ENDBRANCH  19  33
ENDBRANCH   3  19
TORSDOF 9
