REMARK SMILES Cc1c[nH]c(C)c1[C@H](CO)n1cc([C@@H]([NH2+]Cc2ccc3c(c2)OCO3)C2CCCCC2)nn1
REMARK SMILES IDX 11 1 12 2 13 3 32 4 33 5 8 7 7 8 2 9 3 10 4 11 5 12 1 13
REMARK SMILES IDX 6 15 9 16 10 17 14 19 15 20 16 23 17 24 18 25 22 26 19 27
REMARK SMILES IDX 21 28 20 29 23 30 25 31 24 32 26 33 27 34 31 35 28 36 30 37
REMARK SMILES IDX 29 38
REMARK H PARENT 12 6 4 14 10 18 15 21 15 22
ROOT
ATOM     1   N2  UNL     1      -0.763  -1.233  -0.051  1.00  0.00    -0.202 N   
ATOM     2   C9  UNL     1      -0.488  -0.915   1.254  1.00  0.00     0.046 A   
ATOM     3   C10 UNL     1       0.356   0.169   1.170  1.00  0.00     0.127 A   
ATOM     4   N4  UNL     1       0.555   0.487  -0.146  1.00  0.00    -0.132 NA  
ATOM     5   N5  UNL     1      -0.116  -0.381  -0.882  1.00  0.00    -0.075 NA  
ATOM     6   H13 UNL     1      -0.866  -1.492   2.086  1.00  0.00     0.083 HD  
ENDROOT
BRANCH   1   7
ATOM     7   C7  UNL     1      -1.532  -2.350  -0.603  1.00  0.00     0.157 C   
BRANCH   7   8
ATOM     8   C6  UNL     1      -2.752  -1.851  -1.357  1.00  0.00    -0.002 A   
ATOM     9   C2  UNL     1      -3.777  -0.947  -0.900  1.00  0.00    -0.030 A   
ATOM     10  C3  UNL     1      -4.679  -0.812  -1.936  1.00  0.00     0.075 A   
ATOM     11  N1  UNL     1      -4.262  -1.577  -2.987  1.00  0.00    -0.324 N   
ATOM     12  C4  UNL     1      -3.100  -2.224  -2.652  1.00  0.00     0.009 A   
ATOM     13  C1  UNL     1      -3.880  -0.251   0.411  1.00  0.00     0.046 C   
ATOM     14  H5  UNL     1      -4.740  -1.652  -3.877  1.00  0.00     0.152 HD  
ATOM     15  C5  UNL     1      -2.423  -3.132  -3.618  1.00  0.00     0.062 C   
ENDBRANCH   7   8
BRANCH   7  16
ATOM     16  C8  UNL     1      -1.932  -3.433   0.420  1.00  0.00     0.186 C   
BRANCH  16  17
ATOM     17  O1  UNL     1      -0.791  -4.055   1.015  1.00  0.00    -0.394 OA  
ATOM     18  H12 UNL     1      -1.098  -4.893   1.409  1.00  0.00     0.210 HD  
ENDBRANCH  16  17
ENDBRANCH   7  16
ENDBRANCH   1   7
BRANCH   3  19
ATOM     19  C11 UNL     1       1.102   0.920   2.221  1.00  0.00     0.117 C   
BRANCH  19  20
ATOM     20  N3  UNL     1       2.482   1.287   1.706  1.00  0.00     0.249 N   
ATOM     21  H15 UNL     1       2.781   2.188   2.088  1.00  0.00     0.199 HD  
ATOM     22  H16 UNL     1       2.373   1.423   0.688  1.00  0.00     0.199 HD  
BRANCH  20  23
ATOM     23  C12 UNL     1       3.563   0.281   1.927  1.00  0.00     0.164 C   
BRANCH  23  24
ATOM     24  C13 UNL     1       3.414  -0.966   1.102  1.00  0.00    -0.002 A   
ATOM     25  C14 UNL     1       2.931  -2.162   1.683  1.00  0.00     0.012 A   
ATOM     26  C18 UNL     1       3.707  -0.937  -0.273  1.00  0.00     0.045 A   
ATOM     27  C15 UNL     1       2.717  -3.305   0.905  1.00  0.00     0.037 A   
ATOM     28  C17 UNL     1       3.490  -2.082  -1.010  1.00  0.00     0.109 A   
ATOM     29  C16 UNL     1       3.002  -3.232  -0.440  1.00  0.00     0.108 A   
ATOM     30  O2  UNL     1       3.715  -2.217  -2.343  1.00  0.00    -0.316 OA  
ATOM     31  O3  UNL     1       2.846  -4.234  -1.344  1.00  0.00    -0.316 OA  
ATOM     32  C19 UNL     1       3.306  -3.587  -2.551  1.00  0.00     0.337 C   
ENDBRANCH  23  24
ENDBRANCH  20  23
ENDBRANCH  19  20
BRANCH  19  33
ATOM     33  C20 UNL     1       0.391   2.215   2.697  1.00  0.00     0.043 C   
ATOM     34  C21 UNL     1       0.141   3.250   1.582  1.00  0.00     0.010 C   
ATOM     35  C25 UNL     1      -0.927   1.899   3.432  1.00  0.00     0.010 C   
ATOM     36  C22 UNL     1      -0.525   4.513   2.126  1.00  0.00     0.001 C   
ATOM     37  C24 UNL     1      -1.589   3.165   3.973  1.00  0.00     0.001 C   
ATOM     38  C23 UNL     1      -1.817   4.194   2.870  1.00  0.00     0.000 C   
ENDBRANCH  19  33
ENDBRANCH   3  19
TORSDOF 9
