REMARK SMILES CC(C)C[C@H]([NH2+]Cc1ccc2c(c1)OCO2)c1cn(C(=O)c2cccc(N([O-])[O-])c2)nn1
REMARK SMILES IDX 17 1 18 2 19 3 31 4 32 5 5 6 4 7 2 8 1 9 3 10 6 11 7 14 8 15
REMARK SMILES IDX 9 16 13 17 10 18 12 19 11 20 14 21 16 22 15 23 20 24 21 25
REMARK SMILES IDX 22 26 23 27 30 28 24 29 26 30 25 31 27 32 28 33 29 34
REMARK H PARENT 6 12 6 13
ROOT
ATOM     1   C14 UNL     1      -0.304   0.199   0.403  1.00  0.00     0.127 A   
ATOM     2   C15 UNL     1      -0.012  -1.049   0.901  1.00  0.00     0.139 A   
ATOM     3   N2  UNL     1      -1.175  -1.781   0.743  1.00  0.00    -0.143 N   
ATOM     4   N4  UNL     1      -2.112  -0.997   0.154  1.00  0.00    -0.068 NA  
ATOM     5   N5  UNL     1      -1.593   0.203  -0.056  1.00  0.00    -0.131 NA  
ENDROOT
BRANCH   1   6
ATOM     6   C5  UNL     1       0.534   1.430   0.277  1.00  0.00     0.114 C   
BRANCH   6   7
ATOM     7   C4  UNL     1       0.299   2.423   1.434  1.00  0.00     0.064 C   
BRANCH   7   8
ATOM     8   C2  UNL     1       0.708   1.915   2.833  1.00  0.00    -0.012 C   
ATOM     9   C1  UNL     1       2.197   1.578   2.920  1.00  0.00     0.007 C   
ATOM     10  C3  UNL     1       0.356   2.969   3.887  1.00  0.00     0.007 C   
ENDBRANCH   7   8
ENDBRANCH   6   7
BRANCH   6  11
ATOM     11  N1  UNL     1       0.196   2.171  -1.003  1.00  0.00     0.249 N   
ATOM     12  H11 UNL     1      -0.826   2.298  -1.011  1.00  0.00     0.199 HD  
ATOM     13  H12 UNL     1       0.616   3.105  -0.986  1.00  0.00     0.199 HD  
BRANCH  11  14
ATOM     14  C6  UNL     1       0.575   1.499  -2.283  1.00  0.00     0.164 C   
BRANCH  14  15
ATOM     15  C7  UNL     1       2.063   1.372  -2.457  1.00  0.00    -0.002 A   
ATOM     16  C8  UNL     1       2.849   2.509  -2.765  1.00  0.00     0.012 A   
ATOM     17  C12 UNL     1       2.690   0.127  -2.276  1.00  0.00     0.045 A   
ATOM     18  C9  UNL     1       4.239   2.411  -2.885  1.00  0.00     0.037 A   
ATOM     19  C11 UNL     1       4.063   0.066  -2.399  1.00  0.00     0.109 A   
ATOM     20  C10 UNL     1       4.816   1.175  -2.694  1.00  0.00     0.108 A   
ATOM     21  O1  UNL     1       4.820  -1.050  -2.244  1.00  0.00    -0.316 OA  
ATOM     22  O2  UNL     1       6.143   0.896  -2.765  1.00  0.00    -0.316 OA  
ATOM     23  C13 UNL     1       6.141  -0.525  -2.512  1.00  0.00     0.337 C   
ENDBRANCH  14  15
ENDBRANCH  11  14
ENDBRANCH   6  11
ENDBRANCH   1   6
BRANCH   3  24
ATOM     24  C16 UNL     1      -1.434  -3.106   1.128  1.00  0.00     0.271 C   
ATOM     25  O3  UNL     1      -0.531  -3.673   1.742  1.00  0.00    -0.269 OA  
BRANCH  24  26
ATOM     26  C17 UNL     1      -2.694  -3.855   0.865  1.00  0.00     0.042 A   
ATOM     27  C18 UNL     1      -3.101  -4.817   1.802  1.00  0.00     0.014 A   
ATOM     28  C22 UNL     1      -3.448  -3.663  -0.298  1.00  0.00     0.045 A   
ATOM     29  C19 UNL     1      -4.267  -5.559   1.600  1.00  0.00     0.003 A   
ATOM     30  C21 UNL     1      -4.619  -4.413  -0.494  1.00  0.00     0.118 A   
ATOM     31  C20 UNL     1      -5.035  -5.357   0.453  1.00  0.00     0.031 A   
BRANCH  30  32
ATOM     32  N3  UNL     1      -5.409  -4.209  -1.716  1.00  0.00     0.092 N   
ATOM     33  O4  UNL     1      -6.487  -4.809  -1.814  1.00  0.00    -0.138 OA  
ATOM     34  O5  UNL     1      -4.944  -3.443  -2.573  1.00  0.00    -0.138 OA  
ENDBRANCH  30  32
ENDBRANCH  24  26
ENDBRANCH   3  24
TORSDOF 9
