REMARK SMILES CC(C)(C)[C@H]([NH2+]Cc1ccc2c(c1)OCO2)c1cn(-c2ccc(S(C)(=O)=O)cc2)nn1
REMARK SMILES IDX 17 1 18 2 19 3 30 4 31 5 5 6 2 7 1 8 3 9 4 10 6 11 7 14 8 15
REMARK SMILES IDX 9 16 13 17 10 18 12 19 11 20 14 21 16 22 15 23 20 24 21 25
REMARK SMILES IDX 29 26 22 27 28 28 23 29 24 30 25 31 26 32 27 33
REMARK H PARENT 6 12 6 13
ROOT
ATOM     1   C14 UNL     1      -0.979  -0.329   0.087  1.00  0.00     0.128 A   
ATOM     2   C15 UNL     1      -1.273   0.389   1.226  1.00  0.00     0.135 A   
ATOM     3   N2  UNL     1      -1.460  -0.561   2.213  1.00  0.00    -0.181 N   
ATOM     4   N3  UNL     1      -1.245  -1.791   1.678  1.00  0.00    -0.071 NA  
ATOM     5   N4  UNL     1      -0.962  -1.660   0.393  1.00  0.00    -0.131 NA  
ENDROOT
BRANCH   1   6
ATOM     6   C5  UNL     1      -0.629   0.110  -1.306  1.00  0.00     0.120 C   
BRANCH   6   7
ATOM     7   C2  UNL     1      -1.864   0.240  -2.266  1.00  0.00     0.010 C   
ATOM     8   C1  UNL     1      -1.426   0.832  -3.627  1.00  0.00     0.017 C   
ATOM     9   C3  UNL     1      -2.907   1.213  -1.670  1.00  0.00     0.017 C   
ATOM     10  C4  UNL     1      -2.557  -1.113  -2.528  1.00  0.00     0.017 C   
ENDBRANCH   6   7
BRANCH   6  11
ATOM     11  N1  UNL     1       0.382  -0.856  -1.879  1.00  0.00     0.250 N   
ATOM     12  H11 UNL     1       0.433  -0.813  -2.900  1.00  0.00     0.199 HD  
ATOM     13  H12 UNL     1       0.050  -1.806  -1.652  1.00  0.00     0.199 HD  
BRANCH  11  14
ATOM     14  C6  UNL     1       1.764  -0.735  -1.335  1.00  0.00     0.164 C   
BRANCH  14  15
ATOM     15  C7  UNL     1       2.651  -1.794  -1.923  1.00  0.00    -0.002 A   
ATOM     16  C8  UNL     1       2.723  -3.074  -1.321  1.00  0.00     0.012 A   
ATOM     17  C12 UNL     1       3.369  -1.542  -3.104  1.00  0.00     0.045 A   
ATOM     18  C9  UNL     1       3.509  -4.087  -1.881  1.00  0.00     0.037 A   
ATOM     19  C11 UNL     1       4.133  -2.563  -3.629  1.00  0.00     0.109 A   
ATOM     20  C10 UNL     1       4.202  -3.800  -3.036  1.00  0.00     0.108 A   
ATOM     21  O1  UNL     1       4.883  -2.487  -4.760  1.00  0.00    -0.316 OA  
ATOM     22  O2  UNL     1       5.006  -4.657  -3.716  1.00  0.00    -0.316 OA  
ATOM     23  C13 UNL     1       5.456  -3.815  -4.799  1.00  0.00     0.337 C   
ENDBRANCH  14  15
ENDBRANCH  11  14
ENDBRANCH   6  11
ENDBRANCH   1   6
BRANCH   3  24
ATOM     24  C16 UNL     1      -1.790  -0.382   3.580  1.00  0.00     0.058 A   
ATOM     25  C17 UNL     1      -1.893  -1.507   4.418  1.00  0.00     0.038 A   
ATOM     26  C22 UNL     1      -1.998   0.900   4.112  1.00  0.00     0.038 A   
ATOM     27  C18 UNL     1      -2.191  -1.351   5.774  1.00  0.00     0.136 A   
ATOM     28  C21 UNL     1      -2.299   1.054   5.469  1.00  0.00     0.136 A   
ATOM     29  C19 UNL     1      -2.401  -0.072   6.290  1.00  0.00     0.306 A   
BRANCH  29  30
ATOM     30  S1  UNL     1      -2.716   0.133   8.031  1.00  0.00    -0.239 S   
ATOM     31  C20 UNL     1      -4.481  -0.001   8.151  1.00  0.00     0.674 C   
ATOM     32  O3  UNL     1      -2.122  -1.003   8.708  1.00  0.00    -0.517 OA  
ATOM     33  O4  UNL     1      -2.337   1.490   8.373  1.00  0.00    -0.517 OA  
ENDBRANCH  29  30
ENDBRANCH   3  24
TORSDOF 7
