REMARK SMILES Cc1cnc(Cn2cc([C@H](CC(C)C)[NH2+]Cc3ccc4c(c3)OCO4)nn2)c(C)c1O
REMARK SMILES IDX 7 1 8 2 9 3 26 4 27 5 6 7 5 8 2 9 3 10 30 11 4 12 28 13 1 14
REMARK SMILES IDX 29 15 31 16 10 18 11 19 12 20 13 21 14 22 15 23 16 26 17 27
REMARK SMILES IDX 18 28 22 29 19 30 21 31 20 32 23 33 25 34 24 35
REMARK H PARENT 8 6 31 17 15 24 15 25
ROOT
ATOM     1   N2  UNL     1       3.087  -0.271   0.885  1.00  0.00    -0.206 N   
ATOM     2   C6  UNL     1       1.960   0.435   0.557  1.00  0.00     0.046 A   
ATOM     3   C7  UNL     1       1.105   0.208   1.610  1.00  0.00     0.127 A   
ATOM     4   N4  UNL     1       1.730  -0.590   2.535  1.00  0.00    -0.132 NA  
ATOM     5   N5  UNL     1       2.941  -0.872   2.084  1.00  0.00    -0.076 NA  
ATOM     6   H7  UNL     1       1.879   0.986  -0.371  1.00  0.00     0.083 HD  
ENDROOT
BRANCH   1   7
ATOM     7   C5  UNL     1       4.325  -0.387   0.136  1.00  0.00     0.190 C   
BRANCH   7   8
ATOM     8   C4  UNL     1       4.116  -1.217  -1.105  1.00  0.00     0.065 A   
ATOM     9   C2  UNL     1       3.701  -2.562  -3.495  1.00  0.00    -0.002 A   
ATOM     10  C3  UNL     1       3.483  -1.202  -3.342  1.00  0.00     0.117 A   
ATOM     11  C23 UNL     1       4.146  -3.252  -2.366  1.00  0.00     0.080 A   
ATOM     12  N1  UNL     1       3.667  -0.525  -2.187  1.00  0.00    -0.259 NA  
ATOM     13  C21 UNL     1       4.349  -2.598  -1.141  1.00  0.00     0.003 A   
ATOM     14  C1  UNL     1       3.469  -3.214  -4.822  1.00  0.00     0.049 C   
ATOM     15  C22 UNL     1       4.853  -3.348   0.062  1.00  0.00     0.049 C   
BRANCH  11  16
ATOM     16  O3  UNL     1       4.400  -4.596  -2.413  1.00  0.00    -0.360 OA  
ATOM     17  H30 UNL     1       4.396  -4.910  -3.331  1.00  0.00     0.218 HD  
ENDBRANCH  11  16
ENDBRANCH   7   8
ENDBRANCH   1   7
BRANCH   3  18
ATOM     18  C8  UNL     1      -0.302   0.638   1.840  1.00  0.00     0.114 C   
BRANCH  18  19
ATOM     19  C9  UNL     1      -0.421   2.073   2.392  1.00  0.00     0.064 C   
BRANCH  19  20
ATOM     20  C10 UNL     1       0.395   2.459   3.647  1.00  0.00    -0.012 C   
ATOM     21  C11 UNL     1      -0.078   1.775   4.929  1.00  0.00     0.007 C   
ATOM     22  C12 UNL     1       0.322   3.980   3.842  1.00  0.00     0.007 C   
ENDBRANCH  19  20
ENDBRANCH  18  19
BRANCH  18  23
ATOM     23  N3  UNL     1      -1.024  -0.328   2.742  1.00  0.00     0.249 N   
ATOM     24  H18 UNL     1      -0.367  -0.556   3.499  1.00  0.00     0.199 HD  
ATOM     25  H19 UNL     1      -1.845   0.113   3.164  1.00  0.00     0.199 HD  
BRANCH  23  26
ATOM     26  C13 UNL     1      -1.413  -1.632   2.127  1.00  0.00     0.164 C   
BRANCH  26  27
ATOM     27  C14 UNL     1      -2.491  -1.496   1.089  1.00  0.00    -0.002 A   
ATOM     28  C15 UNL     1      -2.191  -1.699  -0.280  1.00  0.00     0.012 A   
ATOM     29  C19 UNL     1      -3.800  -1.146   1.464  1.00  0.00     0.045 A   
ATOM     30  C16 UNL     1      -3.176  -1.549  -1.263  1.00  0.00     0.037 A   
ATOM     31  C18 UNL     1      -4.746  -1.004   0.470  1.00  0.00     0.109 A   
ATOM     32  C17 UNL     1      -4.443  -1.199  -0.855  1.00  0.00     0.108 A   
ATOM     33  O1  UNL     1      -6.047  -0.665   0.662  1.00  0.00    -0.316 OA  
ATOM     34  O2  UNL     1      -5.516  -1.009  -1.664  1.00  0.00    -0.316 OA  
ATOM     35  C20 UNL     1      -6.542  -0.699  -0.697  1.00  0.00     0.337 C   
ENDBRANCH  26  27
ENDBRANCH  23  26
ENDBRANCH  18  23
ENDBRANCH   3  18
TORSDOF 9
