REMARK SMILES c1cnc2[nH]cc(Cn3cc([C@@H]([NH2+]Cc4ccc5c(c4)OCO5)C4CCCC4)nn3)c2c1
REMARK SMILES IDX 9 1 10 2 11 3 29 4 30 5 8 7 7 8 1 9 2 10 32 11 3 12 31 13
REMARK SMILES IDX 4 14 5 15 6 16 12 18 13 19 14 22 15 23 16 24 20 25 17 26
REMARK SMILES IDX 19 27 18 28 21 29 23 30 22 31 24 32 25 33 28 34 26 35 27 36
REMARK H PARENT 10 6 5 17 13 20 13 21
ROOT
ATOM     1   N3  UNL     1      -1.542  -1.291  -0.331  1.00  0.00    -0.208 N   
ATOM     2   C7  UNL     1      -0.277  -1.445   0.172  1.00  0.00     0.046 A   
ATOM     3   C8  UNL     1      -0.198  -0.497   1.169  1.00  0.00     0.127 A   
ATOM     4   N5  UNL     1      -1.387   0.184   1.240  1.00  0.00    -0.132 NA  
ATOM     5   N6  UNL     1      -2.201  -0.310   0.321  1.00  0.00    -0.076 NA  
ATOM     6   H7  UNL     1       0.413  -2.180  -0.217  1.00  0.00     0.083 HD  
ENDROOT
BRANCH   1   7
ATOM     7   C6  UNL     1      -2.210  -2.085  -1.351  1.00  0.00     0.171 C   
BRANCH   7   8
ATOM     8   C5  UNL     1      -1.521  -1.954  -2.668  1.00  0.00    -0.004 A   
ATOM     9   C1  UNL     1      -2.125   1.201  -4.711  1.00  0.00     0.021 A   
ATOM     10  C2  UNL     1      -1.300   0.770  -5.744  1.00  0.00     0.113 A   
ATOM     11  C24 UNL     1      -2.291   0.385  -3.589  1.00  0.00     0.014 A   
ATOM     12  N1  UNL     1      -0.617  -0.399  -5.773  1.00  0.00    -0.241 NA  
ATOM     13  C23 UNL     1      -1.614  -0.848  -3.573  1.00  0.00     0.021 A   
ATOM     14  C3  UNL     1      -0.826  -1.153  -4.677  1.00  0.00     0.129 A   
ATOM     15  N2  UNL     1      -0.278  -2.389  -4.477  1.00  0.00    -0.305 N   
ATOM     16  C4  UNL     1      -0.689  -2.890  -3.266  1.00  0.00     0.079 A   
ATOM     17  H3  UNL     1       0.314  -2.850  -5.153  1.00  0.00     0.154 HD  
ENDBRANCH   7   8
ENDBRANCH   1   7
BRANCH   3  18
ATOM     18  C9  UNL     1       0.915  -0.123   2.096  1.00  0.00     0.117 C   
BRANCH  18  19
ATOM     19  N4  UNL     1       0.757   1.319   2.521  1.00  0.00     0.249 N   
ATOM     20  H9  UNL     1      -0.228   1.564   2.319  1.00  0.00     0.199 HD  
ATOM     21  H10 UNL     1       0.864   1.427   3.532  1.00  0.00     0.199 HD  
BRANCH  19  22
ATOM     22  C10 UNL     1       1.633   2.306   1.830  1.00  0.00     0.164 C   
BRANCH  22  23
ATOM     23  C11 UNL     1       1.397   2.401   0.349  1.00  0.00    -0.002 A   
ATOM     24  C12 UNL     1       0.244   3.047  -0.156  1.00  0.00     0.012 A   
ATOM     25  C16 UNL     1       2.308   1.820  -0.549  1.00  0.00     0.045 A   
ATOM     26  C13 UNL     1      -0.000   3.113  -1.532  1.00  0.00     0.037 A   
ATOM     27  C15 UNL     1       2.032   1.895  -1.899  1.00  0.00     0.109 A   
ATOM     28  C14 UNL     1       0.912   2.525  -2.378  1.00  0.00     0.108 A   
ATOM     29  O1  UNL     1       2.804   1.375  -2.892  1.00  0.00    -0.316 OA  
ATOM     30  O2  UNL     1       0.841   2.496  -3.734  1.00  0.00    -0.316 OA  
ATOM     31  C17 UNL     1       2.025   1.734  -4.057  1.00  0.00     0.337 C   
ENDBRANCH  22  23
ENDBRANCH  19  22
ENDBRANCH  18  19
BRANCH  18  32
ATOM     32  C18 UNL     1       0.975  -1.058   3.321  1.00  0.00     0.043 C   
ATOM     33  C19 UNL     1       2.182  -0.831   4.242  1.00  0.00     0.010 C   
ATOM     34  C22 UNL     1      -0.213  -0.999   4.287  1.00  0.00     0.010 C   
ATOM     35  C20 UNL     1       1.776  -1.413   5.599  1.00  0.00     0.001 C   
ATOM     36  C21 UNL     1       0.300  -1.786   5.483  1.00  0.00     0.001 C   
ENDBRANCH  18  32
ENDBRANCH   3  18
TORSDOF 7
