REMARK SMILES CC(C)[C@H]([NH2+]Cc1ccc2c(c1)OCO2)c1cn(Cc2cnc(C3CC3)nc2)nn1
REMARK SMILES IDX 16 1 17 2 18 3 29 4 30 5 4 7 2 8 1 9 3 10 5 11 6 14 7 15
REMARK SMILES IDX 8 16 12 17 9 18 11 19 10 20 13 21 15 22 14 23 19 24 20 25
REMARK SMILES IDX 21 26 28 27 22 28 27 29 23 30 24 31 25 32 26 33
REMARK H PARENT 17 6 5 12 5 13
ROOT
ATOM     1   C13 UNL     1      -0.498  -1.135  -2.034  1.00  0.00     0.127 A   
ATOM     2   C14 UNL     1       0.539  -0.284  -2.349  1.00  0.00     0.046 A   
ATOM     3   N2  UNL     1      -0.085   0.893  -2.664  1.00  0.00    -0.208 N   
ATOM     4   N5  UNL     1      -1.423   0.762  -2.590  1.00  0.00    -0.076 NA  
ATOM     5   N6  UNL     1      -1.689  -0.478  -2.213  1.00  0.00    -0.132 NA  
ATOM     6   H18 UNL     1       1.616  -0.380  -2.309  1.00  0.00     0.083 HD  
ENDROOT
BRANCH   1   7
ATOM     7   C4  UNL     1      -0.488  -2.509  -1.448  1.00  0.00     0.117 C   
BRANCH   7   8
ATOM     8   C2  UNL     1      -0.663  -3.649  -2.484  1.00  0.00     0.037 C   
ATOM     9   C1  UNL     1      -1.971  -3.595  -3.280  1.00  0.00     0.014 C   
ATOM     10  C3  UNL     1       0.526  -3.710  -3.451  1.00  0.00     0.014 C   
ENDBRANCH   7   8
BRANCH   7  11
ATOM     11  N1  UNL     1      -1.569  -2.644  -0.393  1.00  0.00     0.249 N   
ATOM     12  H9  UNL     1      -2.460  -2.403  -0.847  1.00  0.00     0.199 HD  
ATOM     13  H10 UNL     1      -1.635  -3.619  -0.086  1.00  0.00     0.199 HD  
BRANCH  11  14
ATOM     14  C5  UNL     1      -1.451  -1.755   0.807  1.00  0.00     0.164 C   
BRANCH  14  15
ATOM     15  C6  UNL     1      -0.163  -1.930   1.562  1.00  0.00    -0.002 A   
ATOM     16  C7  UNL     1       0.800  -0.891   1.574  1.00  0.00     0.012 A   
ATOM     17  C11 UNL     1       0.106  -3.131   2.242  1.00  0.00     0.045 A   
ATOM     18  C8  UNL     1       2.021  -1.048   2.240  1.00  0.00     0.037 A   
ATOM     19  C10 UNL     1       1.319  -3.252   2.891  1.00  0.00     0.109 A   
ATOM     20  C9  UNL     1       2.251  -2.243   2.886  1.00  0.00     0.108 A   
ATOM     21  O1  UNL     1       1.732  -4.339   3.592  1.00  0.00    -0.316 OA  
ATOM     22  O2  UNL     1       3.368  -2.567   3.588  1.00  0.00    -0.316 OA  
ATOM     23  C12 UNL     1       3.025  -3.887   4.061  1.00  0.00     0.337 C   
ENDBRANCH  14  15
ENDBRANCH  11  14
ENDBRANCH   7  11
ENDBRANCH   1   7
BRANCH   3  24
ATOM     24  C15 UNL     1       0.519   2.206  -2.836  1.00  0.00     0.172 C   
BRANCH  24  25
ATOM     25  C16 UNL     1       1.058   2.688  -1.528  1.00  0.00     0.008 A   
ATOM     26  C17 UNL     1       2.400   2.878  -1.300  1.00  0.00     0.120 A   
ATOM     27  C22 UNL     1       0.251   2.921  -0.435  1.00  0.00     0.120 A   
ATOM     28  N3  UNL     1       2.910   3.227  -0.104  1.00  0.00    -0.241 NA  
ATOM     29  N4  UNL     1       0.719   3.256   0.782  1.00  0.00    -0.241 NA  
ATOM     30  C18 UNL     1       2.050   3.416   0.917  1.00  0.00     0.131 A   
BRANCH  30  31
ATOM     31  C19 UNL     1       2.600   3.821   2.261  1.00  0.00     0.058 C   
ATOM     32  C20 UNL     1       2.350   2.965   3.483  1.00  0.00     0.012 C   
ATOM     33  C21 UNL     1       3.727   3.032   2.890  1.00  0.00     0.012 C   
ENDBRANCH  30  31
ENDBRANCH  24  25
ENDBRANCH   3  24
TORSDOF 8
