REMARK SMILES COCc1ccc(Cn2cc([C@@H]([NH2+]Cc3ccc4c(c3)OCO4)C(C)C)nn2)cc1
REMARK SMILES IDX 9 1 10 2 11 3 27 4 28 5 8 7 7 8 4 9 5 10 30 11 6 12 29 13
REMARK SMILES IDX 3 14 2 15 1 16 12 17 13 18 14 21 15 22 16 23 20 24 17 25
REMARK SMILES IDX 19 26 18 27 21 28 23 29 22 30 24 31 25 32 26 33
REMARK H PARENT 10 6 13 19 13 20
ROOT
ATOM     1   N1  UNL     1       0.907  -1.746   2.470  1.00  0.00    -0.208 N   
ATOM     2   C8  UNL     1      -0.457  -1.718   2.363  1.00  0.00     0.046 A   
ATOM     3   C9  UNL     1      -0.713  -0.554   1.672  1.00  0.00     0.127 A   
ATOM     4   N3  UNL     1       0.473   0.096   1.435  1.00  0.00    -0.132 NA  
ATOM     5   N4  UNL     1       1.452  -0.628   1.950  1.00  0.00    -0.076 NA  
ATOM     6   H10 UNL     1      -1.083  -2.519   2.732  1.00  0.00     0.083 HD  
ENDROOT
BRANCH   1   7
ATOM     7   C7  UNL     1       1.744  -2.788   3.042  1.00  0.00     0.169 C   
BRANCH   7   8
ATOM     8   C6  UNL     1       1.845  -3.964   2.103  1.00  0.00    -0.029 A   
ATOM     9   C3  UNL     1       1.981  -6.119   0.288  1.00  0.00    -0.022 A   
ATOM     10  C4  UNL     1       2.757  -4.971   0.087  1.00  0.00     0.006 A   
ATOM     11  C23 UNL     1       1.127  -6.176   1.397  1.00  0.00     0.006 A   
ATOM     12  C5  UNL     1       2.692  -3.905   0.987  1.00  0.00     0.006 A   
ATOM     13  C22 UNL     1       1.062  -5.111   2.300  1.00  0.00     0.006 A   
BRANCH   9  14
ATOM     14  C2  UNL     1       2.028  -7.261  -0.696  1.00  0.00     0.195 C   
BRANCH  14  15
ATOM     15  O1  UNL     1       0.951  -7.099  -1.617  1.00  0.00    -0.380 OA  
ATOM     16  C1  UNL     1       0.957  -8.123  -2.606  1.00  0.00     0.195 C   
ENDBRANCH  14  15
ENDBRANCH   9  14
ENDBRANCH   7   8
ENDBRANCH   1   7
BRANCH   3  17
ATOM     17  C10 UNL     1      -1.995   0.042   1.181  1.00  0.00     0.117 C   
BRANCH  17  18
ATOM     18  N2  UNL     1      -1.773   1.447   0.690  1.00  0.00     0.249 N   
ATOM     19  H12 UNL     1      -0.864   1.446   0.204  1.00  0.00     0.199 HD  
ATOM     20  H13 UNL     1      -2.466   1.732  -0.006  1.00  0.00     0.199 HD  
BRANCH  18  21
ATOM     21  C11 UNL     1      -1.699   2.489   1.750  1.00  0.00     0.164 C   
BRANCH  21  22
ATOM     22  C12 UNL     1      -1.469   3.840   1.134  1.00  0.00    -0.002 A   
ATOM     23  C13 UNL     1      -2.565   4.664   0.781  1.00  0.00     0.012 A   
ATOM     24  C17 UNL     1      -0.161   4.267   0.847  1.00  0.00     0.045 A   
ATOM     25  C14 UNL     1      -2.363   5.900   0.159  1.00  0.00     0.037 A   
ATOM     26  C16 UNL     1       0.003   5.492   0.234  1.00  0.00     0.109 A   
ATOM     27  C15 UNL     1      -1.066   6.285  -0.103  1.00  0.00     0.108 A   
ATOM     28  O2  UNL     1       1.191   6.050  -0.113  1.00  0.00    -0.316 OA  
ATOM     29  O3  UNL     1      -0.686   7.442  -0.704  1.00  0.00    -0.316 OA  
ATOM     30  C18 UNL     1       0.751   7.292  -0.708  1.00  0.00     0.337 C   
ENDBRANCH  21  22
ENDBRANCH  18  21
ENDBRANCH  17  18
BRANCH  17  31
ATOM     31  C19 UNL     1      -2.655  -0.814   0.067  1.00  0.00     0.037 C   
ATOM     32  C20 UNL     1      -4.098  -0.371  -0.209  1.00  0.00     0.014 C   
ATOM     33  C21 UNL     1      -1.860  -0.841  -1.245  1.00  0.00     0.014 C   
ENDBRANCH  17  31
ENDBRANCH   3  17
TORSDOF 9
