REMARK SMILES CCn1cncc1CCn1cc([C@H](CC(C)C)[NH2+]Cc2ccc3c(c2)OCO3)nn1
REMARK SMILES IDX 10 1 11 2 12 3 29 4 30 5 9 7 8 8 7 9 3 10 4 11 5 12 6 13
REMARK SMILES IDX 2 14 1 15 13 16 14 17 15 18 16 19 17 20 18 21 19 24 20 25
REMARK SMILES IDX 21 26 25 27 22 28 24 29 23 30 26 31 28 32 27 33
REMARK H PARENT 11 6 18 22 18 23
ROOT
ATOM     1   N3  UNL     1      -2.161  -1.037  -3.325  1.00  0.00    -0.212 N   
ATOM     2   C8  UNL     1      -0.918  -1.600  -3.196  1.00  0.00     0.045 A   
ATOM     3   C9  UNL     1      -0.901  -2.047  -1.892  1.00  0.00     0.127 A   
ATOM     4   N5  UNL     1      -2.163  -1.942  -1.368  1.00  0.00    -0.132 NA  
ATOM     5   N6  UNL     1      -2.931  -1.331  -2.260  1.00  0.00    -0.076 NA  
ATOM     6   H12 UNL     1      -0.145  -1.466  -3.938  1.00  0.00     0.083 HD  
ENDROOT
BRANCH   1   7
ATOM     7   C7  UNL     1      -2.517   0.045  -4.228  1.00  0.00     0.140 C   
BRANCH   7   8
ATOM     8   C6  UNL     1      -2.353   1.444  -3.595  1.00  0.00     0.074 C   
BRANCH   8   9
ATOM     9   C5  UNL     1      -1.103   1.567  -2.776  1.00  0.00     0.031 A   
ATOM     10  N1  UNL     1       0.158   1.862  -3.229  1.00  0.00    -0.294 N   
ATOM     11  C3  UNL     1       1.028   1.609  -2.198  1.00  0.00     0.188 A   
ATOM     12  N2  UNL     1       0.401   1.189  -1.118  1.00  0.00    -0.247 NA  
ATOM     13  C4  UNL     1      -0.930   1.316  -1.430  1.00  0.00     0.131 A   
BRANCH  10  14
ATOM     14  C2  UNL     1       0.545   2.320  -4.550  1.00  0.00     0.108 C   
ATOM     15  C1  UNL     1       0.514   3.834  -4.660  1.00  0.00     0.025 C   
ENDBRANCH  10  14
ENDBRANCH   8   9
ENDBRANCH   7   8
ENDBRANCH   1   7
BRANCH   3  16
ATOM     16  C10 UNL     1       0.268  -2.433  -1.045  1.00  0.00     0.114 C   
BRANCH  16  17
ATOM     17  C11 UNL     1       0.169  -3.876  -0.518  1.00  0.00     0.064 C   
BRANCH  17  18
ATOM     18  C12 UNL     1       1.356  -4.370   0.335  1.00  0.00    -0.012 C   
ATOM     19  C13 UNL     1       2.680  -4.335  -0.430  1.00  0.00     0.007 C   
ATOM     20  C14 UNL     1       1.080  -5.795   0.822  1.00  0.00     0.007 C   
ENDBRANCH  17  18
ENDBRANCH  16  17
BRANCH  16  21
ATOM     21  N4  UNL     1       0.541  -1.438   0.049  1.00  0.00     0.249 N   
ATOM     22  H23 UNL     1       0.584  -0.490  -0.383  1.00  0.00     0.199 HD  
ATOM     23  H24 UNL     1       1.478  -1.582   0.436  1.00  0.00     0.199 HD  
BRANCH  21  24
ATOM     24  C15 UNL     1      -0.435  -1.328   1.169  1.00  0.00     0.164 C   
BRANCH  24  25
ATOM     25  C16 UNL     1       0.168  -0.572   2.325  1.00  0.00    -0.002 A   
ATOM     26  C17 UNL     1       0.816  -1.269   3.373  1.00  0.00     0.012 A   
ATOM     27  C21 UNL     1       0.138   0.833   2.348  1.00  0.00     0.045 A   
ATOM     28  C18 UNL     1       1.417  -0.581   4.434  1.00  0.00     0.037 A   
ATOM     29  C20 UNL     1       0.736   1.481   3.408  1.00  0.00     0.109 A   
ATOM     30  C19 UNL     1       1.359   0.795   4.421  1.00  0.00     0.108 A   
ATOM     31  O1  UNL     1       0.792   2.828   3.583  1.00  0.00    -0.316 OA  
ATOM     32  O2  UNL     1       1.886   1.622   5.361  1.00  0.00    -0.316 OA  
ATOM     33  C22 UNL     1       1.497   2.912   4.841  1.00  0.00     0.337 C   
ENDBRANCH  24  25
ENDBRANCH  21  24
ENDBRANCH  16  21
ENDBRANCH   3  16
TORSDOF 10
