REMARK SMILES Fc1cccc(CCn2cc([C@@H]([NH2+]Cc3ccc4c(c3)OCO4)C3CCCCC3)nn2)c1
REMARK SMILES IDX 9 1 10 2 11 3 30 4 31 5 8 7 7 8 6 9 2 10 3 11 32 12 4 13
REMARK SMILES IDX 5 14 1 15 12 16 13 17 14 20 15 21 16 22 20 23 17 24 19 25
REMARK SMILES IDX 18 26 21 27 23 28 22 29 24 30 25 31 29 32 26 33 28 34 27 35
REMARK H PARENT 10 6 13 18 13 19
ROOT
ATOM     1   N1  UNL     1      -1.176  -0.476   3.533  1.00  0.00    -0.212 N   
ATOM     2   C8  UNL     1      -1.361  -0.403   2.181  1.00  0.00     0.045 A   
ATOM     3   C9  UNL     1      -0.102  -0.593   1.661  1.00  0.00     0.127 A   
ATOM     4   N3  UNL     1       0.785  -0.774   2.695  1.00  0.00    -0.132 NA  
ATOM     5   N4  UNL     1       0.117  -0.692   3.833  1.00  0.00    -0.076 NA  
ATOM     6   H8  UNL     1      -2.327  -0.201   1.740  1.00  0.00     0.083 HD  
ENDROOT
BRANCH   1   7
ATOM     7   C7  UNL     1      -2.165  -0.334   4.582  1.00  0.00     0.139 C   
BRANCH   7   8
ATOM     8   C6  UNL     1      -2.221   1.081   5.161  1.00  0.00     0.057 C   
BRANCH   8   9
ATOM     9   C5  UNL     1      -2.801   2.079   4.186  1.00  0.00    -0.043 A   
ATOM     10  C1  UNL     1      -2.512   3.773   2.483  1.00  0.00     0.123 A   
ATOM     11  C2  UNL     1      -3.888   3.857   2.300  1.00  0.00     0.039 A   
ATOM     12  C25 UNL     1      -1.963   2.901   3.418  1.00  0.00     0.043 A   
ATOM     13  C3  UNL     1      -4.731   3.054   3.066  1.00  0.00     0.003 A   
ATOM     14  C4  UNL     1      -4.191   2.166   4.002  1.00  0.00     0.004 A   
ATOM     15  F1  UNL     1      -1.698   4.528   1.728  1.00  0.00    -0.207 F   
ENDBRANCH   8   9
ENDBRANCH   7   8
ENDBRANCH   1   7
BRANCH   3  16
ATOM     16  C10 UNL     1       0.416  -0.545   0.257  1.00  0.00     0.117 C   
BRANCH  16  17
ATOM     17  N2  UNL     1       1.925  -0.371   0.294  1.00  0.00     0.249 N   
ATOM     18  H10 UNL     1       2.185  -0.332   1.294  1.00  0.00     0.199 HD  
ATOM     19  H11 UNL     1       2.394  -1.209  -0.064  1.00  0.00     0.199 HD  
BRANCH  17  20
ATOM     20  C11 UNL     1       2.472   0.836  -0.381  1.00  0.00     0.164 C   
BRANCH  20  21
ATOM     21  C12 UNL     1       2.366   0.752  -1.878  1.00  0.00    -0.002 A   
ATOM     22  C13 UNL     1       3.294  -0.025  -2.617  1.00  0.00     0.012 A   
ATOM     23  C17 UNL     1       1.313   1.396  -2.552  1.00  0.00     0.045 A   
ATOM     24  C14 UNL     1       3.175  -0.158  -4.005  1.00  0.00     0.037 A   
ATOM     25  C16 UNL     1       1.219   1.233  -3.918  1.00  0.00     0.109 A   
ATOM     26  C15 UNL     1       2.123   0.478  -4.625  1.00  0.00     0.108 A   
ATOM     27  O1  UNL     1       0.250   1.760  -4.710  1.00  0.00    -0.316 OA  
ATOM     28  O2  UNL     1       1.844   0.448  -5.954  1.00  0.00    -0.316 OA  
ATOM     29  C18 UNL     1       0.672   1.289  -6.010  1.00  0.00     0.337 C   
ENDBRANCH  20  21
ENDBRANCH  17  20
ENDBRANCH  16  17
BRANCH  16  30
ATOM     30  C19 UNL     1       0.077  -1.776  -0.620  1.00  0.00     0.043 C   
ATOM     31  C20 UNL     1      -1.408  -1.791  -1.033  1.00  0.00     0.010 C   
ATOM     32  C24 UNL     1       0.462  -3.131   0.012  1.00  0.00     0.010 C   
ATOM     33  C21 UNL     1      -1.716  -2.953  -1.977  1.00  0.00     0.001 C   
ATOM     34  C23 UNL     1       0.161  -4.288  -0.940  1.00  0.00     0.001 C   
ATOM     35  C22 UNL     1      -1.303  -4.292  -1.373  1.00  0.00     0.000 C   
ENDBRANCH  16  30
ENDBRANCH   3  16
TORSDOF 8
