REMARK SMILES Cc1cc([C@@H](CO)n2cc([C@H](CC(C)C)[NH2+]Cc3ccc4c(c3)OCO4)nn2)ccc1F
REMARK SMILES IDX 8 1 9 2 10 3 27 4 28 5 5 7 4 8 2 9 3 10 31 11 30 12 29 13
REMARK SMILES IDX 1 14 32 15 6 16 7 17 11 19 12 20 13 21 14 22 15 23 16 24
REMARK SMILES IDX 17 27 18 28 19 29 23 30 20 31 22 32 21 33 24 34 26 35 25 36
REMARK H PARENT 9 6 7 18 16 25 16 26
ROOT
ATOM     1   N1  UNL     1       2.232  -0.033   0.871  1.00  0.00    -0.202 N   
ATOM     2   C7  UNL     1       1.310   0.926   0.546  1.00  0.00     0.046 A   
ATOM     3   C8  UNL     1       0.431   0.920   1.603  1.00  0.00     0.127 A   
ATOM     4   N3  UNL     1       0.815  -0.036   2.506  1.00  0.00    -0.132 NA  
ATOM     5   N4  UNL     1       1.916  -0.611   2.050  1.00  0.00    -0.075 NA  
ATOM     6   H9  UNL     1       1.366   1.492  -0.373  1.00  0.00     0.083 HD  
ENDROOT
BRANCH   1   7
ATOM     7   C5  UNL     1       3.397  -0.491   0.117  1.00  0.00     0.155 C   
BRANCH   7   8
ATOM     8   C4  UNL     1       2.953  -1.262  -1.122  1.00  0.00    -0.023 A   
ATOM     9   C2  UNL     1       2.269  -3.402  -2.103  1.00  0.00    -0.015 A   
ATOM     10  C3  UNL     1       2.689  -2.643  -1.003  1.00  0.00     0.012 A   
ATOM     11  C24 UNL     1       2.078  -2.757  -3.325  1.00  0.00     0.126 A   
ATOM     12  C23 UNL     1       2.324  -1.397  -3.467  1.00  0.00     0.040 A   
ATOM     13  C22 UNL     1       2.760  -0.652  -2.371  1.00  0.00     0.009 A   
ATOM     14  C1  UNL     1       1.970  -4.863  -1.959  1.00  0.00     0.047 C   
ATOM     15  F1  UNL     1       1.636  -3.448  -4.385  1.00  0.00    -0.207 F   
ENDBRANCH   7   8
BRANCH   7  16
ATOM     16  C6  UNL     1       4.448   0.622  -0.093  1.00  0.00     0.185 C   
BRANCH  16  17
ATOM     17  O1  UNL     1       3.946   1.764  -0.789  1.00  0.00    -0.394 OA  
ATOM     18  H8  UNL     1       4.704   2.358  -0.944  1.00  0.00     0.210 HD  
ENDBRANCH  16  17
ENDBRANCH   7  16
ENDBRANCH   1   7
BRANCH   3  19
ATOM     19  C9  UNL     1      -0.821   1.695   1.847  1.00  0.00     0.114 C   
BRANCH  19  20
ATOM     20  C10 UNL     1      -0.568   2.883   2.793  1.00  0.00     0.064 C   
BRANCH  20  21
ATOM     21  C11 UNL     1      -1.775   3.818   3.016  1.00  0.00    -0.012 C   
ATOM     22  C12 UNL     1      -1.429   4.854   4.089  1.00  0.00     0.007 C   
ATOM     23  C13 UNL     1      -2.200   4.531   1.731  1.00  0.00     0.007 C   
ENDBRANCH  20  21
ENDBRANCH  19  20
BRANCH  19  24
ATOM     24  N2  UNL     1      -1.849   0.773   2.463  1.00  0.00     0.249 N   
ATOM     25  H20 UNL     1      -1.376  -0.138   2.583  1.00  0.00     0.199 HD  
ATOM     26  H21 UNL     1      -2.067   1.066   3.421  1.00  0.00     0.199 HD  
BRANCH  24  27
ATOM     27  C14 UNL     1      -3.100   0.554   1.692  1.00  0.00     0.164 C   
BRANCH  27  28
ATOM     28  C15 UNL     1      -2.876  -0.080   0.346  1.00  0.00    -0.002 A   
ATOM     29  C16 UNL     1      -3.129   0.656  -0.838  1.00  0.00     0.012 A   
ATOM     30  C20 UNL     1      -2.405  -1.402   0.249  1.00  0.00     0.045 A   
ATOM     31  C17 UNL     1      -2.913   0.090  -2.098  1.00  0.00     0.037 A   
ATOM     32  C19 UNL     1      -2.206  -1.932  -1.009  1.00  0.00     0.109 A   
ATOM     33  C18 UNL     1      -2.453  -1.207  -2.150  1.00  0.00     0.108 A   
ATOM     34  O2  UNL     1      -1.765  -3.189  -1.278  1.00  0.00    -0.316 OA  
ATOM     35  O3  UNL     1      -2.199  -1.916  -3.280  1.00  0.00    -0.316 OA  
ATOM     36  C21 UNL     1      -1.815  -3.191  -2.724  1.00  0.00     0.337 C   
ENDBRANCH  27  28
ENDBRANCH  24  27
ENDBRANCH  19  24
ENDBRANCH   3  19
TORSDOF 10
