REMARK SMILES Cc1cc([C@H](CO)n2cc([C@H](CC(C)C)[NH2+]Cc3ccc4c(c3)OCO4)nn2)ccc1F
REMARK SMILES IDX 8 1 9 2 10 3 27 4 28 5 5 7 4 8 2 9 3 10 31 11 30 12 29 13
REMARK SMILES IDX 1 14 32 15 6 16 7 17 11 19 12 20 13 21 14 22 15 23 16 24
REMARK SMILES IDX 17 27 18 28 19 29 23 30 20 31 22 32 21 33 24 34 26 35 25 36
REMARK H PARENT 9 6 7 18 16 25 16 26
ROOT
ATOM     1   N1  UNL     1       1.143   1.852  -1.469  1.00  0.00    -0.202 N   
ATOM     2   C7  UNL     1       0.410   1.035  -0.649  1.00  0.00     0.046 A   
ATOM     3   C8  UNL     1       1.216  -0.063  -0.459  1.00  0.00     0.127 A   
ATOM     4   N3  UNL     1       2.377   0.101  -1.171  1.00  0.00    -0.132 NA  
ATOM     5   N4  UNL     1       2.315   1.266  -1.796  1.00  0.00    -0.075 NA  
ATOM     6   H9  UNL     1      -0.573   1.310  -0.292  1.00  0.00     0.083 HD  
ENDROOT
BRANCH   1   7
ATOM     7   C5  UNL     1       0.812   3.180  -1.986  1.00  0.00     0.155 C   
BRANCH   7   8
ATOM     8   C4  UNL     1       0.395   4.112  -0.850  1.00  0.00    -0.023 A   
ATOM     9   C2  UNL     1      -1.286   5.282   0.489  1.00  0.00    -0.015 A   
ATOM     10  C3  UNL     1      -0.947   4.429  -0.573  1.00  0.00     0.012 A   
ATOM     11  C24 UNL     1      -0.267   5.797   1.292  1.00  0.00     0.126 A   
ATOM     12  C23 UNL     1       1.066   5.496   1.042  1.00  0.00     0.040 A   
ATOM     13  C22 UNL     1       1.397   4.658  -0.023  1.00  0.00     0.009 A   
ATOM     14  C1  UNL     1      -2.718   5.602   0.797  1.00  0.00     0.047 C   
ATOM     15  F1  UNL     1      -0.568   6.593   2.327  1.00  0.00    -0.207 F   
ENDBRANCH   7   8
BRANCH   7  16
ATOM     16  C6  UNL     1      -0.128   3.086  -3.206  1.00  0.00     0.185 C   
BRANCH  16  17
ATOM     17  O1  UNL     1      -1.334   2.368  -2.934  1.00  0.00    -0.394 OA  
ATOM     18  H8  UNL     1      -1.893   2.445  -3.731  1.00  0.00     0.210 HD  
ENDBRANCH  16  17
ENDBRANCH   7  16
ENDBRANCH   1   7
BRANCH   3  19
ATOM     19  C9  UNL     1       0.996  -1.316   0.325  1.00  0.00     0.114 C   
BRANCH  19  20
ATOM     20  C10 UNL     1       1.504  -1.149   1.772  1.00  0.00     0.064 C   
BRANCH  20  21
ATOM     21  C11 UNL     1       1.235  -2.329   2.730  1.00  0.00    -0.012 C   
ATOM     22  C12 UNL     1      -0.252  -2.664   2.848  1.00  0.00     0.007 C   
ATOM     23  C13 UNL     1       1.800  -2.003   4.117  1.00  0.00     0.007 C   
ENDBRANCH  20  21
ENDBRANCH  19  20
BRANCH  19  24
ATOM     24  N2  UNL     1       1.727  -2.468  -0.323  1.00  0.00     0.249 N   
ATOM     25  H20 UNL     1       2.680  -2.128  -0.516  1.00  0.00     0.199 HD  
ATOM     26  H21 UNL     1       1.811  -3.258   0.319  1.00  0.00     0.199 HD  
BRANCH  24  27
ATOM     27  C14 UNL     1       1.158  -2.959  -1.614  1.00  0.00     0.164 C   
BRANCH  27  28
ATOM     28  C15 UNL     1      -0.159  -3.661  -1.433  1.00  0.00    -0.002 A   
ATOM     29  C16 UNL     1      -1.362  -3.043  -1.853  1.00  0.00     0.012 A   
ATOM     30  C20 UNL     1      -0.210  -4.921  -0.810  1.00  0.00     0.045 A   
ATOM     31  C17 UNL     1      -2.599  -3.665  -1.651  1.00  0.00     0.037 A   
ATOM     32  C19 UNL     1      -1.446  -5.504  -0.623  1.00  0.00     0.109 A   
ATOM     33  C18 UNL     1      -2.607  -4.894  -1.031  1.00  0.00     0.108 A   
ATOM     34  O2  UNL     1      -1.670  -6.705  -0.028  1.00  0.00    -0.316 OA  
ATOM     35  O3  UNL     1      -3.708  -5.637  -0.749  1.00  0.00    -0.316 OA  
ATOM     36  C21 UNL     1      -3.110  -6.796  -0.129  1.00  0.00     0.337 C   
ENDBRANCH  27  28
ENDBRANCH  24  27
ENDBRANCH  19  24
ENDBRANCH   3  19
TORSDOF 10
