REMARK SMILES Cc1ccc(CCn2cc([C@@H]([NH2+]Cc3ccc4c(c3)OCO4)C(C)(C)C)nn2)nc1
REMARK SMILES IDX 8 1 9 2 10 3 27 4 28 5 7 7 6 8 5 9 2 10 3 11 30 12 4 13
REMARK SMILES IDX 29 14 1 15 11 16 12 17 13 20 14 21 15 22 19 23 16 24 18 25
REMARK SMILES IDX 17 26 20 27 22 28 21 29 23 30 24 31 25 32 26 33
REMARK H PARENT 9 6 12 18 12 19
ROOT
ATOM     1   N1  UNL     1       2.714   1.704   0.988  1.00  0.00    -0.212 N   
ATOM     2   C8  UNL     1       2.205   0.445   0.852  1.00  0.00     0.045 A   
ATOM     3   C9  UNL     1       2.067   0.286  -0.508  1.00  0.00     0.127 A   
ATOM     4   N3  UNL     1       2.500   1.425  -1.140  1.00  0.00    -0.132 NA  
ATOM     5   N4  UNL     1       2.898   2.283  -0.215  1.00  0.00    -0.076 NA  
ATOM     6   H10 UNL     1       1.960  -0.172   1.706  1.00  0.00     0.083 HD  
ENDROOT
BRANCH   1   7
ATOM     7   C7  UNL     1       3.026   2.420   2.207  1.00  0.00     0.140 C   
BRANCH   7   8
ATOM     8   C6  UNL     1       2.071   3.582   2.478  1.00  0.00     0.077 C   
BRANCH   8   9
ATOM     9   C5  UNL     1       0.647   3.174   2.776  1.00  0.00     0.042 A   
ATOM     10  C2  UNL     1      -1.930   2.460   3.467  1.00  0.00    -0.033 A   
ATOM     11  C3  UNL     1      -1.661   3.769   3.071  1.00  0.00     0.007 A   
ATOM     12  C23 UNL     1      -0.862   1.573   3.502  1.00  0.00     0.114 A   
ATOM     13  C4  UNL     1      -0.361   4.134   2.728  1.00  0.00     0.024 A   
ATOM     14  N5  UNL     1       0.407   1.894   3.150  1.00  0.00    -0.261 NA  
ATOM     15  C1  UNL     1      -3.305   2.051   3.888  1.00  0.00     0.046 C   
ENDBRANCH   8   9
ENDBRANCH   7   8
ENDBRANCH   1   7
BRANCH   3  16
ATOM     16  C10 UNL     1       1.450  -0.817  -1.306  1.00  0.00     0.120 C   
BRANCH  16  17
ATOM     17  N2  UNL     1       0.596  -0.210  -2.404  1.00  0.00     0.250 N   
ATOM     18  H12 UNL     1       0.295  -0.921  -3.072  1.00  0.00     0.199 HD  
ATOM     19  H13 UNL     1       1.205   0.452  -2.905  1.00  0.00     0.199 HD  
BRANCH  17  20
ATOM     20  C11 UNL     1      -0.604   0.566  -1.958  1.00  0.00     0.164 C   
BRANCH  20  21
ATOM     21  C12 UNL     1      -1.628  -0.285  -1.261  1.00  0.00    -0.002 A   
ATOM     22  C13 UNL     1      -2.432  -1.190  -1.994  1.00  0.00     0.012 A   
ATOM     23  C17 UNL     1      -1.766  -0.211   0.137  1.00  0.00     0.045 A   
ATOM     24  C14 UNL     1      -3.357  -2.015  -1.345  1.00  0.00     0.037 A   
ATOM     25  C16 UNL     1      -2.684  -1.041   0.746  1.00  0.00     0.109 A   
ATOM     26  C15 UNL     1      -3.456  -1.918   0.026  1.00  0.00     0.108 A   
ATOM     27  O1  UNL     1      -2.931  -1.106   2.081  1.00  0.00    -0.316 OA  
ATOM     28  O2  UNL     1      -4.290  -2.643   0.815  1.00  0.00    -0.316 OA  
ATOM     29  C18 UNL     1      -3.973  -2.108   2.117  1.00  0.00     0.337 C   
ENDBRANCH  20  21
ENDBRANCH  17  20
ENDBRANCH  16  17
BRANCH  16  30
ATOM     30  C19 UNL     1       2.485  -1.829  -1.914  1.00  0.00     0.010 C   
ATOM     31  C20 UNL     1       1.748  -3.005  -2.597  1.00  0.00     0.017 C   
ATOM     32  C21 UNL     1       3.354  -2.436  -0.788  1.00  0.00     0.017 C   
ATOM     33  C22 UNL     1       3.422  -1.182  -2.953  1.00  0.00     0.017 C   
ENDBRANCH  16  30
ENDBRANCH   3  16
TORSDOF 8
