REMARK SMILES CCc1ccccc1[C@@H](CO)n1cc([C@H](CC(C)C)[NH2+]Cc2ccc3c(c2)OCO3)nn1
REMARK SMILES IDX 12 1 13 2 14 3 31 4 32 5 9 7 8 8 3 9 4 10 5 11 7 12 6 13
REMARK SMILES IDX 2 14 1 15 10 16 11 17 15 19 16 20 17 21 18 22 19 23 20 24
REMARK SMILES IDX 21 27 22 28 23 29 27 30 24 31 26 32 25 33 28 34 30 35 29 36
REMARK H PARENT 13 6 11 18 20 25 20 26
ROOT
ATOM     1   N1  UNL     1       1.514   0.457  -1.020  1.00  0.00    -0.202 N   
ATOM     2   C11 UNL     1       0.493   0.442  -0.108  1.00  0.00     0.046 A   
ATOM     3   C12 UNL     1       0.382  -0.880   0.253  1.00  0.00     0.127 A   
ATOM     4   N3  UNL     1       1.278  -1.621  -0.472  1.00  0.00    -0.132 NA  
ATOM     5   N4  UNL     1       1.964  -0.796  -1.247  1.00  0.00    -0.075 NA  
ATOM     6   H14 UNL     1      -0.014   1.345   0.203  1.00  0.00     0.083 HD  
ENDROOT
BRANCH   1   7
ATOM     7   C9  UNL     1       2.120   1.598  -1.707  1.00  0.00     0.155 C   
BRANCH   7   8
ATOM     8   C8  UNL     1       1.049   2.473  -2.366  1.00  0.00    -0.020 A   
ATOM     9   C3  UNL     1       0.409   2.097  -3.577  1.00  0.00    -0.043 A   
ATOM     10  C4  UNL     1      -0.574   2.944  -4.131  1.00  0.00     0.004 A   
ATOM     11  C5  UNL     1      -0.934   4.138  -3.515  1.00  0.00     0.000 A   
ATOM     12  C7  UNL     1       0.655   3.686  -1.762  1.00  0.00     0.006 A   
ATOM     13  C6  UNL     1      -0.321   4.507  -2.328  1.00  0.00     0.000 A   
BRANCH   9  14
ATOM     14  C2  UNL     1       0.699   0.816  -4.334  1.00  0.00     0.032 C   
ATOM     15  C1  UNL     1      -0.374  -0.240  -4.105  1.00  0.00     0.009 C   
ENDBRANCH   9  14
ENDBRANCH   7   8
BRANCH   7  16
ATOM     16  C10 UNL     1       3.155   2.290  -0.789  1.00  0.00     0.185 C   
BRANCH  16  17
ATOM     17  O1  UNL     1       2.615   2.704   0.468  1.00  0.00    -0.394 OA  
ATOM     18  H13 UNL     1       3.344   3.115   0.968  1.00  0.00     0.210 HD  
ENDBRANCH  16  17
ENDBRANCH   7  16
ENDBRANCH   1   7
BRANCH   3  19
ATOM     19  C13 UNL     1      -0.562  -1.561   1.179  1.00  0.00     0.114 C   
BRANCH  19  20
ATOM     20  C14 UNL     1       0.100  -2.067   2.478  1.00  0.00     0.064 C   
BRANCH  20  21
ATOM     21  C15 UNL     1       0.594  -1.018   3.499  1.00  0.00    -0.012 C   
ATOM     22  C16 UNL     1       1.945  -0.402   3.135  1.00  0.00     0.007 C   
ATOM     23  C17 UNL     1      -0.438   0.071   3.790  1.00  0.00     0.007 C   
ENDBRANCH  20  21
ENDBRANCH  19  20
BRANCH  19  24
ATOM     24  N2  UNL     1      -1.141  -2.789   0.493  1.00  0.00     0.249 N   
ATOM     25  H25 UNL     1      -0.334  -3.340   0.168  1.00  0.00     0.199 HD  
ATOM     26  H26 UNL     1      -1.650  -3.362   1.172  1.00  0.00     0.199 HD  
BRANCH  24  27
ATOM     27  C18 UNL     1      -2.017  -2.541  -0.690  1.00  0.00     0.164 C   
BRANCH  27  28
ATOM     28  C19 UNL     1      -3.293  -1.830  -0.338  1.00  0.00    -0.002 A   
ATOM     29  C20 UNL     1      -4.333  -2.515   0.336  1.00  0.00     0.012 A   
ATOM     30  C24 UNL     1      -3.450  -0.468  -0.650  1.00  0.00     0.045 A   
ATOM     31  C21 UNL     1      -5.510  -1.853   0.700  1.00  0.00     0.037 A   
ATOM     32  C23 UNL     1      -4.623   0.154  -0.275  1.00  0.00     0.109 A   
ATOM     33  C22 UNL     1      -5.623  -0.518   0.383  1.00  0.00     0.108 A   
ATOM     34  O2  UNL     1      -4.929   1.460  -0.490  1.00  0.00    -0.316 OA  
ATOM     35  O3  UNL     1      -6.687   0.279   0.661  1.00  0.00    -0.316 OA  
ATOM     36  C25 UNL     1      -6.254   1.529   0.084  1.00  0.00     0.337 C   
ENDBRANCH  27  28
ENDBRANCH  24  27
ENDBRANCH  19  24
ENDBRANCH   3  19
TORSDOF 11
