REMARK SMILES CCc1ccccc1[C@H](CO)n1cc([C@H](CC(C)C)[NH2+]Cc2ccc3c(c2)OCO3)nn1
REMARK SMILES IDX 12 1 13 2 14 3 31 4 32 5 9 7 8 8 3 9 4 10 5 11 7 12 6 13
REMARK SMILES IDX 2 14 1 15 10 16 11 17 15 19 16 20 17 21 18 22 19 23 20 24
REMARK SMILES IDX 21 27 22 28 23 29 27 30 24 31 26 32 25 33 28 34 30 35 29 36
REMARK H PARENT 13 6 11 18 20 25 20 26
ROOT
ATOM     1   N1  UNL     1       0.109   0.400  -2.594  1.00  0.00    -0.202 N   
ATOM     2   C11 UNL     1       1.184   0.220  -1.766  1.00  0.00     0.046 A   
ATOM     3   C12 UNL     1       1.122   1.277  -0.886  1.00  0.00     0.127 A   
ATOM     4   N3  UNL     1       0.025   2.044  -1.191  1.00  0.00    -0.132 NA  
ATOM     5   N4  UNL     1      -0.586   1.500  -2.232  1.00  0.00    -0.075 NA  
ATOM     6   H14 UNL     1       1.862  -0.613  -1.885  1.00  0.00     0.083 HD  
ENDROOT
BRANCH   1   7
ATOM     7   C9  UNL     1      -0.323  -0.405  -3.738  1.00  0.00     0.155 C   
BRANCH   7   8
ATOM     8   C8  UNL     1      -0.426  -1.886  -3.356  1.00  0.00    -0.020 A   
ATOM     9   C3  UNL     1      -1.591  -2.422  -2.748  1.00  0.00    -0.043 A   
ATOM     10  C4  UNL     1      -1.626  -3.789  -2.404  1.00  0.00     0.004 A   
ATOM     11  C5  UNL     1      -0.535  -4.622  -2.637  1.00  0.00     0.000 A   
ATOM     12  C7  UNL     1       0.664  -2.754  -3.575  1.00  0.00     0.006 A   
ATOM     13  C6  UNL     1       0.611  -4.103  -3.222  1.00  0.00     0.000 A   
BRANCH   9  14
ATOM     14  C2  UNL     1      -2.846  -1.616  -2.480  1.00  0.00     0.032 C   
ATOM     15  C1  UNL     1      -3.794  -1.629  -3.670  1.00  0.00     0.009 C   
ENDBRANCH   9  14
ENDBRANCH   7   8
BRANCH   7  16
ATOM     16  C10 UNL     1       0.495  -0.057  -5.002  1.00  0.00     0.185 C   
BRANCH  16  17
ATOM     17  O1  UNL     1       1.907  -0.179  -4.821  1.00  0.00    -0.394 OA  
ATOM     18  H13 UNL     1       2.321   0.058  -5.673  1.00  0.00     0.210 HD  
ENDBRANCH  16  17
ENDBRANCH   7  16
ENDBRANCH   1   7
BRANCH   3  19
ATOM     19  C13 UNL     1       1.940   1.647   0.307  1.00  0.00     0.114 C   
BRANCH  19  20
ATOM     20  C14 UNL     1       3.013   0.627   0.731  1.00  0.00     0.064 C   
BRANCH  20  21
ATOM     21  C15 UNL     1       4.271   0.618  -0.168  1.00  0.00    -0.012 C   
ATOM     22  C16 UNL     1       5.116   1.881   0.015  1.00  0.00     0.007 C   
ATOM     23  C17 UNL     1       5.121  -0.616   0.145  1.00  0.00     0.007 C   
ENDBRANCH  20  21
ENDBRANCH  19  20
BRANCH  19  24
ATOM     24  N2  UNL     1       1.036   1.929   1.486  1.00  0.00     0.249 N   
ATOM     25  H25 UNL     1       1.579   2.288   2.277  1.00  0.00     0.199 HD  
ATOM     26  H26 UNL     1       0.423   2.702   1.191  1.00  0.00     0.199 HD  
BRANCH  24  27
ATOM     27  C18 UNL     1       0.139   0.830   1.945  1.00  0.00     0.164 C   
BRANCH  27  28
ATOM     28  C19 UNL     1      -0.631   1.260   3.164  1.00  0.00    -0.002 A   
ATOM     29  C20 UNL     1      -0.199   0.876   4.457  1.00  0.00     0.012 A   
ATOM     30  C24 UNL     1      -1.759   2.089   3.027  1.00  0.00     0.045 A   
ATOM     31  C21 UNL     1      -0.878   1.312   5.600  1.00  0.00     0.037 A   
ATOM     32  C23 UNL     1      -2.406   2.500   4.174  1.00  0.00     0.109 A   
ATOM     33  C22 UNL     1      -1.977   2.126   5.424  1.00  0.00     0.108 A   
ATOM     34  O2  UNL     1      -3.503   3.300   4.220  1.00  0.00    -0.316 OA  
ATOM     35  O3  UNL     1      -2.744   2.650   6.414  1.00  0.00    -0.316 OA  
ATOM     36  C25 UNL     1      -3.718   3.391   5.646  1.00  0.00     0.337 C   
ENDBRANCH  27  28
ENDBRANCH  24  27
ENDBRANCH  19  24
ENDBRANCH   3  19
TORSDOF 11
