REMARK SMILES Cc1occc1[C@@H](CO)n1cc([C@H](CC(C)C)[NH2+]Cc2ccc3c(c2)OCO3)nn1
REMARK SMILES IDX 10 1 11 2 12 3 29 4 30 5 7 7 6 8 2 9 3 10 4 11 5 12 1 13
REMARK SMILES IDX 8 14 9 15 13 17 14 18 15 19 16 20 17 21 18 22 19 25 20 26
REMARK SMILES IDX 21 27 25 28 22 29 24 30 23 31 26 32 28 33 27 34
REMARK H PARENT 11 6 9 16 18 23 18 24
ROOT
ATOM     1   N1  UNL     1       0.459   1.292   0.519  1.00  0.00    -0.202 N   
ATOM     2   C8  UNL     1       0.575   0.281   1.436  1.00  0.00     0.046 A   
ATOM     3   C9  UNL     1       1.437  -0.613   0.848  1.00  0.00     0.127 A   
ATOM     4   N3  UNL     1       1.800  -0.144  -0.388  1.00  0.00    -0.132 NA  
ATOM     5   N4  UNL     1       1.194   1.017  -0.581  1.00  0.00    -0.075 NA  
ATOM     6   H10 UNL     1       0.072   0.312   2.393  1.00  0.00     0.083 HD  
ENDROOT
BRANCH   1   7
ATOM     7   C6  UNL     1      -0.268   2.557   0.622  1.00  0.00     0.157 C   
BRANCH   7   8
ATOM     8   C5  UNL     1      -1.655   2.340   1.173  1.00  0.00     0.005 A   
ATOM     9   C2  UNL     1      -2.792   2.004   0.452  1.00  0.00     0.061 A   
ATOM     10  O1  UNL     1      -3.864   1.879   1.279  1.00  0.00    -0.322 OA  
ATOM     11  C3  UNL     1      -3.438   2.149   2.534  1.00  0.00     0.136 A   
ATOM     12  C4  UNL     1      -2.095   2.436   2.530  1.00  0.00     0.034 A   
ATOM     13  C1  UNL     1      -3.068   1.770  -0.982  1.00  0.00     0.073 C   
ENDBRANCH   7   8
BRANCH   7  14
ATOM     14  C7  UNL     1       0.570   3.615   1.362  1.00  0.00     0.186 C   
BRANCH  14  15
ATOM     15  O2  UNL     1       0.938   3.208   2.682  1.00  0.00    -0.394 OA  
ATOM     16  H9  UNL     1       1.405   3.959   3.089  1.00  0.00     0.210 HD  
ENDBRANCH  14  15
ENDBRANCH   7  14
ENDBRANCH   1   7
BRANCH   3  17
ATOM     17  C10 UNL     1       1.969  -1.920   1.327  1.00  0.00     0.114 C   
BRANCH  17  18
ATOM     18  C11 UNL     1       3.333  -1.778   2.032  1.00  0.00     0.064 C   
BRANCH  18  19
ATOM     19  C12 UNL     1       3.327  -0.930   3.322  1.00  0.00    -0.012 C   
ATOM     20  C13 UNL     1       4.749  -0.833   3.882  1.00  0.00     0.007 C   
ATOM     21  C14 UNL     1       2.393  -1.500   4.391  1.00  0.00     0.007 C   
ENDBRANCH  18  19
ENDBRANCH  17  18
BRANCH  17  22
ATOM     22  N2  UNL     1       2.173  -2.856   0.150  1.00  0.00     0.249 N   
ATOM     23  H21 UNL     1       3.017  -3.419   0.283  1.00  0.00     0.199 HD  
ATOM     24  H22 UNL     1       2.357  -2.251  -0.665  1.00  0.00     0.199 HD  
BRANCH  22  25
ATOM     25  C15 UNL     1       1.037  -3.758  -0.180  1.00  0.00     0.164 C   
BRANCH  25  26
ATOM     26  C16 UNL     1      -0.116  -3.064  -0.846  1.00  0.00    -0.002 A   
ATOM     27  C17 UNL     1      -1.283  -2.736  -0.115  1.00  0.00     0.012 A   
ATOM     28  C21 UNL     1      -0.031  -2.715  -2.206  1.00  0.00     0.045 A   
ATOM     29  C18 UNL     1      -2.352  -2.073  -0.729  1.00  0.00     0.037 A   
ATOM     30  C20 UNL     1      -1.105  -2.069  -2.780  1.00  0.00     0.109 A   
ATOM     31  C19 UNL     1      -2.233  -1.759  -2.064  1.00  0.00     0.108 A   
ATOM     32  O3  UNL     1      -1.188  -1.676  -4.077  1.00  0.00    -0.316 OA  
ATOM     33  O4  UNL     1      -3.171  -1.130  -2.820  1.00  0.00    -0.316 OA  
ATOM     34  C22 UNL     1      -2.518  -1.111  -4.106  1.00  0.00     0.337 C   
ENDBRANCH  25  26
ENDBRANCH  22  25
ENDBRANCH  17  22
ENDBRANCH   3  17
TORSDOF 10
