REMARK SMILES Cc1occc1[C@H](CO)n1cc([C@H](CC(C)C)[NH2+]Cc2ccc3c(c2)OCO3)nn1
REMARK SMILES IDX 10 1 11 2 12 3 29 4 30 5 7 7 6 8 2 9 3 10 4 11 5 12 1 13
REMARK SMILES IDX 8 14 9 15 13 17 14 18 15 19 16 20 17 21 18 22 19 25 20 26
REMARK SMILES IDX 21 27 25 28 22 29 24 30 23 31 26 32 28 33 27 34
REMARK H PARENT 11 6 9 16 18 23 18 24
ROOT
ATOM     1   N1  UNL     1       1.423   2.296  -0.959  1.00  0.00    -0.202 N   
ATOM     2   C8  UNL     1       0.999   1.000  -1.084  1.00  0.00     0.046 A   
ATOM     3   C9  UNL     1      -0.325   1.110  -1.438  1.00  0.00     0.127 A   
ATOM     4   N3  UNL     1      -0.666   2.436  -1.504  1.00  0.00    -0.132 NA  
ATOM     5   N4  UNL     1       0.405   3.151  -1.200  1.00  0.00    -0.075 NA  
ATOM     6   H10 UNL     1       1.653   0.158  -0.898  1.00  0.00     0.083 HD  
ENDROOT
BRANCH   1   7
ATOM     7   C6  UNL     1       2.738   2.807  -0.571  1.00  0.00     0.157 C   
BRANCH   7   8
ATOM     8   C5  UNL     1       3.838   2.025  -1.245  1.00  0.00     0.005 A   
ATOM     9   C2  UNL     1       4.268   2.177  -2.555  1.00  0.00     0.061 A   
ATOM     10  O1  UNL     1       5.269   1.299  -2.835  1.00  0.00    -0.322 OA  
ATOM     11  C3  UNL     1       5.500   0.581  -1.711  1.00  0.00     0.136 A   
ATOM     12  C4  UNL     1       4.651   0.980  -0.707  1.00  0.00     0.034 A   
ATOM     13  C1  UNL     1       3.857   3.061  -3.669  1.00  0.00     0.073 C   
ENDBRANCH   7   8
BRANCH   7  14
ATOM     14  C7  UNL     1       2.858   2.922   0.960  1.00  0.00     0.186 C   
BRANCH  14  15
ATOM     15  O2  UNL     1       2.603   1.685   1.631  1.00  0.00    -0.394 OA  
ATOM     16  H9  UNL     1       2.857   1.809   2.567  1.00  0.00     0.210 HD  
ENDBRANCH  14  15
ENDBRANCH   7  14
ENDBRANCH   1   7
BRANCH   3  17
ATOM     17  C10 UNL     1      -1.360   0.059  -1.665  1.00  0.00     0.114 C   
BRANCH  17  18
ATOM     18  C11 UNL     1      -1.615  -0.132  -3.175  1.00  0.00     0.064 C   
BRANCH  18  19
ATOM     19  C12 UNL     1      -2.614  -1.241  -3.567  1.00  0.00    -0.012 C   
ATOM     20  C13 UNL     1      -2.212  -2.613  -3.025  1.00  0.00     0.007 C   
ATOM     21  C14 UNL     1      -2.737  -1.303  -5.093  1.00  0.00     0.007 C   
ENDBRANCH  18  19
ENDBRANCH  17  18
BRANCH  17  22
ATOM     22  N2  UNL     1      -2.660   0.435  -0.993  1.00  0.00     0.249 N   
ATOM     23  H21 UNL     1      -3.386  -0.248  -1.221  1.00  0.00     0.199 HD  
ATOM     24  H22 UNL     1      -2.945   1.339  -1.394  1.00  0.00     0.199 HD  
BRANCH  22  25
ATOM     25  C15 UNL     1      -2.617   0.603   0.492  1.00  0.00     0.164 C   
BRANCH  25  26
ATOM     26  C16 UNL     1      -2.245  -0.656   1.224  1.00  0.00    -0.002 A   
ATOM     27  C17 UNL     1      -3.166  -1.728   1.323  1.00  0.00     0.012 A   
ATOM     28  C21 UNL     1      -0.966  -0.787   1.794  1.00  0.00     0.045 A   
ATOM     29  C18 UNL     1      -2.818  -2.913   1.979  1.00  0.00     0.037 A   
ATOM     30  C20 UNL     1      -0.656  -1.970   2.432  1.00  0.00     0.109 A   
ATOM     31  C19 UNL     1      -1.555  -3.003   2.522  1.00  0.00     0.108 A   
ATOM     32  O3  UNL     1       0.530  -2.259   3.030  1.00  0.00    -0.316 OA  
ATOM     33  O4  UNL     1      -1.050  -4.072   3.190  1.00  0.00    -0.316 OA  
ATOM     34  C22 UNL     1       0.263  -3.584   3.541  1.00  0.00     0.337 C   
ENDBRANCH  25  26
ENDBRANCH  22  25
ENDBRANCH  17  22
ENDBRANCH   3  17
TORSDOF 10
