REMARK SMILES CCc1cc(-n2cc([C@@H]([NH2+]Cc3ccc4c(c3)OCO4)C(C)C)nn2)ccc1O
REMARK SMILES IDX 6 1 7 2 8 3 24 4 25 5 5 6 3 7 4 8 28 9 27 10 26 11 2 12 1 13
REMARK SMILES IDX 29 14 9 16 10 17 11 20 12 21 13 22 17 23 14 24 16 25 15 26
REMARK SMILES IDX 18 27 20 28 19 29 21 30 22 31 23 32
REMARK H PARENT 29 15 10 18 10 19
ROOT
ATOM     1   N1  UNL     1       1.896  -1.547  -0.245  1.00  0.00    -0.181 N   
ATOM     2   C6  UNL     1       0.709  -0.855  -0.399  1.00  0.00     0.135 A   
ATOM     3   C7  UNL     1       0.860  -0.139  -1.566  1.00  0.00     0.127 A   
ATOM     4   N3  UNL     1       2.100  -0.384  -2.083  1.00  0.00    -0.131 NA  
ATOM     5   N4  UNL     1       2.723  -1.225  -1.275  1.00  0.00    -0.071 NA  
ENDROOT
BRANCH   1   6
ATOM     6   C5  UNL     1       2.284  -2.445   0.780  1.00  0.00     0.058 A   
ATOM     7   C3  UNL     1       1.811  -3.643   2.852  1.00  0.00    -0.016 A   
ATOM     8   C4  UNL     1       1.414  -2.754   1.837  1.00  0.00     0.032 A   
ATOM     9   C22 UNL     1       3.082  -4.224   2.781  1.00  0.00     0.075 A   
ATOM     10  C21 UNL     1       3.952  -3.925   1.736  1.00  0.00     0.035 A   
ATOM     11  C20 UNL     1       3.556  -3.035   0.736  1.00  0.00     0.028 A   
BRANCH   7  12
ATOM     12  C2  UNL     1       0.855  -3.977   3.974  1.00  0.00     0.035 C   
ATOM     13  C1  UNL     1       0.046  -5.230   3.675  1.00  0.00     0.009 C   
ENDBRANCH   7  12
BRANCH   9  14
ATOM     14  O3  UNL     1       3.458  -5.099   3.759  1.00  0.00    -0.361 OA  
ATOM     15  H27 UNL     1       4.354  -5.427   3.573  1.00  0.00     0.218 HD  
ENDBRANCH   9  14
ENDBRANCH   1   6
BRANCH   3  16
ATOM     16  C8  UNL     1      -0.061   0.808  -2.269  1.00  0.00     0.117 C   
BRANCH  16  17
ATOM     17  N2  UNL     1       0.724   1.760  -3.142  1.00  0.00     0.249 N   
ATOM     18  H9  UNL     1       1.421   1.187  -3.638  1.00  0.00     0.199 HD  
ATOM     19  H10 UNL     1       0.125   2.186  -3.853  1.00  0.00     0.199 HD  
BRANCH  17  20
ATOM     20  C9  UNL     1       1.471   2.841  -2.431  1.00  0.00     0.164 C   
BRANCH  20  21
ATOM     21  C10 UNL     1       0.559   3.887  -1.852  1.00  0.00    -0.002 A   
ATOM     22  C11 UNL     1      -0.099   4.813  -2.698  1.00  0.00     0.012 A   
ATOM     23  C15 UNL     1       0.330   3.933  -0.466  1.00  0.00     0.045 A   
ATOM     24  C12 UNL     1      -0.979   5.766  -2.173  1.00  0.00     0.037 A   
ATOM     25  C14 UNL     1      -0.545   4.884   0.018  1.00  0.00     0.109 A   
ATOM     26  C13 UNL     1      -1.182   5.773  -0.811  1.00  0.00     0.108 A   
ATOM     27  O1  UNL     1      -0.883   5.055   1.322  1.00  0.00    -0.316 OA  
ATOM     28  O2  UNL     1      -1.999   6.620  -0.133  1.00  0.00    -0.316 OA  
ATOM     29  C16 UNL     1      -1.782   6.184   1.226  1.00  0.00     0.337 C   
ENDBRANCH  20  21
ENDBRANCH  17  20
ENDBRANCH  16  17
BRANCH  16  30
ATOM     30  C17 UNL     1      -1.129   0.064  -3.115  1.00  0.00     0.037 C   
ATOM     31  C18 UNL     1      -0.559  -0.668  -4.336  1.00  0.00     0.014 C   
ATOM     32  C19 UNL     1      -2.257   1.005  -3.556  1.00  0.00     0.014 C   
ENDBRANCH  16  30
ENDBRANCH   3  16
TORSDOF 8
