REMARK SMILES c1ccc(-n2cc([C@@H]([NH2+]Cc3ccc4c(c3)OCO4)C3CCCC3)nn2)c(-c2nc3ccccc3[nH]2)c1
REMARK SMILES IDX 5 1 6 2 7 3 25 4 26 5 4 6 1 7 2 8 37 9 3 10 27 11 28 12
REMARK SMILES IDX 29 13 36 14 30 15 35 16 31 17 34 18 32 19 33 20 8 22 9 23
REMARK SMILES IDX 10 26 11 27 12 28 16 29 13 30 15 31 14 32 17 33 19 34 18 35
REMARK SMILES IDX 20 36 21 37 24 38 22 39 23 40
REMARK H PARENT 36 21 9 24 9 25
ROOT
ATOM     1   N1  UNL     1       3.096  -0.108  -0.176  1.00  0.00    -0.180 N   
ATOM     2   C5  UNL     1       1.992  -0.802  -0.628  1.00  0.00     0.135 A   
ATOM     3   C6  UNL     1       1.084   0.164  -0.990  1.00  0.00     0.127 A   
ATOM     4   N3  UNL     1       1.670   1.390  -0.887  1.00  0.00    -0.131 NA  
ATOM     5   N4  UNL     1       2.911   1.210  -0.468  1.00  0.00    -0.071 NA  
ENDROOT
BRANCH   1   6
ATOM     6   C4  UNL     1       4.288  -0.570   0.444  1.00  0.00     0.068 A   
ATOM     7   C1  UNL     1       6.764  -1.355   1.512  1.00  0.00     0.001 A   
ATOM     8   C2  UNL     1       6.661  -0.150   0.832  1.00  0.00     0.002 A   
ATOM     9   C29 UNL     1       5.633  -2.155   1.685  1.00  0.00     0.014 A   
ATOM     10  C3  UNL     1       5.432   0.247   0.309  1.00  0.00     0.027 A   
ATOM     11  C21 UNL     1       4.375  -1.782   1.164  1.00  0.00     0.039 A   
BRANCH  11  12
ATOM     12  C22 UNL     1       3.223  -2.620   1.520  1.00  0.00     0.132 A   
ATOM     13  N5  UNL     1       2.032  -2.197   1.911  1.00  0.00    -0.231 NA  
ATOM     14  N6  UNL     1       3.254  -3.998   1.497  1.00  0.00    -0.297 N   
ATOM     15  C23 UNL     1       1.293  -3.328   2.166  1.00  0.00     0.087 A   
ATOM     16  C28 UNL     1       2.030  -4.471   1.890  1.00  0.00     0.058 A   
ATOM     17  C24 UNL     1      -0.024  -3.455   2.631  1.00  0.00     0.030 A   
ATOM     18  C27 UNL     1       1.524  -5.764   2.035  1.00  0.00     0.026 A   
ATOM     19  C25 UNL     1      -0.556  -4.741   2.790  1.00  0.00     0.002 A   
ATOM     20  C26 UNL     1       0.206  -5.873   2.492  1.00  0.00     0.002 A   
ATOM     21  H28 UNL     1       4.050  -4.564   1.237  1.00  0.00     0.154 HD  
ENDBRANCH  11  12
ENDBRANCH   1   6
BRANCH   3  22
ATOM     22  C7  UNL     1      -0.355   0.053  -1.365  1.00  0.00     0.117 C   
BRANCH  22  23
ATOM     23  N2  UNL     1      -1.141   1.112  -0.642  1.00  0.00     0.249 N   
ATOM     24  H6  UNL     1      -0.580   1.977  -0.672  1.00  0.00     0.199 HD  
ATOM     25  H7  UNL     1      -2.022   1.333  -1.115  1.00  0.00     0.199 HD  
BRANCH  23  26
ATOM     26  C8  UNL     1      -1.413   0.819   0.793  1.00  0.00     0.164 C   
BRANCH  26  27
ATOM     27  C9  UNL     1      -2.146   1.965   1.431  1.00  0.00    -0.002 A   
ATOM     28  C10 UNL     1      -1.439   2.941   2.172  1.00  0.00     0.012 A   
ATOM     29  C14 UNL     1      -3.533   2.104   1.251  1.00  0.00     0.045 A   
ATOM     30  C11 UNL     1      -2.102   4.036   2.735  1.00  0.00     0.037 A   
ATOM     31  C13 UNL     1      -4.155   3.199   1.814  1.00  0.00     0.109 A   
ATOM     32  C12 UNL     1      -3.461   4.138   2.536  1.00  0.00     0.108 A   
ATOM     33  O1  UNL     1      -5.479   3.487   1.723  1.00  0.00    -0.316 OA  
ATOM     34  O2  UNL     1      -4.262   5.133   2.999  1.00  0.00    -0.316 OA  
ATOM     35  C15 UNL     1      -5.545   4.715   2.484  1.00  0.00     0.337 C   
ENDBRANCH  26  27
ENDBRANCH  23  26
ENDBRANCH  22  23
BRANCH  22  36
ATOM     36  C16 UNL     1      -0.572   0.150  -2.887  1.00  0.00     0.043 C   
ATOM     37  C17 UNL     1      -1.983  -0.247  -3.341  1.00  0.00     0.010 C   
ATOM     38  C20 UNL     1      -0.319   1.526  -3.534  1.00  0.00     0.010 C   
ATOM     39  C18 UNL     1      -2.103   0.391  -4.714  1.00  0.00     0.001 C   
ATOM     40  C19 UNL     1      -1.470   1.757  -4.512  1.00  0.00     0.001 C   
ENDBRANCH  22  36
ENDBRANCH   3  22
TORSDOF 7
