REMARK SMILES CC(C)C[C@H]([NH2+]Cc1ccc2c(c1)OCO2)c1cn(CCc2ccc(F)cc2)nn1
REMARK SMILES IDX 17 1 18 2 19 3 29 4 30 5 5 7 4 8 2 9 1 10 3 11 6 12 7 15
REMARK SMILES IDX 8 16 9 17 13 18 10 19 12 20 11 21 14 22 16 23 15 24 20 25
REMARK SMILES IDX 21 26 22 27 23 28 28 29 24 30 27 31 25 32 26 33
REMARK H PARENT 18 6 6 13 6 14
ROOT
ATOM     1   C14 UNL     1      -1.121  -1.535   1.585  1.00  0.00     0.127 A   
ATOM     2   C15 UNL     1      -2.281  -1.725   0.866  1.00  0.00     0.045 A   
ATOM     3   N2  UNL     1      -3.190  -0.920   1.493  1.00  0.00    -0.212 N   
ATOM     4   N3  UNL     1      -2.632  -0.284   2.537  1.00  0.00    -0.076 NA  
ATOM     5   N4  UNL     1      -1.361  -0.646   2.599  1.00  0.00    -0.132 NA  
ATOM     6   H20 UNL     1      -2.524  -2.298  -0.018  1.00  0.00     0.083 HD  
ENDROOT
BRANCH   1   7
ATOM     7   C5  UNL     1       0.269  -2.009   1.335  1.00  0.00     0.114 C   
BRANCH   7   8
ATOM     8   C4  UNL     1       0.848  -2.882   2.465  1.00  0.00     0.064 C   
BRANCH   8   9
ATOM     9   C2  UNL     1       0.231  -4.282   2.681  1.00  0.00    -0.012 C   
ATOM     10  C1  UNL     1       0.131  -5.093   1.391  1.00  0.00     0.007 C   
ATOM     11  C3  UNL     1      -1.114  -4.252   3.405  1.00  0.00     0.007 C   
ENDBRANCH   8   9
ENDBRANCH   7   8
BRANCH   7  12
ATOM     12  N1  UNL     1       1.176  -0.801   1.212  1.00  0.00     0.249 N   
ATOM     13  H11 UNL     1       1.018  -0.224   2.051  1.00  0.00     0.199 HD  
ATOM     14  H12 UNL     1       2.164  -1.074   1.231  1.00  0.00     0.199 HD  
BRANCH  12  15
ATOM     15  C6  UNL     1       0.932   0.059   0.019  1.00  0.00     0.164 C   
BRANCH  15  16
ATOM     16  C7  UNL     1       1.823   1.268   0.043  1.00  0.00    -0.002 A   
ATOM     17  C8  UNL     1       1.482   2.385   0.845  1.00  0.00     0.012 A   
ATOM     18  C12 UNL     1       3.019   1.282  -0.695  1.00  0.00     0.045 A   
ATOM     19  C9  UNL     1       2.312   3.510   0.899  1.00  0.00     0.037 A   
ATOM     20  C11 UNL     1       3.812   2.408  -0.620  1.00  0.00     0.109 A   
ATOM     21  C10 UNL     1       3.469   3.491   0.151  1.00  0.00     0.108 A   
ATOM     22  O1  UNL     1       4.994   2.585  -1.269  1.00  0.00    -0.316 OA  
ATOM     23  O2  UNL     1       4.387   4.490   0.080  1.00  0.00    -0.316 OA  
ATOM     24  C13 UNL     1       5.338   3.925  -0.849  1.00  0.00     0.337 C   
ENDBRANCH  15  16
ENDBRANCH  12  15
ENDBRANCH   7  12
ENDBRANCH   1   7
BRANCH   3  25
ATOM     25  C16 UNL     1      -4.553  -0.637   1.091  1.00  0.00     0.139 C   
BRANCH  25  26
ATOM     26  C17 UNL     1      -4.745   0.793   0.578  1.00  0.00     0.057 C   
BRANCH  26  27
ATOM     27  C18 UNL     1      -3.820   1.155  -0.565  1.00  0.00    -0.046 A   
ATOM     28  C19 UNL     1      -3.953   0.540  -1.820  1.00  0.00     0.007 A   
ATOM     29  C23 UNL     1      -2.803   2.106  -0.371  1.00  0.00     0.007 A   
ATOM     30  C20 UNL     1      -3.067   0.853  -2.851  1.00  0.00     0.039 A   
ATOM     31  C22 UNL     1      -1.925   2.422  -1.406  1.00  0.00     0.039 A   
ATOM     32  C21 UNL     1      -2.059   1.785  -2.633  1.00  0.00     0.123 A   
ATOM     33  F1  UNL     1      -1.196   2.067  -3.615  1.00  0.00    -0.207 F   
ENDBRANCH  26  27
ENDBRANCH  25  26
ENDBRANCH   3  25
TORSDOF 9
