REMARK SMILES Cc1cc(Cn2cc([C@@H]([NH2+]Cc3ccc4c(c3)OCO4)C3CCCCC3)nn2)ccn1
REMARK SMILES IDX 6 1 7 2 8 3 27 4 28 5 5 7 4 8 2 9 3 10 31 11 30 12 29 13
REMARK SMILES IDX 1 14 9 15 10 16 11 19 12 20 13 21 17 22 14 23 16 24 15 25
REMARK SMILES IDX 18 26 20 27 19 28 21 29 22 30 26 31 23 32 25 33 24 34
REMARK H PARENT 7 6 10 17 10 18
ROOT
ATOM     1   N1  UNL     1      -1.714  -0.663  -0.713  1.00  0.00    -0.208 N   
ATOM     2   C6  UNL     1      -0.532  -0.791  -0.038  1.00  0.00     0.046 A   
ATOM     3   C7  UNL     1      -0.365   0.432   0.574  1.00  0.00     0.127 A   
ATOM     4   N3  UNL     1      -1.435   1.235   0.275  1.00  0.00    -0.132 NA  
ATOM     5   N4  UNL     1      -2.255   0.554  -0.508  1.00  0.00    -0.076 NA  
ATOM     6   H7  UNL     1       0.073  -1.686  -0.089  1.00  0.00     0.083 HD  
ENDROOT
BRANCH   1   7
ATOM     7   C5  UNL     1      -2.337  -1.613  -1.620  1.00  0.00     0.169 C   
BRANCH   7   8
ATOM     8   C4  UNL     1      -1.748  -1.479  -3.000  1.00  0.00    -0.025 A   
ATOM     9   C2  UNL     1      -1.644  -0.372  -5.140  1.00  0.00     0.038 A   
ATOM     10  C3  UNL     1      -2.235  -0.508  -3.886  1.00  0.00     0.029 A   
ATOM     11  N5  UNL     1      -0.599  -1.134  -5.533  1.00  0.00    -0.262 NA  
ATOM     12  C24 UNL     1      -0.147  -2.072  -4.674  1.00  0.00     0.111 A   
ATOM     13  C23 UNL     1      -0.679  -2.280  -3.412  1.00  0.00     0.025 A   
ATOM     14  C1  UNL     1      -2.150   0.658  -6.108  1.00  0.00     0.067 C   
ENDBRANCH   7   8
ENDBRANCH   1   7
BRANCH   3  15
ATOM     15  C8  UNL     1       0.778   0.984   1.361  1.00  0.00     0.117 C   
BRANCH  15  16
ATOM     16  N2  UNL     1       1.055   2.416   0.950  1.00  0.00     0.249 N   
ATOM     17  H9  UNL     1       0.169   2.928   1.057  1.00  0.00     0.199 HD  
ATOM     18  H10 UNL     1       1.736   2.838   1.588  1.00  0.00     0.199 HD  
BRANCH  16  19
ATOM     19  C9  UNL     1       1.499   2.634  -0.462  1.00  0.00     0.164 C   
BRANCH  19  20
ATOM     20  C10 UNL     1       2.790   1.941  -0.798  1.00  0.00    -0.002 A   
ATOM     21  C11 UNL     1       4.017   2.411  -0.271  1.00  0.00     0.012 A   
ATOM     22  C15 UNL     1       2.781   0.801  -1.622  1.00  0.00     0.045 A   
ATOM     23  C12 UNL     1       5.219   1.754  -0.556  1.00  0.00     0.037 A   
ATOM     24  C14 UNL     1       3.983   0.176  -1.881  1.00  0.00     0.109 A   
ATOM     25  C13 UNL     1       5.167   0.639  -1.363  1.00  0.00     0.108 A   
ATOM     26  O1  UNL     1       4.149  -0.934  -2.648  1.00  0.00    -0.316 OA  
ATOM     27  O2  UNL     1       6.229  -0.119  -1.741  1.00  0.00    -0.316 OA  
ATOM     28  C16 UNL     1       5.586  -1.088  -2.598  1.00  0.00     0.337 C   
ENDBRANCH  19  20
ENDBRANCH  16  19
ENDBRANCH  15  16
BRANCH  15  29
ATOM     29  C17 UNL     1       0.578   0.942   2.901  1.00  0.00     0.043 C   
ATOM     30  C18 UNL     1      -0.626   1.758   3.414  1.00  0.00     0.010 C   
ATOM     31  C22 UNL     1       0.496  -0.509   3.419  1.00  0.00     0.010 C   
ATOM     32  C19 UNL     1      -0.745   1.694   4.937  1.00  0.00     0.001 C   
ATOM     33  C21 UNL     1       0.373  -0.563   4.941  1.00  0.00     0.001 C   
ATOM     34  C20 UNL     1      -0.813   0.256   5.438  1.00  0.00     0.000 C   
ENDBRANCH  15  29
ENDBRANCH   3  15
TORSDOF 7
