REMARK SMILES O=C(c1ccc(O)cc1)n1cc([C@@H]([NH2+]Cc2ccc3c(c2)OCO3)C2CCCCC2)nn1
REMARK SMILES IDX 10 1 11 2 12 3 31 4 32 5 2 6 1 7 3 8 4 9 9 10 5 11 8 12 6 13
REMARK SMILES IDX 7 14 13 16 14 17 15 20 16 21 17 22 21 23 18 24 20 25 19 26
REMARK SMILES IDX 22 27 24 28 23 29 25 30 26 31 30 32 27 33 29 34 28 35
REMARK H PARENT 7 15 14 18 14 19
ROOT
ATOM     1   N1  UNL     1       1.780   1.116  -2.017  1.00  0.00    -0.143 N   
ATOM     2   C8  UNL     1       2.644   0.768  -0.992  1.00  0.00     0.139 A   
ATOM     3   C9  UNL     1       1.852   0.182  -0.034  1.00  0.00     0.128 A   
ATOM     4   N3  UNL     1       0.551   0.213  -0.460  1.00  0.00    -0.131 NA  
ATOM     5   N4  UNL     1       0.518   0.773  -1.659  1.00  0.00    -0.068 NA  
ENDROOT
BRANCH   1   6
ATOM     6   C1  UNL     1       2.093   1.697  -3.257  1.00  0.00     0.271 C   
ATOM     7   O1  UNL     1       3.293   1.874  -3.469  1.00  0.00    -0.269 OA  
BRANCH   6   8
ATOM     8   C2  UNL     1       1.120   2.087  -4.314  1.00  0.00     0.040 A   
ATOM     9   C3  UNL     1       1.559   2.073  -5.649  1.00  0.00     0.016 A   
ATOM     10  C7  UNL     1      -0.186   2.501  -4.027  1.00  0.00     0.016 A   
ATOM     11  C4  UNL     1       0.697   2.442  -6.685  1.00  0.00     0.034 A   
ATOM     12  C6  UNL     1      -1.046   2.868  -5.066  1.00  0.00     0.034 A   
ATOM     13  C5  UNL     1      -0.601   2.833  -6.382  1.00  0.00     0.071 A   
BRANCH  13  14
ATOM     14  O2  UNL     1      -1.480   3.202  -7.354  1.00  0.00    -0.361 OA  
ATOM     15  H3  UNL     1      -1.042   3.148  -8.220  1.00  0.00     0.218 HD  
ENDBRANCH  13  14
ENDBRANCH   6   8
ENDBRANCH   1   6
BRANCH   3  16
ATOM     16  C10 UNL     1       2.186  -0.391   1.308  1.00  0.00     0.117 C   
BRANCH  16  17
ATOM     17  N2  UNL     1       1.000  -0.284   2.236  1.00  0.00     0.249 N   
ATOM     18  H8  UNL     1       0.171  -0.593   1.708  1.00  0.00     0.199 HD  
ATOM     19  H9  UNL     1       1.088  -0.926   3.031  1.00  0.00     0.199 HD  
BRANCH  17  20
ATOM     20  C11 UNL     1       0.713   1.083   2.754  1.00  0.00     0.164 C   
BRANCH  20  21
ATOM     21  C12 UNL     1      -0.526   1.071   3.603  1.00  0.00    -0.002 A   
ATOM     22  C13 UNL     1      -0.433   0.919   5.007  1.00  0.00     0.012 A   
ATOM     23  C17 UNL     1      -1.792   1.155   2.997  1.00  0.00     0.045 A   
ATOM     24  C14 UNL     1      -1.585   0.862   5.800  1.00  0.00     0.037 A   
ATOM     25  C16 UNL     1      -2.906   1.095   3.808  1.00  0.00     0.109 A   
ATOM     26  C15 UNL     1      -2.806   0.953   5.170  1.00  0.00     0.108 A   
ATOM     27  O3  UNL     1      -4.196   1.160   3.386  1.00  0.00    -0.316 OA  
ATOM     28  O4  UNL     1      -4.020   0.912   5.777  1.00  0.00    -0.316 OA  
ATOM     29  C18 UNL     1      -4.902   1.066   4.644  1.00  0.00     0.337 C   
ENDBRANCH  20  21
ENDBRANCH  17  20
ENDBRANCH  16  17
BRANCH  16  30
ATOM     30  C19 UNL     1       2.641  -1.874   1.278  1.00  0.00     0.043 C   
ATOM     31  C20 UNL     1       3.936  -2.079   0.477  1.00  0.00     0.010 C   
ATOM     32  C24 UNL     1       1.550  -2.862   0.806  1.00  0.00     0.010 C   
ATOM     33  C21 UNL     1       4.505  -3.488   0.671  1.00  0.00     0.001 C   
ATOM     34  C23 UNL     1       2.110  -4.186   0.274  1.00  0.00     0.001 C   
ATOM     35  C22 UNL     1       3.436  -4.550   0.926  1.00  0.00     0.000 C   
ENDBRANCH  16  30
ENDBRANCH   3  16
TORSDOF 8
