REMARK SMILES CC(C)(C)[C@H]([NH2+]Cc1ccc2c(c1)OCO2)c1cn([C@@H](CO)Cc2ccccc2)nn1
REMARK SMILES IDX 17 1 18 2 19 3 30 4 31 5 5 7 2 8 1 9 3 10 4 11 6 12 7 15
REMARK SMILES IDX 8 16 9 17 13 18 10 19 12 20 11 21 14 22 16 23 15 24 20 25
REMARK SMILES IDX 21 26 22 27 23 29 24 30 25 31 29 32 26 33 28 34 27 35
REMARK H PARENT 18 6 6 13 6 14 22 28
ROOT
ATOM     1   C14 UNL     1      -0.827  -0.455  -0.548  1.00  0.00     0.127 A   
ATOM     2   C15 UNL     1      -0.821  -0.237   0.811  1.00  0.00     0.046 A   
ATOM     3   N2  UNL     1      -0.690  -1.488   1.346  1.00  0.00    -0.206 N   
ATOM     4   N3  UNL     1      -0.609  -2.420   0.374  1.00  0.00    -0.076 NA  
ATOM     5   N4  UNL     1      -0.692  -1.798  -0.791  1.00  0.00    -0.132 NA  
ATOM     6   H20 UNL     1      -0.876   0.652   1.424  1.00  0.00     0.083 HD  
ENDROOT
BRANCH   1   7
ATOM     7   C5  UNL     1      -0.840   0.510  -1.691  1.00  0.00     0.120 C   
BRANCH   7   8
ATOM     8   C2  UNL     1      -2.252   0.716  -2.345  1.00  0.00     0.010 C   
ATOM     9   C1  UNL     1      -2.796  -0.558  -3.020  1.00  0.00     0.017 C   
ATOM     10  C3  UNL     1      -2.192   1.837  -3.409  1.00  0.00     0.017 C   
ATOM     11  C4  UNL     1      -3.270   1.169  -1.272  1.00  0.00     0.017 C   
ENDBRANCH   7   8
BRANCH   7  12
ATOM     12  N1  UNL     1       0.163   0.051  -2.732  1.00  0.00     0.250 N   
ATOM     13  H11 UNL     1      -0.071  -0.928  -2.943  1.00  0.00     0.199 HD  
ATOM     14  H12 UNL     1       0.066   0.585  -3.597  1.00  0.00     0.199 HD  
BRANCH  12  15
ATOM     15  C6  UNL     1       1.600   0.070  -2.316  1.00  0.00     0.164 C   
BRANCH  15  16
ATOM     16  C7  UNL     1       2.117   1.455  -2.046  1.00  0.00    -0.002 A   
ATOM     17  C8  UNL     1       2.371   1.872  -0.718  1.00  0.00     0.012 A   
ATOM     18  C12 UNL     1       2.324   2.356  -3.105  1.00  0.00     0.045 A   
ATOM     19  C9  UNL     1       2.821   3.167  -0.443  1.00  0.00     0.037 A   
ATOM     20  C11 UNL     1       2.767   3.626  -2.799  1.00  0.00     0.109 A   
ATOM     21  C10 UNL     1       3.007   4.021  -1.507  1.00  0.00     0.108 A   
ATOM     22  O1  UNL     1       3.009   4.615  -3.699  1.00  0.00    -0.316 OA  
ATOM     23  O2  UNL     1       3.434   5.308  -1.429  1.00  0.00    -0.316 OA  
ATOM     24  C13 UNL     1       3.463   5.675  -2.826  1.00  0.00     0.337 C   
ENDBRANCH  15  16
ENDBRANCH  12  15
ENDBRANCH   7  12
ENDBRANCH   1   7
BRANCH   3  25
ATOM     25  C16 UNL     1      -0.538  -1.842   2.753  1.00  0.00     0.129 C   
BRANCH  25  26
ATOM     26  C17 UNL     1      -1.731  -2.680   3.227  1.00  0.00     0.181 C   
BRANCH  26  27
ATOM     27  O3  UNL     1      -2.905  -1.868   3.259  1.00  0.00    -0.394 OA  
ATOM     28  H24 UNL     1      -3.639  -2.434   3.559  1.00  0.00     0.210 HD  
ENDBRANCH  26  27
ENDBRANCH  25  26
BRANCH  25  29
ATOM     29  C18 UNL     1       0.792  -2.569   3.018  1.00  0.00     0.063 C   
BRANCH  29  30
ATOM     30  C19 UNL     1       2.010  -1.754   2.637  1.00  0.00    -0.046 A   
ATOM     31  C20 UNL     1       2.377  -0.624   3.380  1.00  0.00     0.004 A   
ATOM     32  C24 UNL     1       2.791  -2.124   1.532  1.00  0.00     0.004 A   
ATOM     33  C21 UNL     1       3.503   0.120   3.023  1.00  0.00     0.000 A   
ATOM     34  C23 UNL     1       3.920  -1.382   1.181  1.00  0.00     0.000 A   
ATOM     35  C22 UNL     1       4.275  -0.260   1.927  1.00  0.00     0.000 A   
ENDBRANCH  29  30
ENDBRANCH  25  29
ENDBRANCH   3  25
TORSDOF 10
