REMARK SMILES CC(C)(C)[C@H]([NH2+]Cc1ccc2c(c1)OCO2)c1cn([C@H](CO)Cc2ccccc2)nn1
REMARK SMILES IDX 17 1 18 2 19 3 30 4 31 5 5 7 2 8 1 9 3 10 4 11 6 12 7 15
REMARK SMILES IDX 8 16 9 17 13 18 10 19 12 20 11 21 14 22 16 23 15 24 20 25
REMARK SMILES IDX 21 26 22 27 23 29 24 30 25 31 29 32 26 33 28 34 27 35
REMARK H PARENT 18 6 6 13 6 14 22 28
ROOT
ATOM     1   C14 UNL     1      -0.100  -0.440   0.068  1.00  0.00     0.127 A   
ATOM     2   C15 UNL     1      -0.303  -1.677   0.637  1.00  0.00     0.046 A   
ATOM     3   N2  UNL     1       0.926  -2.274   0.579  1.00  0.00    -0.206 N   
ATOM     4   N3  UNL     1       1.843  -1.434   0.057  1.00  0.00    -0.076 NA  
ATOM     5   N4  UNL     1       1.226  -0.310  -0.264  1.00  0.00    -0.132 NA  
ATOM     6   H20 UNL     1      -1.172  -2.181   1.037  1.00  0.00     0.083 HD  
ENDROOT
BRANCH   1   7
ATOM     7   C5  UNL     1      -1.032   0.710  -0.155  1.00  0.00     0.120 C   
BRANCH   7   8
ATOM     8   C2  UNL     1      -1.732   0.702  -1.560  1.00  0.00     0.010 C   
ATOM     9   C1  UNL     1      -2.764   1.851  -1.653  1.00  0.00     0.017 C   
ATOM     10  C3  UNL     1      -2.514  -0.617  -1.759  1.00  0.00     0.017 C   
ATOM     11  C4  UNL     1      -0.733   0.853  -2.724  1.00  0.00     0.017 C   
ENDBRANCH   7   8
BRANCH   7  12
ATOM     12  N1  UNL     1      -0.261   1.995   0.043  1.00  0.00     0.250 N   
ATOM     13  H11 UNL     1       0.629   1.881  -0.466  1.00  0.00     0.199 HD  
ATOM     14  H12 UNL     1      -0.728   2.805  -0.372  1.00  0.00     0.199 HD  
BRANCH  12  15
ATOM     15  C6  UNL     1       0.087   2.314   1.457  1.00  0.00     0.164 C   
BRANCH  15  16
ATOM     16  C7  UNL     1       0.904   3.573   1.523  1.00  0.00    -0.002 A   
ATOM     17  C8  UNL     1       0.284   4.820   1.774  1.00  0.00     0.012 A   
ATOM     18  C12 UNL     1       2.289   3.522   1.282  1.00  0.00     0.045 A   
ATOM     19  C9  UNL     1       1.034   6.002   1.796  1.00  0.00     0.037 A   
ATOM     20  C11 UNL     1       2.997   4.706   1.309  1.00  0.00     0.109 A   
ATOM     21  C10 UNL     1       2.387   5.910   1.559  1.00  0.00     0.108 A   
ATOM     22  O1  UNL     1       4.332   4.833   1.096  1.00  0.00    -0.316 OA  
ATOM     23  O2  UNL     1       3.263   6.948   1.538  1.00  0.00    -0.316 OA  
ATOM     24  C13 UNL     1       4.502   6.259   1.262  1.00  0.00     0.337 C   
ENDBRANCH  15  16
ENDBRANCH  12  15
ENDBRANCH   7  12
ENDBRANCH   1   7
BRANCH   3  25
ATOM     25  C16 UNL     1       1.270  -3.642   0.949  1.00  0.00     0.129 C   
BRANCH  25  26
ATOM     26  C17 UNL     1       2.331  -3.656   2.056  1.00  0.00     0.181 C   
BRANCH  26  27
ATOM     27  O3  UNL     1       1.778  -3.130   3.264  1.00  0.00    -0.394 OA  
ATOM     28  H24 UNL     1       2.470  -3.202   3.947  1.00  0.00     0.210 HD  
ENDBRANCH  26  27
ENDBRANCH  25  26
BRANCH  25  29
ATOM     29  C18 UNL     1       1.733  -4.457  -0.273  1.00  0.00     0.063 C   
BRANCH  29  30
ATOM     30  C19 UNL     1       0.656  -4.593  -1.326  1.00  0.00    -0.046 A   
ATOM     31  C20 UNL     1      -0.398  -5.500  -1.154  1.00  0.00     0.004 A   
ATOM     32  C24 UNL     1       0.683  -3.790  -2.475  1.00  0.00     0.004 A   
ATOM     33  C21 UNL     1      -1.406  -5.601  -2.115  1.00  0.00     0.000 A   
ATOM     34  C23 UNL     1      -0.325  -3.894  -3.435  1.00  0.00     0.000 A   
ATOM     35  C22 UNL     1      -1.369  -4.798  -3.254  1.00  0.00     0.000 A   
ENDBRANCH  29  30
ENDBRANCH  25  29
ENDBRANCH   3  25
TORSDOF 10
