REMARK SMILES CC(C)C[C@H]([NH2+]Cc1ccc2c(c1)OCO2)c1cn(CCc2cnc[nH]2)nn1
REMARK SMILES IDX 17 1 18 2 19 3 27 4 28 5 5 7 4 8 2 9 1 10 3 11 6 12 7 15
REMARK SMILES IDX 8 16 9 17 13 18 10 19 12 20 11 21 14 22 16 23 15 24 20 25
REMARK SMILES IDX 21 26 22 27 23 28 26 29 24 30 25 31
REMARK H PARENT 18 6 6 13 6 14 26 32
ROOT
ATOM     1   C14 UNL     1       0.357   0.661   1.710  1.00  0.00     0.127 A   
ATOM     2   C15 UNL     1      -0.325   0.068   2.752  1.00  0.00     0.045 A   
ATOM     3   N2  UNL     1      -1.501   0.771   2.803  1.00  0.00    -0.212 N   
ATOM     4   N5  UNL     1      -1.443   1.859   2.014  1.00  0.00    -0.076 NA  
ATOM     5   N6  UNL     1      -0.310   1.796   1.328  1.00  0.00    -0.132 NA  
ATOM     6   H20 UNL     1      -0.175  -0.848   3.304  1.00  0.00     0.083 HD  
ENDROOT
BRANCH   1   7
ATOM     7   C5  UNL     1       1.527   0.148   0.935  1.00  0.00     0.114 C   
BRANCH   7   8
ATOM     8   C4  UNL     1       2.742   1.091   1.000  1.00  0.00     0.064 C   
BRANCH   8   9
ATOM     9   C2  UNL     1       3.996   0.640   0.223  1.00  0.00    -0.012 C   
ATOM     10  C1  UNL     1       5.092   1.703   0.353  1.00  0.00     0.007 C   
ATOM     11  C3  UNL     1       4.528  -0.710   0.704  1.00  0.00     0.007 C   
ENDBRANCH   8   9
ENDBRANCH   7   8
BRANCH   7  12
ATOM     12  N1  UNL     1       1.157  -0.220  -0.476  1.00  0.00     0.249 N   
ATOM     13  H11 UNL     1       1.904  -0.772  -0.907  1.00  0.00     0.199 HD  
ATOM     14  H12 UNL     1       0.343  -0.869  -0.433  1.00  0.00     0.199 HD  
BRANCH  12  15
ATOM     15  C6  UNL     1       0.758   0.871  -1.410  1.00  0.00     0.164 C   
BRANCH  15  16
ATOM     16  C7  UNL     1       0.903   0.425  -2.841  1.00  0.00    -0.002 A   
ATOM     17  C8  UNL     1       2.008   0.860  -3.614  1.00  0.00     0.012 A   
ATOM     18  C12 UNL     1      -0.029  -0.461  -3.409  1.00  0.00     0.045 A   
ATOM     19  C9  UNL     1       2.180   0.427  -4.933  1.00  0.00     0.037 A   
ATOM     20  C11 UNL     1       0.170  -0.869  -4.712  1.00  0.00     0.109 A   
ATOM     21  C10 UNL     1       1.243  -0.438  -5.452  1.00  0.00     0.108 A   
ATOM     22  O1  UNL     1      -0.631  -1.720  -5.405  1.00  0.00    -0.316 OA  
ATOM     23  O2  UNL     1       1.252  -0.961  -6.706  1.00  0.00    -0.316 OA  
ATOM     24  C13 UNL     1       0.048  -1.758  -6.680  1.00  0.00     0.337 C   
ENDBRANCH  15  16
ENDBRANCH  12  15
ENDBRANCH   7  12
ENDBRANCH   1   7
BRANCH   3  25
ATOM     25  C16 UNL     1      -2.777   0.263   3.278  1.00  0.00     0.140 C   
BRANCH  25  26
ATOM     26  C17 UNL     1      -3.640  -0.358   2.158  1.00  0.00     0.074 C   
BRANCH  26  27
ATOM     27  C18 UNL     1      -2.839  -1.188   1.204  1.00  0.00     0.028 A   
ATOM     28  C19 UNL     1      -2.219  -0.831   0.026  1.00  0.00     0.131 A   
ATOM     29  N4  UNL     1      -2.489  -2.501   1.393  1.00  0.00    -0.308 N   
ATOM     30  N3  UNL     1      -1.301  -1.783  -0.350  1.00  0.00    -0.248 NA  
ATOM     31  C20 UNL     1      -1.550  -2.808   0.441  1.00  0.00     0.185 A   
ATOM     32  H27 UNL     1      -2.818  -3.122   2.122  1.00  0.00     0.153 HD  
ENDBRANCH  26  27
ENDBRANCH  25  26
ENDBRANCH   3  25
TORSDOF 9
