REMARK SMILES O=C(c1ccc2c(c1)OCO2)n1cc([C@@H]([NH2+]Cc2ccc3c(c2)OCO3)C2CCCCC2)nn1
REMARK SMILES IDX 15 1 14 2 12 3 13 4 34 5 33 6 2 7 1 8 3 9 4 10 8 11 5 12
REMARK SMILES IDX 7 13 6 14 9 15 11 16 10 17 16 18 17 21 18 22 19 23 23 24
REMARK SMILES IDX 20 25 22 26 21 27 24 28 26 29 25 30 27 31 28 32 32 33 29 34
REMARK SMILES IDX 31 35 30 36
REMARK H PARENT 16 19 16 20
ROOT
ATOM     1   C11 UNL     1       1.544   0.187   1.355  1.00  0.00     0.117 C   
ENDROOT
BRANCH   1   2
ATOM     2   C10 UNL     1       0.084   0.504   1.239  1.00  0.00     0.128 A   
ATOM     3   N1  UNL     1      -2.092   0.696   1.396  1.00  0.00    -0.143 N   
ATOM     4   C9  UNL     1      -0.988   0.136   2.017  1.00  0.00     0.139 A   
ATOM     5   N4  UNL     1      -1.686   1.344   0.278  1.00  0.00    -0.068 NA  
ATOM     6   N3  UNL     1      -0.369   1.240   0.179  1.00  0.00    -0.131 NA  
BRANCH   3   7
ATOM     7   C1  UNL     1      -3.444   0.573   1.753  1.00  0.00     0.271 C   
ATOM     8   O1  UNL     1      -3.674  -0.182   2.697  1.00  0.00    -0.269 OA  
BRANCH   7   9
ATOM     9   C2  UNL     1      -4.590   1.235   1.074  1.00  0.00     0.042 A   
ATOM     10  C3  UNL     1      -5.841   0.571   1.096  1.00  0.00     0.016 A   
ATOM     11  C7  UNL     1      -4.476   2.491   0.464  1.00  0.00     0.050 A   
ATOM     12  C4  UNL     1      -6.967   1.138   0.490  1.00  0.00     0.037 A   
ATOM     13  C6  UNL     1      -5.609   3.025  -0.119  1.00  0.00     0.109 A   
ATOM     14  C5  UNL     1      -6.816   2.367  -0.111  1.00  0.00     0.108 A   
ATOM     15  O2  UNL     1      -5.680   4.229  -0.746  1.00  0.00    -0.316 OA  
ATOM     16  O3  UNL     1      -7.794   3.071  -0.741  1.00  0.00    -0.316 OA  
ATOM     17  C8  UNL     1      -7.077   4.264  -1.115  1.00  0.00     0.337 C   
ENDBRANCH   7   9
ENDBRANCH   3   7
ENDBRANCH   1   2
BRANCH   1  18
ATOM     18  N2  UNL     1       2.022  -0.376   0.036  1.00  0.00     0.249 N   
ATOM     19  H8  UNL     1       1.679   0.263  -0.698  1.00  0.00     0.199 HD  
ATOM     20  H9  UNL     1       3.042  -0.363  -0.032  1.00  0.00     0.199 HD  
BRANCH  18  21
ATOM     21  C12 UNL     1       1.560  -1.761  -0.289  1.00  0.00     0.164 C   
BRANCH  21  22
ATOM     22  C13 UNL     1       0.689  -1.798  -1.512  1.00  0.00    -0.002 A   
ATOM     23  C14 UNL     1      -0.709  -1.976  -1.390  1.00  0.00     0.012 A   
ATOM     24  C18 UNL     1       1.255  -1.621  -2.787  1.00  0.00     0.045 A   
ATOM     25  C15 UNL     1      -1.535  -1.976  -2.518  1.00  0.00     0.037 A   
ATOM     26  C17 UNL     1       0.412  -1.626  -3.878  1.00  0.00     0.109 A   
ATOM     27  C16 UNL     1      -0.944  -1.796  -3.748  1.00  0.00     0.108 A   
ATOM     28  O4  UNL     1       0.794  -1.461  -5.172  1.00  0.00    -0.316 OA  
ATOM     29  O5  UNL     1      -1.587  -1.756  -4.944  1.00  0.00    -0.316 OA  
ATOM     30  C19 UNL     1      -0.478  -1.578  -5.850  1.00  0.00     0.337 C   
ENDBRANCH  21  22
ENDBRANCH  18  21
ENDBRANCH   1  18
BRANCH   1  31
ATOM     31  C20 UNL     1       2.391   1.440   1.741  1.00  0.00     0.043 C   
ATOM     32  C21 UNL     1       3.903   1.133   1.826  1.00  0.00     0.010 C   
ATOM     33  C25 UNL     1       1.907   2.022   3.091  1.00  0.00     0.010 C   
ATOM     34  C22 UNL     1       4.724   2.326   2.310  1.00  0.00     0.001 C   
ATOM     35  C24 UNL     1       2.739   3.215   3.553  1.00  0.00     0.001 C   
ATOM     36  C23 UNL     1       4.217   2.865   3.639  1.00  0.00     0.000 C   
ENDBRANCH   1  31
TORSDOF 7
