REMARK SMILES CC(C)c1ocnc1Cn1cc([C@@H]([NH2+]Cc2ccc3c(c2)OCO3)C(C)C)nn1
REMARK SMILES IDX 10 1 11 2 12 3 28 4 29 5 9 7 8 8 4 9 5 10 6 11 7 12 2 13
REMARK SMILES IDX 1 14 3 15 13 16 14 17 15 20 16 21 17 22 21 23 18 24 20 25
REMARK SMILES IDX 19 26 22 27 24 28 23 29 25 30 26 31 27 32
REMARK H PARENT 11 6 14 18 14 19
ROOT
ATOM     1   N2  UNL     1       2.148  -1.948  -0.552  1.00  0.00    -0.206 N   
ATOM     2   C8  UNL     1       2.352  -0.681  -1.029  1.00  0.00     0.046 A   
ATOM     3   C9  UNL     1       1.602   0.116  -0.195  1.00  0.00     0.127 A   
ATOM     4   N4  UNL     1       0.985  -0.673   0.744  1.00  0.00    -0.132 NA  
ATOM     5   N5  UNL     1       1.332  -1.931   0.522  1.00  0.00    -0.076 NA  
ATOM     6   H11 UNL     1       2.961  -0.487  -1.902  1.00  0.00     0.083 HD  
ENDROOT
BRANCH   1   7
ATOM     7   C7  UNL     1       2.670  -3.197  -1.075  1.00  0.00     0.192 C   
BRANCH   7   8
ATOM     8   C6  UNL     1       1.805  -3.671  -2.183  1.00  0.00     0.089 A   
ATOM     9   C4  UNL     1       0.848  -4.669  -2.191  1.00  0.00     0.086 A   
ATOM     10  O1  UNL     1       0.319  -4.726  -3.451  1.00  0.00    -0.301 OA  
ATOM     11  C5  UNL     1       0.991  -3.767  -4.141  1.00  0.00     0.247 A   
ATOM     12  N1  UNL     1       1.876  -3.095  -3.439  1.00  0.00    -0.232 NA  
BRANCH   9  13
ATOM     13  C2  UNL     1       0.314  -5.621  -1.175  1.00  0.00     0.039 C   
ATOM     14  C1  UNL     1       0.502  -7.069  -1.624  1.00  0.00     0.015 C   
ATOM     15  C3  UNL     1      -1.157  -5.330  -0.874  1.00  0.00     0.015 C   
ENDBRANCH   9  13
ENDBRANCH   7   8
ENDBRANCH   1   7
BRANCH   3  16
ATOM     16  C10 UNL     1       1.320   1.583  -0.226  1.00  0.00     0.117 C   
BRANCH  16  17
ATOM     17  N3  UNL     1      -0.092   1.839   0.238  1.00  0.00     0.249 N   
ATOM     18  H13 UNL     1      -0.237   1.268   1.084  1.00  0.00     0.199 HD  
ATOM     19  H14 UNL     1      -0.226   2.815   0.520  1.00  0.00     0.199 HD  
BRANCH  17  20
ATOM     20  C11 UNL     1      -1.158   1.460  -0.730  1.00  0.00     0.164 C   
BRANCH  20  21
ATOM     21  C12 UNL     1      -2.514   1.636  -0.108  1.00  0.00    -0.002 A   
ATOM     22  C13 UNL     1      -3.104   0.573   0.618  1.00  0.00     0.012 A   
ATOM     23  C17 UNL     1      -3.177   2.872  -0.190  1.00  0.00     0.045 A   
ATOM     24  C14 UNL     1      -4.346   0.732   1.241  1.00  0.00     0.037 A   
ATOM     25  C16 UNL     1      -4.399   2.996   0.441  1.00  0.00     0.109 A   
ATOM     26  C15 UNL     1      -4.969   1.955   1.132  1.00  0.00     0.108 A   
ATOM     27  O2  UNL     1      -5.164   4.118   0.465  1.00  0.00    -0.316 OA  
ATOM     28  O3  UNL     1      -6.168   2.288   1.676  1.00  0.00    -0.316 OA  
ATOM     29  C18 UNL     1      -6.290   3.664   1.252  1.00  0.00     0.337 C   
ENDBRANCH  20  21
ENDBRANCH  17  20
ENDBRANCH  16  17
BRANCH  16  30
ATOM     30  C19 UNL     1       2.284   2.436   0.638  1.00  0.00     0.037 C   
ATOM     31  C20 UNL     1       3.719   2.389   0.102  1.00  0.00     0.014 C   
ATOM     32  C21 UNL     1       2.277   2.077   2.130  1.00  0.00     0.014 C   
ENDBRANCH  16  30
ENDBRANCH   3  16
TORSDOF 8
