REMARK SMILES CN(C)c1ccccc1-n1cc([C@@H]([NH2+]Cc2ccc3c(c2)OCO3)C2CCCCC2)nn1
REMARK SMILES IDX 10 1 11 2 12 3 31 4 32 5 9 6 4 7 5 8 6 9 8 10 7 11 2 12 1 13
REMARK SMILES IDX 3 14 13 15 14 16 15 19 16 20 17 21 21 22 18 23 20 24 19 25
REMARK SMILES IDX 22 26 24 27 23 28 25 29 26 30 30 31 27 32 29 33 28 34
REMARK H PARENT 14 17 14 18
ROOT
ATOM     1   N2  UNL     1      -3.063  -0.585  -0.484  1.00  0.00    -0.179 N   
ATOM     2   C9  UNL     1      -1.720  -0.443  -0.187  1.00  0.00     0.135 A   
ATOM     3   C10 UNL     1      -1.146  -1.663  -0.459  1.00  0.00     0.127 A   
ATOM     4   N4  UNL     1      -2.112  -2.527  -0.882  1.00  0.00    -0.131 NA  
ATOM     5   N5  UNL     1      -3.262  -1.875  -0.898  1.00  0.00    -0.071 NA  
ENDROOT
BRANCH   1   6
ATOM     6   C8  UNL     1      -4.138   0.346  -0.435  1.00  0.00     0.079 A   
ATOM     7   C3  UNL     1      -4.026   1.633   0.142  1.00  0.00     0.052 A   
ATOM     8   C4  UNL     1      -5.156   2.480   0.086  1.00  0.00     0.025 A   
ATOM     9   C5  UNL     1      -6.352   2.077  -0.510  1.00  0.00     0.002 A   
ATOM     10  C7  UNL     1      -5.364  -0.055  -1.013  1.00  0.00     0.028 A   
ATOM     11  C6  UNL     1      -6.459   0.806  -1.052  1.00  0.00     0.002 A   
BRANCH   7  12
ATOM     12  N1  UNL     1      -2.857   2.058   0.822  1.00  0.00    -0.335 N   
ATOM     13  C1  UNL     1      -3.054   2.002   2.280  1.00  0.00     0.129 C   
ATOM     14  C2  UNL     1      -2.349   3.357   0.352  1.00  0.00     0.129 C   
ENDBRANCH   7  12
ENDBRANCH   1   6
BRANCH   3  15
ATOM     15  C11 UNL     1       0.266  -2.136  -0.324  1.00  0.00     0.117 C   
BRANCH  15  16
ATOM     16  N3  UNL     1       0.248  -3.546   0.236  1.00  0.00     0.249 N   
ATOM     17  H13 UNL     1       1.170  -3.981   0.178  1.00  0.00     0.199 HD  
ATOM     18  H14 UNL     1      -0.383  -4.083  -0.374  1.00  0.00     0.199 HD  
BRANCH  16  19
ATOM     19  C12 UNL     1      -0.246  -3.700   1.639  1.00  0.00     0.164 C   
BRANCH  19  20
ATOM     20  C13 UNL     1       0.755  -3.218   2.652  1.00  0.00    -0.002 A   
ATOM     21  C14 UNL     1       1.835  -4.049   3.039  1.00  0.00     0.012 A   
ATOM     22  C18 UNL     1       0.649  -1.925   3.194  1.00  0.00     0.045 A   
ATOM     23  C15 UNL     1       2.797  -3.599   3.950  1.00  0.00     0.037 A   
ATOM     24  C17 UNL     1       1.617  -1.511   4.085  1.00  0.00     0.109 A   
ATOM     25  C16 UNL     1       2.661  -2.325   4.453  1.00  0.00     0.108 A   
ATOM     26  O1  UNL     1       1.672  -0.292   4.684  1.00  0.00    -0.316 OA  
ATOM     27  O2  UNL     1       3.502  -1.724   5.335  1.00  0.00    -0.316 OA  
ATOM     28  C19 UNL     1       2.852  -0.445   5.507  1.00  0.00     0.337 C   
ENDBRANCH  19  20
ENDBRANCH  16  19
ENDBRANCH  15  16
BRANCH  15  29
ATOM     29  C20 UNL     1       1.032  -2.135  -1.682  1.00  0.00     0.043 C   
ATOM     30  C21 UNL     1       0.993  -0.737  -2.345  1.00  0.00     0.010 C   
ATOM     31  C25 UNL     1       2.504  -2.579  -1.521  1.00  0.00     0.010 C   
ATOM     32  C22 UNL     1       1.778  -0.685  -3.654  1.00  0.00     0.001 C   
ATOM     33  C24 UNL     1       3.285  -2.512  -2.833  1.00  0.00     0.001 C   
ATOM     34  C23 UNL     1       3.219  -1.129  -3.463  1.00  0.00     0.000 C   
ENDBRANCH  15  29
ENDBRANCH   3  15
TORSDOF 7
