REMARK SMILES CC(C)[C@H]([NH2+]Cc1ccc2c(c1)OCO2)c1cn(CCc2cc(F)ccn2)nn1
REMARK SMILES IDX 16 1 17 2 18 3 28 4 29 5 4 7 2 8 1 9 3 10 5 11 6 14 7 15
REMARK SMILES IDX 8 16 12 17 9 18 11 19 10 20 13 21 15 22 14 23 19 24 20 25
REMARK SMILES IDX 21 26 22 27 27 28 23 29 26 30 25 31 24 32
REMARK H PARENT 17 6 5 12 5 13
ROOT
ATOM     1   C13 UNL     1      -0.543  -0.965   1.070  1.00  0.00     0.127 A   
ATOM     2   C14 UNL     1      -0.042  -1.829   0.123  1.00  0.00     0.045 A   
ATOM     3   N2  UNL     1      -1.154  -2.351  -0.469  1.00  0.00    -0.212 N   
ATOM     4   N4  UNL     1      -2.275  -1.869   0.102  1.00  0.00    -0.076 NA  
ATOM     5   N5  UNL     1      -1.914  -1.015   1.045  1.00  0.00    -0.132 NA  
ATOM     6   H18 UNL     1       0.958  -2.081  -0.203  1.00  0.00     0.083 HD  
ENDROOT
BRANCH   1   7
ATOM     7   C4  UNL     1       0.146  -0.003   1.977  1.00  0.00     0.117 C   
BRANCH   7   8
ATOM     8   C2  UNL     1       0.438  -0.562   3.395  1.00  0.00     0.037 C   
ATOM     9   C1  UNL     1      -0.807  -0.998   4.176  1.00  0.00     0.014 C   
ATOM     10  C3  UNL     1       1.446  -1.718   3.346  1.00  0.00     0.014 C   
ENDBRANCH   7   8
BRANCH   7  11
ATOM     11  N1  UNL     1      -0.677   1.262   2.123  1.00  0.00     0.249 N   
ATOM     12  H9  UNL     1      -0.301   1.843   2.877  1.00  0.00     0.199 HD  
ATOM     13  H10 UNL     1      -1.621   0.959   2.402  1.00  0.00     0.199 HD  
BRANCH  11  14
ATOM     14  C5  UNL     1      -0.847   2.089   0.890  1.00  0.00     0.164 C   
BRANCH  14  15
ATOM     15  C6  UNL     1       0.445   2.645   0.359  1.00  0.00    -0.002 A   
ATOM     16  C7  UNL     1       1.130   3.669   1.055  1.00  0.00     0.012 A   
ATOM     17  C11 UNL     1       0.992   2.129  -0.830  1.00  0.00     0.045 A   
ATOM     18  C8  UNL     1       2.346   4.169   0.579  1.00  0.00     0.037 A   
ATOM     19  C10 UNL     1       2.191   2.646  -1.273  1.00  0.00     0.109 A   
ATOM     20  C9  UNL     1       2.851   3.635  -0.587  1.00  0.00     0.108 A   
ATOM     21  O1  UNL     1       2.856   2.262  -2.394  1.00  0.00    -0.316 OA  
ATOM     22  O2  UNL     1       4.013   3.999  -1.189  1.00  0.00    -0.316 OA  
ATOM     23  C12 UNL     1       3.998   3.148  -2.353  1.00  0.00     0.337 C   
ENDBRANCH  14  15
ENDBRANCH  11  14
ENDBRANCH   7  11
ENDBRANCH   1   7
BRANCH   3  24
ATOM     24  C15 UNL     1      -1.234  -3.337  -1.526  1.00  0.00     0.140 C   
BRANCH  24  25
ATOM     25  C16 UNL     1      -1.737  -2.770  -2.853  1.00  0.00     0.077 C   
BRANCH  25  26
ATOM     26  C17 UNL     1      -0.683  -2.042  -3.656  1.00  0.00     0.045 A   
ATOM     27  C18 UNL     1      -0.764  -2.037  -5.044  1.00  0.00     0.063 A   
ATOM     28  N3  UNL     1       0.294  -1.377  -2.989  1.00  0.00    -0.261 NA  
ATOM     29  C19 UNL     1       0.210  -1.354  -5.754  1.00  0.00     0.126 A   
ATOM     30  C21 UNL     1       1.228  -0.725  -3.725  1.00  0.00     0.114 A   
ATOM     31  C20 UNL     1       1.229  -0.683  -5.103  1.00  0.00     0.059 A   
ATOM     32  F1  UNL     1       0.167  -1.349  -7.093  1.00  0.00    -0.207 F   
ENDBRANCH  25  26
ENDBRANCH  24  25
ENDBRANCH   3  24
TORSDOF 8
