REMARK SMILES CC(C)C[C@H]([NH2+]Cc1ccc2c(c1)OCO2)c1cn(Cc2cnn(C(C)(C)C)c2)nn1
REMARK SMILES IDX 17 1 18 2 19 3 30 4 31 5 5 7 4 8 2 9 1 10 3 11 6 12 7 15
REMARK SMILES IDX 8 16 9 17 13 18 10 19 12 20 11 21 14 22 16 23 15 24 20 25
REMARK SMILES IDX 21 26 22 27 29 28 23 29 24 30 25 31 26 32 27 33 28 34
REMARK H PARENT 18 6 6 13 6 14
ROOT
ATOM     1   C14 UNL     1      -0.853  -2.040   0.879  1.00  0.00     0.127 A   
ATOM     2   C15 UNL     1      -0.940  -2.446  -0.433  1.00  0.00     0.046 A   
ATOM     3   N2  UNL     1      -2.284  -2.442  -0.691  1.00  0.00    -0.208 N   
ATOM     4   N5  UNL     1      -2.980  -2.075   0.403  1.00  0.00    -0.076 NA  
ATOM     5   N6  UNL     1      -2.114  -1.831   1.372  1.00  0.00    -0.132 NA  
ATOM     6   H20 UNL     1      -0.205  -2.702  -1.184  1.00  0.00     0.083 HD  
ENDROOT
BRANCH   1   7
ATOM     7   C5  UNL     1       0.331  -1.768   1.749  1.00  0.00     0.114 C   
BRANCH   7   8
ATOM     8   C4  UNL     1       0.673  -3.003   2.606  1.00  0.00     0.064 C   
BRANCH   8   9
ATOM     9   C2  UNL     1       1.951  -2.906   3.467  1.00  0.00    -0.012 C   
ATOM     10  C1  UNL     1       2.139  -4.207   4.254  1.00  0.00     0.007 C   
ATOM     11  C3  UNL     1       3.201  -2.625   2.632  1.00  0.00     0.007 C   
ENDBRANCH   8   9
ENDBRANCH   7   8
BRANCH   7  12
ATOM     12  N1  UNL     1       0.050  -0.599   2.663  1.00  0.00     0.249 N   
ATOM     13  H11 UNL     1      -0.847  -0.804   3.126  1.00  0.00     0.199 HD  
ATOM     14  H12 UNL     1       0.762  -0.529   3.393  1.00  0.00     0.199 HD  
BRANCH  12  15
ATOM     15  C6  UNL     1      -0.088   0.735   2.002  1.00  0.00     0.164 C   
BRANCH  15  16
ATOM     16  C7  UNL     1       1.194   1.209   1.375  1.00  0.00    -0.002 A   
ATOM     17  C8  UNL     1       1.321   1.267  -0.033  1.00  0.00     0.012 A   
ATOM     18  C12 UNL     1       2.288   1.567   2.183  1.00  0.00     0.045 A   
ATOM     19  C9  UNL     1       2.522   1.663  -0.631  1.00  0.00     0.037 A   
ATOM     20  C11 UNL     1       3.458   1.948   1.561  1.00  0.00     0.109 A   
ATOM     21  C10 UNL     1       3.574   1.993   0.194  1.00  0.00     0.108 A   
ATOM     22  O1  UNL     1       4.606   2.307   2.192  1.00  0.00    -0.316 OA  
ATOM     23  O2  UNL     1       4.808   2.389  -0.209  1.00  0.00    -0.316 OA  
ATOM     24  C13 UNL     1       5.452   2.621   1.062  1.00  0.00     0.337 C   
ENDBRANCH  15  16
ENDBRANCH  12  15
ENDBRANCH   7  12
ENDBRANCH   1   7
BRANCH   3  25
ATOM     25  C16 UNL     1      -2.961  -2.753  -1.941  1.00  0.00     0.172 C   
BRANCH  25  26
ATOM     26  C17 UNL     1      -2.900  -1.587  -2.859  1.00  0.00     0.007 A   
ATOM     27  C18 UNL     1      -1.844  -1.222  -3.719  1.00  0.00     0.138 A   
ATOM     28  C23 UNL     1      -3.855  -0.613  -3.076  1.00  0.00     0.103 A   
ATOM     29  N3  UNL     1      -2.090  -0.094  -4.381  1.00  0.00    -0.189 NA  
ATOM     30  N4  UNL     1      -3.346   0.246  -4.015  1.00  0.00    -0.227 N   
BRANCH  30  31
ATOM     31  C19 UNL     1      -3.978   1.434  -4.622  1.00  0.00     0.047 C   
ATOM     32  C20 UNL     1      -3.156   2.687  -4.267  1.00  0.00     0.034 C   
ATOM     33  C21 UNL     1      -5.423   1.652  -4.125  1.00  0.00     0.034 C   
ATOM     34  C22 UNL     1      -4.024   1.265  -6.153  1.00  0.00     0.034 C   
ENDBRANCH  30  31
ENDBRANCH  25  26
ENDBRANCH   3  25
TORSDOF 9
