REMARK SMILES Cc1cc(C)n(CCn2cc([C@@H]([NH2+]Cc3ccc4c(c3)OCO4)C(C)(C)C)nn2)n1
REMARK SMILES IDX 9 1 10 2 11 3 28 4 29 5 8 7 7 8 6 9 2 10 3 11 30 12 4 13
REMARK SMILES IDX 1 14 5 15 12 16 13 17 14 20 15 21 16 22 20 23 17 24 19 25
REMARK SMILES IDX 18 26 21 27 23 28 22 29 24 30 25 31 26 32 27 33
REMARK H PARENT 10 6 13 18 13 19
ROOT
ATOM     1   N2  UNL     1      -3.797  -1.233   0.303  1.00  0.00    -0.210 N   
ATOM     2   C8  UNL     1      -3.066  -1.400  -0.837  1.00  0.00     0.045 A   
ATOM     3   C9  UNL     1      -1.955  -2.091  -0.407  1.00  0.00     0.127 A   
ATOM     4   N4  UNL     1      -2.101  -2.404   0.920  1.00  0.00    -0.132 NA  
ATOM     5   N5  UNL     1      -3.242  -1.885   1.339  1.00  0.00    -0.076 NA  
ATOM     6   H12 UNL     1      -3.328  -0.921  -1.770  1.00  0.00     0.083 HD  
ENDROOT
BRANCH   1   7
ATOM     7   C7  UNL     1      -4.924  -0.350   0.518  1.00  0.00     0.155 C   
BRANCH   7   8
ATOM     8   C6  UNL     1      -4.487   0.986   1.103  1.00  0.00     0.153 C   
BRANCH   8   9
ATOM     9   N1  UNL     1      -3.844   1.839   0.114  1.00  0.00    -0.228 N   
ATOM     10  C2  UNL     1      -2.246   2.664  -1.014  1.00  0.00     0.057 A   
ATOM     11  C3  UNL     1      -3.406   3.379  -1.378  1.00  0.00     0.045 A   
ATOM     12  N6  UNL     1      -2.520   1.687  -0.138  1.00  0.00    -0.187 NA  
ATOM     13  C4  UNL     1      -4.429   2.821  -0.643  1.00  0.00     0.027 A   
ATOM     14  C1  UNL     1      -0.863   2.887  -1.497  1.00  0.00     0.068 C   
ATOM     15  C5  UNL     1      -5.871   3.170  -0.595  1.00  0.00     0.063 C   
ENDBRANCH   8   9
ENDBRANCH   7   8
ENDBRANCH   1   7
BRANCH   3  16
ATOM     16  C10 UNL     1      -0.646  -2.336  -1.086  1.00  0.00     0.120 C   
BRANCH  16  17
ATOM     17  N3  UNL     1       0.459  -1.877  -0.164  1.00  0.00     0.250 N   
ATOM     18  H14 UNL     1       1.382  -2.176  -0.484  1.00  0.00     0.199 HD  
ATOM     19  H15 UNL     1       0.298  -2.329   0.748  1.00  0.00     0.199 HD  
BRANCH  17  20
ATOM     20  C11 UNL     1       0.493  -0.404   0.094  1.00  0.00     0.164 C   
BRANCH  20  21
ATOM     21  C12 UNL     1       1.692  -0.049   0.929  1.00  0.00    -0.002 A   
ATOM     22  C13 UNL     1       2.915   0.308   0.313  1.00  0.00     0.012 A   
ATOM     23  C17 UNL     1       1.616  -0.125   2.330  1.00  0.00     0.045 A   
ATOM     24  C14 UNL     1       4.047   0.597   1.083  1.00  0.00     0.037 A   
ATOM     25  C16 UNL     1       2.751   0.166   3.058  1.00  0.00     0.109 A   
ATOM     26  C15 UNL     1       3.932   0.517   2.453  1.00  0.00     0.108 A   
ATOM     27  O1  UNL     1       2.849   0.141   4.413  1.00  0.00    -0.316 OA  
ATOM     28  O2  UNL     1       4.923   0.760   3.350  1.00  0.00    -0.316 OA  
ATOM     29  C18 UNL     1       4.226   0.542   4.596  1.00  0.00     0.337 C   
ENDBRANCH  20  21
ENDBRANCH  17  20
ENDBRANCH  16  17
BRANCH  16  30
ATOM     30  C19 UNL     1      -0.414  -3.816  -1.542  1.00  0.00     0.010 C   
ATOM     31  C20 UNL     1      -0.319  -4.805  -0.363  1.00  0.00     0.017 C   
ATOM     32  C21 UNL     1       0.891  -3.923  -2.364  1.00  0.00     0.017 C   
ATOM     33  C22 UNL     1      -1.569  -4.268  -2.464  1.00  0.00     0.017 C   
ENDBRANCH  16  30
ENDBRANCH   3  16
TORSDOF 8
