REMARK SMILES CC(C)(C)[C@H]([NH2+]Cc1ccc2c(c1)OCO2)c1cn(Cc2ccccc2N)nn1
REMARK SMILES IDX 17 1 18 2 19 3 28 4 29 5 5 7 2 8 1 9 3 10 4 11 6 12 7 15
REMARK SMILES IDX 8 16 9 17 13 18 10 19 12 20 11 21 14 22 16 23 15 24 20 25
REMARK SMILES IDX 21 26 22 27 26 28 23 29 25 30 24 31 27 32
REMARK H PARENT 18 6 6 13 6 14 27 33 27 34
ROOT
ATOM     1   C14 UNL     1      -0.957  -0.789   1.021  1.00  0.00     0.127 A   
ATOM     2   C15 UNL     1      -1.059   0.558   1.282  1.00  0.00     0.046 A   
ATOM     3   N2  UNL     1      -0.253   0.747   2.369  1.00  0.00    -0.208 N   
ATOM     4   N4  UNL     1       0.249  -0.428   2.802  1.00  0.00    -0.076 NA  
ATOM     5   N5  UNL     1      -0.167  -1.375   1.976  1.00  0.00    -0.132 NA  
ATOM     6   H20 UNL     1      -1.539   1.382   0.772  1.00  0.00     0.083 HD  
ENDROOT
BRANCH   1   7
ATOM     7   C5  UNL     1      -1.434  -1.584  -0.151  1.00  0.00     0.120 C   
BRANCH   7   8
ATOM     8   C2  UNL     1      -2.724  -2.435   0.127  1.00  0.00     0.010 C   
ATOM     9   C1  UNL     1      -3.213  -3.111  -1.175  1.00  0.00     0.017 C   
ATOM     10  C3  UNL     1      -2.507  -3.535   1.185  1.00  0.00     0.017 C   
ATOM     11  C4  UNL     1      -3.865  -1.513   0.614  1.00  0.00     0.017 C   
ENDBRANCH   7   8
BRANCH   7  12
ATOM     12  N1  UNL     1      -0.310  -2.471  -0.656  1.00  0.00     0.250 N   
ATOM     13  H11 UNL     1      -0.636  -3.067  -1.419  1.00  0.00     0.199 HD  
ATOM     14  H12 UNL     1      -0.045  -3.080   0.129  1.00  0.00     0.199 HD  
BRANCH  12  15
ATOM     15  C6  UNL     1       0.948  -1.782  -1.094  1.00  0.00     0.164 C   
BRANCH  15  16
ATOM     16  C7  UNL     1       0.737  -0.753  -2.170  1.00  0.00    -0.002 A   
ATOM     17  C8  UNL     1       0.365  -1.137  -3.480  1.00  0.00     0.012 A   
ATOM     18  C12 UNL     1       0.883   0.613  -1.866  1.00  0.00     0.045 A   
ATOM     19  C9  UNL     1       0.131  -0.175  -4.469  1.00  0.00     0.037 A   
ATOM     20  C11 UNL     1       0.640   1.537  -2.860  1.00  0.00     0.109 A   
ATOM     21  C10 UNL     1       0.274   1.153  -4.126  1.00  0.00     0.108 A   
ATOM     22  O1  UNL     1       0.718   2.888  -2.727  1.00  0.00    -0.316 OA  
ATOM     23  O2  UNL     1       0.081   2.212  -4.953  1.00  0.00    -0.316 OA  
ATOM     24  C13 UNL     1       0.400   3.311  -4.074  1.00  0.00     0.337 C   
ENDBRANCH  15  16
ENDBRANCH  12  15
ENDBRANCH   7  12
ENDBRANCH   1   7
BRANCH   3  25
ATOM     25  C16 UNL     1       0.132   2.002   2.991  1.00  0.00     0.171 C   
BRANCH  25  26
ATOM     26  C17 UNL     1       1.431   2.511   2.412  1.00  0.00    -0.008 A   
ATOM     27  C18 UNL     1       2.628   2.286   3.115  1.00  0.00     0.007 A   
ATOM     28  C22 UNL     1       1.483   3.140   1.155  1.00  0.00     0.028 A   
ATOM     29  C19 UNL     1       3.849   2.720   2.601  1.00  0.00     0.000 A   
ATOM     30  C21 UNL     1       2.710   3.611   0.671  1.00  0.00     0.023 A   
ATOM     31  C20 UNL     1       3.889   3.389   1.382  1.00  0.00     0.002 A   
BRANCH  28  32
ATOM     32  N3  UNL     1       0.295   3.492   0.477  1.00  0.00    -0.358 N   
ATOM     33  H27 UNL     1       0.473   3.623  -0.522  1.00  0.00     0.143 HD  
ATOM     34  H28 UNL     1      -0.046   4.385   0.839  1.00  0.00     0.143 HD  
ENDBRANCH  28  32
ENDBRANCH  25  26
ENDBRANCH   3  25
TORSDOF 8
