REMARK SMILES Cc1ccc2nc(Cn3cc([C@@H]([NH2+]Cc4ccc5c(c4)OCO5)C(C)C)nn3)cn2c1
REMARK SMILES IDX 9 1 10 2 11 3 27 4 28 5 8 7 7 8 2 9 3 10 31 11 4 12 30 13
REMARK SMILES IDX 5 14 29 15 6 16 1 17 12 18 13 19 14 22 15 23 16 24 20 25
REMARK SMILES IDX 17 26 19 27 18 28 21 29 23 30 22 31 24 32 25 33 26 34
REMARK H PARENT 10 6 13 20 13 21
ROOT
ATOM     1   N2  UNL     1       2.056   2.641  -0.527  1.00  0.00    -0.206 N   
ATOM     2   C8  UNL     1       2.055   1.423  -1.152  1.00  0.00     0.046 A   
ATOM     3   C9  UNL     1       0.980   1.489  -2.007  1.00  0.00     0.127 A   
ATOM     4   N4  UNL     1       0.414   2.736  -1.925  1.00  0.00    -0.132 NA  
ATOM     5   N5  UNL     1       1.083   3.434  -1.021  1.00  0.00    -0.076 NA  
ATOM     6   H8  UNL     1       2.740   0.634  -0.871  1.00  0.00     0.083 HD  
ENDROOT
BRANCH   1   7
ATOM     7   C7  UNL     1       2.893   3.076   0.576  1.00  0.00     0.191 C   
BRANCH   7   8
ATOM     8   C6  UNL     1       2.377   2.516   1.857  1.00  0.00     0.077 A   
ATOM     9   C2  UNL     1       0.826   1.246   5.905  1.00  0.00    -0.036 A   
ATOM     10  C3  UNL     1       1.083  -0.059   5.296  1.00  0.00     0.008 A   
ATOM     11  C23 UNL     1       1.094   2.351   5.182  1.00  0.00     0.085 A   
ATOM     12  C4  UNL     1       1.569  -0.176   4.045  1.00  0.00     0.045 A   
ATOM     13  N6  UNL     1       1.595   2.218   3.891  1.00  0.00    -0.266 N   
ATOM     14  C5  UNL     1       1.840   0.993   3.280  1.00  0.00     0.128 A   
ATOM     15  C22 UNL     1       1.938   3.187   2.981  1.00  0.00     0.107 A   
ATOM     16  N1  UNL     1       2.296   1.149   2.053  1.00  0.00    -0.234 NA  
ATOM     17  C1  UNL     1       0.288   1.274   7.302  1.00  0.00     0.046 C   
ENDBRANCH   7   8
ENDBRANCH   1   7
BRANCH   3  18
ATOM     18  C10 UNL     1       0.325   0.426  -2.821  1.00  0.00     0.117 C   
BRANCH  18  19
ATOM     19  N3  UNL     1      -1.181   0.504  -2.669  1.00  0.00     0.249 N   
ATOM     20  H10 UNL     1      -1.453   1.458  -2.938  1.00  0.00     0.199 HD  
ATOM     21  H11 UNL     1      -1.632  -0.146  -3.318  1.00  0.00     0.199 HD  
BRANCH  19  22
ATOM     22  C11 UNL     1      -1.720   0.283  -1.290  1.00  0.00     0.164 C   
BRANCH  22  23
ATOM     23  C12 UNL     1      -1.408  -1.079  -0.735  1.00  0.00    -0.002 A   
ATOM     24  C13 UNL     1      -0.434  -1.226   0.283  1.00  0.00     0.012 A   
ATOM     25  C17 UNL     1      -2.056  -2.218  -1.242  1.00  0.00     0.045 A   
ATOM     26  C14 UNL     1      -0.102  -2.489   0.783  1.00  0.00     0.037 A   
ATOM     27  C16 UNL     1      -1.706  -3.448  -0.725  1.00  0.00     0.109 A   
ATOM     28  C15 UNL     1      -0.756  -3.581   0.258  1.00  0.00     0.108 A   
ATOM     29  O1  UNL     1      -2.229  -4.643  -1.107  1.00  0.00    -0.316 OA  
ATOM     30  O2  UNL     1      -0.564  -4.876   0.621  1.00  0.00    -0.316 OA  
ATOM     31  C18 UNL     1      -1.520  -5.546  -0.228  1.00  0.00     0.337 C   
ENDBRANCH  22  23
ENDBRANCH  19  22
ENDBRANCH  18  19
BRANCH  18  32
ATOM     32  C19 UNL     1       0.675   0.464  -4.332  1.00  0.00     0.037 C   
ATOM     33  C20 UNL     1       2.164   0.177  -4.565  1.00  0.00     0.014 C   
ATOM     34  C21 UNL     1       0.282   1.760  -5.048  1.00  0.00     0.014 C   
ENDBRANCH  18  32
ENDBRANCH   3  18
TORSDOF 7
