REMARK SMILES COc1ncc(Cn2cc([C@@H]([NH2+]Cc3ccc4c(c3)OCO4)C(C)(C)C)nn2)cc1C
REMARK SMILES IDX 8 1 9 2 10 3 27 4 28 5 7 7 6 8 3 9 4 10 30 11 5 12 29 13
REMARK SMILES IDX 31 14 2 15 1 16 11 17 12 18 13 21 14 22 15 23 19 24 16 25
REMARK SMILES IDX 18 26 17 27 20 28 22 29 21 30 23 31 24 32 25 33 26 34
REMARK H PARENT 9 6 12 19 12 20
ROOT
ATOM     1   N2  UNL     1      -1.844   0.560  -2.656  1.00  0.00    -0.208 N   
ATOM     2   C6  UNL     1      -1.984   0.331  -1.314  1.00  0.00     0.046 A   
ATOM     3   C7  UNL     1      -1.648   1.535  -0.735  1.00  0.00     0.127 A   
ATOM     4   N4  UNL     1      -1.373   2.447  -1.721  1.00  0.00    -0.132 NA  
ATOM     5   N5  UNL     1      -1.488   1.838  -2.890  1.00  0.00    -0.076 NA  
ATOM     6   H7  UNL     1      -2.225  -0.644  -0.913  1.00  0.00     0.083 HD  
ENDROOT
BRANCH   1   7
ATOM     7   C5  UNL     1      -1.829  -0.423  -3.729  1.00  0.00     0.171 C   
BRANCH   7   8
ATOM     8   C4  UNL     1      -0.601  -1.282  -3.605  1.00  0.00    -0.010 A   
ATOM     9   C2  UNL     1       1.714  -2.703  -3.218  1.00  0.00     0.169 A   
ATOM     10  N1  UNL     1       1.814  -1.421  -3.635  1.00  0.00    -0.232 NA  
ATOM     11  C22 UNL     1       0.503  -3.344  -2.968  1.00  0.00    -0.001 A   
ATOM     12  C3  UNL     1       0.663  -0.751  -3.842  1.00  0.00     0.119 A   
ATOM     13  C21 UNL     1      -0.671  -2.609  -3.168  1.00  0.00     0.014 A   
ATOM     14  C23 UNL     1       0.454  -4.770  -2.509  1.00  0.00     0.049 C   
BRANCH   9  15
ATOM     15  O1  UNL     1       2.866  -3.423  -2.978  1.00  0.00    -0.332 OA  
ATOM     16  C1  UNL     1       4.050  -2.757  -3.405  1.00  0.00     0.205 C   
ENDBRANCH   9  15
ENDBRANCH   7   8
ENDBRANCH   1   7
BRANCH   3  17
ATOM     17  C8  UNL     1      -1.427   1.895   0.702  1.00  0.00     0.120 C   
BRANCH  17  18
ATOM     18  N3  UNL     1      -0.160   2.721   0.832  1.00  0.00     0.250 N   
ATOM     19  H9  UNL     1      -0.287   3.552   0.241  1.00  0.00     0.199 HD  
ATOM     20  H10 UNL     1      -0.035   3.043   1.794  1.00  0.00     0.199 HD  
BRANCH  18  21
ATOM     21  C9  UNL     1       1.117   2.077   0.381  1.00  0.00     0.164 C   
BRANCH  21  22
ATOM     22  C10 UNL     1       1.420   0.771   1.061  1.00  0.00    -0.002 A   
ATOM     23  C11 UNL     1       1.503  -0.418   0.296  1.00  0.00     0.012 A   
ATOM     24  C15 UNL     1       1.617   0.713   2.451  1.00  0.00     0.045 A   
ATOM     25  C12 UNL     1       1.758  -1.651   0.904  1.00  0.00     0.037 A   
ATOM     26  C14 UNL     1       1.864  -0.520   3.019  1.00  0.00     0.109 A   
ATOM     27  C13 UNL     1       1.932  -1.669   2.269  1.00  0.00     0.108 A   
ATOM     28  O2  UNL     1       2.059  -0.753   4.345  1.00  0.00    -0.316 OA  
ATOM     29  O3  UNL     1       2.177  -2.768   3.027  1.00  0.00    -0.316 OA  
ATOM     30  C16 UNL     1       2.317  -2.176   4.336  1.00  0.00     0.337 C   
ENDBRANCH  21  22
ENDBRANCH  18  21
ENDBRANCH  17  18
BRANCH  17  31
ATOM     31  C17 UNL     1      -2.636   2.636   1.374  1.00  0.00     0.010 C   
ATOM     32  C18 UNL     1      -2.925   4.014   0.746  1.00  0.00     0.017 C   
ATOM     33  C19 UNL     1      -2.370   2.842   2.884  1.00  0.00     0.017 C   
ATOM     34  C20 UNL     1      -3.913   1.773   1.256  1.00  0.00     0.017 C   
ENDBRANCH  17  31
ENDBRANCH   3  17
TORSDOF 8
