REMARK SMILES c1cc2c(cc1C[NH2+][C@H](c1cn(-c3ccc4c(c3)OCCO4)nn1)C1CCCCC1)OCO2
REMARK SMILES IDX 8 1 7 4 6 5 1 6 2 7 3 8 5 9 4 10 33 11 31 12 32 13 9 14
REMARK SMILES IDX 10 15 11 16 24 17 12 18 23 19 13 20 14 21 18 22 15 23 17 24
REMARK SMILES IDX 16 25 19 26 22 27 20 28 21 29 25 30 26 31 30 32 27 33 29 34
REMARK SMILES IDX 28 35
REMARK H PARENT 8 2 8 3
ROOT
ATOM     1   N1  UNL     1      -1.121  -0.450   2.041  1.00  0.00     0.249 N   
ATOM     2   H6  UNL     1      -0.281   0.077   2.324  1.00  0.00     0.199 HD  
ATOM     3   H7  UNL     1      -1.767  -0.415   2.836  1.00  0.00     0.199 HD  
ENDROOT
BRANCH   1   4
ATOM     4   C7  UNL     1      -0.701  -1.863   1.822  1.00  0.00     0.164 C   
BRANCH   4   5
ATOM     5   C6  UNL     1      -0.047  -2.415   3.056  1.00  0.00    -0.002 A   
ATOM     6   C1  UNL     1       1.306  -2.109   3.334  1.00  0.00     0.012 A   
ATOM     7   C2  UNL     1       1.924  -2.579   4.497  1.00  0.00     0.037 A   
ATOM     8   C3  UNL     1       1.176  -3.347   5.359  1.00  0.00     0.108 A   
ATOM     9   C5  UNL     1      -0.780  -3.196   3.963  1.00  0.00     0.045 A   
ATOM     10  C4  UNL     1      -0.138  -3.647   5.099  1.00  0.00     0.109 A   
ATOM     11  O4  UNL     1       1.611  -3.887   6.527  1.00  0.00    -0.316 OA  
ATOM     12  O3  UNL     1      -0.695  -4.415   6.071  1.00  0.00    -0.316 OA  
ATOM     13  C25 UNL     1       0.427  -4.590   6.963  1.00  0.00     0.337 C   
ENDBRANCH   4   5
ENDBRANCH   1   4
BRANCH   1  14
ATOM     14  C8  UNL     1      -1.694   0.255   0.835  1.00  0.00     0.117 C   
BRANCH  14  15
ATOM     15  C9  UNL     1      -0.612   0.543  -0.159  1.00  0.00     0.127 A   
ATOM     16  C10 UNL     1      -0.632   0.635  -1.533  1.00  0.00     0.135 A   
ATOM     17  N4  UNL     1       0.672   0.704   0.277  1.00  0.00    -0.131 NA  
ATOM     18  N2  UNL     1       0.679   0.893  -1.897  1.00  0.00    -0.181 N   
ATOM     19  N3  UNL     1       1.445   0.911  -0.775  1.00  0.00    -0.071 NA  
BRANCH  18  20
ATOM     20  C11 UNL     1       1.227   1.094  -3.187  1.00  0.00     0.060 A   
ATOM     21  C12 UNL     1       2.602   1.342  -3.324  1.00  0.00     0.029 A   
ATOM     22  C16 UNL     1       0.416   1.037  -4.330  1.00  0.00     0.062 A   
ATOM     23  C13 UNL     1       3.157   1.548  -4.591  1.00  0.00     0.038 A   
ATOM     24  C15 UNL     1       0.984   1.229  -5.592  1.00  0.00     0.107 A   
ATOM     25  C14 UNL     1       2.348   1.503  -5.722  1.00  0.00     0.105 A   
ATOM     26  O1  UNL     1       0.128   1.142  -6.662  1.00  0.00    -0.341 OA  
ATOM     27  O2  UNL     1       2.956   1.734  -6.928  1.00  0.00    -0.341 OA  
ATOM     28  C17 UNL     1       0.847   1.026  -7.897  1.00  0.00     0.197 C   
ATOM     29  C18 UNL     1       1.996   2.018  -7.952  1.00  0.00     0.197 C   
ENDBRANCH  18  20
ENDBRANCH  14  15
BRANCH  14  30
ATOM     30  C19 UNL     1      -2.458   1.511   1.331  1.00  0.00     0.043 C   
ATOM     31  C20 UNL     1      -3.206   2.231   0.200  1.00  0.00     0.010 C   
ATOM     32  C24 UNL     1      -1.587   2.512   2.123  1.00  0.00     0.010 C   
ATOM     33  C21 UNL     1      -4.155   3.305   0.742  1.00  0.00     0.001 C   
ATOM     34  C23 UNL     1      -2.159   3.933   2.154  1.00  0.00     0.001 C   
ATOM     35  C22 UNL     1      -3.677   3.941   2.047  1.00  0.00     0.000 C   
ENDBRANCH  14  30
ENDBRANCH   1  14
TORSDOF 6
