REMARK SMILES COc1cccc(F)c1Cn1cc([C@@H]([NH2+]Cc2ccc3c(c2)OCO3)C(C)C)nn1
REMARK SMILES IDX 11 1 12 2 13 3 29 4 30 5 10 7 9 8 3 9 4 10 5 11 7 12 6 13
REMARK SMILES IDX 8 14 2 15 1 16 14 17 15 18 16 21 17 22 18 23 22 24 19 25
REMARK SMILES IDX 21 26 20 27 23 28 25 29 24 30 26 31 27 32 28 33
REMARK H PARENT 12 6 15 19 15 20
ROOT
ATOM     1   N1  UNL     1       2.059   0.758  -0.351  1.00  0.00    -0.208 N   
ATOM     2   C9  UNL     1       1.551   0.838   0.919  1.00  0.00     0.046 A   
ATOM     3   C10 UNL     1       0.708  -0.247   1.011  1.00  0.00     0.127 A   
ATOM     4   N3  UNL     1       0.682  -0.899  -0.196  1.00  0.00    -0.132 NA  
ATOM     5   N4  UNL     1       1.489  -0.261  -1.026  1.00  0.00    -0.076 NA  
ATOM     6   H9  UNL     1       1.846   1.615   1.610  1.00  0.00     0.083 HD  
ENDROOT
BRANCH   1   7
ATOM     7   C8  UNL     1       3.000   1.655  -1.001  1.00  0.00     0.175 C   
BRANCH   7   8
ATOM     8   C7  UNL     1       4.391   1.489  -0.449  1.00  0.00     0.037 A   
ATOM     9   C2  UNL     1       5.291   0.547  -0.974  1.00  0.00     0.082 A   
ATOM     10  C3  UNL     1       6.569   0.426  -0.416  1.00  0.00     0.034 A   
ATOM     11  C4  UNL     1       6.955   1.232   0.660  1.00  0.00     0.006 A   
ATOM     12  C6  UNL     1       4.796   2.277   0.634  1.00  0.00     0.130 A   
ATOM     13  C5  UNL     1       6.064   2.160   1.189  1.00  0.00     0.040 A   
ATOM     14  F1  UNL     1       3.938   3.160   1.166  1.00  0.00    -0.207 F   
BRANCH   9  15
ATOM     15  O1  UNL     1       4.822  -0.199  -2.021  1.00  0.00    -0.349 OA  
ATOM     16  C1  UNL     1       5.715  -1.135  -2.616  1.00  0.00     0.203 C   
ENDBRANCH   9  15
ENDBRANCH   7   8
ENDBRANCH   1   7
BRANCH   3  17
ATOM     17  C11 UNL     1      -0.157  -0.739   2.126  1.00  0.00     0.117 C   
BRANCH  17  18
ATOM     18  N2  UNL     1      -1.360  -1.455   1.561  1.00  0.00     0.249 N   
ATOM     19  H11 UNL     1      -1.792  -2.076   2.252  1.00  0.00     0.199 HD  
ATOM     20  H12 UNL     1      -1.012  -2.059   0.801  1.00  0.00     0.199 HD  
BRANCH  18  21
ATOM     21  C12 UNL     1      -2.405  -0.574   0.971  1.00  0.00     0.164 C   
BRANCH  21  22
ATOM     22  C13 UNL     1      -3.498  -1.400   0.353  1.00  0.00    -0.002 A   
ATOM     23  C14 UNL     1      -3.375  -1.852  -0.983  1.00  0.00     0.012 A   
ATOM     24  C18 UNL     1      -4.618  -1.776   1.113  1.00  0.00     0.045 A   
ATOM     25  C15 UNL     1      -4.361  -2.659  -1.561  1.00  0.00     0.037 A   
ATOM     26  C17 UNL     1      -5.571  -2.573   0.512  1.00  0.00     0.109 A   
ATOM     27  C16 UNL     1      -5.447  -3.002  -0.787  1.00  0.00     0.108 A   
ATOM     28  O2  UNL     1      -6.707  -3.026   1.103  1.00  0.00    -0.316 OA  
ATOM     29  O3  UNL     1      -6.492  -3.776  -1.179  1.00  0.00    -0.316 OA  
ATOM     30  C19 UNL     1      -7.302  -3.772   0.016  1.00  0.00     0.337 C   
ENDBRANCH  21  22
ENDBRANCH  18  21
ENDBRANCH  17  18
BRANCH  17  31
ATOM     31  C20 UNL     1       0.562  -1.698   3.111  1.00  0.00     0.037 C   
ATOM     32  C21 UNL     1       1.668  -0.983   3.895  1.00  0.00     0.014 C   
ATOM     33  C22 UNL     1       1.128  -2.963   2.455  1.00  0.00     0.014 C   
ENDBRANCH  17  31
ENDBRANCH   3  17
TORSDOF 8
