REMARK SMILES COCc1cccc(Cn2cc([C@@H]([NH2+]Cc3ccc4c(c3)OCO4)C(C)(C)C)nn2)c1
REMARK SMILES IDX 10 1 11 2 12 3 29 4 30 5 9 7 8 8 4 9 5 10 31 11 6 12 7 13
REMARK SMILES IDX 3 14 2 15 1 16 13 17 14 18 15 21 16 22 17 23 21 24 18 25
REMARK SMILES IDX 20 26 19 27 22 28 24 29 23 30 25 31 26 32 27 33 28 34
REMARK H PARENT 11 6 14 19 14 20
ROOT
ATOM     1   N1  UNL     1      -2.194   1.403  -2.660  1.00  0.00    -0.208 N   
ATOM     2   C9  UNL     1      -0.858   1.166  -2.851  1.00  0.00     0.046 A   
ATOM     3   C10 UNL     1      -0.743  -0.200  -2.724  1.00  0.00     0.127 A   
ATOM     4   N3  UNL     1      -1.986  -0.740  -2.539  1.00  0.00    -0.132 NA  
ATOM     5   N4  UNL     1      -2.866   0.246  -2.518  1.00  0.00    -0.076 NA  
ATOM     6   H11 UNL     1      -0.142   1.967  -2.951  1.00  0.00     0.083 HD  
ENDROOT
BRANCH   1   7
ATOM     7   C8  UNL     1      -2.840   2.676  -2.366  1.00  0.00     0.169 C   
BRANCH   7   8
ATOM     8   C7  UNL     1      -2.304   3.261  -1.077  1.00  0.00    -0.028 A   
ATOM     9   C3  UNL     1      -1.626   2.972   1.258  1.00  0.00    -0.022 A   
ATOM     10  C4  UNL     1      -1.205   4.305   1.287  1.00  0.00     0.006 A   
ATOM     11  C24 UNL     1      -2.195   2.470   0.081  1.00  0.00     0.011 A   
ATOM     12  C5  UNL     1      -1.356   5.117   0.162  1.00  0.00     0.001 A   
ATOM     13  C6  UNL     1      -1.900   4.599  -1.014  1.00  0.00     0.005 A   
BRANCH   9  14
ATOM     14  C2  UNL     1      -1.449   2.066   2.448  1.00  0.00     0.195 C   
BRANCH  14  15
ATOM     15  O1  UNL     1      -0.418   1.108   2.166  1.00  0.00    -0.380 OA  
ATOM     16  C1  UNL     1       0.841   1.523   2.692  1.00  0.00     0.195 C   
ENDBRANCH  14  15
ENDBRANCH   9  14
ENDBRANCH   7   8
ENDBRANCH   1   7
BRANCH   3  17
ATOM     17  C11 UNL     1       0.467  -1.072  -2.606  1.00  0.00     0.120 C   
BRANCH  17  18
ATOM     18  N2  UNL     1       0.289  -1.972  -1.404  1.00  0.00     0.250 N   
ATOM     19  H13 UNL     1      -0.670  -2.350  -1.452  1.00  0.00     0.199 HD  
ATOM     20  H14 UNL     1       0.916  -2.779  -1.429  1.00  0.00     0.199 HD  
BRANCH  18  21
ATOM     21  C12 UNL     1       0.421  -1.294  -0.078  1.00  0.00     0.164 C   
BRANCH  21  22
ATOM     22  C13 UNL     1       0.293  -2.288   1.042  1.00  0.00    -0.002 A   
ATOM     23  C14 UNL     1      -0.895  -2.348   1.809  1.00  0.00     0.012 A   
ATOM     24  C18 UNL     1       1.343  -3.179   1.323  1.00  0.00     0.045 A   
ATOM     25  C15 UNL     1      -1.039  -3.279   2.843  1.00  0.00     0.037 A   
ATOM     26  C17 UNL     1       1.168  -4.090   2.344  1.00  0.00     0.109 A   
ATOM     27  C16 UNL     1       0.011  -4.138   3.084  1.00  0.00     0.108 A   
ATOM     28  O2  UNL     1       2.075  -5.023   2.736  1.00  0.00    -0.316 OA  
ATOM     29  O3  UNL     1       0.048  -5.102   4.040  1.00  0.00    -0.316 OA  
ATOM     30  C19 UNL     1       1.365  -5.654   3.826  1.00  0.00     0.337 C   
ENDBRANCH  21  22
ENDBRANCH  18  21
ENDBRANCH  17  18
BRANCH  17  31
ATOM     31  C20 UNL     1       0.793  -1.912  -3.887  1.00  0.00     0.010 C   
ATOM     32  C21 UNL     1       2.152  -2.634  -3.721  1.00  0.00     0.017 C   
ATOM     33  C22 UNL     1       0.925  -0.977  -5.111  1.00  0.00     0.017 C   
ATOM     34  C23 UNL     1      -0.280  -2.973  -4.201  1.00  0.00     0.017 C   
ENDBRANCH  17  31
ENDBRANCH   3  17
TORSDOF 9
