REMARK SMILES CC(C)(C)[C@H]([NH2+]Cc1ccc2c(c1)OCO2)c1cn([C@H](CO)c2ccccc2Cl)nn1
REMARK SMILES IDX 17 1 18 2 19 3 30 4 31 5 5 7 2 8 1 9 3 10 4 11 6 12 7 15
REMARK SMILES IDX 8 16 9 17 13 18 10 19 12 20 11 21 14 22 16 23 15 24 20 25
REMARK SMILES IDX 21 26 22 27 23 29 24 30 28 31 25 32 27 33 26 34 29 35
REMARK H PARENT 18 6 6 13 6 14 22 28
ROOT
ATOM     1   C14 UNL     1      -1.397   0.538   0.018  1.00  0.00     0.127 A   
ATOM     2   C15 UNL     1      -0.514   1.230   0.814  1.00  0.00     0.046 A   
ATOM     3   N2  UNL     1      -1.118   1.252   2.043  1.00  0.00    -0.202 N   
ATOM     4   N3  UNL     1      -2.296   0.594   2.004  1.00  0.00    -0.075 NA  
ATOM     5   N4  UNL     1      -2.468   0.139   0.774  1.00  0.00    -0.132 NA  
ATOM     6   H20 UNL     1       0.443   1.701   0.633  1.00  0.00     0.083 HD  
ENDROOT
BRANCH   1   7
ATOM     7   C5  UNL     1      -1.323   0.123  -1.418  1.00  0.00     0.120 C   
BRANCH   7   8
ATOM     8   C2  UNL     1      -2.038   1.099  -2.414  1.00  0.00     0.010 C   
ATOM     9   C1  UNL     1      -3.552   1.230  -2.148  1.00  0.00     0.017 C   
ATOM     10  C3  UNL     1      -1.835   0.615  -3.869  1.00  0.00     0.017 C   
ATOM     11  C4  UNL     1      -1.409   2.507  -2.314  1.00  0.00     0.017 C   
ENDBRANCH   7   8
BRANCH   7  12
ATOM     12  N1  UNL     1      -1.903  -1.278  -1.526  1.00  0.00     0.250 N   
ATOM     13  H11 UNL     1      -2.407  -1.439  -0.638  1.00  0.00     0.199 HD  
ATOM     14  H12 UNL     1      -2.626  -1.329  -2.247  1.00  0.00     0.199 HD  
BRANCH  12  15
ATOM     15  C6  UNL     1      -0.929  -2.385  -1.719  1.00  0.00     0.164 C   
BRANCH  15  16
ATOM     16  C7  UNL     1       0.066  -2.527  -0.601  1.00  0.00    -0.002 A   
ATOM     17  C8  UNL     1      -0.341  -3.006   0.667  1.00  0.00     0.012 A   
ATOM     18  C12 UNL     1       1.409  -2.165  -0.802  1.00  0.00     0.045 A   
ATOM     19  C9  UNL     1       0.575  -3.125   1.719  1.00  0.00     0.037 A   
ATOM     20  C11 UNL     1       2.284  -2.288   0.258  1.00  0.00     0.109 A   
ATOM     21  C10 UNL     1       1.880  -2.756   1.483  1.00  0.00     0.108 A   
ATOM     22  O1  UNL     1       3.606  -1.975   0.230  1.00  0.00    -0.316 OA  
ATOM     23  O2  UNL     1       2.898  -2.804   2.381  1.00  0.00    -0.316 OA  
ATOM     24  C13 UNL     1       3.997  -2.328   1.576  1.00  0.00     0.337 C   
ENDBRANCH  15  16
ENDBRANCH  12  15
ENDBRANCH   7  12
ENDBRANCH   1   7
BRANCH   3  25
ATOM     25  C16 UNL     1      -0.669   1.889   3.282  1.00  0.00     0.157 C   
BRANCH  25  26
ATOM     26  C17 UNL     1      -0.958   3.408   3.251  1.00  0.00     0.186 C   
BRANCH  26  27
ATOM     27  O3  UNL     1      -0.357   4.078   2.142  1.00  0.00    -0.394 OA  
ATOM     28  H24 UNL     1      -0.599   5.020   2.216  1.00  0.00     0.210 HD  
ENDBRANCH  26  27
ENDBRANCH  25  26
BRANCH  25  29
ATOM     29  C18 UNL     1       0.749   1.450   3.643  1.00  0.00    -0.005 A   
ATOM     30  C19 UNL     1       1.863   2.271   3.381  1.00  0.00     0.007 A   
ATOM     31  C23 UNL     1       0.994   0.195   4.238  1.00  0.00     0.046 A   
ATOM     32  C20 UNL     1       3.159   1.866   3.712  1.00  0.00     0.000 A   
ATOM     33  C22 UNL     1       2.293  -0.207   4.568  1.00  0.00     0.021 A   
ATOM     34  C21 UNL     1       3.375   0.629   4.309  1.00  0.00     0.002 A   
ATOM     35  CL1 UNL     1      -0.279  -0.918   4.601  1.00  0.00    -0.084 Cl  
ENDBRANCH  25  29
ENDBRANCH   3  25
TORSDOF 9
