REMARK SMILES CC(C)(C)[C@H]([NH2+]Cc1ccc2c(c1)OCO2)c1cn([C@@H](CO)c2ccccc2Cl)nn1
REMARK SMILES IDX 17 1 18 2 19 3 30 4 31 5 5 7 2 8 1 9 3 10 4 11 6 12 7 15
REMARK SMILES IDX 8 16 9 17 13 18 10 19 12 20 11 21 14 22 16 23 15 24 20 25
REMARK SMILES IDX 21 26 22 27 23 29 24 30 28 31 25 32 27 33 26 34 29 35
REMARK H PARENT 18 6 6 13 6 14 22 28
ROOT
ATOM     1   C14 UNL     1      -0.695  -0.883   0.182  1.00  0.00     0.127 A   
ATOM     2   C15 UNL     1      -0.095  -1.010   1.414  1.00  0.00     0.046 A   
ATOM     3   N2  UNL     1       0.315  -2.315   1.455  1.00  0.00    -0.202 N   
ATOM     4   N3  UNL     1      -0.006  -2.949   0.305  1.00  0.00    -0.075 NA  
ATOM     5   N4  UNL     1      -0.636  -2.086  -0.474  1.00  0.00    -0.132 NA  
ATOM     6   H20 UNL     1       0.090  -0.320   2.228  1.00  0.00     0.083 HD  
ENDROOT
BRANCH   1   7
ATOM     7   C5  UNL     1      -1.255   0.321  -0.509  1.00  0.00     0.120 C   
BRANCH   7   8
ATOM     8   C2  UNL     1      -2.806   0.499  -0.336  1.00  0.00     0.010 C   
ATOM     9   C1  UNL     1      -3.275   1.817  -0.996  1.00  0.00     0.017 C   
ATOM     10  C3  UNL     1      -3.618  -0.660  -0.949  1.00  0.00     0.017 C   
ATOM     11  C4  UNL     1      -3.160   0.598   1.166  1.00  0.00     0.017 C   
ENDBRANCH   7   8
BRANCH   7  12
ATOM     12  N1  UNL     1      -0.890   0.287  -1.983  1.00  0.00     0.250 N   
ATOM     13  H11 UNL     1      -1.336   1.060  -2.481  1.00  0.00     0.199 HD  
ATOM     14  H12 UNL     1      -1.271  -0.590  -2.358  1.00  0.00     0.199 HD  
BRANCH  12  15
ATOM     15  C6  UNL     1       0.570   0.292  -2.317  1.00  0.00     0.164 C   
BRANCH  15  16
ATOM     16  C7  UNL     1       1.323   1.456  -1.734  1.00  0.00    -0.002 A   
ATOM     17  C8  UNL     1       1.079   2.776  -2.182  1.00  0.00     0.012 A   
ATOM     18  C12 UNL     1       2.257   1.234  -0.706  1.00  0.00     0.045 A   
ATOM     19  C9  UNL     1       1.749   3.863  -1.609  1.00  0.00     0.037 A   
ATOM     20  C11 UNL     1       2.901   2.326  -0.165  1.00  0.00     0.109 A   
ATOM     21  C10 UNL     1       2.653   3.605  -0.603  1.00  0.00     0.108 A   
ATOM     22  O1  UNL     1       3.821   2.287   0.833  1.00  0.00    -0.316 OA  
ATOM     23  O2  UNL     1       3.390   4.531   0.064  1.00  0.00    -0.316 OA  
ATOM     24  C13 UNL     1       4.122   3.693   0.983  1.00  0.00     0.337 C   
ENDBRANCH  15  16
ENDBRANCH  12  15
ENDBRANCH   7  12
ENDBRANCH   1   7
BRANCH   3  25
ATOM     25  C16 UNL     1       1.079  -2.980   2.513  1.00  0.00     0.157 C   
BRANCH  25  26
ATOM     26  C17 UNL     1       0.325  -4.210   3.054  1.00  0.00     0.186 C   
BRANCH  26  27
ATOM     27  O3  UNL     1      -0.798  -3.792   3.836  1.00  0.00    -0.394 OA  
ATOM     28  H24 UNL     1      -1.212  -4.599   4.197  1.00  0.00     0.210 HD  
ENDBRANCH  26  27
ENDBRANCH  25  26
BRANCH  25  29
ATOM     29  C18 UNL     1       2.501  -3.248   2.030  1.00  0.00    -0.005 A   
ATOM     30  C19 UNL     1       2.824  -4.461   1.386  1.00  0.00     0.007 A   
ATOM     31  C23 UNL     1       3.523  -2.288   2.166  1.00  0.00     0.046 A   
ATOM     32  C20 UNL     1       4.119  -4.714   0.926  1.00  0.00     0.000 A   
ATOM     33  C22 UNL     1       4.819  -2.546   1.704  1.00  0.00     0.021 A   
ATOM     34  C21 UNL     1       5.118  -3.760   1.089  1.00  0.00     0.002 A   
ATOM     35  CL1 UNL     1       3.244  -0.738   2.880  1.00  0.00    -0.084 Cl  
ENDBRANCH  25  29
ENDBRANCH   3  25
TORSDOF 9
