REMARK SMILES Cc1ccc(CCn2cc([C@@H]([NH2+]Cc3ccc4c(c3)OCO4)C(C)(C)C)nn2)cn1
REMARK SMILES IDX 8 1 9 2 10 3 27 4 28 5 7 7 6 8 5 9 2 10 3 11 30 12 4 13
REMARK SMILES IDX 29 14 1 15 11 16 12 17 13 20 14 21 15 22 19 23 16 24 18 25
REMARK SMILES IDX 17 26 20 27 22 28 21 29 23 30 24 31 25 32 26 33
REMARK H PARENT 9 6 12 18 12 19
ROOT
ATOM     1   N1  UNL     1      -0.833   3.028  -0.072  1.00  0.00    -0.212 N   
ATOM     2   C8  UNL     1      -0.165   1.914  -0.493  1.00  0.00     0.045 A   
ATOM     3   C9  UNL     1      -1.169   1.030  -0.824  1.00  0.00     0.127 A   
ATOM     4   N3  UNL     1      -2.383   1.630  -0.610  1.00  0.00    -0.132 NA  
ATOM     5   N4  UNL     1      -2.164   2.857  -0.167  1.00  0.00    -0.076 NA  
ATOM     6   H10 UNL     1       0.914   1.837  -0.469  1.00  0.00     0.083 HD  
ENDROOT
BRANCH   1   7
ATOM     7   C7  UNL     1      -0.284   4.209   0.565  1.00  0.00     0.139 C   
BRANCH   7   8
ATOM     8   C6  UNL     1      -0.657   4.323   2.048  1.00  0.00     0.058 C   
BRANCH   8   9
ATOM     9   C5  UNL     1      -0.217   3.130   2.857  1.00  0.00    -0.028 A   
ATOM     10  C2  UNL     1       0.516   0.847   4.219  1.00  0.00     0.037 A   
ATOM     11  C3  UNL     1       1.440   1.879   4.076  1.00  0.00     0.024 A   
ATOM     12  N5  UNL     1      -0.733   0.910   3.696  1.00  0.00    -0.261 NA  
ATOM     13  C4  UNL     1       1.073   3.025   3.375  1.00  0.00     0.007 A   
ATOM     14  C23 UNL     1      -1.079   2.057   3.068  1.00  0.00     0.115 A   
ATOM     15  C1  UNL     1       0.884  -0.388   4.989  1.00  0.00     0.067 C   
ENDBRANCH   8   9
ENDBRANCH   7   8
ENDBRANCH   1   7
BRANCH   3  16
ATOM     16  C10 UNL     1      -1.113  -0.413  -1.224  1.00  0.00     0.120 C   
BRANCH  16  17
ATOM     17  N2  UNL     1      -2.116  -1.186  -0.389  1.00  0.00     0.250 N   
ATOM     18  H12 UNL     1      -2.991  -0.644  -0.421  1.00  0.00     0.199 HD  
ATOM     19  H13 UNL     1      -2.313  -2.103  -0.794  1.00  0.00     0.199 HD  
BRANCH  17  20
ATOM     20  C11 UNL     1      -1.766  -1.369   1.054  1.00  0.00     0.164 C   
BRANCH  20  21
ATOM     21  C12 UNL     1      -0.621  -2.323   1.252  1.00  0.00    -0.002 A   
ATOM     22  C13 UNL     1      -0.814  -3.718   1.109  1.00  0.00     0.012 A   
ATOM     23  C17 UNL     1       0.662  -1.829   1.547  1.00  0.00     0.045 A   
ATOM     24  C14 UNL     1       0.255  -4.609   1.258  1.00  0.00     0.037 A   
ATOM     25  C16 UNL     1       1.693  -2.734   1.689  1.00  0.00     0.109 A   
ATOM     26  C15 UNL     1       1.496  -4.085   1.547  1.00  0.00     0.108 A   
ATOM     27  O1  UNL     1       2.985  -2.423   1.973  1.00  0.00    -0.316 OA  
ATOM     28  O2  UNL     1       2.639  -4.796   1.723  1.00  0.00    -0.316 OA  
ATOM     29  C18 UNL     1       3.578  -3.741   2.019  1.00  0.00     0.337 C   
ENDBRANCH  20  21
ENDBRANCH  17  20
ENDBRANCH  16  17
BRANCH  16  30
ATOM     30  C19 UNL     1      -1.354  -0.671  -2.752  1.00  0.00     0.010 C   
ATOM     31  C20 UNL     1      -2.784  -0.319  -3.207  1.00  0.00     0.017 C   
ATOM     32  C21 UNL     1      -1.093  -2.159  -3.088  1.00  0.00     0.017 C   
ATOM     33  C22 UNL     1      -0.357   0.161  -3.592  1.00  0.00     0.017 C   
ENDBRANCH  16  30
ENDBRANCH   3  16
TORSDOF 8
