REMARK SMILES CC(C)[C@H]([NH2+]Cc1ccc2c(c1)OCO2)c1cn([C@@H](CO)c2ccc(Cl)nc2)nn1
REMARK SMILES IDX 16 1 17 2 18 3 29 4 30 5 4 7 2 8 1 9 3 10 5 11 6 14 7 15
REMARK SMILES IDX 8 16 12 17 9 18 11 19 10 20 13 21 15 22 14 23 19 24 20 25
REMARK SMILES IDX 21 26 22 28 23 29 28 30 24 31 27 32 25 33 26 34
REMARK H PARENT 17 6 5 12 5 13 21 27
ROOT
ATOM     1   C13 UNL     1       0.609  -0.705   0.147  1.00  0.00     0.127 A   
ATOM     2   C14 UNL     1       1.191  -0.202  -0.994  1.00  0.00     0.046 A   
ATOM     3   N2  UNL     1       0.991  -1.177  -1.933  1.00  0.00    -0.202 N   
ATOM     4   N4  UNL     1       0.274  -2.195  -1.411  1.00  0.00    -0.075 NA  
ATOM     5   N5  UNL     1       0.046  -1.923  -0.136  1.00  0.00    -0.132 NA  
ATOM     6   H18 UNL     1       1.712   0.720  -1.215  1.00  0.00     0.083 HD  
ENDROOT
BRANCH   1   7
ATOM     7   C4  UNL     1       0.466  -0.122   1.518  1.00  0.00     0.117 C   
BRANCH   7   8
ATOM     8   C2  UNL     1       1.494  -0.718   2.521  1.00  0.00     0.037 C   
ATOM     9   C1  UNL     1       2.939  -0.473   2.055  1.00  0.00     0.014 C   
ATOM     10  C3  UNL     1       1.345  -0.144   3.936  1.00  0.00     0.014 C   
ENDBRANCH   7   8
BRANCH   7  11
ATOM     11  N1  UNL     1      -0.932  -0.393   2.017  1.00  0.00     0.249 N   
ATOM     12  H9  UNL     1      -1.104  -1.401   1.887  1.00  0.00     0.199 HD  
ATOM     13  H10 UNL     1      -1.028  -0.208   3.018  1.00  0.00     0.199 HD  
BRANCH  11  14
ATOM     14  C5  UNL     1      -2.019   0.341   1.306  1.00  0.00     0.164 C   
BRANCH  14  15
ATOM     15  C6  UNL     1      -3.359  -0.038   1.871  1.00  0.00    -0.002 A   
ATOM     16  C7  UNL     1      -4.019  -1.202   1.410  1.00  0.00     0.012 A   
ATOM     17  C11 UNL     1      -3.936   0.725   2.901  1.00  0.00     0.045 A   
ATOM     18  C8  UNL     1      -5.244  -1.597   1.958  1.00  0.00     0.037 A   
ATOM     19  C10 UNL     1      -5.145   0.307   3.419  1.00  0.00     0.109 A   
ATOM     20  C9  UNL     1      -5.780  -0.821   2.962  1.00  0.00     0.108 A   
ATOM     21  O1  UNL     1      -5.836   0.927   4.411  1.00  0.00    -0.316 OA  
ATOM     22  O2  UNL     1      -6.951  -1.054   3.610  1.00  0.00    -0.316 OA  
ATOM     23  C12 UNL     1      -6.992   0.066   4.519  1.00  0.00     0.337 C   
ENDBRANCH  14  15
ENDBRANCH  11  14
ENDBRANCH   7  11
ENDBRANCH   1   7
BRANCH   3  24
ATOM     24  C15 UNL     1       1.425  -1.227  -3.331  1.00  0.00     0.157 C   
BRANCH  24  25
ATOM     25  C16 UNL     1       0.428  -0.497  -4.252  1.00  0.00     0.186 C   
BRANCH  25  26
ATOM     26  O3  UNL     1       0.220   0.864  -3.871  1.00  0.00    -0.394 OA  
ATOM     27  H22 UNL     1      -0.354   1.261  -4.554  1.00  0.00     0.210 HD  
ENDBRANCH  25  26
ENDBRANCH  24  25
BRANCH  24  28
ATOM     28  C17 UNL     1       2.886  -0.831  -3.458  1.00  0.00    -0.005 A   
ATOM     29  C18 UNL     1       3.896  -1.784  -3.249  1.00  0.00     0.010 A   
ATOM     30  C21 UNL     1       3.301   0.470  -3.737  1.00  0.00     0.118 A   
ATOM     31  C19 UNL     1       5.237  -1.413  -3.333  1.00  0.00     0.041 A   
ATOM     32  N3  UNL     1       4.593   0.859  -3.809  1.00  0.00    -0.244 NA  
ATOM     33  C20 UNL     1       5.526  -0.092  -3.613  1.00  0.00     0.129 A   
ATOM     34  CL1 UNL     1       7.145   0.458  -3.713  1.00  0.00    -0.062 Cl  
ENDBRANCH  24  28
ENDBRANCH   3  24
TORSDOF 9
