REMARK SMILES CC(C)[C@H]([NH2+]Cc1ccc2c(c1)OCO2)c1cn([C@H](CO)c2ccc(Cl)nc2)nn1
REMARK SMILES IDX 16 1 17 2 18 3 29 4 30 5 4 7 2 8 1 9 3 10 5 11 6 14 7 15
REMARK SMILES IDX 8 16 12 17 9 18 11 19 10 20 13 21 15 22 14 23 19 24 20 25
REMARK SMILES IDX 21 26 22 28 23 29 28 30 24 31 27 32 25 33 26 34
REMARK H PARENT 17 6 5 12 5 13 21 27
ROOT
ATOM     1   C13 UNL     1      -0.908  -1.491  -0.345  1.00  0.00     0.127 A   
ATOM     2   C14 UNL     1      -0.919  -0.876   0.885  1.00  0.00     0.046 A   
ATOM     3   N2  UNL     1      -0.163  -1.697   1.679  1.00  0.00    -0.202 N   
ATOM     4   N4  UNL     1       0.320  -2.734   0.960  1.00  0.00    -0.075 NA  
ATOM     5   N5  UNL     1      -0.131  -2.619  -0.278  1.00  0.00    -0.132 NA  
ATOM     6   H18 UNL     1      -1.383   0.026   1.260  1.00  0.00     0.083 HD  
ENDROOT
BRANCH   1   7
ATOM     7   C4  UNL     1      -1.508  -1.095  -1.657  1.00  0.00     0.117 C   
BRANCH   7   8
ATOM     8   C2  UNL     1      -2.818  -1.860  -1.988  1.00  0.00     0.037 C   
ATOM     9   C1  UNL     1      -3.861  -1.719  -0.870  1.00  0.00     0.014 C   
ATOM     10  C3  UNL     1      -3.451  -1.364  -3.297  1.00  0.00     0.014 C   
ENDBRANCH   7   8
BRANCH   7  11
ATOM     11  N1  UNL     1      -0.480  -1.380  -2.739  1.00  0.00     0.249 N   
ATOM     12  H9  UNL     1       0.200  -2.032  -2.313  1.00  0.00     0.199 HD  
ATOM     13  H10 UNL     1      -0.889  -1.908  -3.514  1.00  0.00     0.199 HD  
BRANCH  11  14
ATOM     14  C5  UNL     1       0.267  -0.206  -3.267  1.00  0.00     0.164 C   
BRANCH  14  15
ATOM     15  C6  UNL     1       1.053   0.532  -2.220  1.00  0.00    -0.002 A   
ATOM     16  C7  UNL     1       2.199  -0.056  -1.633  1.00  0.00     0.012 A   
ATOM     17  C11 UNL     1       0.635   1.804  -1.793  1.00  0.00     0.045 A   
ATOM     18  C8  UNL     1       2.915   0.609  -0.631  1.00  0.00     0.037 A   
ATOM     19  C10 UNL     1       1.361   2.430  -0.802  1.00  0.00     0.109 A   
ATOM     20  C9  UNL     1       2.470   1.851  -0.238  1.00  0.00     0.108 A   
ATOM     21  O1  UNL     1       1.087   3.652  -0.277  1.00  0.00    -0.316 OA  
ATOM     22  O2  UNL     1       3.040   2.638   0.708  1.00  0.00    -0.316 OA  
ATOM     23  C12 UNL     1       2.155   3.780   0.690  1.00  0.00     0.337 C   
ENDBRANCH  14  15
ENDBRANCH  11  14
ENDBRANCH   7  11
ENDBRANCH   1   7
BRANCH   3  24
ATOM     24  C15 UNL     1       0.148  -1.588   3.102  1.00  0.00     0.157 C   
BRANCH  24  25
ATOM     25  C16 UNL     1      -1.107  -1.701   3.993  1.00  0.00     0.186 C   
BRANCH  25  26
ATOM     26  O3  UNL     1      -2.072  -0.681   3.740  1.00  0.00    -0.394 OA  
ATOM     27  H22 UNL     1      -2.784  -0.791   4.399  1.00  0.00     0.210 HD  
ENDBRANCH  25  26
ENDBRANCH  24  25
BRANCH  24  28
ATOM     28  C17 UNL     1       1.056  -0.403   3.371  1.00  0.00    -0.005 A   
ATOM     29  C18 UNL     1       2.450  -0.573   3.389  1.00  0.00     0.010 A   
ATOM     30  C21 UNL     1       0.579   0.887   3.596  1.00  0.00     0.118 A   
ATOM     31  C19 UNL     1       3.284   0.511   3.654  1.00  0.00     0.041 A   
ATOM     32  N3  UNL     1       1.364   1.959   3.844  1.00  0.00    -0.244 NA  
ATOM     33  C20 UNL     1       2.694   1.740   3.880  1.00  0.00     0.129 A   
ATOM     34  CL1 UNL     1       3.640   3.127   4.221  1.00  0.00    -0.062 Cl  
ENDBRANCH  24  28
ENDBRANCH   3  24
TORSDOF 9
