REMARK SMILES Cc1ccc(-n2cc([C@@H]([NH2+]Cc3ccc4c(c3)OCO4)C(C)(C)C)nn2)c(N([O-])[O-])c1
REMARK SMILES IDX 6 1 7 2 8 3 25 4 26 5 5 6 2 7 3 8 31 9 4 10 27 11 1 12 28 13
REMARK SMILES IDX 29 14 30 15 9 16 10 17 11 20 12 21 13 22 17 23 14 24 16 25
REMARK SMILES IDX 15 26 18 27 20 28 19 29 21 30 22 31 23 32 24 33
REMARK H PARENT 10 18 10 19
ROOT
ATOM     1   N1  UNL     1      -1.786   1.033   1.553  1.00  0.00    -0.178 N   
ATOM     2   C6  UNL     1      -0.551   0.594   1.120  1.00  0.00     0.135 A   
ATOM     3   C7  UNL     1      -0.165   1.494   0.152  1.00  0.00     0.128 A   
ATOM     4   N3  UNL     1      -1.111   2.470   0.051  1.00  0.00    -0.131 NA  
ATOM     5   N4  UNL     1      -2.058   2.215   0.939  1.00  0.00    -0.071 NA  
ENDROOT
BRANCH   1   6
ATOM     6   C5  UNL     1      -2.696   0.462   2.482  1.00  0.00     0.086 A   
ATOM     7   C2  UNL     1      -4.478  -0.523   4.457  1.00  0.00    -0.049 A   
ATOM     8   C3  UNL     1      -4.508   0.822   4.073  1.00  0.00     0.005 A   
ATOM     9   C22 UNL     1      -3.590  -1.391   3.815  1.00  0.00     0.036 A   
ATOM     10  C4  UNL     1      -3.631   1.312   3.097  1.00  0.00     0.028 A   
ATOM     11  C21 UNL     1      -2.715  -0.896   2.833  1.00  0.00     0.141 A   
ATOM     12  C1  UNL     1      -5.444  -1.041   5.484  1.00  0.00     0.044 C   
BRANCH  11  13
ATOM     13  N5  UNL     1      -1.951  -1.888   2.103  1.00  0.00     0.094 N   
ATOM     14  O3  UNL     1      -2.118  -1.938   0.876  1.00  0.00    -0.138 OA  
ATOM     15  O4  UNL     1      -1.153  -2.576   2.750  1.00  0.00    -0.138 OA  
ENDBRANCH  11  13
ENDBRANCH   1   6
BRANCH   3  16
ATOM     16  C8  UNL     1       1.015   1.488  -0.773  1.00  0.00     0.120 C   
BRANCH  16  17
ATOM     17  N2  UNL     1       0.550   1.851  -2.170  1.00  0.00     0.250 N   
ATOM     18  H8  UNL     1       1.346   2.038  -2.783  1.00  0.00     0.199 HD  
ATOM     19  H9  UNL     1       0.018   2.728  -2.086  1.00  0.00     0.199 HD  
BRANCH  17  20
ATOM     20  C9  UNL     1      -0.342   0.859  -2.850  1.00  0.00     0.164 C   
BRANCH  20  21
ATOM     21  C10 UNL     1       0.338  -0.455  -3.117  1.00  0.00    -0.002 A   
ATOM     22  C11 UNL     1      -0.038  -1.612  -2.393  1.00  0.00     0.012 A   
ATOM     23  C15 UNL     1       1.374  -0.539  -4.064  1.00  0.00     0.045 A   
ATOM     24  C12 UNL     1       0.612  -2.833  -2.600  1.00  0.00     0.037 A   
ATOM     25  C14 UNL     1       1.993  -1.758  -4.243  1.00  0.00     0.109 A   
ATOM     26  C13 UNL     1       1.625  -2.873  -3.531  1.00  0.00     0.108 A   
ATOM     27  O1  UNL     1       3.011  -2.007  -5.108  1.00  0.00    -0.316 OA  
ATOM     28  O2  UNL     1       2.363  -3.964  -3.859  1.00  0.00    -0.316 OA  
ATOM     29  C16 UNL     1       3.222  -3.420  -4.884  1.00  0.00     0.337 C   
ENDBRANCH  20  21
ENDBRANCH  17  20
ENDBRANCH  16  17
BRANCH  16  30
ATOM     30  C17 UNL     1       2.191   2.427  -0.325  1.00  0.00     0.010 C   
ATOM     31  C18 UNL     1       3.417   2.225  -1.247  1.00  0.00     0.017 C   
ATOM     32  C19 UNL     1       1.814   3.921  -0.347  1.00  0.00     0.017 C   
ATOM     33  C20 UNL     1       2.642   2.061   1.108  1.00  0.00     0.017 C   
ENDBRANCH  16  30
ENDBRANCH   3  16
TORSDOF 7
