REMARK SMILES CC(C)C[C@H]([NH2+]Cc1ccc2c(c1)OCO2)c1cn(Cc2ccc(N([O-])[O-])c(F)c2)nn1
REMARK SMILES IDX 17 1 18 2 19 3 31 4 32 5 5 7 4 8 2 9 1 10 3 11 6 12 7 15
REMARK SMILES IDX 8 16 9 17 13 18 10 19 12 20 11 21 14 22 16 23 15 24 20 25
REMARK SMILES IDX 21 26 22 27 30 28 23 29 28 30 24 31 29 32 25 33 26 34 27 35
REMARK H PARENT 18 6 6 13 6 14
ROOT
ATOM     1   C14 UNL     1       1.958   0.090   1.231  1.00  0.00     0.127 A   
ATOM     2   C15 UNL     1       2.020  -0.696   0.101  1.00  0.00     0.046 A   
ATOM     3   N2  UNL     1       2.163  -1.966   0.590  1.00  0.00    -0.208 N   
ATOM     4   N4  UNL     1       2.190  -1.960   1.936  1.00  0.00    -0.076 NA  
ATOM     5   N5  UNL     1       2.078  -0.706   2.340  1.00  0.00    -0.132 NA  
ATOM     6   H20 UNL     1       1.949  -0.485  -0.957  1.00  0.00     0.083 HD  
ENDROOT
BRANCH   1   7
ATOM     7   C5  UNL     1       1.719   1.554   1.396  1.00  0.00     0.114 C   
BRANCH   7   8
ATOM     8   C4  UNL     1       3.015   2.336   1.684  1.00  0.00     0.064 C   
BRANCH   8   9
ATOM     9   C2  UNL     1       4.069   2.304   0.556  1.00  0.00    -0.012 C   
ATOM     10  C1  UNL     1       3.546   2.908  -0.748  1.00  0.00     0.007 C   
ATOM     11  C3  UNL     1       5.325   3.057   1.005  1.00  0.00     0.007 C   
ENDBRANCH   8   9
ENDBRANCH   7   8
BRANCH   7  12
ATOM     12  N1  UNL     1       0.787   1.813   2.565  1.00  0.00     0.249 N   
ATOM     13  H11 UNL     1       1.229   1.389   3.392  1.00  0.00     0.199 HD  
ATOM     14  H12 UNL     1       0.722   2.821   2.739  1.00  0.00     0.199 HD  
BRANCH  12  15
ATOM     15  C6  UNL     1      -0.593   1.245   2.466  1.00  0.00     0.164 C   
BRANCH  15  16
ATOM     16  C7  UNL     1      -1.355   1.722   1.262  1.00  0.00    -0.002 A   
ATOM     17  C8  UNL     1      -1.694   0.813   0.231  1.00  0.00     0.012 A   
ATOM     18  C12 UNL     1      -1.721   3.073   1.141  1.00  0.00     0.045 A   
ATOM     19  C9  UNL     1      -2.378   1.243  -0.911  1.00  0.00     0.037 A   
ATOM     20  C11 UNL     1      -2.391   3.464  -0.000  1.00  0.00     0.109 A   
ATOM     21  C10 UNL     1      -2.708   2.576  -0.998  1.00  0.00     0.108 A   
ATOM     22  O1  UNL     1      -2.806   4.727  -0.277  1.00  0.00    -0.316 OA  
ATOM     23  O2  UNL     1      -3.363   3.169  -2.029  1.00  0.00    -0.316 OA  
ATOM     24  C13 UNL     1      -3.454   4.528  -1.554  1.00  0.00     0.337 C   
ENDBRANCH  15  16
ENDBRANCH  12  15
ENDBRANCH   7  12
ENDBRANCH   1   7
BRANCH   3  25
ATOM     25  C16 UNL     1       2.181  -3.220  -0.148  1.00  0.00     0.169 C   
BRANCH  25  26
ATOM     26  C17 UNL     1       0.811  -3.527  -0.710  1.00  0.00    -0.026 A   
ATOM     27  C18 UNL     1       0.592  -3.544  -2.099  1.00  0.00     0.008 A   
ATOM     28  C22 UNL     1      -0.270  -3.782   0.154  1.00  0.00     0.047 A   
ATOM     29  C19 UNL     1      -0.685  -3.784  -2.614  1.00  0.00     0.035 A   
ATOM     30  C21 UNL     1      -1.544  -4.011  -0.357  1.00  0.00     0.152 A   
ATOM     31  C20 UNL     1      -1.746  -4.002  -1.728  1.00  0.00     0.153 A   
ATOM     32  F1  UNL     1      -2.547  -4.232   0.502  1.00  0.00    -0.205 F   
BRANCH  31  33
ATOM     33  N3  UNL     1      -3.080  -4.189  -2.250  1.00  0.00     0.095 N   
ATOM     34  O3  UNL     1      -3.212  -4.988  -3.184  1.00  0.00    -0.138 OA  
ATOM     35  O4  UNL     1      -3.980  -3.495  -1.761  1.00  0.00    -0.138 OA  
ENDBRANCH  31  33
ENDBRANCH  25  26
ENDBRANCH   3  25
TORSDOF 9
