REMARK SMILES Cn1nc(Cn2cc([C@@H]([NH2+]Cc3ccc4c(c3)OCO4)C3CCCCC3)nn2)c2c1CCC2
REMARK SMILES IDX 6 1 7 2 8 3 27 4 28 5 5 7 4 8 2 9 3 10 30 11 29 12 31 13
REMARK SMILES IDX 33 14 32 15 1 16 9 17 10 18 11 21 12 22 13 23 17 24 14 25
REMARK SMILES IDX 16 26 15 27 18 28 20 29 19 30 21 31 22 32 26 33 23 34 25 35
REMARK SMILES IDX 24 36
REMARK H PARENT 7 6 10 19 10 20
ROOT
ATOM     1   N3  UNL     1       1.377  -1.734   0.618  1.00  0.00    -0.206 N   
ATOM     2   C4  UNL     1       0.459  -0.748   0.372  1.00  0.00     0.046 A   
ATOM     3   C5  UNL     1       1.059   0.036  -0.586  1.00  0.00     0.127 A   
ATOM     4   N5  UNL     1       2.321  -0.444  -0.834  1.00  0.00    -0.132 NA  
ATOM     5   N6  UNL     1       2.510  -1.514  -0.080  1.00  0.00    -0.076 NA  
ATOM     6   H6  UNL     1      -0.508  -0.733   0.857  1.00  0.00     0.083 HD  
ENDROOT
BRANCH   1   7
ATOM     7   C3  UNL     1       1.263  -2.861   1.526  1.00  0.00     0.192 C   
BRANCH   7   8
ATOM     8   C2  UNL     1       0.228  -3.809   1.037  1.00  0.00     0.083 A   
ATOM     9   N1  UNL     1      -1.698  -4.742   0.840  1.00  0.00    -0.232 N   
ATOM     10  N2  UNL     1      -1.056  -3.705   1.447  1.00  0.00    -0.185 NA  
ATOM     11  C22 UNL     1      -0.862  -5.439   0.047  1.00  0.00     0.033 A   
ATOM     12  C21 UNL     1       0.374  -4.879   0.150  1.00  0.00    -0.004 A   
ATOM     13  C23 UNL     1      -0.947  -6.614  -0.832  1.00  0.00     0.054 C   
ATOM     14  C25 UNL     1       1.367  -5.595  -0.668  1.00  0.00     0.039 C   
ATOM     15  C24 UNL     1       0.450  -6.527  -1.542  1.00  0.00     0.011 C   
ATOM     16  C1  UNL     1      -3.095  -4.980   1.100  1.00  0.00     0.159 C   
ENDBRANCH   7   8
ENDBRANCH   1   7
BRANCH   3  17
ATOM     17  C6  UNL     1       0.583   1.260  -1.297  1.00  0.00     0.117 C   
BRANCH  17  18
ATOM     18  N4  UNL     1       1.763   2.151  -1.631  1.00  0.00     0.249 N   
ATOM     19  H8  UNL     1       2.483   1.530  -2.026  1.00  0.00     0.199 HD  
ATOM     20  H9  UNL     1       1.507   2.826  -2.357  1.00  0.00     0.199 HD  
BRANCH  18  21
ATOM     21  C7  UNL     1       2.392   2.872  -0.485  1.00  0.00     0.164 C   
BRANCH  21  22
ATOM     22  C8  UNL     1       1.522   3.970   0.058  1.00  0.00    -0.002 A   
ATOM     23  C9  UNL     1       1.344   5.171  -0.671  1.00  0.00     0.012 A   
ATOM     24  C13 UNL     1       0.853   3.800   1.283  1.00  0.00     0.045 A   
ATOM     25  C10 UNL     1       0.505   6.184  -0.193  1.00  0.00     0.037 A   
ATOM     26  C12 UNL     1       0.033   4.818   1.724  1.00  0.00     0.109 A   
ATOM     27  C11 UNL     1      -0.139   5.975   1.006  1.00  0.00     0.108 A   
ATOM     28  O1  UNL     1      -0.689   4.808   2.874  1.00  0.00    -0.316 OA  
ATOM     29  O2  UNL     1      -0.990   6.841   1.614  1.00  0.00    -0.316 OA  
ATOM     30  C14 UNL     1      -1.325   6.106   2.810  1.00  0.00     0.337 C   
ENDBRANCH  21  22
ENDBRANCH  18  21
ENDBRANCH  17  18
BRANCH  17  31
ATOM     31  C15 UNL     1      -0.194   0.971  -2.611  1.00  0.00     0.043 C   
ATOM     32  C16 UNL     1      -1.533   0.259  -2.337  1.00  0.00     0.010 C   
ATOM     33  C20 UNL     1       0.615   0.193  -3.668  1.00  0.00     0.010 C   
ATOM     34  C17 UNL     1      -2.333   0.049  -3.622  1.00  0.00     0.001 C   
ATOM     35  C19 UNL     1      -0.192  -0.025  -4.948  1.00  0.00     0.001 C   
ATOM     36  C18 UNL     1      -1.524  -0.711  -4.667  1.00  0.00     0.000 C   
ENDBRANCH  17  31
ENDBRANCH   3  17
TORSDOF 7
