REMARK SMILES O=C(Cn1cc([C@@H]([NH2+]Cc2ccc3c(c2)OCO3)C2CCCCC2)nn1)c1cccs1
REMARK SMILES IDX 4 1 5 2 6 3 25 4 26 5 3 7 2 8 1 9 27 10 28 11 31 12 29 13
REMARK SMILES IDX 30 14 7 15 8 16 9 19 10 20 11 21 15 22 12 23 14 24 13 25
REMARK SMILES IDX 16 26 18 27 17 28 19 29 20 30 24 31 21 32 23 33 22 34
REMARK H PARENT 5 6 8 17 8 18
ROOT
ATOM     1   N1  UNL     1       1.493   3.535   0.910  1.00  0.00    -0.204 N   
ATOM     2   C3  UNL     1       0.668   2.707   1.619  1.00  0.00     0.046 A   
ATOM     3   C4  UNL     1      -0.412   2.516   0.785  1.00  0.00     0.127 A   
ATOM     4   N3  UNL     1      -0.226   3.258  -0.357  1.00  0.00    -0.132 NA  
ATOM     5   N4  UNL     1       0.939   3.874  -0.267  1.00  0.00    -0.076 NA  
ATOM     6   H3  UNL     1       0.951   2.296   2.579  1.00  0.00     0.083 HD  
ENDROOT
BRANCH   1   7
ATOM     7   C2  UNL     1       2.832   3.984   1.245  1.00  0.00     0.215 C   
BRANCH   7   8
ATOM     8   C1  UNL     1       3.855   2.910   0.923  1.00  0.00     0.188 C   
ATOM     9   O1  UNL     1       3.517   1.722   0.902  1.00  0.00    -0.292 OA  
BRANCH   8  10
ATOM     10  C20 UNL     1       5.237   3.302   0.682  1.00  0.00     0.056 A   
ATOM     11  C21 UNL     1       6.282   2.463   0.335  1.00  0.00     0.020 A   
ATOM     12  S1  UNL     1       5.784   4.922   0.822  1.00  0.00    -0.094 S   
ATOM     13  C22 UNL     1       7.504   3.155   0.130  1.00  0.00     0.009 A   
ATOM     14  C23 UNL     1       7.372   4.509   0.354  1.00  0.00     0.046 A   
ENDBRANCH   8  10
ENDBRANCH   7   8
ENDBRANCH   1   7
BRANCH   3  15
ATOM     15  C5  UNL     1      -1.593   1.592   0.833  1.00  0.00     0.117 C   
BRANCH  15  16
ATOM     16  N2  UNL     1      -1.567   0.731  -0.406  1.00  0.00     0.249 N   
ATOM     17  H5  UNL     1      -1.565   1.390  -1.198  1.00  0.00     0.199 HD  
ATOM     18  H6  UNL     1      -2.435   0.196  -0.507  1.00  0.00     0.199 HD  
BRANCH  16  19
ATOM     19  C6  UNL     1      -0.384  -0.154  -0.616  1.00  0.00     0.164 C   
BRANCH  19  20
ATOM     20  C7  UNL     1      -0.578  -0.975  -1.864  1.00  0.00    -0.002 A   
ATOM     21  C8  UNL     1      -0.084  -0.504  -3.108  1.00  0.00     0.012 A   
ATOM     22  C12 UNL     1      -1.312  -2.172  -1.817  1.00  0.00     0.045 A   
ATOM     23  C9  UNL     1      -0.314  -1.221  -4.287  1.00  0.00     0.037 A   
ATOM     24  C11 UNL     1      -1.526  -2.845  -3.000  1.00  0.00     0.109 A   
ATOM     25  C10 UNL     1      -1.042  -2.385  -4.201  1.00  0.00     0.108 A   
ATOM     26  O2  UNL     1      -2.233  -4.000  -3.130  1.00  0.00    -0.316 OA  
ATOM     27  O3  UNL     1      -1.383  -3.196  -5.237  1.00  0.00    -0.316 OA  
ATOM     28  C13 UNL     1      -2.125  -4.228  -4.556  1.00  0.00     0.337 C   
ENDBRANCH  19  20
ENDBRANCH  16  19
ENDBRANCH  15  16
BRANCH  15  29
ATOM     29  C14 UNL     1      -1.756   0.748   2.128  1.00  0.00     0.043 C   
ATOM     30  C15 UNL     1      -2.808  -0.376   1.993  1.00  0.00     0.010 C   
ATOM     31  C19 UNL     1      -2.148   1.665   3.312  1.00  0.00     0.010 C   
ATOM     32  C16 UNL     1      -3.017  -1.141   3.298  1.00  0.00     0.001 C   
ATOM     33  C18 UNL     1      -2.350   0.889   4.612  1.00  0.00     0.001 C   
ATOM     34  C17 UNL     1      -3.386  -0.215   4.447  1.00  0.00     0.000 C   
ENDBRANCH  15  29
ENDBRANCH   3  15
TORSDOF 8
