REMARK SMILES Cc1cc(Cn2cc([C@@H]([NH2+]Cc3ccc4c(c3)OCO4)C3CCCC3)nn2)ccn1
REMARK SMILES IDX 6 1 7 2 8 3 26 4 27 5 5 7 4 8 2 9 3 10 30 11 29 12 28 13
REMARK SMILES IDX 1 14 9 15 10 16 11 19 12 20 13 21 17 22 14 23 16 24 15 25
REMARK SMILES IDX 18 26 20 27 19 28 21 29 22 30 25 31 23 32 24 33
REMARK H PARENT 7 6 10 17 10 18
ROOT
ATOM     1   N1  UNL     1      -1.836   1.261  -2.506  1.00  0.00    -0.208 N   
ATOM     2   C6  UNL     1      -0.808   1.048  -1.629  1.00  0.00     0.046 A   
ATOM     3   C7  UNL     1       0.004   0.149  -2.284  1.00  0.00     0.127 A   
ATOM     4   N3  UNL     1      -0.518  -0.114  -3.523  1.00  0.00    -0.132 NA  
ATOM     5   N4  UNL     1      -1.645   0.568  -3.646  1.00  0.00    -0.076 NA  
ATOM     6   H7  UNL     1      -0.783   1.492  -0.643  1.00  0.00     0.083 HD  
ENDROOT
BRANCH   1   7
ATOM     7   C5  UNL     1      -3.069   1.996  -2.277  1.00  0.00     0.169 C   
BRANCH   7   8
ATOM     8   C4  UNL     1      -4.030   1.151  -1.480  1.00  0.00    -0.025 A   
ATOM     9   C2  UNL     1      -4.986   0.446   0.615  1.00  0.00     0.038 A   
ATOM     10  C3  UNL     1      -4.139   1.296  -0.092  1.00  0.00     0.029 A   
ATOM     11  N5  UNL     1      -5.711  -0.522   0.010  1.00  0.00    -0.262 NA  
ATOM     12  C23 UNL     1      -5.614  -0.635  -1.330  1.00  0.00     0.111 A   
ATOM     13  C22 UNL     1      -4.794   0.163  -2.109  1.00  0.00     0.025 A   
ATOM     14  C1  UNL     1      -5.132   0.587   2.101  1.00  0.00     0.067 C   
ENDBRANCH   7   8
ENDBRANCH   1   7
BRANCH   3  15
ATOM     15  C8  UNL     1       1.212  -0.593  -1.818  1.00  0.00     0.117 C   
BRANCH  15  16
ATOM     16  N2  UNL     1       1.090  -2.063  -2.169  1.00  0.00     0.249 N   
ATOM     17  H9  UNL     1       1.950  -2.558  -1.918  1.00  0.00     0.199 HD  
ATOM     18  H10 UNL     1       0.993  -2.111  -3.192  1.00  0.00     0.199 HD  
BRANCH  16  19
ATOM     19  C9  UNL     1      -0.075  -2.798  -1.584  1.00  0.00     0.164 C   
BRANCH  19  20
ATOM     20  C10 UNL     1      -0.108  -2.770  -0.081  1.00  0.00    -0.002 A   
ATOM     21  C11 UNL     1       0.857  -3.479   0.673  1.00  0.00     0.012 A   
ATOM     22  C15 UNL     1      -1.087  -2.010   0.585  1.00  0.00     0.045 A   
ATOM     23  C12 UNL     1       0.856  -3.424   2.072  1.00  0.00     0.037 A   
ATOM     24  C14 UNL     1      -1.056  -1.974   1.963  1.00  0.00     0.109 A   
ATOM     25  C13 UNL     1      -0.113  -2.661   2.686  1.00  0.00     0.108 A   
ATOM     26  O1  UNL     1      -1.912  -1.278   2.756  1.00  0.00    -0.316 OA  
ATOM     27  O2  UNL     1      -0.261  -2.491   4.025  1.00  0.00    -0.316 OA  
ATOM     28  C16 UNL     1      -1.442  -1.661   4.068  1.00  0.00     0.337 C   
ENDBRANCH  19  20
ENDBRANCH  16  19
ENDBRANCH  15  16
BRANCH  15  29
ATOM     29  C17 UNL     1       2.506  -0.050  -2.457  1.00  0.00     0.043 C   
ATOM     30  C18 UNL     1       2.797   1.410  -2.095  1.00  0.00     0.010 C   
ATOM     31  C21 UNL     1       3.784  -0.757  -1.989  1.00  0.00     0.010 C   
ATOM     32  C19 UNL     1       4.252   1.588  -2.499  1.00  0.00     0.001 C   
ATOM     33  C20 UNL     1       4.917   0.247  -2.202  1.00  0.00     0.001 C   
ENDBRANCH  15  29
ENDBRANCH   3  15
TORSDOF 7
