REMARK SMILES CC(C)(C)[C@H]([NH2+]Cc1ccc2c(c1)OCO2)c1cn(CCCc2ccccc2)nn1
REMARK SMILES IDX 17 1 18 2 19 3 29 4 30 5 5 7 2 8 1 9 3 10 4 11 6 12 7 15
REMARK SMILES IDX 8 16 9 17 13 18 10 19 12 20 11 21 14 22 16 23 15 24 20 25
REMARK SMILES IDX 21 26 22 27 23 28 24 29 28 30 25 31 27 32 26 33
REMARK H PARENT 18 6 6 13 6 14
ROOT
ATOM     1   C14 UNL     1       0.882  -1.417  -0.137  1.00  0.00     0.127 A   
ATOM     2   C15 UNL     1       0.363  -2.235  -1.116  1.00  0.00     0.045 A   
ATOM     3   N2  UNL     1      -0.436  -3.103  -0.429  1.00  0.00    -0.212 N   
ATOM     4   N3  UNL     1      -0.396  -2.855   0.892  1.00  0.00    -0.076 NA  
ATOM     5   N4  UNL     1       0.407  -1.823   1.085  1.00  0.00    -0.132 NA  
ATOM     6   H20 UNL     1       0.464  -2.264  -2.192  1.00  0.00     0.083 HD  
ENDROOT
BRANCH   1   7
ATOM     7   C5  UNL     1       1.742  -0.195  -0.224  1.00  0.00     0.120 C   
BRANCH   7   8
ATOM     8   C2  UNL     1       3.281  -0.480  -0.117  1.00  0.00     0.010 C   
ATOM     9   C1  UNL     1       3.716  -1.474  -1.218  1.00  0.00     0.017 C   
ATOM     10  C3  UNL     1       4.087   0.821  -0.344  1.00  0.00     0.017 C   
ATOM     11  C4  UNL     1       3.684  -1.065   1.251  1.00  0.00     0.017 C   
ENDBRANCH   7   8
BRANCH   7  12
ATOM     12  N1  UNL     1       1.312   0.777   0.851  1.00  0.00     0.250 N   
ATOM     13  H11 UNL     1       1.998   1.518   1.009  1.00  0.00     0.199 HD  
ATOM     14  H12 UNL     1       1.249   0.240   1.728  1.00  0.00     0.199 HD  
BRANCH  12  15
ATOM     15  C6  UNL     1      -0.025   1.400   0.635  1.00  0.00     0.164 C   
BRANCH  15  16
ATOM     16  C7  UNL     1      -0.339   2.360   1.748  1.00  0.00    -0.002 A   
ATOM     17  C8  UNL     1      -0.969   1.896   2.928  1.00  0.00     0.012 A   
ATOM     18  C12 UNL     1       0.044   3.708   1.649  1.00  0.00     0.045 A   
ATOM     19  C9  UNL     1      -1.221   2.765   3.996  1.00  0.00     0.037 A   
ATOM     20  C11 UNL     1      -0.218   4.536   2.720  1.00  0.00     0.109 A   
ATOM     21  C10 UNL     1      -0.831   4.079   3.861  1.00  0.00     0.108 A   
ATOM     22  O1  UNL     1       0.094   5.856   2.791  1.00  0.00    -0.316 OA  
ATOM     23  O2  UNL     1      -0.985   5.055   4.792  1.00  0.00    -0.316 OA  
ATOM     24  C13 UNL     1      -0.420   6.190   4.100  1.00  0.00     0.337 C   
ENDBRANCH  15  16
ENDBRANCH  12  15
ENDBRANCH   7  12
ENDBRANCH   1   7
BRANCH   3  25
ATOM     25  C16 UNL     1      -1.212  -4.207  -0.947  1.00  0.00     0.134 C   
BRANCH  25  26
ATOM     26  C17 UNL     1      -2.725  -3.982  -0.918  1.00  0.00     0.026 C   
BRANCH  26  27
ATOM     27  C18 UNL     1      -3.248  -3.088  -2.050  1.00  0.00     0.037 C   
BRANCH  27  28
ATOM     28  C19 UNL     1      -3.011  -1.604  -1.892  1.00  0.00    -0.048 A   
ATOM     29  C20 UNL     1      -3.519  -0.909  -0.786  1.00  0.00     0.004 A   
ATOM     30  C24 UNL     1      -2.372  -0.877  -2.907  1.00  0.00     0.004 A   
ATOM     31  C21 UNL     1      -3.397   0.480  -0.700  1.00  0.00     0.000 A   
ATOM     32  C23 UNL     1      -2.241   0.511  -2.816  1.00  0.00     0.000 A   
ATOM     33  C22 UNL     1      -2.761   1.190  -1.717  1.00  0.00     0.000 A   
ENDBRANCH  27  28
ENDBRANCH  26  27
ENDBRANCH  25  26
ENDBRANCH   3  25
TORSDOF 9
