REMARK SMILES Cc1ccc(O)c(Cn2cc([C@@H]([NH2+]Cc3ccc4c(c3)OCO4)C3CCCCC3)nn2)n1
REMARK SMILES IDX 9 1 10 2 11 3 30 4 31 5 8 7 7 8 2 9 3 10 32 11 4 12 5 13
REMARK SMILES IDX 1 14 6 15 12 17 13 18 14 21 15 22 16 23 20 24 17 25 19 26
REMARK SMILES IDX 18 27 21 28 23 29 22 30 24 31 25 32 29 33 26 34 28 35 27 36
REMARK H PARENT 10 6 6 16 13 19 13 20
ROOT
ATOM     1   N1  UNL     1       0.938   0.541  -2.599  1.00  0.00    -0.206 N   
ATOM     2   C8  UNL     1       0.465  -0.349  -1.670  1.00  0.00     0.046 A   
ATOM     3   C9  UNL     1      -0.736   0.188  -1.272  1.00  0.00     0.127 A   
ATOM     4   N3  UNL     1      -0.958   1.356  -1.958  1.00  0.00    -0.132 NA  
ATOM     5   N4  UNL     1       0.063   1.554  -2.774  1.00  0.00    -0.076 NA  
ATOM     6   H9  UNL     1       1.025  -1.230  -1.386  1.00  0.00     0.083 HD  
ENDROOT
BRANCH   1   7
ATOM     7   C7  UNL     1       2.132   0.436  -3.416  1.00  0.00     0.192 C   
BRANCH   7   8
ATOM     8   C6  UNL     1       3.374   0.455  -2.571  1.00  0.00     0.090 A   
ATOM     9   C2  UNL     1       4.969  -0.776  -1.397  1.00  0.00     0.038 A   
ATOM     10  C3  UNL     1       5.676   0.377  -1.080  1.00  0.00     0.026 A   
ATOM     11  N5  UNL     1       3.827  -0.752  -2.126  1.00  0.00    -0.254 NA  
ATOM     12  C4  UNL     1       5.189   1.609  -1.514  1.00  0.00     0.037 A   
ATOM     13  C5  UNL     1       4.024   1.649  -2.268  1.00  0.00     0.095 A   
ATOM     14  C1  UNL     1       5.472  -2.116  -0.947  1.00  0.00     0.067 C   
BRANCH  13  15
ATOM     15  O1  UNL     1       3.523   2.838  -2.715  1.00  0.00    -0.359 OA  
ATOM     16  H6  UNL     1       4.129   3.554  -2.457  1.00  0.00     0.218 HD  
ENDBRANCH  13  15
ENDBRANCH   7   8
ENDBRANCH   1   7
BRANCH   3  17
ATOM     17  C10 UNL     1      -1.717  -0.235  -0.229  1.00  0.00     0.117 C   
BRANCH  17  18
ATOM     18  N2  UNL     1      -2.298   1.006   0.426  1.00  0.00     0.249 N   
ATOM     19  H11 UNL     1      -3.310   0.912   0.552  1.00  0.00     0.199 HD  
ATOM     20  H12 UNL     1      -2.170   1.765  -0.263  1.00  0.00     0.199 HD  
BRANCH  18  21
ATOM     21  C11 UNL     1      -1.681   1.425   1.716  1.00  0.00     0.164 C   
BRANCH  21  22
ATOM     22  C12 UNL     1      -0.203   1.693   1.650  1.00  0.00    -0.002 A   
ATOM     23  C13 UNL     1       0.305   2.778   0.896  1.00  0.00     0.012 A   
ATOM     24  C17 UNL     1       0.692   0.855   2.337  1.00  0.00     0.045 A   
ATOM     25  C14 UNL     1       1.682   3.025   0.822  1.00  0.00     0.037 A   
ATOM     26  C16 UNL     1       2.041   1.128   2.248  1.00  0.00     0.109 A   
ATOM     27  C15 UNL     1       2.525   2.185   1.513  1.00  0.00     0.108 A   
ATOM     28  O2  UNL     1       3.029   0.424   2.860  1.00  0.00    -0.316 OA  
ATOM     29  O3  UNL     1       3.879   2.283   1.575  1.00  0.00    -0.316 OA  
ATOM     30  C18 UNL     1       4.191   1.190   2.465  1.00  0.00     0.337 C   
ENDBRANCH  21  22
ENDBRANCH  18  21
ENDBRANCH  17  18
BRANCH  17  31
ATOM     31  C19 UNL     1      -2.884  -1.105  -0.767  1.00  0.00     0.043 C   
ATOM     32  C20 UNL     1      -3.722  -0.435  -1.875  1.00  0.00     0.010 C   
ATOM     33  C24 UNL     1      -2.385  -2.484  -1.244  1.00  0.00     0.010 C   
ATOM     34  C21 UNL     1      -4.873  -1.332  -2.327  1.00  0.00     0.001 C   
ATOM     35  C23 UNL     1      -3.540  -3.377  -1.692  1.00  0.00     0.001 C   
ATOM     36  C22 UNL     1      -4.380  -2.705  -2.773  1.00  0.00     0.000 C   
ENDBRANCH  17  31
ENDBRANCH   3  17
TORSDOF 8
