REMARK SMILES CC(C)(C)[C@H]([NH2+]Cc1ccc2c(c1)OCO2)c1cn([C@H](CO)c2ccc(O)cc2F)nn1
REMARK SMILES IDX 17 1 18 2 19 3 31 4 32 5 5 7 2 8 1 9 3 10 4 11 6 12 7 15
REMARK SMILES IDX 8 16 9 17 13 18 10 19 12 20 11 21 14 22 16 23 15 24 20 25
REMARK SMILES IDX 21 26 22 27 23 29 24 30 29 31 25 32 28 33 26 34 30 35 27 36
REMARK H PARENT 18 6 6 13 6 14 22 28 27 37
ROOT
ATOM     1   C14 UNL     1       0.617   0.465  -0.590  1.00  0.00     0.127 A   
ATOM     2   C15 UNL     1       0.922   1.767  -0.916  1.00  0.00     0.046 A   
ATOM     3   N2  UNL     1      -0.299   2.380  -1.024  1.00  0.00    -0.202 N   
ATOM     4   N3  UNL     1      -1.294   1.512  -0.737  1.00  0.00    -0.075 NA  
ATOM     5   N4  UNL     1      -0.745   0.338  -0.471  1.00  0.00    -0.132 NA  
ATOM     6   H20 UNL     1       1.848   2.295  -1.094  1.00  0.00     0.083 HD  
ENDROOT
BRANCH   1   7
ATOM     7   C5  UNL     1       1.496  -0.713  -0.299  1.00  0.00     0.120 C   
BRANCH   7   8
ATOM     8   C2  UNL     1       1.814  -1.602  -1.552  1.00  0.00     0.010 C   
ATOM     9   C1  UNL     1       2.451  -0.745  -2.670  1.00  0.00     0.017 C   
ATOM     10  C3  UNL     1       0.560  -2.291  -2.126  1.00  0.00     0.017 C   
ATOM     11  C4  UNL     1       2.844  -2.697  -1.185  1.00  0.00     0.017 C   
ENDBRANCH   7   8
BRANCH   7  12
ATOM     12  N1  UNL     1       0.845  -1.542   0.783  1.00  0.00     0.250 N   
ATOM     13  H11 UNL     1       1.213  -2.496   0.824  1.00  0.00     0.199 HD  
ATOM     14  H12 UNL     1      -0.150  -1.628   0.526  1.00  0.00     0.199 HD  
BRANCH  12  15
ATOM     15  C6  UNL     1       0.892  -0.953   2.151  1.00  0.00     0.164 C   
BRANCH  15  16
ATOM     16  C7  UNL     1       0.136  -1.820   3.118  1.00  0.00    -0.002 A   
ATOM     17  C8  UNL     1      -1.260  -1.651   3.278  1.00  0.00     0.012 A   
ATOM     18  C12 UNL     1       0.797  -2.839   3.823  1.00  0.00     0.045 A   
ATOM     19  C9  UNL     1      -1.989  -2.478   4.140  1.00  0.00     0.037 A   
ATOM     20  C11 UNL     1       0.048  -3.637   4.664  1.00  0.00     0.109 A   
ATOM     21  C10 UNL     1      -1.305  -3.462   4.819  1.00  0.00     0.108 A   
ATOM     22  O1  UNL     1       0.529  -4.662   5.415  1.00  0.00    -0.316 OA  
ATOM     23  O2  UNL     1      -1.846  -4.353   5.689  1.00  0.00    -0.316 OA  
ATOM     24  C13 UNL     1      -0.676  -5.100   6.084  1.00  0.00     0.337 C   
ENDBRANCH  15  16
ENDBRANCH  12  15
ENDBRANCH   7  12
ENDBRANCH   1   7
BRANCH   3  25
ATOM     25  C16 UNL     1      -0.573   3.764  -1.411  1.00  0.00     0.158 C   
BRANCH  25  26
ATOM     26  C17 UNL     1      -1.416   4.492  -0.349  1.00  0.00     0.186 C   
BRANCH  26  27
ATOM     27  O3  UNL     1      -0.644   4.696   0.839  1.00  0.00    -0.394 OA  
ATOM     28  H24 UNL     1      -1.184   5.244   1.439  1.00  0.00     0.210 HD  
ENDBRANCH  26  27
ENDBRANCH  25  26
BRANCH  25  29
ATOM     29  C18 UNL     1      -1.131   3.796  -2.821  1.00  0.00     0.013 A   
ATOM     30  C19 UNL     1      -2.507   3.806  -3.105  1.00  0.00     0.011 A   
ATOM     31  C23 UNL     1      -0.235   3.770  -3.900  1.00  0.00     0.131 A   
ATOM     32  C20 UNL     1      -2.958   3.818  -4.429  1.00  0.00     0.034 A   
ATOM     33  C22 UNL     1      -0.675   3.780  -5.217  1.00  0.00     0.072 A   
ATOM     34  C21 UNL     1      -2.038   3.807  -5.473  1.00  0.00     0.074 A   
ATOM     35  F1  UNL     1       1.083   3.724  -3.659  1.00  0.00    -0.207 F   
BRANCH  34  36
ATOM     36  O4  UNL     1      -2.436   3.815  -6.775  1.00  0.00    -0.361 OA  
ATOM     37  H27 UNL     1      -3.405   3.876  -6.818  1.00  0.00     0.218 HD  
ENDBRANCH  34  36
ENDBRANCH  25  29
ENDBRANCH   3  25
TORSDOF 10
