REMARK SMILES CC(C)(C)[C@H]([NH2+]Cc1ccc2c(c1)OCO2)c1cn([C@@H](CO)c2ccc(O)cc2F)nn1
REMARK SMILES IDX 17 1 18 2 19 3 31 4 32 5 5 7 2 8 1 9 3 10 4 11 6 12 7 15
REMARK SMILES IDX 8 16 9 17 13 18 10 19 12 20 11 21 14 22 16 23 15 24 20 25
REMARK SMILES IDX 21 26 22 27 23 29 24 30 29 31 25 32 28 33 26 34 30 35 27 36
REMARK H PARENT 18 6 6 13 6 14 22 28 27 37
ROOT
ATOM     1   C14 UNL     1       1.310  -0.219  -1.295  1.00  0.00     0.127 A   
ATOM     2   C15 UNL     1       2.670  -0.026  -1.365  1.00  0.00     0.046 A   
ATOM     3   N2  UNL     1       2.849   1.255  -0.914  1.00  0.00    -0.202 N   
ATOM     4   N3  UNL     1       1.673   1.796  -0.535  1.00  0.00    -0.075 NA  
ATOM     5   N4  UNL     1       0.725   0.902  -0.762  1.00  0.00    -0.132 NA  
ATOM     6   H20 UNL     1       3.494  -0.635  -1.705  1.00  0.00     0.083 HD  
ENDROOT
BRANCH   1   7
ATOM     7   C5  UNL     1       0.450  -1.399  -1.638  1.00  0.00     0.120 C   
BRANCH   7   8
ATOM     8   C2  UNL     1      -0.047  -1.420  -3.124  1.00  0.00     0.010 C   
ATOM     9   C1  UNL     1      -0.979  -0.236  -3.454  1.00  0.00     0.017 C   
ATOM     10  C3  UNL     1       1.157  -1.374  -4.093  1.00  0.00     0.017 C   
ATOM     11  C4  UNL     1      -0.804  -2.737  -3.418  1.00  0.00     0.017 C   
ENDBRANCH   7   8
BRANCH   7  12
ATOM     12  N1  UNL     1      -0.729  -1.410  -0.691  1.00  0.00     0.250 N   
ATOM     13  H11 UNL     1      -1.561  -1.851  -1.096  1.00  0.00     0.199 HD  
ATOM     14  H12 UNL     1      -0.983  -0.417  -0.540  1.00  0.00     0.199 HD  
BRANCH  12  15
ATOM     15  C6  UNL     1      -0.459  -2.000   0.650  1.00  0.00     0.164 C   
BRANCH  15  16
ATOM     16  C7  UNL     1      -1.611  -1.742   1.582  1.00  0.00    -0.002 A   
ATOM     17  C8  UNL     1      -1.508  -0.741   2.576  1.00  0.00     0.012 A   
ATOM     18  C12 UNL     1      -2.818  -2.449   1.434  1.00  0.00     0.045 A   
ATOM     19  C9  UNL     1      -2.585  -0.452   3.419  1.00  0.00     0.037 A   
ATOM     20  C11 UNL     1      -3.867  -2.126   2.270  1.00  0.00     0.109 A   
ATOM     21  C10 UNL     1      -3.752  -1.159   3.237  1.00  0.00     0.108 A   
ATOM     22  O1  UNL     1      -5.111  -2.678   2.232  1.00  0.00    -0.316 OA  
ATOM     23  O2  UNL     1      -4.903  -0.994   3.941  1.00  0.00    -0.316 OA  
ATOM     24  C13 UNL     1      -5.764  -1.952   3.299  1.00  0.00     0.337 C   
ENDBRANCH  15  16
ENDBRANCH  12  15
ENDBRANCH   7  12
ENDBRANCH   1   7
BRANCH   3  25
ATOM     25  C16 UNL     1       4.102   2.013  -0.841  1.00  0.00     0.158 C   
BRANCH  25  26
ATOM     26  C17 UNL     1       4.108   3.131  -1.898  1.00  0.00     0.186 C   
BRANCH  26  27
ATOM     27  O3  UNL     1       4.184   2.568  -3.210  1.00  0.00    -0.394 OA  
ATOM     28  H24 UNL     1       4.151   3.308  -3.845  1.00  0.00     0.210 HD  
ENDBRANCH  26  27
ENDBRANCH  25  26
BRANCH  25  29
ATOM     29  C18 UNL     1       4.364   2.450   0.588  1.00  0.00     0.013 A   
ATOM     30  C19 UNL     1       4.118   3.751   1.057  1.00  0.00     0.011 A   
ATOM     31  C23 UNL     1       4.848   1.500   1.502  1.00  0.00     0.131 A   
ATOM     32  C20 UNL     1       4.374   4.086   2.390  1.00  0.00     0.034 A   
ATOM     33  C22 UNL     1       5.100   1.823   2.829  1.00  0.00     0.072 A   
ATOM     34  C21 UNL     1       4.865   3.120   3.263  1.00  0.00     0.074 A   
ATOM     35  F1  UNL     1       5.080   0.247   1.088  1.00  0.00    -0.207 F   
BRANCH  34  36
ATOM     36  O4  UNL     1       5.124   3.409   4.569  1.00  0.00    -0.361 OA  
ATOM     37  H27 UNL     1       5.080   4.370   4.699  1.00  0.00     0.218 HD  
ENDBRANCH  34  36
ENDBRANCH  25  29
ENDBRANCH   3  25
TORSDOF 10
