REMARK SMILES [O-]N([O-])c1ccc(F)c(-n2cc([C@@H]([NH2+]Cc3ccc4c(c3)OCO4)C3CCCC3)nn2)c1
REMARK SMILES IDX 10 1 11 2 12 3 30 4 31 5 9 6 4 7 5 8 32 9 6 10 7 11 8 12
REMARK SMILES IDX 2 13 1 14 3 15 13 16 14 17 15 20 16 21 17 22 21 23 18 24
REMARK SMILES IDX 20 25 19 26 22 27 24 28 23 29 25 30 26 31 29 32 27 33 28 34
REMARK H PARENT 14 18 14 19
ROOT
ATOM     1   N2  UNL     1      -1.261  -0.470  -1.920  1.00  0.00    -0.178 N   
ATOM     2   C6  UNL     1      -0.005  -0.251  -1.390  1.00  0.00     0.135 A   
ATOM     3   C7  UNL     1      -0.030  -0.849  -0.150  1.00  0.00     0.127 A   
ATOM     4   N4  UNL     1      -1.229  -1.477   0.019  1.00  0.00    -0.131 NA  
ATOM     5   N5  UNL     1      -1.963  -1.250  -1.057  1.00  0.00    -0.071 NA  
ENDROOT
BRANCH   1   6
ATOM     6   C5  UNL     1      -1.849   0.022  -3.110  1.00  0.00     0.095 A   
ATOM     7   C1  UNL     1      -3.807   0.267  -4.530  1.00  0.00     0.120 A   
ATOM     8   C2  UNL     1      -3.069   1.028  -5.444  1.00  0.00     0.034 A   
ATOM     9   C22 UNL     1      -3.207  -0.245  -3.369  1.00  0.00     0.060 A   
ATOM     10  C3  UNL     1      -1.722   1.286  -5.183  1.00  0.00     0.043 A   
ATOM     11  C4  UNL     1      -1.122   0.791  -4.024  1.00  0.00     0.146 A   
ATOM     12  F1  UNL     1       0.171   1.079  -3.831  1.00  0.00    -0.205 F   
BRANCH   7  13
ATOM     13  N1  UNL     1      -5.232   0.022  -4.777  1.00  0.00     0.092 N   
ATOM     14  O1  UNL     1      -5.925  -0.317  -3.808  1.00  0.00    -0.138 OA  
ATOM     15  O2  UNL     1      -5.650   0.185  -5.930  1.00  0.00    -0.138 OA  
ENDBRANCH   7  13
ENDBRANCH   1   6
BRANCH   3  16
ATOM     16  C8  UNL     1       0.944  -0.809   0.982  1.00  0.00     0.117 C   
BRANCH  16  17
ATOM     17  N3  UNL     1       0.198  -0.494   2.267  1.00  0.00     0.249 N   
ATOM     18  H5  UNL     1       0.650  -0.937   3.070  1.00  0.00     0.199 HD  
ATOM     19  H6  UNL     1      -0.726  -0.947   2.179  1.00  0.00     0.199 HD  
BRANCH  17  20
ATOM     20  C9  UNL     1      -0.013   0.953   2.581  1.00  0.00     0.164 C   
BRANCH  20  21
ATOM     21  C10 UNL     1      -0.897   1.673   1.601  1.00  0.00    -0.002 A   
ATOM     22  C11 UNL     1      -0.349   2.611   0.692  1.00  0.00     0.012 A   
ATOM     23  C15 UNL     1      -2.272   1.382   1.544  1.00  0.00     0.045 A   
ATOM     24  C12 UNL     1      -1.148   3.221  -0.282  1.00  0.00     0.037 A   
ATOM     25  C14 UNL     1      -3.030   2.000   0.571  1.00  0.00     0.109 A   
ATOM     26  C13 UNL     1      -2.483   2.887  -0.323  1.00  0.00     0.108 A   
ATOM     27  O3  UNL     1      -4.358   1.807   0.364  1.00  0.00    -0.316 OA  
ATOM     28  O4  UNL     1      -3.396   3.353  -1.214  1.00  0.00    -0.316 OA  
ATOM     29  C16 UNL     1      -4.598   2.698  -0.747  1.00  0.00     0.337 C   
ENDBRANCH  20  21
ENDBRANCH  17  20
ENDBRANCH  16  17
BRANCH  16  30
ATOM     30  C17 UNL     1       1.683  -2.151   1.155  1.00  0.00     0.043 C   
ATOM     31  C18 UNL     1       2.510  -2.548  -0.073  1.00  0.00     0.010 C   
ATOM     32  C21 UNL     1       2.745  -2.146   2.262  1.00  0.00     0.010 C   
ATOM     33  C19 UNL     1       3.422  -3.646   0.453  1.00  0.00     0.001 C   
ATOM     34  C20 UNL     1       3.721  -3.265   1.899  1.00  0.00     0.001 C   
ENDBRANCH  16  30
ENDBRANCH   3  16
TORSDOF 7
