REMARK SMILES CC(C)[C@H]([NH2+]Cc1ccc2c(c1)OCO2)c1cn(CCc2ccncc2F)nn1
REMARK SMILES IDX 16 1 17 2 18 3 28 4 29 5 4 7 2 8 1 9 3 10 5 11 6 14 7 15
REMARK SMILES IDX 8 16 12 17 9 18 11 19 10 20 13 21 15 22 14 23 19 24 20 25
REMARK SMILES IDX 21 26 22 27 26 28 23 29 25 30 24 31 27 32
REMARK H PARENT 17 6 5 12 5 13
ROOT
ATOM     1   C13 UNL     1       1.299   2.037   0.315  1.00  0.00     0.127 A   
ATOM     2   C14 UNL     1       1.228   2.957  -0.707  1.00  0.00     0.045 A   
ATOM     3   N2  UNL     1       2.329   2.681  -1.470  1.00  0.00    -0.212 N   
ATOM     4   N4  UNL     1       3.054   1.686  -0.931  1.00  0.00    -0.076 NA  
ATOM     5   N5  UNL     1       2.433   1.279   0.162  1.00  0.00    -0.132 NA  
ATOM     6   H18 UNL     1       0.508   3.716  -0.979  1.00  0.00     0.083 HD  
ENDROOT
BRANCH   1   7
ATOM     7   C4  UNL     1       0.351   1.710   1.425  1.00  0.00     0.117 C   
BRANCH   7   8
ATOM     8   C2  UNL     1       0.619   2.549   2.700  1.00  0.00     0.037 C   
ATOM     9   C1  UNL     1       1.940   2.216   3.403  1.00  0.00     0.014 C   
ATOM     10  C3  UNL     1      -0.538   2.438   3.700  1.00  0.00     0.014 C   
ENDBRANCH   7   8
BRANCH   7  11
ATOM     11  N1  UNL     1       0.425   0.239   1.733  1.00  0.00     0.249 N   
ATOM     12  H9  UNL     1       1.428  -0.005   1.747  1.00  0.00     0.199 HD  
ATOM     13  H10 UNL     1       0.063   0.012   2.663  1.00  0.00     0.199 HD  
BRANCH  11  14
ATOM     14  C5  UNL     1      -0.221  -0.648   0.724  1.00  0.00     0.164 C   
BRANCH  14  15
ATOM     15  C6  UNL     1       0.106  -2.087   1.001  1.00  0.00    -0.002 A   
ATOM     16  C7  UNL     1       1.300  -2.651   0.487  1.00  0.00     0.012 A   
ATOM     17  C11 UNL     1      -0.736  -2.865   1.812  1.00  0.00     0.045 A   
ATOM     18  C8  UNL     1       1.644  -3.978   0.766  1.00  0.00     0.037 A   
ATOM     19  C10 UNL     1      -0.367  -4.169   2.067  1.00  0.00     0.109 A   
ATOM     20  C9  UNL     1       0.789  -4.711   1.559  1.00  0.00     0.108 A   
ATOM     21  O1  UNL     1      -1.066  -5.054   2.825  1.00  0.00    -0.316 OA  
ATOM     22  O2  UNL     1       0.962  -6.005   1.933  1.00  0.00    -0.316 OA  
ATOM     23  C12 UNL     1      -0.226  -6.226   2.723  1.00  0.00     0.337 C   
ENDBRANCH  14  15
ENDBRANCH  11  14
ENDBRANCH   7  11
ENDBRANCH   1   7
BRANCH   3  24
ATOM     24  C15 UNL     1       2.709   3.262  -2.740  1.00  0.00     0.139 C   
BRANCH  24  25
ATOM     25  C16 UNL     1       1.864   2.752  -3.911  1.00  0.00     0.060 C   
BRANCH  25  26
ATOM     26  C17 UNL     1       2.039   1.281  -4.192  1.00  0.00    -0.007 A   
ATOM     27  C18 UNL     1       3.095   0.820  -4.987  1.00  0.00     0.027 A   
ATOM     28  C21 UNL     1       1.167   0.335  -3.651  1.00  0.00     0.144 A   
ATOM     29  C19 UNL     1       3.222  -0.547  -5.202  1.00  0.00     0.111 A   
ATOM     30  C20 UNL     1       1.368  -1.008  -3.924  1.00  0.00     0.150 A   
ATOM     31  N3  UNL     1       2.382  -1.472  -4.686  1.00  0.00    -0.262 NA  
ATOM     32  F1  UNL     1       0.153   0.712  -2.857  1.00  0.00    -0.205 F   
ENDBRANCH  25  26
ENDBRANCH  24  25
ENDBRANCH   3  24
TORSDOF 8
