REMARK SMILES COc1c(F)cccc1Cn1cc([C@@H]([NH2+]Cc2ccc3c(c2)OCO3)C2CCCC2)nn1
REMARK SMILES IDX 11 1 12 2 13 3 31 4 32 5 10 7 9 8 3 9 4 10 6 11 8 12 7 13
REMARK SMILES IDX 5 14 2 15 1 16 14 17 15 18 16 21 17 22 18 23 22 24 19 25
REMARK SMILES IDX 21 26 20 27 23 28 25 29 24 30 26 31 27 32 30 33 28 34 29 35
REMARK H PARENT 12 6 15 19 15 20
ROOT
ATOM     1   N1  UNL     1      -2.675   0.696  -0.965  1.00  0.00    -0.208 N   
ATOM     2   C9  UNL     1      -1.334   0.478  -0.800  1.00  0.00     0.046 A   
ATOM     3   C10 UNL     1      -1.136   0.626   0.554  1.00  0.00     0.127 A   
ATOM     4   N3  UNL     1      -2.321   0.979   1.147  1.00  0.00    -0.132 NA  
ATOM     5   N4  UNL     1      -3.249   1.043   0.206  1.00  0.00    -0.076 NA  
ATOM     6   H9  UNL     1      -0.687   0.215  -1.627  1.00  0.00     0.083 HD  
ENDROOT
BRANCH   1   7
ATOM     7   C8  UNL     1      -3.456   0.637  -2.188  1.00  0.00     0.172 C   
BRANCH   7   8
ATOM     8   C7  UNL     1      -3.956  -0.764  -2.445  1.00  0.00     0.005 A   
ATOM     9   C2  UNL     1      -3.185  -1.698  -3.166  1.00  0.00     0.115 A   
ATOM     10  C3  UNL     1      -3.693  -2.990  -3.357  1.00  0.00     0.153 A   
ATOM     11  C4  UNL     1      -4.938  -3.358  -2.853  1.00  0.00     0.042 A   
ATOM     12  C6  UNL     1      -5.209  -1.150  -1.932  1.00  0.00     0.008 A   
ATOM     13  C5  UNL     1      -5.699  -2.439  -2.139  1.00  0.00     0.004 A   
ATOM     14  F1  UNL     1      -2.996  -3.926  -4.016  1.00  0.00    -0.204 F   
BRANCH   9  15
ATOM     15  O1  UNL     1      -1.970  -1.237  -3.608  1.00  0.00    -0.346 OA  
ATOM     16  C1  UNL     1      -1.250  -2.067  -4.516  1.00  0.00     0.203 C   
ENDBRANCH   9  15
ENDBRANCH   7   8
ENDBRANCH   1   7
BRANCH   3  17
ATOM     17  C11 UNL     1       0.095   0.502   1.391  1.00  0.00     0.117 C   
BRANCH  17  18
ATOM     18  N2  UNL     1       0.019   1.479   2.547  1.00  0.00     0.249 N   
ATOM     19  H11 UNL     1      -0.917   1.355   2.959  1.00  0.00     0.199 HD  
ATOM     20  H12 UNL     1       0.703   1.245   3.271  1.00  0.00     0.199 HD  
BRANCH  18  21
ATOM     21  C12 UNL     1       0.164   2.924   2.199  1.00  0.00     0.164 C   
BRANCH  21  22
ATOM     22  C13 UNL     1       1.566   3.281   1.789  1.00  0.00    -0.002 A   
ATOM     23  C14 UNL     1       2.594   3.373   2.758  1.00  0.00     0.012 A   
ATOM     24  C18 UNL     1       1.872   3.494   0.434  1.00  0.00     0.045 A   
ATOM     25  C15 UNL     1       3.909   3.670   2.385  1.00  0.00     0.037 A   
ATOM     26  C17 UNL     1       3.179   3.783   0.100  1.00  0.00     0.109 A   
ATOM     27  C16 UNL     1       4.169   3.867   1.047  1.00  0.00     0.108 A   
ATOM     28  O2  UNL     1       3.642   4.007  -1.158  1.00  0.00    -0.316 OA  
ATOM     29  O3  UNL     1       5.380   4.159   0.506  1.00  0.00    -0.316 OA  
ATOM     30  C19 UNL     1       5.038   4.276  -0.892  1.00  0.00     0.337 C   
ENDBRANCH  21  22
ENDBRANCH  18  21
ENDBRANCH  17  18
BRANCH  17  31
ATOM     31  C20 UNL     1       0.258  -0.919   1.970  1.00  0.00     0.043 C   
ATOM     32  C21 UNL     1       0.435  -2.000   0.899  1.00  0.00     0.010 C   
ATOM     33  C24 UNL     1       1.515  -1.107   2.832  1.00  0.00     0.010 C   
ATOM     34  C22 UNL     1       0.953  -3.192   1.688  1.00  0.00     0.001 C   
ATOM     35  C23 UNL     1       1.866  -2.593   2.750  1.00  0.00     0.001 C   
ENDBRANCH  17  31
ENDBRANCH   3  17
TORSDOF 8
