REMARK SMILES CC(C)C[C@H]([NH2+]Cc1ccc2c(c1)OCO2)c1cn(CCc2ccccn2)nn1
REMARK SMILES IDX 17 1 18 2 19 3 28 4 29 5 5 7 4 8 2 9 1 10 3 11 6 12 7 15
REMARK SMILES IDX 8 16 9 17 13 18 10 19 12 20 11 21 14 22 16 23 15 24 20 25
REMARK SMILES IDX 21 26 22 27 23 28 27 29 24 30 26 31 25 32
REMARK H PARENT 18 6 6 13 6 14
ROOT
ATOM     1   C14 UNL     1       1.407   0.983  -0.718  1.00  0.00     0.127 A   
ATOM     2   C15 UNL     1       1.542  -0.172  -1.453  1.00  0.00     0.045 A   
ATOM     3   N2  UNL     1       2.767  -0.652  -1.088  1.00  0.00    -0.212 N   
ATOM     4   N4  UNL     1       3.362   0.170  -0.202  1.00  0.00    -0.076 NA  
ATOM     5   N5  UNL     1       2.540   1.181   0.028  1.00  0.00    -0.132 NA  
ATOM     6   H20 UNL     1       0.895  -0.705  -2.138  1.00  0.00     0.083 HD  
ENDROOT
BRANCH   1   7
ATOM     7   C5  UNL     1       0.255   1.921  -0.580  1.00  0.00     0.114 C   
BRANCH   7   8
ATOM     8   C4  UNL     1       0.451   3.179  -1.452  1.00  0.00     0.064 C   
BRANCH   8   9
ATOM     9   C2  UNL     1      -0.826   3.787  -2.072  1.00  0.00    -0.012 C   
ATOM     10  C1  UNL     1      -1.864   4.218  -1.038  1.00  0.00     0.007 C   
ATOM     11  C3  UNL     1      -1.459   2.856  -3.110  1.00  0.00     0.007 C   
ENDBRANCH   8   9
ENDBRANCH   7   8
BRANCH   7  12
ATOM     12  N1  UNL     1       0.117   2.357   0.866  1.00  0.00     0.249 N   
ATOM     13  H11 UNL     1       1.037   2.731   1.138  1.00  0.00     0.199 HD  
ATOM     14  H12 UNL     1      -0.558   3.119   0.947  1.00  0.00     0.199 HD  
BRANCH  12  15
ATOM     15  C6  UNL     1      -0.228   1.286   1.850  1.00  0.00     0.164 C   
BRANCH  15  16
ATOM     16  C7  UNL     1      -1.571   0.664   1.596  1.00  0.00    -0.002 A   
ATOM     17  C8  UNL     1      -1.660  -0.639   1.052  1.00  0.00     0.012 A   
ATOM     18  C12 UNL     1      -2.747   1.390   1.854  1.00  0.00     0.045 A   
ATOM     19  C9  UNL     1      -2.902  -1.208   0.749  1.00  0.00     0.037 A   
ATOM     20  C11 UNL     1      -3.954   0.800   1.542  1.00  0.00     0.109 A   
ATOM     21  C10 UNL     1      -4.030  -0.460   1.002  1.00  0.00     0.108 A   
ATOM     22  O1  UNL     1      -5.176   1.369   1.707  1.00  0.00    -0.316 OA  
ATOM     23  O2  UNL     1      -5.311  -0.844   0.760  1.00  0.00    -0.316 OA  
ATOM     24  C13 UNL     1      -6.040   0.309   1.233  1.00  0.00     0.337 C   
ENDBRANCH  15  16
ENDBRANCH  12  15
ENDBRANCH   7  12
ENDBRANCH   1   7
BRANCH   3  25
ATOM     25  C16 UNL     1       3.415  -1.875  -1.513  1.00  0.00     0.140 C   
BRANCH  25  26
ATOM     26  C17 UNL     1       3.435  -2.941  -0.420  1.00  0.00     0.077 C   
BRANCH  26  27
ATOM     27  C18 UNL     1       2.070  -3.466  -0.037  1.00  0.00     0.042 A   
ATOM     28  C19 UNL     1       1.884  -4.055   1.213  1.00  0.00     0.024 A   
ATOM     29  N3  UNL     1       1.082  -3.415  -0.966  1.00  0.00    -0.261 NA  
ATOM     30  C20 UNL     1       0.644  -4.609   1.520  1.00  0.00     0.003 A   
ATOM     31  C22 UNL     1      -0.103  -3.987  -0.649  1.00  0.00     0.111 A   
ATOM     32  C21 UNL     1      -0.370  -4.584   0.571  1.00  0.00     0.020 A   
ENDBRANCH  26  27
ENDBRANCH  25  26
ENDBRANCH   3  25
TORSDOF 9
