REMARK SMILES Cc1nc(-n2cc([C@@H]([NH2+]Cc3ccc4c(c3)OCO4)C3CCCCC3)nn2)sc1C
REMARK SMILES IDX 8 1 7 2 5 3 6 4 27 5 26 6 4 7 2 8 3 9 29 10 28 11 1 12 30 13
REMARK SMILES IDX 9 14 10 17 11 18 12 19 16 20 13 21 15 22 14 23 17 24 19 25
REMARK SMILES IDX 18 26 20 27 21 28 25 29 22 30 24 31 23 32
REMARK H PARENT 9 15 9 16
ROOT
ATOM     1   C6  UNL     1      -1.192   0.263  -1.383  1.00  0.00     0.117 C   
ENDROOT
BRANCH   1   2
ATOM     2   C5  UNL     1      -0.198   1.225  -0.812  1.00  0.00     0.128 A   
ATOM     3   N2  UNL     1       1.422   2.244   0.242  1.00  0.00    -0.156 N   
ATOM     4   C4  UNL     1       1.077   1.036  -0.333  1.00  0.00     0.137 A   
ATOM     5   N5  UNL     1       0.411   3.132   0.055  1.00  0.00    -0.069 NA  
ATOM     6   N4  UNL     1      -0.580   2.518  -0.575  1.00  0.00    -0.131 NA  
BRANCH   3   7
ATOM     7   C3  UNL     1       2.570   2.561   0.960  1.00  0.00     0.185 A   
ATOM     8   C2  UNL     1       4.527   2.282   1.934  1.00  0.00     0.050 A   
ATOM     9   N1  UNL     1       3.527   1.685   1.177  1.00  0.00    -0.229 NA  
ATOM     10  C21 UNL     1       4.285   3.606   2.276  1.00  0.00     0.011 A   
ATOM     11  S1  UNL     1       2.779   4.110   1.621  1.00  0.00    -0.055 S   
ATOM     12  C1  UNL     1       5.721   1.471   2.296  1.00  0.00     0.068 C   
ATOM     13  C22 UNL     1       5.119   4.556   3.062  1.00  0.00     0.054 C   
ENDBRANCH   3   7
ENDBRANCH   1   2
BRANCH   1  14
ATOM     14  N3  UNL     1      -2.498   0.455  -0.625  1.00  0.00     0.249 N   
ATOM     15  H6  UNL     1      -2.488   1.431  -0.286  1.00  0.00     0.199 HD  
ATOM     16  H7  UNL     1      -3.307   0.407  -1.251  1.00  0.00     0.199 HD  
BRANCH  14  17
ATOM     17  C7  UNL     1      -2.731  -0.447   0.542  1.00  0.00     0.164 C   
BRANCH  17  18
ATOM     18  C8  UNL     1      -1.671  -0.359   1.606  1.00  0.00    -0.002 A   
ATOM     19  C9  UNL     1      -0.782  -1.441   1.819  1.00  0.00     0.012 A   
ATOM     20  C13 UNL     1      -1.520   0.815   2.366  1.00  0.00     0.045 A   
ATOM     21  C10 UNL     1       0.257  -1.348   2.752  1.00  0.00     0.037 A   
ATOM     22  C12 UNL     1      -0.480   0.877   3.270  1.00  0.00     0.109 A   
ATOM     23  C11 UNL     1       0.386  -0.172   3.456  1.00  0.00     0.108 A   
ATOM     24  O1  UNL     1      -0.172   1.947   4.048  1.00  0.00    -0.316 OA  
ATOM     25  O2  UNL     1       1.343   0.102   4.379  1.00  0.00    -0.316 OA  
ATOM     26  C14 UNL     1       0.981   1.446   4.762  1.00  0.00     0.337 C   
ENDBRANCH  17  18
ENDBRANCH  14  17
ENDBRANCH   1  14
BRANCH   1  27
ATOM     27  C15 UNL     1      -1.445   0.467  -2.904  1.00  0.00     0.043 C   
ATOM     28  C16 UNL     1      -2.388  -0.619  -3.472  1.00  0.00     0.010 C   
ATOM     29  C20 UNL     1      -0.122   0.458  -3.704  1.00  0.00     0.010 C   
ATOM     30  C17 UNL     1      -2.608  -0.470  -4.976  1.00  0.00     0.001 C   
ATOM     31  C19 UNL     1      -0.348   0.600  -5.208  1.00  0.00     0.001 C   
ATOM     32  C18 UNL     1      -1.291  -0.470  -5.739  1.00  0.00     0.000 C   
ENDBRANCH   1  27
TORSDOF 6
