REMARK SMILES COc1ccnc(CCn2cc([C@@H]([NH2+]Cc3ccc4c(c3)OCO4)C3CCCC3)nn2)c1
REMARK SMILES IDX 10 1 11 2 12 3 30 4 31 5 9 7 8 8 7 9 3 10 4 11 32 12 5 13
REMARK SMILES IDX 6 14 2 15 1 16 13 17 14 18 15 21 16 22 17 23 21 24 18 25
REMARK SMILES IDX 20 26 19 27 22 28 24 29 23 30 25 31 26 32 29 33 27 34 28 35
REMARK H PARENT 11 6 14 19 14 20
ROOT
ATOM     1   N2  UNL     1       1.767  -3.266   0.480  1.00  0.00    -0.212 N   
ATOM     2   C8  UNL     1       2.345  -2.030   0.562  1.00  0.00     0.045 A   
ATOM     3   C9  UNL     1       1.376  -1.253   1.155  1.00  0.00     0.127 A   
ATOM     4   N4  UNL     1       0.284  -2.031   1.440  1.00  0.00    -0.132 NA  
ATOM     5   N5  UNL     1       0.535  -3.261   1.022  1.00  0.00    -0.076 NA  
ATOM     6   H10 UNL     1       3.322  -1.821   0.149  1.00  0.00     0.083 HD  
ENDROOT
BRANCH   1   7
ATOM     7   C7  UNL     1       2.251  -4.428  -0.239  1.00  0.00     0.140 C   
BRANCH   7   8
ATOM     8   C6  UNL     1       1.482  -4.668  -1.538  1.00  0.00     0.077 C   
BRANCH   8   9
ATOM     9   C5  UNL     1       1.567  -3.478  -2.461  1.00  0.00     0.045 A   
ATOM     10  C2  UNL     1       0.616  -1.508  -3.445  1.00  0.00     0.078 A   
ATOM     11  C3  UNL     1       1.824  -1.277  -4.088  1.00  0.00     0.053 A   
ATOM     12  C24 UNL     1       0.481  -2.625  -2.626  1.00  0.00     0.057 A   
ATOM     13  C4  UNL     1       2.856  -2.174  -3.867  1.00  0.00     0.114 A   
ATOM     14  N1  UNL     1       2.761  -3.247  -3.051  1.00  0.00    -0.261 NA  
BRANCH  10  15
ATOM     15  O1  UNL     1      -0.477  -0.685  -3.497  1.00  0.00    -0.349 OA  
ATOM     16  C1  UNL     1      -0.600   0.102  -4.681  1.00  0.00     0.203 C   
ENDBRANCH  10  15
ENDBRANCH   8   9
ENDBRANCH   7   8
ENDBRANCH   1   7
BRANCH   3  17
ATOM     17  C10 UNL     1       1.316   0.218   1.402  1.00  0.00     0.117 C   
BRANCH  17  18
ATOM     18  N3  UNL     1      -0.054   0.738   1.054  1.00  0.00     0.249 N   
ATOM     19  H12 UNL     1      -0.735   0.109   1.505  1.00  0.00     0.199 HD  
ATOM     20  H13 UNL     1      -0.223   1.671   1.439  1.00  0.00     0.199 HD  
BRANCH  18  21
ATOM     21  C11 UNL     1      -0.374   0.741  -0.403  1.00  0.00     0.164 C   
BRANCH  21  22
ATOM     22  C12 UNL     1      -1.733   1.334  -0.644  1.00  0.00    -0.002 A   
ATOM     23  C13 UNL     1      -1.878   2.721  -0.883  1.00  0.00     0.012 A   
ATOM     24  C17 UNL     1      -2.875   0.517  -0.587  1.00  0.00     0.045 A   
ATOM     25  C14 UNL     1      -3.143   3.287  -1.075  1.00  0.00     0.037 A   
ATOM     26  C16 UNL     1      -4.106   1.107  -0.779  1.00  0.00     0.109 A   
ATOM     27  C15 UNL     1      -4.237   2.452  -1.017  1.00  0.00     0.108 A   
ATOM     28  O2  UNL     1      -5.303   0.465  -0.758  1.00  0.00    -0.316 OA  
ATOM     29  O3  UNL     1      -5.533   2.827  -1.177  1.00  0.00    -0.316 OA  
ATOM     30  C18 UNL     1      -6.207   1.559  -1.031  1.00  0.00     0.337 C   
ENDBRANCH  21  22
ENDBRANCH  18  21
ENDBRANCH  17  18
BRANCH  17  31
ATOM     31  C19 UNL     1       1.688   0.574   2.853  1.00  0.00     0.043 C   
ATOM     32  C20 UNL     1       0.672   0.194   3.934  1.00  0.00     0.010 C   
ATOM     33  C23 UNL     1       1.921   2.072   3.100  1.00  0.00     0.010 C   
ATOM     34  C21 UNL     1       1.177   0.960   5.147  1.00  0.00     0.001 C   
ATOM     35  C22 UNL     1       1.638   2.301   4.587  1.00  0.00     0.001 C   
ENDBRANCH  17  31
ENDBRANCH   3  17
TORSDOF 9
