REMARK SMILES Cc1cccc(F)c1CCn1cc([C@@H]([NH2+]Cc2ccc3c(c2)OCO3)C2CCCCC2)nn1
REMARK SMILES IDX 11 1 12 2 13 3 32 4 33 5 10 7 9 8 8 9 2 10 3 11 4 12 6 13
REMARK SMILES IDX 5 14 1 15 7 16 14 17 15 18 16 21 17 22 18 23 22 24 19 25
REMARK SMILES IDX 21 26 20 27 23 28 25 29 24 30 26 31 27 32 31 33 28 34 30 35
REMARK SMILES IDX 29 36
REMARK H PARENT 12 6 15 19 15 20
ROOT
ATOM     1   N1  UNL     1       1.948  -1.162  -0.790  1.00  0.00    -0.212 N   
ATOM     2   C10 UNL     1       0.999  -0.218  -1.062  1.00  0.00     0.045 A   
ATOM     3   C11 UNL     1       1.048   0.623   0.027  1.00  0.00     0.127 A   
ATOM     4   N3  UNL     1       2.003   0.170   0.902  1.00  0.00    -0.132 NA  
ATOM     5   N4  UNL     1       2.546  -0.922   0.390  1.00  0.00    -0.076 NA  
ATOM     6   H11 UNL     1       0.390  -0.248  -1.955  1.00  0.00     0.083 HD  
ENDROOT
BRANCH   1   7
ATOM     7   C9  UNL     1       2.296  -2.327  -1.577  1.00  0.00     0.139 C   
BRANCH   7   8
ATOM     8   C8  UNL     1       1.738  -3.630  -0.997  1.00  0.00     0.060 C   
BRANCH   8   9
ATOM     9   C7  UNL     1       0.230  -3.657  -0.849  1.00  0.00    -0.008 A   
ATOM     10  C2  UNL     1      -0.415  -3.789   0.400  1.00  0.00    -0.045 A   
ATOM     11  C3  UNL     1      -1.822  -3.822   0.445  1.00  0.00     0.004 A   
ATOM     12  C4  UNL     1      -2.584  -3.717  -0.719  1.00  0.00     0.003 A   
ATOM     13  C6  UNL     1      -0.563  -3.563  -2.004  1.00  0.00     0.126 A   
ATOM     14  C5  UNL     1      -1.952  -3.586  -1.949  1.00  0.00     0.039 A   
ATOM     15  C1  UNL     1       0.349  -3.927   1.689  1.00  0.00     0.045 C   
ATOM     16  F1  UNL     1       0.026  -3.434  -3.202  1.00  0.00    -0.207 F   
ENDBRANCH   8   9
ENDBRANCH   7   8
ENDBRANCH   1   7
BRANCH   3  17
ATOM     17  C12 UNL     1       0.210   1.802   0.394  1.00  0.00     0.117 C   
BRANCH  17  18
ATOM     18  N2  UNL     1      -0.046   1.810   1.887  1.00  0.00     0.249 N   
ATOM     19  H13 UNL     1      -0.439   2.711   2.175  1.00  0.00     0.199 HD  
ATOM     20  H14 UNL     1       0.876   1.713   2.335  1.00  0.00     0.199 HD  
BRANCH  18  21
ATOM     21  C13 UNL     1      -0.899   0.704   2.418  1.00  0.00     0.164 C   
BRANCH  21  22
ATOM     22  C14 UNL     1      -2.326   0.785   1.955  1.00  0.00    -0.002 A   
ATOM     23  C15 UNL     1      -3.217   1.721   2.533  1.00  0.00     0.012 A   
ATOM     24  C19 UNL     1      -2.779  -0.051   0.919  1.00  0.00     0.045 A   
ATOM     25  C16 UNL     1      -4.539   1.825   2.085  1.00  0.00     0.037 A   
ATOM     26  C18 UNL     1      -4.087   0.076   0.501  1.00  0.00     0.109 A   
ATOM     27  C17 UNL     1      -4.942   0.988   1.067  1.00  0.00     0.108 A   
ATOM     28  O1  UNL     1      -4.677  -0.648  -0.486  1.00  0.00    -0.316 OA  
ATOM     29  O2  UNL     1      -6.180   0.953   0.510  1.00  0.00    -0.316 OA  
ATOM     30  C20 UNL     1      -6.016  -0.103  -0.461  1.00  0.00     0.337 C   
ENDBRANCH  21  22
ENDBRANCH  18  21
ENDBRANCH  17  18
BRANCH  17  31
ATOM     31  C21 UNL     1       0.818   3.174  -0.007  1.00  0.00     0.043 C   
ATOM     32  C22 UNL     1       2.192   3.473   0.625  1.00  0.00     0.010 C   
ATOM     33  C26 UNL     1       0.893   3.331  -1.539  1.00  0.00     0.010 C   
ATOM     34  C23 UNL     1       2.713   4.850   0.214  1.00  0.00     0.001 C   
ATOM     35  C25 UNL     1       1.412   4.710  -1.940  1.00  0.00     0.001 C   
ATOM     36  C24 UNL     1       2.764   5.007  -1.302  1.00  0.00     0.000 C   
ENDBRANCH  17  31
ENDBRANCH   3  17
TORSDOF 8
