REMARK SMILES Oc1c(F)cccc1CCn1cc([C@@H]([NH2+]Cc2ccc3c(c2)OCO3)C2CCCC2)nn1
REMARK SMILES IDX 11 1 12 2 13 3 31 4 32 5 10 7 9 8 8 9 2 10 3 11 5 12 7 13
REMARK SMILES IDX 6 14 4 15 1 16 14 18 15 19 16 22 17 23 18 24 22 25 19 26
REMARK SMILES IDX 21 27 20 28 23 29 25 30 24 31 26 32 27 33 30 34 28 35 29 36
REMARK H PARENT 12 6 1 17 15 20 15 21
ROOT
ATOM     1   N1  UNL     1      -0.127   2.506  -0.119  1.00  0.00    -0.212 N   
ATOM     2   C9  UNL     1      -0.188   1.172   0.168  1.00  0.00     0.045 A   
ATOM     3   C10 UNL     1       0.717   1.009   1.194  1.00  0.00     0.127 A   
ATOM     4   N3  UNL     1       1.253   2.228   1.517  1.00  0.00    -0.132 NA  
ATOM     5   N4  UNL     1       0.740   3.132   0.699  1.00  0.00    -0.076 NA  
ATOM     6   H9  UNL     1      -0.829   0.491  -0.374  1.00  0.00     0.083 HD  
ENDROOT
BRANCH   1   7
ATOM     7   C8  UNL     1      -0.910   3.260  -1.076  1.00  0.00     0.139 C   
BRANCH   7   8
ATOM     8   C7  UNL     1      -0.397   3.153  -2.513  1.00  0.00     0.060 C   
BRANCH   8   9
ATOM     9   C6  UNL     1      -0.846   1.893  -3.218  1.00  0.00    -0.013 A   
ATOM     10  C1  UNL     1       0.008   0.805  -3.417  1.00  0.00     0.110 A   
ATOM     11  C2  UNL     1      -0.439  -0.340  -4.078  1.00  0.00     0.153 A   
ATOM     12  C3  UNL     1      -1.741  -0.429  -4.551  1.00  0.00     0.042 A   
ATOM     13  C5  UNL     1      -2.163   1.797  -3.700  1.00  0.00     0.006 A   
ATOM     14  C4  UNL     1      -2.607   0.645  -4.361  1.00  0.00     0.004 A   
ATOM     15  F1  UNL     1       0.401  -1.371  -4.249  1.00  0.00    -0.204 F   
BRANCH  10  16
ATOM     16  O1  UNL     1       1.293   0.860  -2.952  1.00  0.00    -0.358 OA  
ATOM     17  H1  UNL     1       1.758   0.069  -3.301  1.00  0.00     0.218 HD  
ENDBRANCH  10  16
ENDBRANCH   8   9
ENDBRANCH   7   8
ENDBRANCH   1   7
BRANCH   3  18
ATOM     18  C11 UNL     1       1.159  -0.219   1.919  1.00  0.00     0.117 C   
BRANCH  18  19
ATOM     19  N2  UNL     1       2.538  -0.047   2.517  1.00  0.00     0.249 N   
ATOM     20  H11 UNL     1       2.498   0.800   3.099  1.00  0.00     0.199 HD  
ATOM     21  H12 UNL     1       2.765  -0.833   3.129  1.00  0.00     0.199 HD  
BRANCH  19  22
ATOM     22  C12 UNL     1       3.673   0.160   1.564  1.00  0.00     0.164 C   
BRANCH  22  23
ATOM     23  C13 UNL     1       3.780  -0.902   0.507  1.00  0.00    -0.002 A   
ATOM     24  C14 UNL     1       4.202  -2.213   0.826  1.00  0.00     0.012 A   
ATOM     25  C18 UNL     1       3.411  -0.596  -0.814  1.00  0.00     0.045 A   
ATOM     26  C15 UNL     1       4.243  -3.210  -0.156  1.00  0.00     0.037 A   
ATOM     27  C17 UNL     1       3.456  -1.601  -1.755  1.00  0.00     0.109 A   
ATOM     28  C16 UNL     1       3.859  -2.873  -1.435  1.00  0.00     0.108 A   
ATOM     29  O2  UNL     1       3.107  -1.475  -3.063  1.00  0.00    -0.316 OA  
ATOM     30  O3  UNL     1       3.823  -3.711  -2.504  1.00  0.00    -0.316 OA  
ATOM     31  C19 UNL     1       3.368  -2.817  -3.543  1.00  0.00     0.337 C   
ENDBRANCH  22  23
ENDBRANCH  19  22
ENDBRANCH  18  19
BRANCH  18  32
ATOM     32  C20 UNL     1       0.140  -0.623   3.007  1.00  0.00     0.043 C   
ATOM     33  C21 UNL     1       0.062   0.276   4.243  1.00  0.00     0.010 C   
ATOM     34  C24 UNL     1       0.370  -2.003   3.630  1.00  0.00     0.010 C   
ATOM     35  C22 UNL     1      -0.771  -0.541   5.225  1.00  0.00     0.001 C   
ATOM     36  C23 UNL     1      -0.512  -2.007   4.877  1.00  0.00     0.001 C   
ENDBRANCH  18  32
ENDBRANCH   3  18
TORSDOF 9
