REMARK SMILES Cc1nc2ccc(-n3cc([C@@H]([NH2+]Cc4ccc5c(c4)OCO5)C(C)C)nn3)cc2[nH]1
REMARK SMILES IDX 11 1 10 2 8 3 9 4 27 5 26 6 7 7 2 8 3 9 30 10 4 11 29 12
REMARK SMILES IDX 5 13 28 14 6 15 1 16 12 18 13 21 14 22 15 23 19 24 16 25
REMARK SMILES IDX 18 26 17 27 20 28 22 29 21 30 23 31 24 32 25 33
REMARK H PARENT 30 17 12 19 12 20
ROOT
ATOM     1   C9  UNL     1      -1.202   1.833   1.270  1.00  0.00     0.117 C   
ENDROOT
BRANCH   1   2
ATOM     2   C8  UNL     1      -0.021   1.685   0.363  1.00  0.00     0.127 A   
ATOM     3   N2  UNL     1       1.428   1.397  -1.256  1.00  0.00    -0.181 N   
ATOM     4   C7  UNL     1       0.072   1.470  -0.994  1.00  0.00     0.135 A   
ATOM     5   N5  UNL     1       2.102   1.522  -0.083  1.00  0.00    -0.071 NA  
ATOM     6   N4  UNL     1       1.236   1.708   0.897  1.00  0.00    -0.131 NA  
BRANCH   3   7
ATOM     7   C6  UNL     1       2.095   1.209  -2.495  1.00  0.00     0.060 A   
ATOM     8   C2  UNL     1       2.870   0.592  -6.934  1.00  0.00     0.096 A   
ATOM     9   N1  UNL     1       3.944   0.659  -6.176  1.00  0.00    -0.236 NA  
ATOM     10  N6  UNL     1       1.731   0.728  -6.179  1.00  0.00    -0.302 N   
ATOM     11  C3  UNL     1       3.488   0.844  -4.897  1.00  0.00     0.086 A   
ATOM     12  C22 UNL     1       2.100   0.891  -4.866  1.00  0.00     0.059 A   
ATOM     13  C4  UNL     1       4.207   0.982  -3.704  1.00  0.00     0.032 A   
ATOM     14  C21 UNL     1       1.360   1.072  -3.689  1.00  0.00     0.052 A   
ATOM     15  C5  UNL     1       3.501   1.165  -2.508  1.00  0.00     0.028 A   
ATOM     16  C1  UNL     1       2.831   0.394  -8.402  1.00  0.00     0.085 C   
ATOM     17  H25 UNL     1       0.788   0.713  -6.538  1.00  0.00     0.154 HD  
ENDBRANCH   3   7
ENDBRANCH   1   2
BRANCH   1  18
ATOM     18  N3  UNL     1      -0.856   1.339   2.654  1.00  0.00     0.249 N   
ATOM     19  H8  UNL     1      -1.501   1.709   3.360  1.00  0.00     0.199 HD  
ATOM     20  H9  UNL     1       0.074   1.720   2.886  1.00  0.00     0.199 HD  
BRANCH  18  21
ATOM     21  C10 UNL     1      -0.771  -0.141   2.803  1.00  0.00     0.164 C   
BRANCH  21  22
ATOM     22  C11 UNL     1      -0.342  -0.503   4.196  1.00  0.00    -0.002 A   
ATOM     23  C12 UNL     1       1.035  -0.558   4.523  1.00  0.00     0.012 A   
ATOM     24  C16 UNL     1      -1.301  -0.736   5.196  1.00  0.00     0.045 A   
ATOM     25  C13 UNL     1       1.452  -0.854   5.825  1.00  0.00     0.037 A   
ATOM     26  C15 UNL     1      -0.855  -1.025   6.469  1.00  0.00     0.109 A   
ATOM     27  C14 UNL     1       0.482  -1.083   6.776  1.00  0.00     0.108 A   
ATOM     28  O1  UNL     1      -1.646  -1.276   7.545  1.00  0.00    -0.316 OA  
ATOM     29  O2  UNL     1       0.702  -1.381   8.082  1.00  0.00    -0.316 OA  
ATOM     30  C17 UNL     1      -0.651  -1.528   8.564  1.00  0.00     0.337 C   
ENDBRANCH  21  22
ENDBRANCH  18  21
ENDBRANCH   1  18
BRANCH   1  31
ATOM     31  C18 UNL     1      -1.731   3.286   1.391  1.00  0.00     0.037 C   
ATOM     32  C19 UNL     1      -0.698   4.288   1.921  1.00  0.00     0.014 C   
ATOM     33  C20 UNL     1      -2.310   3.793   0.065  1.00  0.00     0.014 C   
ENDBRANCH   1  31
TORSDOF 6
