REMARK SMILES c1cc2c(cc1C[NH2+][C@H](c1cn(CCc3cn4c(n3)CCCC4)nn1)C1CCCCC1)OCO2
REMARK SMILES IDX 10 1 11 2 12 3 24 4 25 5 9 7 8 8 7 11 6 12 1 13 2 14 3 15
REMARK SMILES IDX 5 16 4 17 34 18 32 19 33 20 26 21 27 22 31 23 28 24 30 25
REMARK SMILES IDX 29 26 13 27 14 28 15 29 16 30 19 31 17 32 18 33 23 34 20 35
REMARK SMILES IDX 22 36 21 37
REMARK H PARENT 11 6 8 9 8 10
ROOT
ATOM     1   C9  UNL     1      -1.737  -0.197   1.223  1.00  0.00     0.127 A   
ATOM     2   C10 UNL     1      -2.091   1.089   0.891  1.00  0.00     0.045 A   
ATOM     3   N2  UNL     1      -1.627   1.836   1.938  1.00  0.00    -0.212 N   
ATOM     4   N5  UNL     1      -1.099   1.049   2.896  1.00  0.00    -0.076 NA  
ATOM     5   N6  UNL     1      -1.146  -0.200   2.462  1.00  0.00    -0.132 NA  
ATOM     6   H9  UNL     1      -2.521   1.543   0.008  1.00  0.00     0.083 HD  
ENDROOT
BRANCH   1   7
ATOM     7   C8  UNL     1      -1.775  -1.447   0.413  1.00  0.00     0.117 C   
BRANCH   7   8
ATOM     8   N1  UNL     1      -0.476  -2.191   0.566  1.00  0.00     0.249 N   
ATOM     9   H6  UNL     1      -0.296  -2.265   1.577  1.00  0.00     0.199 HD  
ATOM     10  H7  UNL     1      -0.537  -3.146   0.203  1.00  0.00     0.199 HD  
BRANCH   8  11
ATOM     11  C7  UNL     1       0.706  -1.508  -0.036  1.00  0.00     0.164 C   
BRANCH  11  12
ATOM     12  C6  UNL     1       1.954  -2.314   0.185  1.00  0.00    -0.002 A   
ATOM     13  C1  UNL     1       2.591  -2.301   1.451  1.00  0.00     0.012 A   
ATOM     14  C2  UNL     1       3.736  -3.072   1.687  1.00  0.00     0.037 A   
ATOM     15  C3  UNL     1       4.221  -3.837   0.648  1.00  0.00     0.108 A   
ATOM     16  C5  UNL     1       2.478  -3.109  -0.847  1.00  0.00     0.045 A   
ATOM     17  C4  UNL     1       3.611  -3.853  -0.583  1.00  0.00     0.109 A   
ATOM     18  O2  UNL     1       5.315  -4.639   0.696  1.00  0.00    -0.316 OA  
ATOM     19  O1  UNL     1       4.247  -4.665  -1.468  1.00  0.00    -0.316 OA  
ATOM     20  C26 UNL     1       5.347  -5.141  -0.659  1.00  0.00     0.337 C   
ENDBRANCH  11  12
ENDBRANCH   8  11
ENDBRANCH   7   8
BRANCH   7  21
ATOM     21  C20 UNL     1      -2.982  -2.354   0.769  1.00  0.00     0.043 C   
ATOM     22  C21 UNL     1      -2.873  -3.051   2.140  1.00  0.00     0.010 C   
ATOM     23  C25 UNL     1      -3.240  -3.404  -0.331  1.00  0.00     0.010 C   
ATOM     24  C22 UNL     1      -4.110  -3.896   2.442  1.00  0.00     0.001 C   
ATOM     25  C24 UNL     1      -4.484  -4.238  -0.028  1.00  0.00     0.001 C   
ATOM     26  C23 UNL     1      -4.390  -4.909   1.337  1.00  0.00     0.000 C   
ENDBRANCH   7  21
ENDBRANCH   1   7
BRANCH   3  27
ATOM     27  C11 UNL     1      -1.585   3.279   2.049  1.00  0.00     0.140 C   
BRANCH  27  28
ATOM     28  C12 UNL     1      -0.168   3.842   1.967  1.00  0.00     0.079 C   
BRANCH  28  29
ATOM     29  C13 UNL     1       0.525   3.615   0.663  1.00  0.00     0.058 A   
ATOM     30  C14 UNL     1       1.848   3.864   0.356  1.00  0.00     0.100 A   
ATOM     31  N4  UNL     1      -0.136   3.119  -0.443  1.00  0.00    -0.241 NA  
ATOM     32  N3  UNL     1       1.971   3.551  -0.965  1.00  0.00    -0.294 N   
ATOM     33  C15 UNL     1       0.755   3.101  -1.414  1.00  0.00     0.100 A   
ATOM     34  C19 UNL     1       3.150   3.715  -1.792  1.00  0.00     0.112 C   
ATOM     35  C16 UNL     1       0.554   2.648  -2.821  1.00  0.00     0.073 C   
ATOM     36  C18 UNL     1       3.043   2.936  -3.103  1.00  0.00     0.020 C   
ATOM     37  C17 UNL     1       1.670   3.146  -3.745  1.00  0.00     0.009 C   
ENDBRANCH  28  29
ENDBRANCH  27  28
ENDBRANCH   3  27
TORSDOF 8
