REMARK SMILES Cc1cc(Cn2cc([C@@H]([NH2+]Cc3ccc4c(c3)OCO4)C(C)C)nn2)n(C)n1
REMARK SMILES IDX 6 1 7 2 8 3 24 4 25 5 5 7 4 8 2 9 3 10 28 11 26 12 1 13
REMARK SMILES IDX 27 14 9 15 10 16 11 19 12 20 13 21 17 22 14 23 16 24 15 25
REMARK SMILES IDX 18 26 20 27 19 28 21 29 22 30 23 31
REMARK H PARENT 7 6 10 17 10 18
ROOT
ATOM     1   N1  UNL     1      -1.566   1.405   1.762  1.00  0.00    -0.206 N   
ATOM     2   C6  UNL     1      -1.740   0.556   0.703  1.00  0.00     0.046 A   
ATOM     3   C7  UNL     1      -1.166  -0.623   1.125  1.00  0.00     0.127 A   
ATOM     4   N3  UNL     1      -0.717  -0.470   2.412  1.00  0.00    -0.132 NA  
ATOM     5   N4  UNL     1      -0.965   0.773   2.790  1.00  0.00    -0.076 NA  
ATOM     6   H7  UNL     1      -2.169   0.881  -0.235  1.00  0.00     0.083 HD  
ENDROOT
BRANCH   1   7
ATOM     7   C5  UNL     1      -1.773   2.847   1.789  1.00  0.00     0.187 C   
BRANCH   7   8
ATOM     8   C4  UNL     1      -0.730   3.508   0.953  1.00  0.00     0.049 A   
ATOM     9   C2  UNL     1       0.511   4.421  -0.646  1.00  0.00     0.057 A   
ATOM     10  C3  UNL     1      -0.812   4.067  -0.307  1.00  0.00     0.047 A   
ATOM     11  N6  UNL     1       1.365   4.096   0.329  1.00  0.00    -0.187 NA  
ATOM     12  N5  UNL     1       0.584   3.646   1.327  1.00  0.00    -0.231 N   
ATOM     13  C1  UNL     1       0.995   5.051  -1.899  1.00  0.00     0.068 C   
ATOM     14  C20 UNL     1       1.205   3.319   2.591  1.00  0.00     0.159 C   
ENDBRANCH   7   8
ENDBRANCH   1   7
BRANCH   3  15
ATOM     15  C8  UNL     1      -0.881  -1.881   0.376  1.00  0.00     0.117 C   
BRANCH  15  16
ATOM     16  N2  UNL     1       0.509  -2.396   0.693  1.00  0.00     0.249 N   
ATOM     17  H9  UNL     1       0.546  -2.549   1.708  1.00  0.00     0.199 HD  
ATOM     18  H10 UNL     1       0.654  -3.302   0.239  1.00  0.00     0.199 HD  
BRANCH  16  19
ATOM     19  C9  UNL     1       1.655  -1.488   0.361  1.00  0.00     0.164 C   
BRANCH  19  20
ATOM     20  C10 UNL     1       1.693  -1.048  -1.075  1.00  0.00    -0.002 A   
ATOM     21  C11 UNL     1       1.517   0.320  -1.400  1.00  0.00     0.012 A   
ATOM     22  C15 UNL     1       1.891  -1.982  -2.106  1.00  0.00     0.045 A   
ATOM     23  C12 UNL     1       1.522   0.751  -2.730  1.00  0.00     0.037 A   
ATOM     24  C14 UNL     1       1.888  -1.523  -3.407  1.00  0.00     0.109 A   
ATOM     25  C13 UNL     1       1.707  -0.197  -3.711  1.00  0.00     0.108 A   
ATOM     26  O1  UNL     1       2.053  -2.293  -4.515  1.00  0.00    -0.316 OA  
ATOM     27  O2  UNL     1       1.738   0.037  -5.049  1.00  0.00    -0.316 OA  
ATOM     28  C16 UNL     1       1.990  -1.291  -5.556  1.00  0.00     0.337 C   
ENDBRANCH  19  20
ENDBRANCH  16  19
ENDBRANCH  15  16
BRANCH  15  29
ATOM     29  C17 UNL     1      -1.901  -3.023   0.630  1.00  0.00     0.037 C   
ATOM     30  C18 UNL     1      -3.296  -2.650   0.114  1.00  0.00     0.014 C   
ATOM     31  C19 UNL     1      -1.998  -3.480   2.090  1.00  0.00     0.014 C   
ENDBRANCH  15  29
ENDBRANCH   3  15
TORSDOF 7
