REMARK SMILES CN(C)c1ncccc1CCn1cc([C@@H]([NH2+]Cc2ccc3c(c2)OCO3)C2CCCC2)nn1
REMARK SMILES IDX 12 1 13 2 14 3 32 4 33 5 11 7 10 8 9 9 4 10 5 11 6 12 8 13
REMARK SMILES IDX 7 14 2 15 1 16 3 17 15 18 16 19 17 22 18 23 19 24 23 25
REMARK SMILES IDX 20 26 22 27 21 28 24 29 26 30 25 31 27 32 28 33 31 34 29 35
REMARK SMILES IDX 30 36
REMARK H PARENT 13 6 16 20 16 21
ROOT
ATOM     1   N3  UNL     1       2.225   0.595  -0.713  1.00  0.00    -0.212 N   
ATOM     2   C10 UNL     1       1.426  -0.472  -0.413  1.00  0.00     0.045 A   
ATOM     3   C11 UNL     1       0.962  -0.894  -1.637  1.00  0.00     0.127 A   
ATOM     4   N5  UNL     1       1.487  -0.091  -2.619  1.00  0.00    -0.132 NA  
ATOM     5   N6  UNL     1       2.259   0.814  -2.041  1.00  0.00    -0.076 NA  
ATOM     6   H14 UNL     1       1.248  -0.791   0.604  1.00  0.00     0.083 HD  
ENDROOT
BRANCH   1   7
ATOM     7   C9  UNL     1       2.937   1.459   0.203  1.00  0.00     0.139 C   
BRANCH   7   8
ATOM     8   C8  UNL     1       2.296   2.843   0.346  1.00  0.00     0.060 C   
BRANCH   8   9
ATOM     9   C7  UNL     1       0.833   2.850   0.739  1.00  0.00    -0.006 A   
ATOM     10  C3  UNL     1       0.340   2.229   1.901  1.00  0.00     0.123 A   
ATOM     11  N2  UNL     1      -0.983   2.196   2.175  1.00  0.00    -0.241 NA  
ATOM     12  C4  UNL     1      -1.835   2.842   1.352  1.00  0.00     0.113 A   
ATOM     13  C6  UNL     1      -0.086   3.499  -0.102  1.00  0.00     0.009 A   
ATOM     14  C5  UNL     1      -1.438   3.506   0.211  1.00  0.00     0.021 A   
BRANCH  10  15
ATOM     15  N1  UNL     1       1.241   1.624   2.813  1.00  0.00    -0.322 N   
ATOM     16  C1  UNL     1       1.725   2.657   3.746  1.00  0.00     0.131 C   
ATOM     17  C2  UNL     1       0.605   0.510   3.533  1.00  0.00     0.131 C   
ENDBRANCH  10  15
ENDBRANCH   8   9
ENDBRANCH   7   8
ENDBRANCH   1   7
BRANCH   3  18
ATOM     18  C12 UNL     1      -0.033  -1.946  -1.994  1.00  0.00     0.117 C   
BRANCH  18  19
ATOM     19  N4  UNL     1      -0.893  -1.470  -3.147  1.00  0.00     0.249 N   
ATOM     20  H16 UNL     1      -0.238  -1.163  -3.880  1.00  0.00     0.199 HD  
ATOM     21  H17 UNL     1      -1.441  -2.247  -3.527  1.00  0.00     0.199 HD  
BRANCH  19  22
ATOM     22  C13 UNL     1      -1.799  -0.318  -2.860  1.00  0.00     0.164 C   
BRANCH  22  23
ATOM     23  C14 UNL     1      -2.930  -0.676  -1.938  1.00  0.00    -0.002 A   
ATOM     24  C15 UNL     1      -4.049  -1.396  -2.422  1.00  0.00     0.012 A   
ATOM     25  C19 UNL     1      -2.872  -0.319  -0.579  1.00  0.00     0.045 A   
ATOM     26  C16 UNL     1      -5.097  -1.755  -1.567  1.00  0.00     0.037 A   
ATOM     27  C18 UNL     1      -3.922  -0.687   0.235  1.00  0.00     0.109 A   
ATOM     28  C17 UNL     1      -5.003  -1.385  -0.244  1.00  0.00     0.108 A   
ATOM     29  O1  UNL     1      -4.023  -0.421   1.564  1.00  0.00    -0.316 OA  
ATOM     30  O2  UNL     1      -5.920  -1.647   0.723  1.00  0.00    -0.316 OA  
ATOM     31  C20 UNL     1      -5.303  -1.018   1.868  1.00  0.00     0.337 C   
ENDBRANCH  22  23
ENDBRANCH  19  22
ENDBRANCH  18  19
BRANCH  18  32
ATOM     32  C21 UNL     1       0.574  -3.305  -2.392  1.00  0.00     0.043 C   
ATOM     33  C22 UNL     1       1.517  -3.313  -3.597  1.00  0.00     0.010 C   
ATOM     34  C25 UNL     1       1.429  -3.967  -1.310  1.00  0.00     0.010 C   
ATOM     35  C23 UNL     1       2.238  -4.658  -3.504  1.00  0.00     0.001 C   
ATOM     36  C24 UNL     1       2.115  -5.112  -2.048  1.00  0.00     0.001 C   
ENDBRANCH  18  32
ENDBRANCH   3  18
TORSDOF 9
