REMARK SMILES CCn1cnc(Cl)c1Cn1cc([C@@H]([NH2+]Cc2ccc3c(c2)OCO3)C(C)C)nn1
REMARK SMILES IDX 10 1 11 2 12 3 28 4 29 5 9 7 8 8 3 9 4 10 5 11 6 12 7 13
REMARK SMILES IDX 2 14 1 15 13 16 14 17 15 20 16 21 17 22 21 23 18 24 20 25
REMARK SMILES IDX 19 26 22 27 24 28 23 29 25 30 26 31 27 32
REMARK H PARENT 11 6 14 18 14 19
ROOT
ATOM     1   N3  UNL     1      -1.258  -0.476  -1.377  1.00  0.00    -0.206 N   
ATOM     2   C7  UNL     1      -0.239  -1.306  -1.000  1.00  0.00     0.046 A   
ATOM     3   C8  UNL     1      -0.300  -1.304   0.375  1.00  0.00     0.127 A   
ATOM     4   N5  UNL     1      -1.326  -0.486   0.779  1.00  0.00    -0.132 NA  
ATOM     5   N6  UNL     1      -1.915   0.001  -0.301  1.00  0.00    -0.076 NA  
ATOM     6   H9  UNL     1       0.415  -1.785  -1.716  1.00  0.00     0.083 HD  
ENDROOT
BRANCH   1   7
ATOM     7   C6  UNL     1      -1.682  -0.122  -2.724  1.00  0.00     0.188 C   
BRANCH   7   8
ATOM     8   C5  UNL     1      -1.175   1.223  -3.100  1.00  0.00     0.068 A   
ATOM     9   N1  UNL     1      -1.911   2.387  -3.074  1.00  0.00    -0.291 N   
ATOM     10  C3  UNL     1      -1.095   3.400  -3.498  1.00  0.00     0.190 A   
ATOM     11  N2  UNL     1       0.108   2.961  -3.784  1.00  0.00    -0.227 NA  
ATOM     12  C4  UNL     1       0.075   1.614  -3.542  1.00  0.00     0.149 A   
ATOM     13  CL1 UNL     1       1.436   0.619  -3.766  1.00  0.00    -0.060 Cl  
BRANCH   9  14
ATOM     14  C2  UNL     1      -3.291   2.571  -2.665  1.00  0.00     0.109 C   
ATOM     15  C1  UNL     1      -4.263   2.369  -3.813  1.00  0.00     0.025 C   
ENDBRANCH   9  14
ENDBRANCH   7   8
ENDBRANCH   1   7
BRANCH   3  16
ATOM     16  C9  UNL     1       0.557  -1.959   1.409  1.00  0.00     0.117 C   
BRANCH  16  17
ATOM     17  N4  UNL     1       0.692  -1.029   2.600  1.00  0.00     0.249 N   
ATOM     18  H11 UNL     1      -0.052  -0.319   2.493  1.00  0.00     0.199 HD  
ATOM     19  H12 UNL     1       0.472  -1.520   3.471  1.00  0.00     0.199 HD  
BRANCH  17  20
ATOM     20  C10 UNL     1       1.997  -0.333   2.754  1.00  0.00     0.164 C   
BRANCH  20  21
ATOM     21  C11 UNL     1       2.383   0.536   1.591  1.00  0.00    -0.002 A   
ATOM     22  C12 UNL     1       3.503   0.196   0.792  1.00  0.00     0.012 A   
ATOM     23  C16 UNL     1       1.648   1.696   1.289  1.00  0.00     0.045 A   
ATOM     24  C13 UNL     1       3.890   1.000  -0.285  1.00  0.00     0.037 A   
ATOM     25  C15 UNL     1       2.061   2.470   0.223  1.00  0.00     0.109 A   
ATOM     26  C14 UNL     1       3.152   2.133  -0.539  1.00  0.00     0.108 A   
ATOM     27  O1  UNL     1       1.478   3.627  -0.188  1.00  0.00    -0.316 OA  
ATOM     28  O2  UNL     1       3.400   3.037  -1.521  1.00  0.00    -0.316 OA  
ATOM     29  C17 UNL     1       2.358   4.005  -1.273  1.00  0.00     0.337 C   
ENDBRANCH  20  21
ENDBRANCH  17  20
ENDBRANCH  16  17
BRANCH  16  30
ATOM     30  C18 UNL     1       0.023  -3.329   1.902  1.00  0.00     0.037 C   
ATOM     31  C19 UNL     1      -1.399  -3.284   2.476  1.00  0.00     0.014 C   
ATOM     32  C20 UNL     1       0.098  -4.388   0.796  1.00  0.00     0.014 C   
ENDBRANCH  16  30
ENDBRANCH   3  16
TORSDOF 8
