REMARK SMILES CC(C)[C@H]([NH2+]Cc1ccc2c(c1)OCO2)c1cn(Cc2c(F)cc(F)cc2F)nn1
REMARK SMILES IDX 16 1 17 2 18 3 29 4 30 5 4 7 2 8 1 9 3 10 5 11 6 14 7 15
REMARK SMILES IDX 8 16 12 17 9 18 11 19 10 20 13 21 15 22 14 23 19 24 20 25
REMARK SMILES IDX 21 26 27 27 23 28 26 29 24 30 22 31 28 32 25 33
REMARK H PARENT 17 6 5 12 5 13
ROOT
ATOM     1   C13 UNL     1      -0.934  -0.374  -2.064  1.00  0.00     0.127 A   
ATOM     2   C14 UNL     1      -1.089   0.877  -1.512  1.00  0.00     0.046 A   
ATOM     3   N2  UNL     1      -2.392   0.893  -1.092  1.00  0.00    -0.208 N   
ATOM     4   N3  UNL     1      -3.008  -0.266  -1.395  1.00  0.00    -0.076 NA  
ATOM     5   N4  UNL     1      -2.126  -1.051  -1.990  1.00  0.00    -0.132 NA  
ATOM     6   H18 UNL     1      -0.421   1.714  -1.360  1.00  0.00     0.083 HD  
ENDROOT
BRANCH   1   7
ATOM     7   C4  UNL     1       0.261  -1.066  -2.637  1.00  0.00     0.117 C   
BRANCH   7   8
ATOM     8   C2  UNL     1       0.470  -0.737  -4.138  1.00  0.00     0.037 C   
ATOM     9   C1  UNL     1       1.841  -1.218  -4.631  1.00  0.00     0.014 C   
ATOM     10  C3  UNL     1      -0.631  -1.272  -5.061  1.00  0.00     0.014 C   
ENDBRANCH   7   8
BRANCH   7  11
ATOM     11  N1  UNL     1       0.126  -2.558  -2.430  1.00  0.00     0.249 N   
ATOM     12  H9  UNL     1      -0.885  -2.732  -2.304  1.00  0.00     0.199 HD  
ATOM     13  H10 UNL     1       0.391  -3.077  -3.271  1.00  0.00     0.199 HD  
BRANCH  11  14
ATOM     14  C5  UNL     1       0.847  -3.135  -1.260  1.00  0.00     0.164 C   
BRANCH  14  15
ATOM     15  C6  UNL     1       0.455  -2.552   0.069  1.00  0.00    -0.002 A   
ATOM     16  C7  UNL     1      -0.838  -2.773   0.601  1.00  0.00     0.012 A   
ATOM     17  C11 UNL     1       1.373  -1.774   0.796  1.00  0.00     0.045 A   
ATOM     18  C8  UNL     1      -1.216  -2.224   1.831  1.00  0.00     0.037 A   
ATOM     19  C10 UNL     1       0.972  -1.255   2.010  1.00  0.00     0.109 A   
ATOM     20  C9  UNL     1      -0.285  -1.474   2.514  1.00  0.00     0.108 A   
ATOM     21  O1  UNL     1       1.738  -0.494   2.835  1.00  0.00    -0.316 OA  
ATOM     22  O2  UNL     1      -0.469  -0.882   3.722  1.00  0.00    -0.316 OA  
ATOM     23  C12 UNL     1       0.841  -0.320   3.955  1.00  0.00     0.337 C   
ENDBRANCH  14  15
ENDBRANCH  11  14
ENDBRANCH   7  11
ENDBRANCH   1   7
BRANCH   3  24
ATOM     24  C15 UNL     1      -3.111   1.967  -0.430  1.00  0.00     0.175 C   
BRANCH  24  25
ATOM     25  C16 UNL     1      -2.767   2.034   1.027  1.00  0.00     0.043 A   
ATOM     26  C17 UNL     1      -3.510   1.328   1.976  1.00  0.00     0.133 A   
ATOM     27  C21 UNL     1      -1.674   2.782   1.473  1.00  0.00     0.133 A   
ATOM     28  C18 UNL     1      -3.190   1.375   3.328  1.00  0.00     0.079 A   
ATOM     29  C20 UNL     1      -1.337   2.844   2.819  1.00  0.00     0.079 A   
ATOM     30  C19 UNL     1      -2.103   2.137   3.736  1.00  0.00     0.129 A   
ATOM     31  F1  UNL     1      -4.555   0.586   1.583  1.00  0.00    -0.206 F   
ATOM     32  F3  UNL     1      -0.923   3.447   0.585  1.00  0.00    -0.206 F   
ATOM     33  F2  UNL     1      -1.775   2.176   5.032  1.00  0.00    -0.207 F   
ENDBRANCH  24  25
ENDBRANCH   3  24
TORSDOF 7
