REMARK SMILES Cc1cccc(C)c1[C@@H](CO)n1cc([C@@H]([NH2+]Cc2ccc3c(c2)OCO3)C2CCCC2)nn1
REMARK SMILES IDX 12 1 13 2 14 3 32 4 33 5 9 7 8 8 2 9 3 10 4 11 6 12 5 13
REMARK SMILES IDX 1 14 7 15 10 16 11 17 15 19 16 20 17 23 18 24 19 25 23 26
REMARK SMILES IDX 20 27 22 28 21 29 24 30 26 31 25 32 27 33 28 34 31 35 29 36
REMARK SMILES IDX 30 37
REMARK H PARENT 13 6 11 18 16 21 16 22
ROOT
ATOM     1   N1  UNL     1       0.448   1.248  -1.033  1.00  0.00    -0.202 N   
ATOM     2   C11 UNL     1      -0.150   0.358  -0.175  1.00  0.00     0.046 A   
ATOM     3   C12 UNL     1       0.520  -0.824  -0.394  1.00  0.00     0.127 A   
ATOM     4   N3  UNL     1       1.458  -0.635  -1.375  1.00  0.00    -0.132 NA  
ATOM     5   N4  UNL     1       1.389   0.624  -1.774  1.00  0.00    -0.075 NA  
ATOM     6   H14 UNL     1      -0.950   0.652   0.491  1.00  0.00     0.083 HD  
ENDROOT
BRANCH   1   7
ATOM     7   C9  UNL     1       0.112   2.664  -1.204  1.00  0.00     0.156 C   
BRANCH   7   8
ATOM     8   C8  UNL     1       0.428   3.476   0.061  1.00  0.00    -0.017 A   
ATOM     9   C2  UNL     1      -0.611   4.242   0.667  1.00  0.00    -0.046 A   
ATOM     10  C3  UNL     1      -0.357   4.974   1.839  1.00  0.00     0.004 A   
ATOM     11  C4  UNL     1       0.904   4.979   2.415  1.00  0.00     0.001 A   
ATOM     12  C6  UNL     1       1.725   3.517   0.645  1.00  0.00    -0.046 A   
ATOM     13  C5  UNL     1       1.934   4.260   1.823  1.00  0.00     0.004 A   
ATOM     14  C1  UNL     1      -2.012   4.306   0.108  1.00  0.00     0.045 C   
ATOM     15  C7  UNL     1       2.919   2.772   0.107  1.00  0.00     0.045 C   
ENDBRANCH   7   8
BRANCH   7  16
ATOM     16  C10 UNL     1       0.657   3.321  -2.487  1.00  0.00     0.185 C   
BRANCH  16  17
ATOM     17  O1  UNL     1      -0.141   2.936  -3.613  1.00  0.00    -0.394 OA  
ATOM     18  H13 UNL     1       0.256   3.357  -4.398  1.00  0.00     0.210 HD  
ENDBRANCH  16  17
ENDBRANCH   7  16
ENDBRANCH   1   7
BRANCH   3  19
ATOM     19  C13 UNL     1       0.340  -2.177   0.208  1.00  0.00     0.117 C   
BRANCH  19  20
ATOM     20  N2  UNL     1       0.513  -3.246  -0.853  1.00  0.00     0.249 N   
ATOM     21  H16 UNL     1       0.539  -4.174  -0.426  1.00  0.00     0.199 HD  
ATOM     22  H17 UNL     1       1.434  -3.077  -1.282  1.00  0.00     0.199 HD  
BRANCH  20  23
ATOM     23  C14 UNL     1      -0.491  -3.252  -1.960  1.00  0.00     0.164 C   
BRANCH  23  24
ATOM     24  C15 UNL     1      -1.898  -3.478  -1.480  1.00  0.00    -0.002 A   
ATOM     25  C16 UNL     1      -2.302  -4.747  -0.999  1.00  0.00     0.012 A   
ATOM     26  C20 UNL     1      -2.814  -2.411  -1.471  1.00  0.00     0.045 A   
ATOM     27  C17 UNL     1      -3.597  -4.949  -0.509  1.00  0.00     0.037 A   
ATOM     28  C19 UNL     1      -4.081  -2.644  -0.979  1.00  0.00     0.109 A   
ATOM     29  C18 UNL     1      -4.461  -3.877  -0.511  1.00  0.00     0.108 A   
ATOM     30  O2  UNL     1      -5.076  -1.724  -0.889  1.00  0.00    -0.316 OA  
ATOM     31  O3  UNL     1      -5.746  -3.889  -0.070  1.00  0.00    -0.316 OA  
ATOM     32  C21 UNL     1      -6.146  -2.529  -0.344  1.00  0.00     0.337 C   
ENDBRANCH  23  24
ENDBRANCH  20  23
ENDBRANCH  19  20
BRANCH  19  33
ATOM     33  C22 UNL     1       1.363  -2.444   1.331  1.00  0.00     0.043 C   
ATOM     34  C23 UNL     1       1.245  -1.473   2.511  1.00  0.00     0.010 C   
ATOM     35  C26 UNL     1       1.218  -3.820   2.002  1.00  0.00     0.010 C   
ATOM     36  C24 UNL     1       2.031  -2.173   3.607  1.00  0.00     0.001 C   
ATOM     37  C25 UNL     1       1.660  -3.641   3.455  1.00  0.00     0.001 C   
ENDBRANCH  19  33
ENDBRANCH   3  19
TORSDOF 9
