REMARK SMILES Cc1cccc(C)c1[C@H](CO)n1cc([C@@H]([NH2+]Cc2ccc3c(c2)OCO3)C2CCCC2)nn1
REMARK SMILES IDX 12 1 13 2 14 3 32 4 33 5 9 7 8 8 2 9 3 10 4 11 6 12 5 13
REMARK SMILES IDX 1 14 7 15 10 16 11 17 15 19 16 20 17 23 18 24 19 25 23 26
REMARK SMILES IDX 20 27 22 28 21 29 24 30 26 31 25 32 27 33 28 34 31 35 29 36
REMARK SMILES IDX 30 37
REMARK H PARENT 13 6 11 18 16 21 16 22
ROOT
ATOM     1   N1  UNL     1      -2.209   0.283  -0.948  1.00  0.00    -0.202 N   
ATOM     2   C11 UNL     1      -0.896   0.174  -0.562  1.00  0.00     0.046 A   
ATOM     3   C12 UNL     1      -0.847  -1.008   0.140  1.00  0.00     0.127 A   
ATOM     4   N3  UNL     1      -2.093  -1.575   0.157  1.00  0.00    -0.132 NA  
ATOM     5   N4  UNL     1      -2.915  -0.779  -0.504  1.00  0.00    -0.075 NA  
ATOM     6   H14 UNL     1      -0.155   0.920  -0.816  1.00  0.00     0.083 HD  
ENDROOT
BRANCH   1   7
ATOM     7   C9  UNL     1      -2.828   1.361  -1.729  1.00  0.00     0.156 C   
BRANCH   7   8
ATOM     8   C8  UNL     1      -3.726   2.238  -0.841  1.00  0.00    -0.017 A   
ATOM     9   C2  UNL     1      -5.090   1.936  -0.568  1.00  0.00    -0.046 A   
ATOM     10  C3  UNL     1      -5.844   2.791   0.261  1.00  0.00     0.004 A   
ATOM     11  C4  UNL     1      -5.284   3.921   0.839  1.00  0.00     0.001 A   
ATOM     12  C6  UNL     1      -3.168   3.409  -0.238  1.00  0.00    -0.046 A   
ATOM     13  C5  UNL     1      -3.956   4.228   0.590  1.00  0.00     0.004 A   
ATOM     14  C1  UNL     1      -5.842   0.765  -1.149  1.00  0.00     0.045 C   
ATOM     15  C7  UNL     1      -1.743   3.856  -0.463  1.00  0.00     0.045 C   
ENDBRANCH   7   8
BRANCH   7  16
ATOM     16  C10 UNL     1      -3.423   0.842  -3.051  1.00  0.00     0.185 C   
BRANCH  16  17
ATOM     17  O1  UNL     1      -2.369   0.568  -3.984  1.00  0.00    -0.394 OA  
ATOM     18  H13 UNL     1      -2.793   0.295  -4.819  1.00  0.00     0.210 HD  
ENDBRANCH  16  17
ENDBRANCH   7  16
ENDBRANCH   1   7
BRANCH   3  19
ATOM     19  C13 UNL     1       0.271  -1.673   0.871  1.00  0.00     0.117 C   
BRANCH  19  20
ATOM     20  N2  UNL     1      -0.254  -2.285   2.154  1.00  0.00     0.249 N   
ATOM     21  H16 UNL     1       0.451  -2.889   2.583  1.00  0.00     0.199 HD  
ATOM     22  H17 UNL     1      -1.049  -2.881   1.880  1.00  0.00     0.199 HD  
BRANCH  20  23
ATOM     23  C14 UNL     1      -0.760  -1.328   3.185  1.00  0.00     0.164 C   
BRANCH  23  24
ATOM     24  C15 UNL     1       0.320  -0.438   3.735  1.00  0.00    -0.002 A   
ATOM     25  C16 UNL     1       1.294  -0.956   4.623  1.00  0.00     0.012 A   
ATOM     26  C20 UNL     1       0.392   0.908   3.336  1.00  0.00     0.045 A   
ATOM     27  C17 UNL     1       2.331  -0.147   5.100  1.00  0.00     0.037 A   
ATOM     28  C19 UNL     1       1.430   1.676   3.821  1.00  0.00     0.109 A   
ATOM     29  C18 UNL     1       2.374   1.163   4.677  1.00  0.00     0.108 A   
ATOM     30  O2  UNL     1       1.655   2.982   3.522  1.00  0.00    -0.316 OA  
ATOM     31  O3  UNL     1       3.310   2.083   5.027  1.00  0.00    -0.316 OA  
ATOM     32  C21 UNL     1       2.836   3.245   4.315  1.00  0.00     0.337 C   
ENDBRANCH  23  24
ENDBRANCH  20  23
ENDBRANCH  19  20
BRANCH  19  33
ATOM     33  C22 UNL     1       0.923  -2.788   0.028  1.00  0.00     0.043 C   
ATOM     34  C23 UNL     1       2.092  -3.501   0.714  1.00  0.00     0.010 C   
ATOM     35  C26 UNL     1       1.594  -2.263  -1.248  1.00  0.00     0.010 C   
ATOM     36  C24 UNL     1       2.842  -4.187  -0.422  1.00  0.00     0.001 C   
ATOM     37  C25 UNL     1       2.523  -3.389  -1.684  1.00  0.00     0.001 C   
ENDBRANCH  19  33
ENDBRANCH   3  19
TORSDOF 9
