REMARK SMILES COC(=O)[C@H](CCCNC(N)=[NH2+])n1cc([C@@H]([NH2+]Cc2ccc3c(c2)OCO3)C(C)C)nn1
REMARK SMILES IDX 5 1 3 2 4 3 2 4 1 5 6 6 7 7 8 8 9 9 10 10 11 11 12 15 13 18
REMARK SMILES IDX 14 19 32 20 15 21 31 22 16 24 17 25 18 28 19 29 20 30 24 31
REMARK SMILES IDX 21 32 23 33 22 34 25 35 27 36 26 37 28 38 29 39 30 40
REMARK H PARENT 9 12 11 13 11 14 12 16 12 17 14 23 17 26 17 27
ROOT
ATOM     1   C3  UNL     1      -2.727   0.635   1.290  1.00  0.00     0.196 C   
ENDROOT
BRANCH   1   2
ATOM     2   C2  UNL     1      -3.890   1.042   0.399  1.00  0.00     0.283 C   
ATOM     3   O2  UNL     1      -4.195   2.205   0.142  1.00  0.00    -0.264 OA  
BRANCH   2   4
ATOM     4   O1  UNL     1      -4.557  -0.057  -0.045  1.00  0.00    -0.318 OA  
ATOM     5   C1  UNL     1      -5.716   0.150  -0.866  1.00  0.00     0.206 C   
ENDBRANCH   2   4
ENDBRANCH   1   2
BRANCH   1   6
ATOM     6   C4  UNL     1      -2.386   1.795   2.261  1.00  0.00     0.039 C   
BRANCH   6   7
ATOM     7   C5  UNL     1      -1.670   2.998   1.614  1.00  0.00     0.037 C   
BRANCH   7   8
ATOM     8   C6  UNL     1      -2.303   4.336   2.014  1.00  0.00     0.184 C   
BRANCH   8   9
ATOM     9   N1  UNL     1      -3.625   4.489   1.390  1.00  0.00    -0.239 N   
ATOM     10  C7  UNL     1      -4.457   5.522   1.573  1.00  0.00     0.316 C   
ATOM     11  N3  UNL     1      -4.157   6.540   2.381  1.00  0.00    -0.252 N   
ATOM     12  H11 UNL     1      -3.951   3.754   0.757  1.00  0.00     0.244 HD  
ATOM     13  H14 UNL     1      -4.785   7.325   2.502  1.00  0.00     0.241 HD  
ATOM     14  H15 UNL     1      -3.287   6.568   2.897  1.00  0.00     0.241 HD  
BRANCH  10  15
ATOM     15  N2  UNL     1      -5.626   5.538   0.926  1.00  0.00    -0.252 N   
ATOM     16  H12 UNL     1      -6.286   6.297   1.040  1.00  0.00     0.241 HD  
ATOM     17  H13 UNL     1      -5.890   4.785   0.302  1.00  0.00     0.241 HD  
ENDBRANCH  10  15
ENDBRANCH   8   9
ENDBRANCH   7   8
ENDBRANCH   6   7
ENDBRANCH   1   6
BRANCH   1  18
ATOM     18  N4  UNL     1      -1.586   0.107   0.550  1.00  0.00    -0.199 N   
ATOM     19  C8  UNL     1      -1.520  -0.463  -0.693  1.00  0.00     0.046 A   
ATOM     20  N7  UNL     1      -0.390   0.003   1.168  1.00  0.00    -0.075 NA  
ATOM     21  C9  UNL     1      -0.230  -0.945  -0.788  1.00  0.00     0.127 A   
ATOM     22  N6  UNL     1       0.443  -0.632   0.362  1.00  0.00    -0.132 NA  
ATOM     23  H16 UNL     1      -2.365  -0.520  -1.367  1.00  0.00     0.083 HD  
BRANCH  21  24
ATOM     24  C10 UNL     1       0.463  -1.718  -1.876  1.00  0.00     0.117 C   
BRANCH  24  25
ATOM     25  N5  UNL     1       1.948  -1.779  -1.644  1.00  0.00     0.249 N   
ATOM     26  H18 UNL     1       2.387  -2.545  -2.167  1.00  0.00     0.199 HD  
ATOM     27  H19 UNL     1       2.099  -1.994  -0.647  1.00  0.00     0.199 HD  
BRANCH  25  28
ATOM     28  C11 UNL     1       2.702  -0.529  -1.940  1.00  0.00     0.164 C   
BRANCH  28  29
ATOM     29  C12 UNL     1       4.156  -0.710  -1.609  1.00  0.00    -0.002 A   
ATOM     30  C13 UNL     1       4.615  -0.492  -0.288  1.00  0.00     0.012 A   
ATOM     31  C17 UNL     1       5.054  -1.163  -2.590  1.00  0.00     0.045 A   
ATOM     32  C14 UNL     1       5.954  -0.717   0.053  1.00  0.00     0.037 A   
ATOM     33  C16 UNL     1       6.366  -1.376  -2.220  1.00  0.00     0.109 A   
ATOM     34  C15 UNL     1       6.803  -1.161  -0.937  1.00  0.00     0.108 A   
ATOM     35  O3  UNL     1       7.355  -1.821  -3.038  1.00  0.00    -0.316 OA  
ATOM     36  O4  UNL     1       8.123  -1.441  -0.785  1.00  0.00    -0.316 OA  
ATOM     37  C18 UNL     1       8.474  -1.863  -2.122  1.00  0.00     0.337 C   
ENDBRANCH  28  29
ENDBRANCH  25  28
ENDBRANCH  24  25
BRANCH  24  38
ATOM     38  C19 UNL     1      -0.110  -3.154  -2.021  1.00  0.00     0.037 C   
ATOM     39  C20 UNL     1       0.204  -4.066  -0.830  1.00  0.00     0.014 C   
ATOM     40  C21 UNL     1       0.349  -3.823  -3.322  1.00  0.00     0.014 C   
ENDBRANCH  24  38
ENDBRANCH  21  24
ENDBRANCH   1  18
TORSDOF 13
