REMARK SMILES OCc1ccc(F)c(-n2cc([C@@H]([NH2+]Cc3ccc4c(c3)OCO4)C3CCCCC3)nn2)c1
REMARK SMILES IDX 9 1 10 2 11 3 30 4 31 5 8 6 3 7 4 8 32 9 5 10 6 11 7 12 2 13
REMARK SMILES IDX 1 14 12 16 13 17 14 20 15 21 16 22 20 23 17 24 19 25 18 26
REMARK SMILES IDX 21 27 23 28 22 29 24 30 25 31 29 32 26 33 28 34 27 35
REMARK H PARENT 1 15 13 18 13 19
ROOT
ATOM     1   N1  UNL     1       0.807   0.644  -2.464  1.00  0.00    -0.178 N   
ATOM     2   C7  UNL     1       0.164  -0.123  -1.511  1.00  0.00     0.135 A   
ATOM     3   C8  UNL     1       0.292   0.573  -0.331  1.00  0.00     0.127 A   
ATOM     4   N3  UNL     1       1.025   1.702  -0.560  1.00  0.00    -0.131 NA  
ATOM     5   N4  UNL     1       1.337   1.735  -1.845  1.00  0.00    -0.071 NA  
ENDROOT
BRANCH   1   6
ATOM     6   C6  UNL     1       0.963   0.432  -3.854  1.00  0.00     0.094 A   
ATOM     7   C2  UNL     1       1.883   1.167  -5.996  1.00  0.00    -0.020 A   
ATOM     8   C3  UNL     1       1.300   0.050  -6.611  1.00  0.00     0.009 A   
ATOM     9   C24 UNL     1       1.700   1.358  -4.616  1.00  0.00     0.035 A   
ATOM     10  C4  UNL     1       0.565  -0.867  -5.862  1.00  0.00     0.042 A   
ATOM     11  C5  UNL     1       0.402  -0.675  -4.492  1.00  0.00     0.146 A   
ATOM     12  F1  UNL     1      -0.315  -1.588  -3.824  1.00  0.00    -0.205 F   
BRANCH   7  13
ATOM     13  C1  UNL     1       2.664   2.164  -6.813  1.00  0.00     0.191 C   
BRANCH  13  14
ATOM     14  O1  UNL     1       3.587   1.473  -7.640  1.00  0.00    -0.392 OA  
ATOM     15  H1  UNL     1       4.053   2.142  -8.169  1.00  0.00     0.211 HD  
ENDBRANCH  13  14
ENDBRANCH   7  13
ENDBRANCH   1   6
BRANCH   3  16
ATOM     16  C9  UNL     1      -0.172   0.256   1.059  1.00  0.00     0.117 C   
BRANCH  16  17
ATOM     17  N2  UNL     1       0.839   0.833   2.026  1.00  0.00     0.249 N   
ATOM     18  H8  UNL     1       1.761   0.510   1.705  1.00  0.00     0.199 HD  
ATOM     19  H9  UNL     1       0.876   1.850   1.871  1.00  0.00     0.199 HD  
BRANCH  17  20
ATOM     20  C10 UNL     1       0.719   0.526   3.473  1.00  0.00     0.164 C   
BRANCH  20  21
ATOM     21  C11 UNL     1       0.876  -0.936   3.780  1.00  0.00    -0.002 A   
ATOM     22  C12 UNL     1      -0.253  -1.730   4.097  1.00  0.00     0.012 A   
ATOM     23  C16 UNL     1       2.148  -1.534   3.727  1.00  0.00     0.045 A   
ATOM     24  C13 UNL     1      -0.120  -3.099   4.356  1.00  0.00     0.037 A   
ATOM     25  C15 UNL     1       2.243  -2.885   3.993  1.00  0.00     0.109 A   
ATOM     26  C14 UNL     1       1.142  -3.646   4.296  1.00  0.00     0.108 A   
ATOM     27  O2  UNL     1       3.392  -3.611   3.991  1.00  0.00    -0.316 OA  
ATOM     28  O3  UNL     1       1.458  -4.948   4.520  1.00  0.00    -0.316 OA  
ATOM     29  C17 UNL     1       2.893  -4.916   4.366  1.00  0.00     0.337 C   
ENDBRANCH  20  21
ENDBRANCH  17  20
ENDBRANCH  16  17
BRANCH  16  30
ATOM     30  C18 UNL     1      -1.603   0.770   1.377  1.00  0.00     0.043 C   
ATOM     31  C19 UNL     1      -1.766   2.300   1.287  1.00  0.00     0.010 C   
ATOM     32  C23 UNL     1      -2.666   0.074   0.502  1.00  0.00     0.010 C   
ATOM     33  C20 UNL     1      -3.185   2.738   1.651  1.00  0.00     0.001 C   
ATOM     34  C22 UNL     1      -4.080   0.512   0.878  1.00  0.00     0.001 C   
ATOM     35  C21 UNL     1      -4.234   2.027   0.805  1.00  0.00     0.000 C   
ENDBRANCH  16  30
ENDBRANCH   3  16
TORSDOF 8
