REMARK SMILES CC(C)C[C@H]([NH2+]Cc1ccc2c(c1)OCO2)c1cn(Cc2cccc(Cl)n2)nn1
REMARK SMILES IDX 17 1 18 2 19 3 28 4 29 5 5 7 4 8 2 9 1 10 3 11 6 12 7 15
REMARK SMILES IDX 8 16 9 17 13 18 10 19 12 20 11 21 14 22 16 23 15 24 20 25
REMARK SMILES IDX 21 26 22 27 27 28 23 29 25 30 24 31 26 32
REMARK H PARENT 18 6 6 13 6 14
ROOT
ATOM     1   C14 UNL     1       0.885  -0.223   0.212  1.00  0.00     0.127 A   
ATOM     2   C15 UNL     1      -0.089  -1.120   0.584  1.00  0.00     0.046 A   
ATOM     3   N2  UNL     1       0.613  -2.228   0.975  1.00  0.00    -0.206 N   
ATOM     4   N4  UNL     1       1.939  -1.990   0.939  1.00  0.00    -0.076 NA  
ATOM     5   N5  UNL     1       2.118  -0.771   0.455  1.00  0.00    -0.132 NA  
ATOM     6   H20 UNL     1      -1.171  -1.104   0.558  1.00  0.00     0.083 HD  
ENDROOT
BRANCH   1   7
ATOM     7   C5  UNL     1       0.784   1.157  -0.345  1.00  0.00     0.114 C   
BRANCH   7   8
ATOM     8   C4  UNL     1       0.913   1.182  -1.882  1.00  0.00     0.064 C   
BRANCH   8   9
ATOM     9   C2  UNL     1      -0.199   0.435  -2.651  1.00  0.00    -0.012 C   
ATOM     10  C1  UNL     1       0.090   0.488  -4.154  1.00  0.00     0.007 C   
ATOM     11  C3  UNL     1      -1.588   1.010  -2.373  1.00  0.00     0.007 C   
ENDBRANCH   8   9
ENDBRANCH   7   8
BRANCH   7  12
ATOM     12  N1  UNL     1       1.905   2.021   0.200  1.00  0.00     0.249 N   
ATOM     13  H11 UNL     1       1.971   2.891  -0.337  1.00  0.00     0.199 HD  
ATOM     14  H12 UNL     1       2.775   1.494   0.039  1.00  0.00     0.199 HD  
BRANCH  12  15
ATOM     15  C6  UNL     1       1.844   2.346   1.655  1.00  0.00     0.164 C   
BRANCH  15  16
ATOM     16  C7  UNL     1       0.693   3.249   2.003  1.00  0.00    -0.002 A   
ATOM     17  C8  UNL     1       0.735   4.625   1.671  1.00  0.00     0.012 A   
ATOM     18  C12 UNL     1      -0.450   2.723   2.631  1.00  0.00     0.045 A   
ATOM     19  C9  UNL     1      -0.347   5.465   1.956  1.00  0.00     0.037 A   
ATOM     20  C11 UNL     1      -1.499   3.579   2.895  1.00  0.00     0.109 A   
ATOM     21  C10 UNL     1      -1.450   4.911   2.567  1.00  0.00     0.108 A   
ATOM     22  O1  UNL     1      -2.672   3.232   3.485  1.00  0.00    -0.316 OA  
ATOM     23  O2  UNL     1      -2.584   5.572   2.911  1.00  0.00    -0.316 OA  
ATOM     24  C13 UNL     1      -3.349   4.509   3.520  1.00  0.00     0.337 C   
ENDBRANCH  15  16
ENDBRANCH  12  15
ENDBRANCH   7  12
ENDBRANCH   1   7
BRANCH   3  25
ATOM     25  C16 UNL     1       0.094  -3.512   1.405  1.00  0.00     0.190 C   
BRANCH  25  26
ATOM     26  C17 UNL     1      -0.386  -4.300   0.217  1.00  0.00     0.062 A   
ATOM     27  C18 UNL     1       0.376  -5.343  -0.307  1.00  0.00     0.026 A   
ATOM     28  N3  UNL     1      -1.574  -3.928  -0.324  1.00  0.00    -0.239 NA  
ATOM     29  C19 UNL     1      -0.103  -6.038  -1.416  1.00  0.00     0.005 A   
ATOM     30  C21 UNL     1      -2.006  -4.622  -1.399  1.00  0.00     0.129 A   
ATOM     31  C20 UNL     1      -1.321  -5.673  -1.978  1.00  0.00     0.041 A   
ATOM     32  CL1 UNL     1      -3.499  -4.075  -2.038  1.00  0.00    -0.062 Cl  
ENDBRANCH  25  26
ENDBRANCH   3  25
TORSDOF 8
