REMARK SMILES COc1cc(Cn2cc([C@@H]([NH2+]Cc3ccc4c(c3)OCO4)C3CCCCC3)nn2)ccc1F
REMARK SMILES IDX 7 1 8 2 9 3 28 4 29 5 6 7 5 8 3 9 4 10 32 11 31 12 30 13
REMARK SMILES IDX 33 14 2 15 1 16 10 17 11 18 12 21 13 22 14 23 18 24 15 25
REMARK SMILES IDX 17 26 16 27 19 28 21 29 20 30 22 31 23 32 27 33 24 34 26 35
REMARK SMILES IDX 25 36
REMARK H PARENT 8 6 11 19 11 20
ROOT
ATOM     1   N1  UNL     1       1.281  -0.662  -0.165  1.00  0.00    -0.208 N   
ATOM     2   C6  UNL     1       0.508   0.452  -0.350  1.00  0.00     0.046 A   
ATOM     3   C7  UNL     1      -0.732   0.076   0.116  1.00  0.00     0.127 A   
ATOM     4   N3  UNL     1      -0.682  -1.235   0.520  1.00  0.00    -0.132 NA  
ATOM     5   N4  UNL     1       0.552  -1.676   0.339  1.00  0.00    -0.076 NA  
ATOM     6   H7  UNL     1       0.902   1.368  -0.768  1.00  0.00     0.083 HD  
ENDROOT
BRANCH   1   7
ATOM     7   C5  UNL     1       2.696  -0.835  -0.451  1.00  0.00     0.169 C   
BRANCH   7   8
ATOM     8   C4  UNL     1       3.543  -0.052   0.524  1.00  0.00    -0.026 A   
ATOM     9   C2  UNL     1       4.964   1.866   1.026  1.00  0.00     0.111 A   
ATOM     10  C3  UNL     1       4.208   1.121   0.115  1.00  0.00     0.042 A   
ATOM     11  C25 UNL     1       5.043   1.428   2.352  1.00  0.00     0.153 A   
ATOM     12  C24 UNL     1       4.403   0.266   2.769  1.00  0.00     0.042 A   
ATOM     13  C23 UNL     1       3.654  -0.475   1.858  1.00  0.00     0.008 A   
ATOM     14  F1  UNL     1       5.748   2.129   3.253  1.00  0.00    -0.204 F   
BRANCH   9  15
ATOM     15  O1  UNL     1       5.631   3.025   0.742  1.00  0.00    -0.346 OA  
ATOM     16  C1  UNL     1       5.802   3.364  -0.628  1.00  0.00     0.203 C   
ENDBRANCH   9  15
ENDBRANCH   7   8
ENDBRANCH   1   7
BRANCH   3  17
ATOM     17  C8  UNL     1      -2.036   0.803   0.169  1.00  0.00     0.117 C   
BRANCH  17  18
ATOM     18  N2  UNL     1      -3.162  -0.170  -0.134  1.00  0.00     0.249 N   
ATOM     19  H9  UNL     1      -2.811  -1.099   0.150  1.00  0.00     0.199 HD  
ATOM     20  H10 UNL     1      -3.973   0.018   0.463  1.00  0.00     0.199 HD  
BRANCH  18  21
ATOM     21  C9  UNL     1      -3.612  -0.247  -1.554  1.00  0.00     0.164 C   
BRANCH  21  22
ATOM     22  C10 UNL     1      -2.527  -0.602  -2.532  1.00  0.00    -0.002 A   
ATOM     23  C11 UNL     1      -1.982  -1.909  -2.559  1.00  0.00     0.012 A   
ATOM     24  C15 UNL     1      -2.015   0.376  -3.403  1.00  0.00     0.045 A   
ATOM     25  C12 UNL     1      -0.933  -2.234  -3.426  1.00  0.00     0.037 A   
ATOM     26  C14 UNL     1      -0.983   0.021  -4.246  1.00  0.00     0.109 A   
ATOM     27  C13 UNL     1      -0.454  -1.246  -4.256  1.00  0.00     0.108 A   
ATOM     28  O2  UNL     1      -0.368   0.846  -5.134  1.00  0.00    -0.316 OA  
ATOM     29  O3  UNL     1       0.561  -1.377  -5.149  1.00  0.00    -0.316 OA  
ATOM     30  C16 UNL     1       0.567  -0.066  -5.753  1.00  0.00     0.337 C   
ENDBRANCH  21  22
ENDBRANCH  18  21
ENDBRANCH  17  18
BRANCH  17  31
ATOM     31  C17 UNL     1      -2.325   1.489   1.531  1.00  0.00     0.043 C   
ATOM     32  C18 UNL     1      -2.346   0.528   2.737  1.00  0.00     0.010 C   
ATOM     33  C22 UNL     1      -1.345   2.649   1.797  1.00  0.00     0.010 C   
ATOM     34  C19 UNL     1      -2.676   1.265   4.035  1.00  0.00     0.001 C   
ATOM     35  C21 UNL     1      -1.677   3.381   3.096  1.00  0.00     0.001 C   
ATOM     36  C20 UNL     1      -1.720   2.426   4.284  1.00  0.00     0.000 C   
ENDBRANCH  17  31
ENDBRANCH   3  17
TORSDOF 8
