REMARK SMILES Clc1nccnc1-n1cc([C@@H]([NH2+]Cc2ccc3c(c2)OCO3)C2CCCC2)nn1
REMARK SMILES IDX 11 1 10 2 8 3 9 4 29 5 28 6 7 7 2 8 3 9 4 10 6 11 5 12 1 13
REMARK SMILES IDX 12 14 13 17 14 18 15 19 19 20 16 21 18 22 17 23 20 24 22 25
REMARK SMILES IDX 21 26 23 27 24 28 27 29 25 30 26 31
REMARK H PARENT 12 15 12 16
ROOT
ATOM     1   C7  UNL     1      -1.242  -0.956  -0.293  1.00  0.00     0.117 C   
ENDROOT
BRANCH   1   2
ATOM     2   C6  UNL     1      -0.589  -0.983   1.052  1.00  0.00     0.128 A   
ATOM     3   N3  UNL     1      -0.021  -0.992   3.176  1.00  0.00    -0.159 N   
ATOM     4   C5  UNL     1      -1.115  -0.969   2.322  1.00  0.00     0.137 A   
ATOM     5   N6  UNL     1       1.104  -0.962   2.424  1.00  0.00    -0.069 NA  
ATOM     6   N5  UNL     1       0.774  -0.971   1.143  1.00  0.00    -0.131 NA  
BRANCH   3   7
ATOM     7   C4  UNL     1      -0.068  -1.026   4.593  1.00  0.00     0.183 A   
ATOM     8   C1  UNL     1       1.074  -1.034   5.393  1.00  0.00     0.171 A   
ATOM     9   N1  UNL     1       0.994  -1.070   6.749  1.00  0.00    -0.239 NA  
ATOM     10  C2  UNL     1      -0.245  -1.106   7.283  1.00  0.00     0.133 A   
ATOM     11  N2  UNL     1      -1.324  -1.054   5.148  1.00  0.00    -0.235 NA  
ATOM     12  C3  UNL     1      -1.382  -1.098   6.500  1.00  0.00     0.133 A   
ATOM     13  CL1 UNL     1       2.709  -0.982   4.875  1.00  0.00    -0.058 Cl  
ENDBRANCH   3   7
ENDBRANCH   1   2
BRANCH   1  14
ATOM     14  N4  UNL     1      -0.334  -0.288  -1.299  1.00  0.00     0.249 N   
ATOM     15  H5  UNL     1      -0.615  -0.508  -2.260  1.00  0.00     0.199 HD  
ATOM     16  H6  UNL     1       0.606  -0.692  -1.174  1.00  0.00     0.199 HD  
BRANCH  14  17
ATOM     17  C8  UNL     1      -0.200   1.189  -1.163  1.00  0.00     0.164 C   
BRANCH  17  18
ATOM     18  C9  UNL     1       0.750   1.722  -2.198  1.00  0.00    -0.002 A   
ATOM     19  C10 UNL     1       2.140   1.759  -1.936  1.00  0.00     0.012 A   
ATOM     20  C14 UNL     1       0.271   2.136  -3.453  1.00  0.00     0.045 A   
ATOM     21  C11 UNL     1       3.042   2.214  -2.905  1.00  0.00     0.037 A   
ATOM     22  C13 UNL     1       1.186   2.576  -4.385  1.00  0.00     0.109 A   
ATOM     23  C12 UNL     1       2.533   2.615  -4.120  1.00  0.00     0.108 A   
ATOM     24  O1  UNL     1       0.890   3.009  -5.638  1.00  0.00    -0.316 OA  
ATOM     25  O2  UNL     1       3.254   3.083  -5.171  1.00  0.00    -0.316 OA  
ATOM     26  C15 UNL     1       2.208   3.347  -6.130  1.00  0.00     0.337 C   
ENDBRANCH  17  18
ENDBRANCH  14  17
ENDBRANCH   1  14
BRANCH   1  27
ATOM     27  C16 UNL     1      -1.616  -2.341  -0.856  1.00  0.00     0.043 C   
ATOM     28  C17 UNL     1      -2.594  -3.150  -0.003  1.00  0.00     0.010 C   
ATOM     29  C20 UNL     1      -0.459  -3.325  -1.071  1.00  0.00     0.010 C   
ATOM     30  C18 UNL     1      -2.558  -4.521  -0.662  1.00  0.00     0.001 C   
ATOM     31  C19 UNL     1      -1.108  -4.711  -1.102  1.00  0.00     0.001 C   
ENDBRANCH   1  27
TORSDOF 6
