REMARK SMILES Cc1cc(CCn2cc([C@@H]([NH2+]Cc3ccc4c(c3)OCO4)C(C)(C)C)nn2)cc(Cl)n1
REMARK SMILES IDX 7 1 8 2 9 3 26 4 27 5 6 7 5 8 4 9 2 10 3 11 31 12 29 13
REMARK SMILES IDX 28 14 1 15 30 16 10 17 11 18 12 21 13 22 14 23 18 24 15 25
REMARK SMILES IDX 17 26 16 27 19 28 21 29 20 30 22 31 23 32 24 33 25 34
REMARK H PARENT 8 6 11 19 11 20
ROOT
ATOM     1   N1  UNL     1       1.086   2.925   0.647  1.00  0.00    -0.212 N   
ATOM     2   C7  UNL     1       1.880   1.987   0.047  1.00  0.00     0.045 A   
ATOM     3   C8  UNL     1       1.035   1.359  -0.843  1.00  0.00     0.127 A   
ATOM     4   N3  UNL     1      -0.195   1.966  -0.801  1.00  0.00    -0.132 NA  
ATOM     5   N4  UNL     1      -0.147   2.925   0.108  1.00  0.00    -0.076 NA  
ATOM     6   H9  UNL     1       2.902   1.809   0.352  1.00  0.00     0.083 HD  
ENDROOT
BRANCH   1   7
ATOM     7   C6  UNL     1       1.355   3.707   1.839  1.00  0.00     0.139 C   
BRANCH   7   8
ATOM     8   C5  UNL     1       1.733   2.862   3.067  1.00  0.00     0.057 C   
BRANCH   8   9
ATOM     9   C4  UNL     1       0.864   1.641   3.270  1.00  0.00    -0.042 A   
ATOM     10  C2  UNL     1      -1.299   0.598   3.495  1.00  0.00     0.039 A   
ATOM     11  C3  UNL     1      -0.521   1.753   3.443  1.00  0.00     0.027 A   
ATOM     12  N5  UNL     1      -0.770  -0.641   3.366  1.00  0.00    -0.241 NA  
ATOM     13  C23 UNL     1       0.572  -0.725   3.284  1.00  0.00     0.129 A   
ATOM     14  C22 UNL     1       1.423   0.362   3.228  1.00  0.00     0.044 A   
ATOM     15  C1  UNL     1      -2.789   0.701   3.659  1.00  0.00     0.067 C   
ATOM     16  CL1 UNL     1       1.175  -2.318   3.093  1.00  0.00    -0.062 Cl  
ENDBRANCH   8   9
ENDBRANCH   7   8
ENDBRANCH   1   7
BRANCH   3  17
ATOM     17  C9  UNL     1       1.215   0.125  -1.677  1.00  0.00     0.120 C   
BRANCH  17  18
ATOM     18  N2  UNL     1      -0.058  -0.692  -1.633  1.00  0.00     0.250 N   
ATOM     19  H11 UNL     1      -0.061  -1.444  -2.326  1.00  0.00     0.199 HD  
ATOM     20  H12 UNL     1      -0.835  -0.062  -1.878  1.00  0.00     0.199 HD  
BRANCH  18  21
ATOM     21  C10 UNL     1      -0.392  -1.284  -0.301  1.00  0.00     0.164 C   
BRANCH  21  22
ATOM     22  C11 UNL     1      -1.623  -2.137  -0.396  1.00  0.00    -0.002 A   
ATOM     23  C12 UNL     1      -2.904  -1.559  -0.227  1.00  0.00     0.012 A   
ATOM     24  C16 UNL     1      -1.513  -3.505  -0.693  1.00  0.00     0.045 A   
ATOM     25  C13 UNL     1      -4.062  -2.336  -0.341  1.00  0.00     0.037 A   
ATOM     26  C15 UNL     1      -2.674  -4.241  -0.797  1.00  0.00     0.109 A   
ATOM     27  C14 UNL     1      -3.913  -3.674  -0.625  1.00  0.00     0.108 A   
ATOM     28  O1  UNL     1      -2.744  -5.570  -1.070  1.00  0.00    -0.316 OA  
ATOM     29  O2  UNL     1      -4.919  -4.575  -0.765  1.00  0.00    -0.316 OA  
ATOM     30  C17 UNL     1      -4.173  -5.784  -1.026  1.00  0.00     0.337 C   
ENDBRANCH  21  22
ENDBRANCH  18  21
ENDBRANCH  17  18
BRANCH  17  31
ATOM     31  C18 UNL     1       1.642   0.407  -3.159  1.00  0.00     0.010 C   
ATOM     32  C19 UNL     1       0.568   1.172  -3.958  1.00  0.00     0.017 C   
ATOM     33  C20 UNL     1       2.949   1.236  -3.184  1.00  0.00     0.017 C   
ATOM     34  C21 UNL     1       1.940  -0.919  -3.897  1.00  0.00     0.017 C   
ENDBRANCH  17  31
ENDBRANCH   3  17
TORSDOF 8
