REMARK SMILES CC(C)[C@H]([NH2+]Cc1ccc2c(c1)OCO2)c1cn(-c2ccc(O)cc2)nn1
REMARK SMILES IDX 16 1 17 2 18 3 26 4 27 5 4 6 2 7 1 8 3 9 5 10 6 13 7 14 8 15
REMARK SMILES IDX 12 16 9 17 11 18 10 19 13 20 15 21 14 22 19 23 20 24 25 25
REMARK SMILES IDX 21 26 24 27 22 28 23 29
REMARK H PARENT 5 11 5 12 23 30
ROOT
ATOM     1   C13 UNL     1       1.005  -0.653   0.295  1.00  0.00     0.127 A   
ATOM     2   C14 UNL     1       2.228  -1.248   0.078  1.00  0.00     0.135 A   
ATOM     3   N2  UNL     1       2.193  -1.672  -1.238  1.00  0.00    -0.181 N   
ATOM     4   N3  UNL     1       0.999  -1.313  -1.778  1.00  0.00    -0.071 NA  
ATOM     5   N4  UNL     1       0.271  -0.709  -0.855  1.00  0.00    -0.131 NA  
ENDROOT
BRANCH   1   6
ATOM     6   C4  UNL     1       0.425   0.008   1.508  1.00  0.00     0.117 C   
BRANCH   6   7
ATOM     7   C2  UNL     1      -0.061  -1.024   2.559  1.00  0.00     0.037 C   
ATOM     8   C1  UNL     1      -1.281  -1.838   2.112  1.00  0.00     0.014 C   
ATOM     9   C3  UNL     1      -0.348  -0.363   3.913  1.00  0.00     0.014 C   
ENDBRANCH   6   7
BRANCH   6  10
ATOM     10  N1  UNL     1      -0.703   0.926   1.119  1.00  0.00     0.249 N   
ATOM     11  H9  UNL     1      -1.267   0.425   0.416  1.00  0.00     0.199 HD  
ATOM     12  H10 UNL     1      -1.333   1.121   1.902  1.00  0.00     0.199 HD  
BRANCH  10  13
ATOM     13  C5  UNL     1      -0.291   2.219   0.504  1.00  0.00     0.164 C   
BRANCH  13  14
ATOM     14  C6  UNL     1      -1.499   2.994   0.060  1.00  0.00    -0.002 A   
ATOM     15  C7  UNL     1      -2.054   2.768  -1.223  1.00  0.00     0.012 A   
ATOM     16  C11 UNL     1      -2.120   3.901   0.934  1.00  0.00     0.045 A   
ATOM     17  C8  UNL     1      -3.205   3.447  -1.637  1.00  0.00     0.037 A   
ATOM     18  C10 UNL     1      -3.254   4.553   0.494  1.00  0.00     0.109 A   
ATOM     19  C9  UNL     1      -3.781   4.333  -0.754  1.00  0.00     0.108 A   
ATOM     20  O1  UNL     1      -3.973   5.456   1.211  1.00  0.00    -0.316 OA  
ATOM     21  O2  UNL     1      -4.897   5.072  -0.982  1.00  0.00    -0.316 OA  
ATOM     22  C12 UNL     1      -5.004   5.803   0.258  1.00  0.00     0.337 C   
ENDBRANCH  13  14
ENDBRANCH  10  13
ENDBRANCH   6  10
ENDBRANCH   1   6
BRANCH   3  23
ATOM     23  C15 UNL     1       3.184  -2.356  -1.986  1.00  0.00     0.058 A   
ATOM     24  C16 UNL     1       4.411  -2.715  -1.408  1.00  0.00     0.028 A   
ATOM     25  C20 UNL     1       2.931  -2.680  -3.329  1.00  0.00     0.028 A   
ATOM     26  C17 UNL     1       5.374  -3.389  -2.168  1.00  0.00     0.035 A   
ATOM     27  C19 UNL     1       3.896  -3.352  -4.081  1.00  0.00     0.035 A   
ATOM     28  C18 UNL     1       5.107  -3.701  -3.497  1.00  0.00     0.071 A   
BRANCH  28  29
ATOM     29  O3  UNL     1       6.015  -4.356  -4.272  1.00  0.00    -0.361 OA  
ATOM     30  H21 UNL     1       6.810  -4.551  -3.748  1.00  0.00     0.218 HD  
ENDBRANCH  28  29
ENDBRANCH   3  23
TORSDOF 7
