REMARK SMILES Fc1cc(F)cc(-n2cc([C@@H]([NH2+]Cc3ccc4c(c3)OCO4)C3CCCCC3)nn2)c1
REMARK SMILES IDX 11 1 10 2 8 3 9 4 30 5 29 6 7 7 2 8 3 9 31 10 4 11 6 12 1 13
REMARK SMILES IDX 5 14 12 15 13 18 14 19 15 20 19 21 16 22 18 23 17 24 20 25
REMARK SMILES IDX 22 26 21 27 23 28 24 29 28 30 25 31 27 32 26 33
REMARK H PARENT 12 16 12 17
ROOT
ATOM     1   C8  UNL     1       0.796  -0.787  -1.385  1.00  0.00     0.117 C   
ENDROOT
BRANCH   1   2
ATOM     2   C7  UNL     1       0.634   0.697  -1.249  1.00  0.00     0.127 A   
ATOM     3   N1  UNL     1       0.455   2.869  -1.467  1.00  0.00    -0.180 N   
ATOM     4   C6  UNL     1       0.665   1.707  -2.185  1.00  0.00     0.135 A   
ATOM     5   N4  UNL     1       0.333   2.553  -0.153  1.00  0.00    -0.071 NA  
ATOM     6   N3  UNL     1       0.427   1.242  -0.013  1.00  0.00    -0.131 NA  
BRANCH   3   7
ATOM     7   C5  UNL     1       0.375   4.205  -1.927  1.00  0.00     0.063 A   
ATOM     8   C1  UNL     1       0.419   5.840  -3.705  1.00  0.00     0.128 A   
ATOM     9   C2  UNL     1       0.209   6.871  -2.801  1.00  0.00     0.078 A   
ATOM     10  C23 UNL     1       0.503   4.511  -3.288  1.00  0.00     0.065 A   
ATOM     11  C3  UNL     1       0.082   6.560  -1.456  1.00  0.00     0.128 A   
ATOM     12  C4  UNL     1       0.161   5.243  -1.007  1.00  0.00     0.065 A   
ATOM     13  F1  UNL     1       0.544   6.120  -5.008  1.00  0.00    -0.207 F   
ATOM     14  F2  UNL     1      -0.120   7.542  -0.570  1.00  0.00    -0.207 F   
ENDBRANCH   3   7
ENDBRANCH   1   2
BRANCH   1  15
ATOM     15  N2  UNL     1       1.168  -1.400  -0.061  1.00  0.00     0.249 N   
ATOM     16  H5  UNL     1       0.584  -0.943   0.655  1.00  0.00     0.199 HD  
ATOM     17  H6  UNL     1       0.941  -2.398  -0.015  1.00  0.00     0.199 HD  
BRANCH  15  18
ATOM     18  C9  UNL     1       2.587  -1.214   0.353  1.00  0.00     0.164 C   
BRANCH  18  19
ATOM     19  C10 UNL     1       2.811  -1.793   1.721  1.00  0.00    -0.002 A   
ATOM     20  C11 UNL     1       3.282  -3.119   1.872  1.00  0.00     0.012 A   
ATOM     21  C15 UNL     1       2.499  -1.034   2.862  1.00  0.00     0.045 A   
ATOM     22  C12 UNL     1       3.450  -3.680   3.143  1.00  0.00     0.037 A   
ATOM     23  C14 UNL     1       2.676  -1.617   4.099  1.00  0.00     0.109 A   
ATOM     24  C13 UNL     1       3.137  -2.903   4.236  1.00  0.00     0.108 A   
ATOM     25  O1  UNL     1       2.422  -1.026   5.296  1.00  0.00    -0.316 OA  
ATOM     26  O2  UNL     1       3.235  -3.283   5.537  1.00  0.00    -0.316 OA  
ATOM     27  C16 UNL     1       2.802  -2.081   6.209  1.00  0.00     0.337 C   
ENDBRANCH  18  19
ENDBRANCH  15  18
ENDBRANCH   1  15
BRANCH   1  28
ATOM     28  C17 UNL     1      -0.482  -1.462  -1.953  1.00  0.00     0.043 C   
ATOM     29  C18 UNL     1      -0.206  -2.906  -2.418  1.00  0.00     0.010 C   
ATOM     30  C22 UNL     1      -1.685  -1.433  -0.990  1.00  0.00     0.010 C   
ATOM     31  C19 UNL     1      -1.448  -3.543  -3.041  1.00  0.00     0.001 C   
ATOM     32  C21 UNL     1      -2.922  -2.076  -1.616  1.00  0.00     0.001 C   
ATOM     33  C20 UNL     1      -2.640  -3.497  -2.091  1.00  0.00     0.000 C   
ENDBRANCH   1  28
TORSDOF 6
