REMARK SMILES O[C@H](Cn1cc([C@@H]([NH2+]Cc2ccc3c(c2)OCO3)C2CCCCC2)nn1)c1cccc(F)c1
REMARK SMILES IDX 4 1 5 2 6 3 25 4 26 5 3 7 2 8 1 9 27 11 28 12 33 13 29 14
REMARK SMILES IDX 31 15 30 16 32 17 7 18 8 19 9 22 10 23 11 24 15 25 12 26
REMARK SMILES IDX 14 27 13 28 16 29 18 30 17 31 19 32 20 33 24 34 21 35 23 36
REMARK SMILES IDX 22 37
REMARK H PARENT 5 6 1 10 8 20 8 21
ROOT
ATOM     1   N1  UNL     1       1.124   0.661   1.859  1.00  0.00    -0.209 N   
ATOM     2   C3  UNL     1       0.648  -0.207   0.914  1.00  0.00     0.045 A   
ATOM     3   C4  UNL     1       1.255   0.204  -0.253  1.00  0.00     0.127 A   
ATOM     4   N3  UNL     1       2.068   1.272   0.018  1.00  0.00    -0.132 NA  
ATOM     5   N4  UNL     1       2.002   1.522   1.314  1.00  0.00    -0.076 NA  
ATOM     6   H5  UNL     1      -0.068  -0.983   1.146  1.00  0.00     0.083 HD  
ENDROOT
BRANCH   1   7
ATOM     7   C2  UNL     1       0.766   0.737   3.262  1.00  0.00     0.170 C   
BRANCH   7   8
ATOM     8   C1  UNL     1      -0.088   1.958   3.650  1.00  0.00     0.164 C   
BRANCH   8   9
ATOM     9   O1  UNL     1       0.717   3.132   3.733  1.00  0.00    -0.387 OA  
ATOM     10  H1  UNL     1       0.127   3.891   3.892  1.00  0.00     0.211 HD  
ENDBRANCH   8   9
BRANCH   8  11
ATOM     11  C20 UNL     1      -1.287   2.197   2.752  1.00  0.00    -0.015 A   
ATOM     12  C21 UNL     1      -2.540   1.652   3.074  1.00  0.00     0.006 A   
ATOM     13  C25 UNL     1      -1.161   2.939   1.565  1.00  0.00     0.045 A   
ATOM     14  C22 UNL     1      -3.639   1.847   2.230  1.00  0.00     0.003 A   
ATOM     15  C24 UNL     1      -2.257   3.111   0.726  1.00  0.00     0.123 A   
ATOM     16  C23 UNL     1      -3.496   2.575   1.050  1.00  0.00     0.039 A   
ATOM     17  F1  UNL     1      -2.099   3.769  -0.430  1.00  0.00    -0.207 F   
ENDBRANCH   8  11
ENDBRANCH   7   8
ENDBRANCH   1   7
BRANCH   3  18
ATOM     18  C5  UNL     1       1.082  -0.239  -1.668  1.00  0.00     0.117 C   
BRANCH  18  19
ATOM     19  N2  UNL     1       1.111   0.968  -2.586  1.00  0.00     0.249 N   
ATOM     20  H7  UNL     1       1.932   1.521  -2.301  1.00  0.00     0.199 HD  
ATOM     21  H8  UNL     1       1.256   0.680  -3.557  1.00  0.00     0.199 HD  
BRANCH  19  22
ATOM     22  C6  UNL     1      -0.070   1.881  -2.511  1.00  0.00     0.164 C   
BRANCH  22  23
ATOM     23  C7  UNL     1      -1.305   1.286  -3.127  1.00  0.00    -0.002 A   
ATOM     24  C8  UNL     1      -1.475   1.288  -4.532  1.00  0.00     0.012 A   
ATOM     25  C12 UNL     1      -2.289   0.695  -2.314  1.00  0.00     0.045 A   
ATOM     26  C9  UNL     1      -2.607   0.714  -5.121  1.00  0.00     0.037 A   
ATOM     27  C11 UNL     1      -3.390   0.136  -2.925  1.00  0.00     0.109 A   
ATOM     28  C10 UNL     1      -3.546   0.145  -4.289  1.00  0.00     0.108 A   
ATOM     29  O2  UNL     1      -4.421  -0.478  -2.287  1.00  0.00    -0.316 OA  
ATOM     30  O3  UNL     1      -4.702  -0.448  -4.681  1.00  0.00    -0.316 OA  
ATOM     31  C13 UNL     1      -5.250  -0.857  -3.410  1.00  0.00     0.337 C   
ENDBRANCH  22  23
ENDBRANCH  19  22
ENDBRANCH  18  19
BRANCH  18  32
ATOM     32  C14 UNL     1       2.146  -1.254  -2.162  1.00  0.00     0.043 C   
ATOM     33  C15 UNL     1       2.027  -2.602  -1.423  1.00  0.00     0.010 C   
ATOM     34  C19 UNL     1       3.599  -0.744  -2.096  1.00  0.00     0.010 C   
ATOM     35  C16 UNL     1       3.009  -3.635  -1.971  1.00  0.00     0.001 C   
ATOM     36  C18 UNL     1       4.583  -1.779  -2.642  1.00  0.00     0.001 C   
ATOM     37  C17 UNL     1       4.445  -3.122  -1.932  1.00  0.00     0.000 C   
ENDBRANCH  18  32
ENDBRANCH   3  18
TORSDOF 9
