REMARK SMILES O[C@@H](Cn1cc([C@@H]([NH2+]Cc2ccc3c(c2)OCO3)C2CCCCC2)nn1)c1cccc(F)c1
REMARK SMILES IDX 4 1 5 2 6 3 25 4 26 5 3 7 2 8 1 9 27 11 28 12 33 13 29 14
REMARK SMILES IDX 31 15 30 16 32 17 7 18 8 19 9 22 10 23 11 24 15 25 12 26
REMARK SMILES IDX 14 27 13 28 16 29 18 30 17 31 19 32 20 33 24 34 21 35 23 36
REMARK SMILES IDX 22 37
REMARK H PARENT 5 6 1 10 8 20 8 21
ROOT
ATOM     1   N1  UNL     1       2.811   0.145  -1.069  1.00  0.00    -0.209 N   
ATOM     2   C3  UNL     1       1.787  -0.577  -0.521  1.00  0.00     0.045 A   
ATOM     3   C4  UNL     1       0.768  -0.456  -1.441  1.00  0.00     0.127 A   
ATOM     4   N3  UNL     1       1.204   0.295  -2.502  1.00  0.00    -0.132 NA  
ATOM     5   N4  UNL     1       2.456   0.650  -2.266  1.00  0.00    -0.076 NA  
ATOM     6   H5  UNL     1       1.871  -1.053   0.446  1.00  0.00     0.083 HD  
ENDROOT
BRANCH   1   7
ATOM     7   C2  UNL     1       4.123   0.417  -0.517  1.00  0.00     0.170 C   
BRANCH   7   8
ATOM     8   C1  UNL     1       4.112   1.419   0.650  1.00  0.00     0.164 C   
BRANCH   8   9
ATOM     9   O1  UNL     1       3.536   0.807   1.810  1.00  0.00    -0.387 OA  
ATOM     10  H1  UNL     1       3.652   1.439   2.544  1.00  0.00     0.211 HD  
ENDBRANCH   8   9
BRANCH   8  11
ATOM     11  C20 UNL     1       3.408   2.724   0.337  1.00  0.00    -0.015 A   
ATOM     12  C21 UNL     1       4.093   3.757  -0.322  1.00  0.00     0.006 A   
ATOM     13  C25 UNL     1       2.050   2.910   0.640  1.00  0.00     0.045 A   
ATOM     14  C22 UNL     1       3.435   4.941  -0.670  1.00  0.00     0.003 A   
ATOM     15  C24 UNL     1       1.400   4.082   0.269  1.00  0.00     0.123 A   
ATOM     16  C23 UNL     1       2.081   5.102  -0.379  1.00  0.00     0.039 A   
ATOM     17  F1  UNL     1       0.089   4.205   0.516  1.00  0.00    -0.207 F   
ENDBRANCH   8  11
ENDBRANCH   7   8
ENDBRANCH   1   7
BRANCH   3  18
ATOM     18  C5  UNL     1      -0.657  -0.908  -1.407  1.00  0.00     0.117 C   
BRANCH  18  19
ATOM     19  N2  UNL     1      -1.530   0.256  -1.840  1.00  0.00     0.249 N   
ATOM     20  H7  UNL     1      -1.134   0.587  -2.732  1.00  0.00     0.199 HD  
ATOM     21  H8  UNL     1      -2.489  -0.042  -2.023  1.00  0.00     0.199 HD  
BRANCH  19  22
ATOM     22  C6  UNL     1      -1.581   1.430  -0.914  1.00  0.00     0.164 C   
BRANCH  22  23
ATOM     23  C7  UNL     1      -2.371   1.141   0.332  1.00  0.00    -0.002 A   
ATOM     24  C8  UNL     1      -3.786   1.153   0.298  1.00  0.00     0.012 A   
ATOM     25  C12 UNL     1      -1.711   0.822   1.532  1.00  0.00     0.045 A   
ATOM     26  C9  UNL     1      -4.535   0.854   1.441  1.00  0.00     0.037 A   
ATOM     27  C11 UNL     1      -2.479   0.528   2.639  1.00  0.00     0.109 A   
ATOM     28  C10 UNL     1      -3.851   0.543   2.596  1.00  0.00     0.108 A   
ATOM     29  O2  UNL     1      -2.001   0.193   3.866  1.00  0.00    -0.316 OA  
ATOM     30  O3  UNL     1      -4.410   0.227   3.792  1.00  0.00    -0.316 OA  
ATOM     31  C13 UNL     1      -3.233   0.033   4.605  1.00  0.00     0.337 C   
ENDBRANCH  22  23
ENDBRANCH  19  22
ENDBRANCH  18  19
BRANCH  18  32
ATOM     32  C14 UNL     1      -0.918  -2.128  -2.342  1.00  0.00     0.043 C   
ATOM     33  C15 UNL     1      -2.395  -2.581  -2.321  1.00  0.00     0.010 C   
ATOM     34  C19 UNL     1      -0.010  -3.320  -1.954  1.00  0.00     0.010 C   
ATOM     35  C16 UNL     1      -2.641  -3.831  -3.164  1.00  0.00     0.001 C   
ATOM     36  C18 UNL     1      -0.270  -4.561  -2.805  1.00  0.00     0.001 C   
ATOM     37  C17 UNL     1      -1.731  -4.980  -2.755  1.00  0.00     0.000 C   
ENDBRANCH  18  32
ENDBRANCH   3  18
TORSDOF 9
