REMARK SMILES COc1ccc(Cn2cc([C@@H]([NH2+]Cc3ccc4c(c3)OCO4)C(C)C)nn2)cn1
REMARK SMILES IDX 8 1 9 2 10 3 26 4 27 5 7 7 6 8 3 9 4 10 29 11 5 12 28 13
REMARK SMILES IDX 2 14 1 15 11 16 12 17 13 20 14 21 15 22 19 23 16 24 18 25
REMARK SMILES IDX 17 26 20 27 22 28 21 29 23 30 24 31 25 32
REMARK H PARENT 9 6 12 18 12 19
ROOT
ATOM     1   N1  UNL     1       2.708   1.255  -0.750  1.00  0.00    -0.208 N   
ATOM     2   C7  UNL     1       2.794  -0.094  -0.535  1.00  0.00     0.046 A   
ATOM     3   C8  UNL     1       1.551  -0.567  -0.896  1.00  0.00     0.127 A   
ATOM     4   N3  UNL     1       0.778   0.482  -1.327  1.00  0.00    -0.132 NA  
ATOM     5   N4  UNL     1       1.494   1.589  -1.229  1.00  0.00    -0.076 NA  
ATOM     6   H8  UNL     1       3.683  -0.561  -0.134  1.00  0.00     0.083 HD  
ENDROOT
BRANCH   1   7
ATOM     7   C6  UNL     1       3.699   2.280  -0.463  1.00  0.00     0.171 C   
BRANCH   7   8
ATOM     8   C5  UNL     1       3.744   2.576   1.009  1.00  0.00    -0.010 A   
ATOM     9   C2  UNL     1       3.707   3.103   3.701  1.00  0.00     0.166 A   
ATOM     10  C3  UNL     1       4.848   2.542   3.153  1.00  0.00     0.055 A   
ATOM     11  N5  UNL     1       2.606   3.405   2.983  1.00  0.00    -0.232 NA  
ATOM     12  C4  UNL     1       4.866   2.274   1.786  1.00  0.00     0.011 A   
ATOM     13  C21 UNL     1       2.653   3.152   1.658  1.00  0.00     0.119 A   
BRANCH   9  14
ATOM     14  O1  UNL     1       3.733   3.333   5.061  1.00  0.00    -0.333 OA  
ATOM     15  C1  UNL     1       2.576   4.013   5.536  1.00  0.00     0.205 C   
ENDBRANCH   9  14
ENDBRANCH   7   8
ENDBRANCH   1   7
BRANCH   3  16
ATOM     16  C9  UNL     1       0.959  -1.940  -0.835  1.00  0.00     0.117 C   
BRANCH  16  17
ATOM     17  N2  UNL     1      -0.535  -1.855  -0.672  1.00  0.00     0.249 N   
ATOM     18  H10 UNL     1      -0.863  -1.127  -1.326  1.00  0.00     0.199 HD  
ATOM     19  H11 UNL     1      -1.008  -2.720  -0.947  1.00  0.00     0.199 HD  
BRANCH  17  20
ATOM     20  C10 UNL     1      -1.003  -1.459   0.687  1.00  0.00     0.164 C   
BRANCH  20  21
ATOM     21  C11 UNL     1      -2.496  -1.291   0.695  1.00  0.00    -0.002 A   
ATOM     22  C12 UNL     1      -3.070  -0.048   0.334  1.00  0.00     0.012 A   
ATOM     23  C16 UNL     1      -3.332  -2.377   1.004  1.00  0.00     0.045 A   
ATOM     24  C13 UNL     1      -4.458   0.116   0.291  1.00  0.00     0.037 A   
ATOM     25  C15 UNL     1      -4.696  -2.181   0.952  1.00  0.00     0.109 A   
ATOM     26  C14 UNL     1      -5.244  -0.970   0.607  1.00  0.00     0.108 A   
ATOM     27  O2  UNL     1      -5.640  -3.121   1.217  1.00  0.00    -0.316 OA  
ATOM     28  O3  UNL     1      -6.602  -0.995   0.615  1.00  0.00    -0.316 OA  
ATOM     29  C17 UNL     1      -6.852  -2.354   1.029  1.00  0.00     0.337 C   
ENDBRANCH  20  21
ENDBRANCH  17  20
ENDBRANCH  16  17
BRANCH  16  30
ATOM     30  C18 UNL     1       1.319  -2.791  -2.081  1.00  0.00     0.037 C   
ATOM     31  C19 UNL     1       0.990  -4.273  -1.867  1.00  0.00     0.014 C   
ATOM     32  C20 UNL     1       0.667  -2.301  -3.380  1.00  0.00     0.014 C   
ENDBRANCH  16  30
ENDBRANCH   3  16
TORSDOF 8
