REMARK SMILES Cc1nc(Cn2cc([C@H](CC(C)C)[NH2+]Cc3ccc4c(c3)OCO4)nn2)ccc1F
REMARK SMILES IDX 6 1 7 2 8 3 25 4 26 5 5 7 4 8 2 9 3 10 29 11 28 12 27 13
REMARK SMILES IDX 1 14 30 15 9 16 10 17 11 18 12 19 13 20 14 21 15 24 16 25
REMARK SMILES IDX 17 26 21 27 18 28 20 29 19 30 22 31 24 32 23 33
REMARK H PARENT 7 6 14 22 14 23
ROOT
ATOM     1   N2  UNL     1       0.148  -1.372  -2.684  1.00  0.00    -0.206 N   
ATOM     2   C5  UNL     1       0.551  -0.408  -1.803  1.00  0.00     0.046 A   
ATOM     3   C6  UNL     1       1.612  -0.985  -1.141  1.00  0.00     0.127 A   
ATOM     4   N4  UNL     1       1.825  -2.243  -1.641  1.00  0.00    -0.132 NA  
ATOM     5   N5  UNL     1       0.925  -2.468  -2.586  1.00  0.00    -0.076 NA  
ATOM     6   H6  UNL     1       0.033   0.536  -1.704  1.00  0.00     0.083 HD  
ENDROOT
BRANCH   1   7
ATOM     7   C4  UNL     1      -0.985  -1.339  -3.588  1.00  0.00     0.190 C   
BRANCH   7   8
ATOM     8   C3  UNL     1      -2.227  -1.789  -2.864  1.00  0.00     0.060 A   
ATOM     9   C2  UNL     1      -3.911  -1.299  -1.326  1.00  0.00     0.073 A   
ATOM     10  N1  UNL     1      -2.777  -0.915  -1.974  1.00  0.00    -0.253 NA  
ATOM     11  C22 UNL     1      -4.494  -2.544  -1.520  1.00  0.00     0.144 A   
ATOM     12  C21 UNL     1      -3.916  -3.434  -2.412  1.00  0.00     0.043 A   
ATOM     13  C20 UNL     1      -2.765  -3.054  -3.098  1.00  0.00     0.028 A   
ATOM     14  C1  UNL     1      -4.531  -0.324  -0.372  1.00  0.00     0.070 C   
ATOM     15  F1  UNL     1      -5.601  -2.896  -0.853  1.00  0.00    -0.205 F   
ENDBRANCH   7   8
ENDBRANCH   1   7
BRANCH   3  16
ATOM     16  C7  UNL     1       2.392  -0.514   0.035  1.00  0.00     0.114 C   
BRANCH  16  17
ATOM     17  C8  UNL     1       3.879  -0.243  -0.271  1.00  0.00     0.064 C   
BRANCH  17  18
ATOM     18  C9  UNL     1       4.222   0.968  -1.168  1.00  0.00    -0.012 C   
ATOM     19  C10 UNL     1       3.976   0.716  -2.655  1.00  0.00     0.007 C   
ATOM     20  C11 UNL     1       3.535   2.257  -0.717  1.00  0.00     0.007 C   
ENDBRANCH  17  18
ENDBRANCH  16  17
BRANCH  16  21
ATOM     21  N3  UNL     1       2.366  -1.585   1.116  1.00  0.00     0.249 N   
ATOM     22  H17 UNL     1       2.764  -2.434   0.692  1.00  0.00     0.199 HD  
ATOM     23  H18 UNL     1       2.981  -1.311   1.888  1.00  0.00     0.199 HD  
BRANCH  21  24
ATOM     24  C12 UNL     1       1.024  -1.953   1.665  1.00  0.00     0.164 C   
BRANCH  24  25
ATOM     25  C13 UNL     1       0.305  -0.801   2.308  1.00  0.00    -0.002 A   
ATOM     26  C14 UNL     1      -0.849  -0.252   1.698  1.00  0.00     0.012 A   
ATOM     27  C18 UNL     1       0.786  -0.241   3.505  1.00  0.00     0.045 A   
ATOM     28  C15 UNL     1      -1.510   0.844   2.262  1.00  0.00     0.037 A   
ATOM     29  C17 UNL     1       0.110   0.839   4.034  1.00  0.00     0.109 A   
ATOM     30  C16 UNL     1      -1.005   1.367   3.430  1.00  0.00     0.108 A   
ATOM     31  O1  UNL     1       0.447   1.500   5.173  1.00  0.00    -0.316 OA  
ATOM     32  O2  UNL     1      -1.512   2.425   4.114  1.00  0.00    -0.316 OA  
ATOM     33  C19 UNL     1      -0.607   2.489   5.237  1.00  0.00     0.337 C   
ENDBRANCH  24  25
ENDBRANCH  21  24
ENDBRANCH  16  21
ENDBRANCH   3  16
TORSDOF 8
