REMARK SMILES Cc1cc([C@H](CO)n2cc([C@@H]([NH2+]Cc3ccc4c(c3)OCO4)C(C)C)nn2)c(C)s1
REMARK SMILES IDX 8 1 9 2 10 3 26 4 27 5 5 7 4 8 2 9 3 10 30 11 28 12 1 13
REMARK SMILES IDX 29 14 6 15 7 16 11 18 12 19 13 22 14 23 15 24 19 25 16 26
REMARK SMILES IDX 18 27 17 28 20 29 22 30 21 31 23 32 24 33 25 34
REMARK H PARENT 9 6 7 17 12 20 12 21
ROOT
ATOM     1   N1  UNL     1       0.672  -0.136  -1.431  1.00  0.00    -0.202 N   
ATOM     2   C7  UNL     1       0.903   0.036  -0.090  1.00  0.00     0.046 A   
ATOM     3   C8  UNL     1       0.422  -1.119   0.484  1.00  0.00     0.127 A   
ATOM     4   N3  UNL     1      -0.084  -1.934  -0.495  1.00  0.00    -0.132 NA  
ATOM     5   N4  UNL     1       0.068  -1.324  -1.658  1.00  0.00    -0.075 NA  
ATOM     6   H9  UNL     1       1.366   0.928   0.306  1.00  0.00     0.083 HD  
ENDROOT
BRANCH   1   7
ATOM     7   C5  UNL     1       0.968   0.803  -2.515  1.00  0.00     0.156 C   
BRANCH   7   8
ATOM     8   C4  UNL     1      -0.322   1.426  -3.020  1.00  0.00    -0.013 A   
ATOM     9   C2  UNL     1      -2.367   1.532  -4.176  1.00  0.00    -0.013 A   
ATOM     10  C3  UNL     1      -1.282   0.749  -3.853  1.00  0.00     0.017 A   
ATOM     11  S1  UNL     1      -2.251   3.080  -3.473  1.00  0.00    -0.099 S   
ATOM     12  C21 UNL     1      -0.743   2.723  -2.748  1.00  0.00    -0.008 A   
ATOM     13  C1  UNL     1      -3.546   1.182  -5.020  1.00  0.00     0.052 C   
ATOM     14  C22 UNL     1      -0.061   3.779  -1.937  1.00  0.00     0.053 C   
ENDBRANCH   7   8
BRANCH   7  15
ATOM     15  C6  UNL     1       1.816   0.156  -3.622  1.00  0.00     0.185 C   
BRANCH  15  16
ATOM     16  O1  UNL     1       3.149  -0.068  -3.152  1.00  0.00    -0.394 OA  
ATOM     17  H8  UNL     1       3.635  -0.503  -3.877  1.00  0.00     0.210 HD  
ENDBRANCH  15  16
ENDBRANCH   7  15
ENDBRANCH   1   7
BRANCH   3  18
ATOM     18  C9  UNL     1       0.334  -1.541   1.914  1.00  0.00     0.117 C   
BRANCH  18  19
ATOM     19  N2  UNL     1      -0.897  -2.387   2.142  1.00  0.00     0.249 N   
ATOM     20  H11 UNL     1      -0.884  -3.112   1.411  1.00  0.00     0.199 HD  
ATOM     21  H12 UNL     1      -0.850  -2.861   3.046  1.00  0.00     0.199 HD  
BRANCH  19  22
ATOM     22  C10 UNL     1      -2.212  -1.686   2.027  1.00  0.00     0.164 C   
BRANCH  22  23
ATOM     23  C11 UNL     1      -2.428  -0.661   3.105  1.00  0.00    -0.002 A   
ATOM     24  C12 UNL     1      -2.689  -1.063   4.438  1.00  0.00     0.012 A   
ATOM     25  C16 UNL     1      -2.341   0.709   2.800  1.00  0.00     0.045 A   
ATOM     26  C13 UNL     1      -2.854  -0.115   5.454  1.00  0.00     0.037 A   
ATOM     27  C15 UNL     1      -2.506   1.616   3.825  1.00  0.00     0.109 A   
ATOM     28  C14 UNL     1      -2.755   1.216   5.115  1.00  0.00     0.108 A   
ATOM     29  O2  UNL     1      -2.441   2.967   3.702  1.00  0.00    -0.316 OA  
ATOM     30  O3  UNL     1      -2.881   2.267   5.967  1.00  0.00    -0.316 OA  
ATOM     31  C17 UNL     1      -2.714   3.379   5.061  1.00  0.00     0.337 C   
ENDBRANCH  22  23
ENDBRANCH  19  22
ENDBRANCH  18  19
BRANCH  18  32
ATOM     32  C18 UNL     1       1.605  -2.304   2.380  1.00  0.00     0.037 C   
ATOM     33  C19 UNL     1       1.766  -3.695   1.756  1.00  0.00     0.014 C   
ATOM     34  C20 UNL     1       1.667  -2.414   3.908  1.00  0.00     0.014 C   
ENDBRANCH  18  32
ENDBRANCH   3  18
TORSDOF 9
