REMARK SMILES Cc1cc([C@@H](CO)n2cc([C@@H]([NH2+]Cc3ccc4c(c3)OCO4)C(C)C)nn2)c(C)s1
REMARK SMILES IDX 8 1 9 2 10 3 26 4 27 5 5 7 4 8 2 9 3 10 30 11 28 12 1 13
REMARK SMILES IDX 29 14 6 15 7 16 11 18 12 19 13 22 14 23 15 24 19 25 16 26
REMARK SMILES IDX 18 27 17 28 20 29 22 30 21 31 23 32 24 33 25 34
REMARK H PARENT 9 6 7 17 12 20 12 21
ROOT
ATOM     1   N1  UNL     1       0.567  -0.752   2.498  1.00  0.00    -0.202 N   
ATOM     2   C7  UNL     1       0.482  -1.262   1.228  1.00  0.00     0.046 A   
ATOM     3   C8  UNL     1       1.490  -0.628   0.540  1.00  0.00     0.127 A   
ATOM     4   N3  UNL     1       2.141   0.233   1.387  1.00  0.00    -0.132 NA  
ATOM     5   N4  UNL     1       1.564   0.158   2.575  1.00  0.00    -0.075 NA  
ATOM     6   H9  UNL     1      -0.253  -2.007   0.955  1.00  0.00     0.083 HD  
ENDROOT
BRANCH   1   7
ATOM     7   C5  UNL     1      -0.242  -1.061   3.676  1.00  0.00     0.156 C   
BRANCH   7   8
ATOM     8   C4  UNL     1      -1.726  -1.009   3.336  1.00  0.00    -0.013 A   
ATOM     9   C2  UNL     1      -3.849  -1.810   2.709  1.00  0.00    -0.013 A   
ATOM     10  C3  UNL     1      -2.539  -2.141   2.977  1.00  0.00     0.017 A   
ATOM     11  S1  UNL     1      -4.116  -0.137   2.883  1.00  0.00    -0.099 S   
ATOM     12  C21 UNL     1      -2.488   0.155   3.320  1.00  0.00    -0.008 A   
ATOM     13  C1  UNL     1      -4.972  -2.708   2.316  1.00  0.00     0.052 C   
ATOM     14  C22 UNL     1      -2.062   1.555   3.634  1.00  0.00     0.053 C   
ENDBRANCH   7   8
BRANCH   7  15
ATOM     15  C6  UNL     1       0.245  -2.347   4.369  1.00  0.00     0.185 C   
BRANCH  15  16
ATOM     16  O1  UNL     1       0.245  -3.485   3.505  1.00  0.00    -0.394 OA  
ATOM     17  H8  UNL     1       0.588  -4.236   4.025  1.00  0.00     0.210 HD  
ENDBRANCH  15  16
ENDBRANCH   7  15
ENDBRANCH   1   7
BRANCH   3  18
ATOM     18  C9  UNL     1       1.918  -0.736  -0.889  1.00  0.00     0.117 C   
BRANCH  18  19
ATOM     19  N2  UNL     1       2.684   0.498  -1.303  1.00  0.00     0.249 N   
ATOM     20  H11 UNL     1       3.252   0.317  -2.134  1.00  0.00     0.199 HD  
ATOM     21  H12 UNL     1       3.331   0.704  -0.529  1.00  0.00     0.199 HD  
BRANCH  19  22
ATOM     22  C10 UNL     1       1.867   1.727  -1.531  1.00  0.00     0.164 C   
BRANCH  22  23
ATOM     23  C11 UNL     1       1.035   1.646  -2.781  1.00  0.00    -0.002 A   
ATOM     24  C12 UNL     1      -0.370   1.495  -2.696  1.00  0.00     0.012 A   
ATOM     25  C16 UNL     1       1.650   1.690  -4.044  1.00  0.00     0.045 A   
ATOM     26  C13 UNL     1      -1.153   1.384  -3.850  1.00  0.00     0.037 A   
ATOM     27  C15 UNL     1       0.848   1.576  -5.162  1.00  0.00     0.109 A   
ATOM     28  C14 UNL     1      -0.513   1.426  -5.069  1.00  0.00     0.108 A   
ATOM     29  O2  UNL     1       1.283   1.595  -6.449  1.00  0.00    -0.316 OA  
ATOM     30  O3  UNL     1      -1.107   1.331  -6.286  1.00  0.00    -0.316 OA  
ATOM     31  C17 UNL     1       0.033   1.457  -7.162  1.00  0.00     0.337 C   
ENDBRANCH  22  23
ENDBRANCH  19  22
ENDBRANCH  18  19
BRANCH  18  32
ATOM     32  C18 UNL     1       2.767  -2.008  -1.151  1.00  0.00     0.037 C   
ATOM     33  C19 UNL     1       4.143  -1.990  -0.475  1.00  0.00     0.014 C   
ATOM     34  C20 UNL     1       2.930  -2.281  -2.652  1.00  0.00     0.014 C   
ENDBRANCH  18  32
ENDBRANCH   3  18
TORSDOF 9
