REMARK SMILES Fc1ccc(F)c(Cn2cc([C@@H]([NH2+]Cc3ccc4c(c3)OCO4)C3CCCCC3)nn2)c1F
REMARK SMILES IDX 9 1 10 2 11 3 30 4 31 5 8 7 7 8 2 9 3 10 32 11 4 12 5 13
REMARK SMILES IDX 1 14 33 15 6 16 12 17 13 18 14 21 15 22 16 23 20 24 17 25
REMARK SMILES IDX 19 26 18 27 21 28 23 29 22 30 24 31 25 32 29 33 26 34 28 35
REMARK SMILES IDX 27 36
REMARK H PARENT 10 6 13 19 13 20
ROOT
ATOM     1   N1  UNL     1      -0.530  -0.230   3.004  1.00  0.00    -0.208 N   
ATOM     2   C7  UNL     1      -0.178  -0.765   1.796  1.00  0.00     0.046 A   
ATOM     3   C8  UNL     1       0.654   0.182   1.242  1.00  0.00     0.127 A   
ATOM     4   N3  UNL     1       0.787   1.231   2.114  1.00  0.00    -0.132 NA  
ATOM     5   N4  UNL     1       0.056   0.970   3.186  1.00  0.00    -0.076 NA  
ATOM     6   H5  UNL     1      -0.561  -1.715   1.447  1.00  0.00     0.083 HD  
ENDROOT
BRANCH   1   7
ATOM     7   C6  UNL     1      -1.441  -0.774   3.999  1.00  0.00     0.175 C   
BRANCH   7   8
ATOM     8   C5  UNL     1      -2.736  -0.016   4.037  1.00  0.00     0.046 A   
ATOM     9   C1  UNL     1      -4.764   0.776   2.959  1.00  0.00     0.159 A   
ATOM     10  C2  UNL     1      -5.159   1.427   4.122  1.00  0.00     0.045 A   
ATOM     11  C24 UNL     1      -3.570   0.059   2.919  1.00  0.00     0.166 A   
ATOM     12  C3  UNL     1      -4.345   1.355   5.252  1.00  0.00     0.043 A   
ATOM     13  C4  UNL     1      -3.148   0.639   5.199  1.00  0.00     0.131 A   
ATOM     14  F1  UNL     1      -5.533   0.852   1.865  1.00  0.00    -0.204 F   
ATOM     15  F3  UNL     1      -3.213  -0.558   1.782  1.00  0.00    -0.203 F   
ATOM     16  F2  UNL     1      -2.383   0.583   6.297  1.00  0.00    -0.207 F   
ENDBRANCH   7   8
ENDBRANCH   1   7
BRANCH   3  17
ATOM     17  C9  UNL     1       1.303   0.256  -0.105  1.00  0.00     0.117 C   
BRANCH  17  18
ATOM     18  N2  UNL     1       1.099   1.651  -0.667  1.00  0.00     0.249 N   
ATOM     19  H7  UNL     1       1.634   1.780  -1.527  1.00  0.00     0.199 HD  
ATOM     20  H8  UNL     1       1.477   2.305   0.033  1.00  0.00     0.199 HD  
BRANCH  18  21
ATOM     21  C10 UNL     1      -0.315   2.058  -0.941  1.00  0.00     0.164 C   
BRANCH  21  22
ATOM     22  C11 UNL     1      -0.978   1.206  -1.987  1.00  0.00    -0.002 A   
ATOM     23  C12 UNL     1      -2.024   0.322  -1.626  1.00  0.00     0.012 A   
ATOM     24  C16 UNL     1      -0.544   1.254  -3.323  1.00  0.00     0.045 A   
ATOM     25  C13 UNL     1      -2.623  -0.510  -2.577  1.00  0.00     0.037 A   
ATOM     26  C15 UNL     1      -1.155   0.419  -4.235  1.00  0.00     0.109 A   
ATOM     27  C14 UNL     1      -2.164  -0.440  -3.873  1.00  0.00     0.108 A   
ATOM     28  O1  UNL     1      -0.850   0.335  -5.556  1.00  0.00    -0.316 OA  
ATOM     29  O2  UNL     1      -2.622  -1.172  -4.922  1.00  0.00    -0.316 OA  
ATOM     30  C17 UNL     1      -1.809  -0.654  -5.997  1.00  0.00     0.337 C   
ENDBRANCH  21  22
ENDBRANCH  18  21
ENDBRANCH  17  18
BRANCH  17  31
ATOM     31  C18 UNL     1       2.832  -0.052  -0.040  1.00  0.00     0.043 C   
ATOM     32  C19 UNL     1       3.124  -1.462   0.524  1.00  0.00     0.010 C   
ATOM     33  C23 UNL     1       3.562   0.065  -1.397  1.00  0.00     0.010 C   
ATOM     34  C20 UNL     1       2.707  -2.578  -0.433  1.00  0.00     0.001 C   
ATOM     35  C22 UNL     1       3.142  -1.020  -2.386  1.00  0.00     0.001 C   
ATOM     36  C21 UNL     1       3.354  -2.416  -1.806  1.00  0.00     0.000 C   
ENDBRANCH  17  31
ENDBRANCH   3  17
TORSDOF 7
