REMARK SMILES CC(C)[C@H]([NH2+]Cc1ccc2c(c1)OCO2)c1cn(Cc2ccccc2-n2cccn2)nn1
REMARK SMILES IDX 16 1 17 2 18 3 31 4 32 5 4 7 2 8 1 9 3 10 5 11 6 14 7 15
REMARK SMILES IDX 8 16 12 17 9 18 11 19 10 20 13 21 15 22 14 23 19 24 20 25
REMARK SMILES IDX 21 26 25 27 22 28 24 29 23 30 26 31 27 32 30 33 28 34 29 35
REMARK H PARENT 17 6 5 12 5 13
ROOT
ATOM     1   C13 UNL     1      -0.139  -1.578  -0.400  1.00  0.00     0.127 A   
ATOM     2   C14 UNL     1      -1.265  -1.159   0.268  1.00  0.00     0.046 A   
ATOM     3   N2  UNL     1      -0.885  -1.136   1.583  1.00  0.00    -0.208 N   
ATOM     4   N5  UNL     1       0.377  -1.599   1.718  1.00  0.00    -0.076 NA  
ATOM     5   N6  UNL     1       0.851  -1.848   0.508  1.00  0.00    -0.132 NA  
ATOM     6   H18 UNL     1      -2.250  -0.848  -0.049  1.00  0.00     0.083 HD  
ENDROOT
BRANCH   1   7
ATOM     7   C4  UNL     1       0.136  -1.710  -1.860  1.00  0.00     0.117 C   
BRANCH   7   8
ATOM     8   C2  UNL     1      -0.275  -3.101  -2.413  1.00  0.00     0.037 C   
ATOM     9   C1  UNL     1      -0.302  -3.114  -3.946  1.00  0.00     0.014 C   
ATOM     10  C3  UNL     1       0.589  -4.261  -1.904  1.00  0.00     0.014 C   
ENDBRANCH   7   8
BRANCH   7  11
ATOM     11  N1  UNL     1       1.592  -1.436  -2.154  1.00  0.00     0.249 N   
ATOM     12  H9  UNL     1       1.830  -1.724  -3.105  1.00  0.00     0.199 HD  
ATOM     13  H10 UNL     1       2.131  -2.026  -1.505  1.00  0.00     0.199 HD  
BRANCH  11  14
ATOM     14  C5  UNL     1       2.053  -0.028  -1.939  1.00  0.00     0.164 C   
BRANCH  14  15
ATOM     15  C6  UNL     1       1.381   0.959  -2.852  1.00  0.00    -0.002 A   
ATOM     16  C7  UNL     1       1.675   0.977  -4.237  1.00  0.00     0.012 A   
ATOM     17  C11 UNL     1       0.422   1.850  -2.336  1.00  0.00     0.045 A   
ATOM     18  C8  UNL     1       1.018   1.861  -5.098  1.00  0.00     0.037 A   
ATOM     19  C10 UNL     1      -0.208   2.708  -3.212  1.00  0.00     0.109 A   
ATOM     20  C9  UNL     1       0.079   2.711  -4.555  1.00  0.00     0.108 A   
ATOM     21  O1  UNL     1      -1.166   3.613  -2.884  1.00  0.00    -0.316 OA  
ATOM     22  O2  UNL     1      -0.662   3.620  -5.242  1.00  0.00    -0.316 OA  
ATOM     23  C12 UNL     1      -1.416   4.224  -4.171  1.00  0.00     0.337 C   
ENDBRANCH  14  15
ENDBRANCH  11  14
ENDBRANCH   7  11
ENDBRANCH   1   7
BRANCH   3  24
ATOM     24  C15 UNL     1      -1.696  -0.784   2.740  1.00  0.00     0.171 C   
BRANCH  24  25
ATOM     25  C16 UNL     1      -0.992   0.151   3.703  1.00  0.00    -0.005 A   
ATOM     26  C17 UNL     1      -0.520  -0.441   4.900  1.00  0.00     0.007 A   
ATOM     27  C21 UNL     1      -0.748   1.532   3.494  1.00  0.00     0.061 A   
ATOM     28  C18 UNL     1       0.160   0.295   5.867  1.00  0.00     0.000 A   
ATOM     29  C20 UNL     1      -0.058   2.258   4.490  1.00  0.00     0.026 A   
ATOM     30  C19 UNL     1       0.389   1.646   5.662  1.00  0.00     0.002 A   
BRANCH  27  31
ATOM     31  N3  UNL     1      -1.180   2.240   2.324  1.00  0.00    -0.201 N   
ATOM     32  C22 UNL     1      -0.855   3.533   1.952  1.00  0.00     0.103 A   
ATOM     33  N4  UNL     1      -1.996   1.677   1.395  1.00  0.00    -0.185 NA  
ATOM     34  C23 UNL     1      -1.547   3.822   0.802  1.00  0.00     0.039 A   
ATOM     35  C24 UNL     1      -2.250   2.649   0.519  1.00  0.00     0.133 A   
ENDBRANCH  27  31
ENDBRANCH  24  25
ENDBRANCH   3  24
TORSDOF 8
