REMARK SMILES CC(C)(C)[C@H]([NH2+]Cc1ccc2c(c1)OCO2)c1cn(CC(=O)c2ccccc2)nn1
REMARK SMILES IDX 17 1 18 2 19 3 29 4 30 5 5 7 2 8 1 9 3 10 4 11 6 12 7 15
REMARK SMILES IDX 8 16 9 17 13 18 10 19 12 20 11 21 14 22 16 23 15 24 20 25
REMARK SMILES IDX 21 26 22 27 23 28 24 29 28 30 25 31 27 32 26 33
REMARK H PARENT 18 6 6 13 6 14
ROOT
ATOM     1   C14 UNL     1      -0.178  -1.196   1.641  1.00  0.00     0.127 A   
ATOM     2   C15 UNL     1      -0.780  -0.599   0.557  1.00  0.00     0.046 A   
ATOM     3   N2  UNL     1      -0.990   0.689   0.961  1.00  0.00    -0.204 N   
ATOM     4   N3  UNL     1      -0.567   0.872   2.226  1.00  0.00    -0.076 NA  
ATOM     5   N4  UNL     1      -0.056  -0.273   2.650  1.00  0.00    -0.132 NA  
ATOM     6   H20 UNL     1      -1.047  -0.945  -0.434  1.00  0.00     0.083 HD  
ENDROOT
BRANCH   1   7
ATOM     7   C5  UNL     1       0.384  -2.572   1.827  1.00  0.00     0.120 C   
BRANCH   7   8
ATOM     8   C2  UNL     1      -0.586  -3.557   2.569  1.00  0.00     0.010 C   
ATOM     9   C1  UNL     1      -1.946  -3.624   1.837  1.00  0.00     0.017 C   
ATOM     10  C3  UNL     1      -0.005  -4.989   2.558  1.00  0.00     0.017 C   
ATOM     11  C4  UNL     1      -0.848  -3.150   4.033  1.00  0.00     0.017 C   
ENDBRANCH   7   8
BRANCH   7  12
ATOM     12  N1  UNL     1       1.700  -2.461   2.579  1.00  0.00     0.250 N   
ATOM     13  H11 UNL     1       1.613  -1.622   3.173  1.00  0.00     0.199 HD  
ATOM     14  H12 UNL     1       1.828  -3.244   3.222  1.00  0.00     0.199 HD  
BRANCH  12  15
ATOM     15  C6  UNL     1       2.933  -2.321   1.749  1.00  0.00     0.164 C   
BRANCH  15  16
ATOM     16  C7  UNL     1       2.988  -1.061   0.935  1.00  0.00    -0.002 A   
ATOM     17  C8  UNL     1       3.152   0.196   1.569  1.00  0.00     0.012 A   
ATOM     18  C12 UNL     1       2.839  -1.115  -0.461  1.00  0.00     0.045 A   
ATOM     19  C9  UNL     1       3.148   1.382   0.829  1.00  0.00     0.037 A   
ATOM     20  C11 UNL     1       2.839   0.073  -1.161  1.00  0.00     0.109 A   
ATOM     21  C10 UNL     1       2.984   1.287  -0.536  1.00  0.00     0.108 A   
ATOM     22  O1  UNL     1       2.700   0.192  -2.508  1.00  0.00    -0.316 OA  
ATOM     23  O2  UNL     1       2.942   2.325  -1.409  1.00  0.00    -0.316 OA  
ATOM     24  C13 UNL     1       2.760   1.627  -2.661  1.00  0.00     0.337 C   
ENDBRANCH  15  16
ENDBRANCH  12  15
ENDBRANCH   7  12
ENDBRANCH   1   7
BRANCH   3  25
ATOM     25  C16 UNL     1      -1.652   1.759   0.246  1.00  0.00     0.214 C   
BRANCH  25  26
ATOM     26  C17 UNL     1      -0.876   2.165  -0.981  1.00  0.00     0.182 C   
ATOM     27  O3  UNL     1      -0.688   1.390  -1.918  1.00  0.00    -0.292 OA  
BRANCH  26  28
ATOM     28  C18 UNL     1      -0.349   3.548  -1.075  1.00  0.00     0.019 A   
ATOM     29  C19 UNL     1       0.154   4.224   0.041  1.00  0.00     0.012 A   
ATOM     30  C23 UNL     1      -0.319   4.158  -2.337  1.00  0.00     0.012 A   
ATOM     31  C20 UNL     1       0.680   5.510  -0.111  1.00  0.00     0.001 A   
ATOM     32  C22 UNL     1       0.202   5.444  -2.480  1.00  0.00     0.001 A   
ATOM     33  C21 UNL     1       0.702   6.118  -1.367  1.00  0.00     0.000 A   
ENDBRANCH  26  28
ENDBRANCH  25  26
ENDBRANCH   3  25
TORSDOF 8
