REMARK SMILES Cc1ccoc1[C@H](CO)n1cc([C@@H]([NH2+]Cc2ccc3c(c2)OCO3)C(C)(C)C)nn1
REMARK SMILES IDX 10 1 11 2 12 3 29 4 30 5 7 7 6 8 2 9 3 10 4 11 5 12 1 13
REMARK SMILES IDX 8 14 9 15 13 17 14 18 15 21 16 22 17 23 21 24 18 25 20 26
REMARK SMILES IDX 19 27 22 28 24 29 23 30 25 31 26 32 27 33 28 34
REMARK H PARENT 11 6 9 16 14 19 14 20
ROOT
ATOM     1   N1  UNL     1      -0.040   1.263  -1.980  1.00  0.00    -0.200 N   
ATOM     2   C8  UNL     1      -0.383  -0.065  -1.984  1.00  0.00     0.046 A   
ATOM     3   C9  UNL     1      -0.238  -0.456  -0.672  1.00  0.00     0.127 A   
ATOM     4   N3  UNL     1       0.196   0.612   0.071  1.00  0.00    -0.132 NA  
ATOM     5   N4  UNL     1       0.314   1.653  -0.734  1.00  0.00    -0.075 NA  
ATOM     6   H10 UNL     1      -0.697  -0.577  -2.883  1.00  0.00     0.083 HD  
ENDROOT
BRANCH   1   7
ATOM     7   C6  UNL     1      -0.044   2.225  -3.079  1.00  0.00     0.179 C   
BRANCH   7   8
ATOM     8   C5  UNL     1      -1.458   2.606  -3.388  1.00  0.00     0.086 A   
ATOM     9   C2  UNL     1      -2.242   3.697  -3.049  1.00  0.00    -0.020 A   
ATOM     10  C3  UNL     1      -3.505   3.467  -3.662  1.00  0.00     0.031 A   
ATOM     11  C4  UNL     1      -3.410   2.265  -4.320  1.00  0.00     0.136 A   
ATOM     12  O1  UNL     1      -2.174   1.732  -4.156  1.00  0.00    -0.320 OA  
ATOM     13  C1  UNL     1      -1.852   4.866  -2.221  1.00  0.00     0.047 C   
ENDBRANCH   7   8
BRANCH   7  14
ATOM     14  C7  UNL     1       0.696   1.712  -4.325  1.00  0.00     0.188 C   
BRANCH  14  15
ATOM     15  O2  UNL     1       2.079   1.485  -4.048  1.00  0.00    -0.394 OA  
ATOM     16  H9  UNL     1       2.529   1.368  -4.906  1.00  0.00     0.210 HD  
ENDBRANCH  14  15
ENDBRANCH   7  14
ENDBRANCH   1   7
BRANCH   3  17
ATOM     17  C10 UNL     1      -0.402  -1.790  -0.010  1.00  0.00     0.120 C   
BRANCH  17  18
ATOM     18  N2  UNL     1       0.630  -1.906   1.089  1.00  0.00     0.250 N   
ATOM     19  H12 UNL     1       0.400  -2.629   1.775  1.00  0.00     0.199 HD  
ATOM     20  H13 UNL     1       0.612  -1.009   1.599  1.00  0.00     0.199 HD  
BRANCH  18  21
ATOM     21  C11 UNL     1       2.032  -2.111   0.627  1.00  0.00     0.164 C   
BRANCH  21  22
ATOM     22  C12 UNL     1       2.973  -2.125   1.798  1.00  0.00    -0.002 A   
ATOM     23  C13 UNL     1       3.359  -3.348   2.396  1.00  0.00     0.012 A   
ATOM     24  C17 UNL     1       3.435  -0.912   2.339  1.00  0.00     0.045 A   
ATOM     25  C14 UNL     1       4.206  -3.366   3.510  1.00  0.00     0.037 A   
ATOM     26  C16 UNL     1       4.266  -0.966   3.438  1.00  0.00     0.109 A   
ATOM     27  C15 UNL     1       4.642  -2.158   4.007  1.00  0.00     0.108 A   
ATOM     28  O3  UNL     1       4.798   0.107   4.081  1.00  0.00    -0.316 OA  
ATOM     29  O4  UNL     1       5.463  -1.986   5.076  1.00  0.00    -0.316 OA  
ATOM     30  C18 UNL     1       5.574  -0.547   5.110  1.00  0.00     0.337 C   
ENDBRANCH  21  22
ENDBRANCH  18  21
ENDBRANCH  17  18
BRANCH  17  31
ATOM     31  C19 UNL     1      -1.839  -2.053   0.560  1.00  0.00     0.010 C   
ATOM     32  C20 UNL     1      -2.211  -1.088   1.704  1.00  0.00     0.017 C   
ATOM     33  C21 UNL     1      -2.895  -1.906  -0.560  1.00  0.00     0.017 C   
ATOM     34  C22 UNL     1      -1.949  -3.501   1.092  1.00  0.00     0.017 C   
ENDBRANCH  17  31
ENDBRANCH   3  17
TORSDOF 9
