REMARK SMILES Cc1ccoc1[C@@H](CO)n1cc([C@@H]([NH2+]Cc2ccc3c(c2)OCO3)C(C)(C)C)nn1
REMARK SMILES IDX 10 1 11 2 12 3 29 4 30 5 7 7 6 8 2 9 3 10 4 11 5 12 1 13
REMARK SMILES IDX 8 14 9 15 13 17 14 18 15 21 16 22 17 23 21 24 18 25 20 26
REMARK SMILES IDX 19 27 22 28 24 29 23 30 25 31 26 32 27 33 28 34
REMARK H PARENT 11 6 9 16 14 19 14 20
ROOT
ATOM     1   N1  UNL     1      -1.791  -0.757   0.377  1.00  0.00    -0.200 N   
ATOM     2   C8  UNL     1      -0.542  -0.406   0.813  1.00  0.00     0.046 A   
ATOM     3   C9  UNL     1      -0.523   0.966   0.717  1.00  0.00     0.127 A   
ATOM     4   N3  UNL     1      -1.715   1.396   0.189  1.00  0.00    -0.132 NA  
ATOM     5   N4  UNL     1      -2.480   0.337  -0.018  1.00  0.00    -0.075 NA  
ATOM     6   H10 UNL     1       0.177  -1.139   1.154  1.00  0.00     0.083 HD  
ENDROOT
BRANCH   1   7
ATOM     7   C6  UNL     1      -2.413  -2.076   0.320  1.00  0.00     0.179 C   
BRANCH   7   8
ATOM     8   C5  UNL     1      -1.647  -2.977  -0.601  1.00  0.00     0.086 A   
ATOM     9   C2  UNL     1      -1.722  -3.212  -1.965  1.00  0.00    -0.020 A   
ATOM     10  C3  UNL     1      -0.739  -4.202  -2.239  1.00  0.00     0.031 A   
ATOM     11  C4  UNL     1      -0.129  -4.494  -1.044  1.00  0.00     0.136 A   
ATOM     12  O1  UNL     1      -0.668  -3.753  -0.045  1.00  0.00    -0.320 OA  
ATOM     13  C1  UNL     1      -2.640  -2.574  -2.942  1.00  0.00     0.047 C   
ENDBRANCH   7   8
BRANCH   7  14
ATOM     14  C7  UNL     1      -2.643  -2.668   1.721  1.00  0.00     0.188 C   
BRANCH  14  15
ATOM     15  O2  UNL     1      -1.437  -2.909   2.451  1.00  0.00    -0.394 OA  
ATOM     16  H9  UNL     1      -0.953  -3.607   1.964  1.00  0.00     0.210 HD  
ENDBRANCH  14  15
ENDBRANCH   7  14
ENDBRANCH   1   7
BRANCH   3  17
ATOM     17  C10 UNL     1       0.552   1.965   1.014  1.00  0.00     0.120 C   
BRANCH  17  18
ATOM     18  N2  UNL     1       0.456   3.079  -0.016  1.00  0.00     0.250 N   
ATOM     19  H12 UNL     1       0.530   4.000   0.420  1.00  0.00     0.199 HD  
ATOM     20  H13 UNL     1      -0.509   3.032  -0.384  1.00  0.00     0.199 HD  
BRANCH  18  21
ATOM     21  C11 UNL     1       1.400   3.003  -1.164  1.00  0.00     0.164 C   
BRANCH  21  22
ATOM     22  C12 UNL     1       1.246   1.772  -2.011  1.00  0.00    -0.002 A   
ATOM     23  C13 UNL     1       0.105   1.599  -2.832  1.00  0.00     0.012 A   
ATOM     24  C17 UNL     1       2.229   0.767  -1.980  1.00  0.00     0.045 A   
ATOM     25  C14 UNL     1      -0.057   0.446  -3.609  1.00  0.00     0.037 A   
ATOM     26  C16 UNL     1       2.038  -0.356  -2.757  1.00  0.00     0.109 A   
ATOM     27  C15 UNL     1       0.928  -0.514  -3.549  1.00  0.00     0.108 A   
ATOM     28  O3  UNL     1       2.892  -1.410  -2.841  1.00  0.00    -0.316 OA  
ATOM     29  O4  UNL     1       0.943  -1.688  -4.234  1.00  0.00    -0.316 OA  
ATOM     30  C18 UNL     1       2.208  -2.238  -3.808  1.00  0.00     0.337 C   
ENDBRANCH  21  22
ENDBRANCH  18  21
ENDBRANCH  17  18
BRANCH  17  31
ATOM     31  C19 UNL     1       0.502   2.553   2.467  1.00  0.00     0.010 C   
ATOM     32  C20 UNL     1       1.720   3.476   2.708  1.00  0.00     0.017 C   
ATOM     33  C21 UNL     1       0.593   1.412   3.506  1.00  0.00     0.017 C   
ATOM     34  C22 UNL     1      -0.785   3.355   2.746  1.00  0.00     0.017 C   
ENDBRANCH  17  31
ENDBRANCH   3  17
TORSDOF 9
