REMARK SMILES [O-]N([O-])c1cc(F)cc(Cn2cc([C@@H]([NH2+]Cc3ccc4c(c3)OCO4)C3CCCC3)nn2)c1
REMARK SMILES IDX 11 1 12 2 13 3 31 4 32 5 10 7 9 8 4 9 5 10 33 11 6 12 8 13
REMARK SMILES IDX 7 14 2 15 1 16 3 17 14 18 15 19 16 22 17 23 18 24 22 25
REMARK SMILES IDX 19 26 21 27 20 28 23 29 25 30 24 31 26 32 27 33 30 34 28 35
REMARK SMILES IDX 29 36
REMARK H PARENT 12 6 15 20 15 21
ROOT
ATOM     1   N2  UNL     1       0.874   0.511  -2.230  1.00  0.00    -0.208 N   
ATOM     2   C7  UNL     1       0.628  -0.494  -1.336  1.00  0.00     0.046 A   
ATOM     3   C8  UNL     1      -0.704  -0.790  -1.527  1.00  0.00     0.127 A   
ATOM     4   N4  UNL     1      -1.198  -0.007  -2.537  1.00  0.00    -0.132 NA  
ATOM     5   N5  UNL     1      -0.228   0.793  -2.950  1.00  0.00    -0.076 NA  
ATOM     6   H5  UNL     1       1.377  -0.855  -0.644  1.00  0.00     0.083 HD  
ENDROOT
BRANCH   1   7
ATOM     7   C6  UNL     1       2.087   1.298  -2.382  1.00  0.00     0.169 C   
BRANCH   7   8
ATOM     8   C5  UNL     1       2.142   2.383  -1.333  1.00  0.00    -0.024 A   
ATOM     9   C1  UNL     1       2.758   3.157   0.895  1.00  0.00     0.121 A   
ATOM     10  C2  UNL     1       2.132   4.384   0.666  1.00  0.00     0.070 A   
ATOM     11  C23 UNL     1       2.771   2.159  -0.096  1.00  0.00     0.036 A   
ATOM     12  C3  UNL     1       1.518   4.597  -0.560  1.00  0.00     0.125 A   
ATOM     13  C4  UNL     1       1.513   3.618  -1.552  1.00  0.00     0.044 A   
ATOM     14  F1  UNL     1       0.899   5.761  -0.791  1.00  0.00    -0.207 F   
BRANCH   9  15
ATOM     15  N1  UNL     1       3.374   2.888   2.200  1.00  0.00     0.092 N   
ATOM     16  O1  UNL     1       3.340   3.784   3.053  1.00  0.00    -0.138 OA  
ATOM     17  O2  UNL     1       3.868   1.764   2.376  1.00  0.00    -0.138 OA  
ENDBRANCH   9  15
ENDBRANCH   7   8
ENDBRANCH   1   7
BRANCH   3  18
ATOM     18  C9  UNL     1      -1.612  -1.710  -0.779  1.00  0.00     0.117 C   
BRANCH  18  19
ATOM     19  N3  UNL     1      -3.001  -1.127  -0.640  1.00  0.00     0.249 N   
ATOM     20  H7  UNL     1      -3.359  -0.979  -1.591  1.00  0.00     0.199 HD  
ATOM     21  H8  UNL     1      -3.623  -1.795  -0.180  1.00  0.00     0.199 HD  
BRANCH  19  22
ATOM     22  C10 UNL     1      -3.120   0.198   0.051  1.00  0.00     0.164 C   
BRANCH  22  23
ATOM     23  C11 UNL     1      -2.420   0.270   1.380  1.00  0.00    -0.002 A   
ATOM     24  C12 UNL     1      -2.901  -0.457   2.494  1.00  0.00     0.012 A   
ATOM     25  C16 UNL     1      -1.254   1.047   1.510  1.00  0.00     0.045 A   
ATOM     26  C13 UNL     1      -2.223  -0.421   3.718  1.00  0.00     0.037 A   
ATOM     27  C15 UNL     1      -0.609   1.056   2.728  1.00  0.00     0.109 A   
ATOM     28  C14 UNL     1      -1.078   0.342   3.801  1.00  0.00     0.108 A   
ATOM     29  O3  UNL     1       0.531   1.738   3.014  1.00  0.00    -0.316 OA  
ATOM     30  O4  UNL     1      -0.295   0.486   4.901  1.00  0.00    -0.316 OA  
ATOM     31  C17 UNL     1       0.713   1.396   4.409  1.00  0.00     0.337 C   
ENDBRANCH  22  23
ENDBRANCH  19  22
ENDBRANCH  18  19
BRANCH  18  32
ATOM     32  C18 UNL     1      -1.669  -3.108  -1.429  1.00  0.00     0.043 C   
ATOM     33  C19 UNL     1      -2.379  -3.211  -2.783  1.00  0.00     0.010 C   
ATOM     34  C22 UNL     1      -2.345  -4.190  -0.570  1.00  0.00     0.010 C   
ATOM     35  C20 UNL     1      -2.578  -4.711  -2.939  1.00  0.00     0.001 C   
ATOM     36  C21 UNL     1      -3.003  -5.164  -1.550  1.00  0.00     0.001 C   
ENDBRANCH  18  32
ENDBRANCH   3  18
TORSDOF 8
