REMARK SMILES Cn1cc(Cn2cc([C@@H]([NH2+]Cc3ccc4c(c3)OCO4)C(C)(C)C)nn2)c(Cl)n1
REMARK SMILES IDX 6 1 7 2 8 3 25 4 26 5 5 7 4 8 2 9 3 10 29 11 27 12 1 13
REMARK SMILES IDX 28 14 9 15 10 16 11 19 12 20 13 21 17 22 14 23 16 24 15 25
REMARK SMILES IDX 18 26 20 27 19 28 21 29 22 30 23 31 24 32
REMARK H PARENT 7 6 10 17 10 18
ROOT
ATOM     1   N2  UNL     1       1.362   2.330  -1.476  1.00  0.00    -0.208 N   
ATOM     2   C5  UNL     1       1.092   1.032  -1.809  1.00  0.00     0.046 A   
ATOM     3   C6  UNL     1      -0.281   0.947  -1.739  1.00  0.00     0.127 A   
ATOM     4   N4  UNL     1      -0.790   2.175  -1.402  1.00  0.00    -0.132 NA  
ATOM     5   N5  UNL     1       0.222   3.012  -1.249  1.00  0.00    -0.076 NA  
ATOM     6   H7  UNL     1       1.869   0.311  -2.022  1.00  0.00     0.083 HD  
ENDROOT
BRANCH   1   7
ATOM     7   C4  UNL     1       2.660   2.969  -1.316  1.00  0.00     0.174 C   
BRANCH   7   8
ATOM     8   C3  UNL     1       3.044   3.017   0.120  1.00  0.00     0.026 A   
ATOM     9   N1  UNL     1       3.456   3.660   2.185  1.00  0.00    -0.234 N   
ATOM     10  C2  UNL     1       3.032   4.110   0.968  1.00  0.00     0.104 A   
ATOM     11  N6  UNL     1       3.722   2.343   2.199  1.00  0.00    -0.170 NA  
ATOM     12  C20 UNL     1       3.504   1.962   0.942  1.00  0.00     0.153 A   
ATOM     13  C1  UNL     1       3.628   4.435   3.391  1.00  0.00     0.159 C   
ATOM     14  CL1 UNL     1       3.751   0.348   0.486  1.00  0.00    -0.060 Cl  
ENDBRANCH   7   8
ENDBRANCH   1   7
BRANCH   3  15
ATOM     15  C7  UNL     1      -1.200  -0.229  -1.871  1.00  0.00     0.120 C   
BRANCH  15  16
ATOM     16  N3  UNL     1      -2.299  -0.125  -0.829  1.00  0.00     0.250 N   
ATOM     17  H9  UNL     1      -3.027  -0.822  -0.993  1.00  0.00     0.199 HD  
ATOM     18  H10 UNL     1      -2.726   0.804  -0.949  1.00  0.00     0.199 HD  
BRANCH  16  19
ATOM     19  C8  UNL     1      -1.871  -0.216   0.603  1.00  0.00     0.164 C   
BRANCH  19  20
ATOM     20  C9  UNL     1      -1.212  -1.522   0.947  1.00  0.00    -0.002 A   
ATOM     21  C10 UNL     1       0.161  -1.553   1.292  1.00  0.00     0.012 A   
ATOM     22  C14 UNL     1      -1.942  -2.723   0.907  1.00  0.00     0.045 A   
ATOM     23  C11 UNL     1       0.804  -2.761   1.581  1.00  0.00     0.037 A   
ATOM     24  C13 UNL     1      -1.277  -3.896   1.197  1.00  0.00     0.109 A   
ATOM     25  C12 UNL     1       0.057  -3.916   1.523  1.00  0.00     0.108 A   
ATOM     26  O1  UNL     1      -1.831  -5.137   1.195  1.00  0.00    -0.316 OA  
ATOM     27  O2  UNL     1       0.510  -5.172   1.769  1.00  0.00    -0.316 OA  
ATOM     28  C15 UNL     1      -0.697  -5.943   1.593  1.00  0.00     0.337 C   
ENDBRANCH  19  20
ENDBRANCH  16  19
ENDBRANCH  15  16
BRANCH  15  29
ATOM     29  C16 UNL     1      -1.822  -0.400  -3.303  1.00  0.00     0.010 C   
ATOM     30  C17 UNL     1      -2.748   0.767  -3.700  1.00  0.00     0.017 C   
ATOM     31  C18 UNL     1      -0.698  -0.508  -4.359  1.00  0.00     0.017 C   
ATOM     32  C19 UNL     1      -2.639  -1.712  -3.381  1.00  0.00     0.017 C   
ENDBRANCH  15  29
ENDBRANCH   3  15
TORSDOF 7
