REMARK SMILES CC(C)C[C@H]([NH2+]Cc1ccc2c(c1)OCO2)c1cn(CCc2ccc(F)cn2)nn1
REMARK SMILES IDX 17 1 18 2 19 3 29 4 30 5 5 7 4 8 2 9 1 10 3 11 6 12 7 15
REMARK SMILES IDX 8 16 9 17 13 18 10 19 12 20 11 21 14 22 16 23 15 24 20 25
REMARK SMILES IDX 21 26 22 27 23 28 28 29 24 30 27 31 25 32 26 33
REMARK H PARENT 18 6 6 13 6 14
ROOT
ATOM     1   C14 UNL     1       0.377   1.805  -0.197  1.00  0.00     0.127 A   
ATOM     2   C15 UNL     1       1.652   1.577   0.267  1.00  0.00     0.045 A   
ATOM     3   N2  UNL     1       1.924   2.670   1.038  1.00  0.00    -0.212 N   
ATOM     4   N4  UNL     1       0.885   3.527   1.043  1.00  0.00    -0.076 NA  
ATOM     5   N5  UNL     1      -0.067   3.011   0.283  1.00  0.00    -0.132 NA  
ATOM     6   H20 UNL     1       2.355   0.763   0.151  1.00  0.00     0.083 HD  
ENDROOT
BRANCH   1   7
ATOM     7   C5  UNL     1      -0.530   0.955  -1.017  1.00  0.00     0.114 C   
BRANCH   7   8
ATOM     8   C4  UNL     1      -0.539   1.361  -2.504  1.00  0.00     0.064 C   
BRANCH   8   9
ATOM     9   C2  UNL     1       0.806   1.191  -3.242  1.00  0.00    -0.012 C   
ATOM     10  C1  UNL     1       1.288  -0.261  -3.252  1.00  0.00     0.007 C   
ATOM     11  C3  UNL     1       0.673   1.698  -4.681  1.00  0.00     0.007 C   
ENDBRANCH   8   9
ENDBRANCH   7   8
BRANCH   7  12
ATOM     12  N1  UNL     1      -1.959   1.081  -0.523  1.00  0.00     0.249 N   
ATOM     13  H11 UNL     1      -2.182   2.086  -0.543  1.00  0.00     0.199 HD  
ATOM     14  H12 UNL     1      -2.596   0.612  -1.173  1.00  0.00     0.199 HD  
BRANCH  12  15
ATOM     15  C6  UNL     1      -2.228   0.601   0.866  1.00  0.00     0.164 C   
BRANCH  15  16
ATOM     16  C7  UNL     1      -1.952  -0.864   1.056  1.00  0.00    -0.002 A   
ATOM     17  C8  UNL     1      -0.856  -1.283   1.849  1.00  0.00     0.012 A   
ATOM     18  C12 UNL     1      -2.763  -1.828   0.433  1.00  0.00     0.045 A   
ATOM     19  C9  UNL     1      -0.569  -2.641   2.020  1.00  0.00     0.037 A   
ATOM     20  C11 UNL     1      -2.449  -3.159   0.618  1.00  0.00     0.109 A   
ATOM     21  C10 UNL     1      -1.383  -3.554   1.389  1.00  0.00     0.108 A   
ATOM     22  O1  UNL     1      -3.123  -4.210   0.083  1.00  0.00    -0.316 OA  
ATOM     23  O2  UNL     1      -1.253  -4.905   1.438  1.00  0.00    -0.316 OA  
ATOM     24  C13 UNL     1      -2.376  -5.321   0.631  1.00  0.00     0.337 C   
ENDBRANCH  15  16
ENDBRANCH  12  15
ENDBRANCH   7  12
ENDBRANCH   1   7
BRANCH   3  25
ATOM     25  C16 UNL     1       3.129   2.966   1.785  1.00  0.00     0.140 C   
BRANCH  25  26
ATOM     26  C17 UNL     1       2.947   2.828   3.297  1.00  0.00     0.077 C   
BRANCH  26  27
ATOM     27  C18 UNL     1       2.733   1.413   3.787  1.00  0.00     0.042 A   
ATOM     28  C19 UNL     1       2.341   1.201   5.111  1.00  0.00     0.027 A   
ATOM     29  N3  UNL     1       2.981   0.388   2.932  1.00  0.00    -0.258 NA  
ATOM     30  C20 UNL     1       2.189  -0.105   5.574  1.00  0.00     0.043 A   
ATOM     31  C22 UNL     1       2.846  -0.871   3.418  1.00  0.00     0.150 A   
ATOM     32  C21 UNL     1       2.449  -1.155   4.711  1.00  0.00     0.141 A   
ATOM     33  F1  UNL     1       2.309  -2.421   5.119  1.00  0.00    -0.205 F   
ENDBRANCH  26  27
ENDBRANCH  25  26
ENDBRANCH   3  25
TORSDOF 9
