REMARK SMILES CCn1cncc1CCn1cc([C@@H]([NH2+]Cc2ccc3c(c2)OCO3)C2CCCC2)nn1
REMARK SMILES IDX 10 1 11 2 12 3 30 4 31 5 9 7 8 8 7 9 3 10 4 11 5 12 6 13
REMARK SMILES IDX 2 14 1 15 13 16 14 17 15 20 16 21 17 22 21 23 18 24 20 25
REMARK SMILES IDX 19 26 22 27 24 28 23 29 25 30 26 31 29 32 27 33 28 34
REMARK H PARENT 11 6 14 18 14 19
ROOT
ATOM     1   N3  UNL     1       3.527   0.892  -1.209  1.00  0.00    -0.212 N   
ATOM     2   C8  UNL     1       2.158   0.860  -1.255  1.00  0.00     0.045 A   
ATOM     3   C9  UNL     1       1.783   1.986  -0.552  1.00  0.00     0.127 A   
ATOM     4   N5  UNL     1       2.902   2.718  -0.259  1.00  0.00    -0.132 NA  
ATOM     5   N6  UNL     1       3.962   2.060  -0.705  1.00  0.00    -0.076 NA  
ATOM     6   H12 UNL     1       1.608   0.003  -1.617  1.00  0.00     0.083 HD  
ENDROOT
BRANCH   1   7
ATOM     7   C7  UNL     1       4.419  -0.253  -1.275  1.00  0.00     0.140 C   
BRANCH   7   8
ATOM     8   C6  UNL     1       4.832  -0.778   0.118  1.00  0.00     0.074 C   
BRANCH   8   9
ATOM     9   C5  UNL     1       3.685  -0.834   1.083  1.00  0.00     0.031 A   
ATOM     10  N1  UNL     1       2.777  -1.850   1.232  1.00  0.00    -0.294 N   
ATOM     11  C3  UNL     1       1.790  -1.390   2.065  1.00  0.00     0.188 A   
ATOM     12  N2  UNL     1       2.000  -0.146   2.442  1.00  0.00    -0.247 NA  
ATOM     13  C4  UNL     1       3.250   0.145   1.957  1.00  0.00     0.131 A   
BRANCH  10  14
ATOM     14  C2  UNL     1       2.798  -3.172   0.634  1.00  0.00     0.108 C   
ATOM     15  C1  UNL     1       1.864  -3.284  -0.561  1.00  0.00     0.025 C   
ENDBRANCH  10  14
ENDBRANCH   8   9
ENDBRANCH   7   8
ENDBRANCH   1   7
BRANCH   3  16
ATOM     16  C10 UNL     1       0.450   2.342   0.031  1.00  0.00     0.117 C   
BRANCH  16  17
ATOM     17  N4  UNL     1       0.525   2.178   1.528  1.00  0.00     0.249 N   
ATOM     18  H14 UNL     1       0.973   1.257   1.734  1.00  0.00     0.199 HD  
ATOM     19  H15 UNL     1       1.227   2.833   1.886  1.00  0.00     0.199 HD  
BRANCH  17  20
ATOM     20  C11 UNL     1      -0.717   2.254   2.333  1.00  0.00     0.164 C   
BRANCH  20  21
ATOM     21  C12 UNL     1      -1.651   1.099   2.102  1.00  0.00    -0.002 A   
ATOM     22  C13 UNL     1      -1.461  -0.115   2.805  1.00  0.00     0.012 A   
ATOM     23  C17 UNL     1      -2.691   1.193   1.161  1.00  0.00     0.045 A   
ATOM     24  C14 UNL     1      -2.278  -1.224   2.568  1.00  0.00     0.037 A   
ATOM     25  C16 UNL     1      -3.477   0.079   0.945  1.00  0.00     0.109 A   
ATOM     26  C15 UNL     1      -3.276  -1.095   1.627  1.00  0.00     0.108 A   
ATOM     27  O1  UNL     1      -4.502  -0.005   0.056  1.00  0.00    -0.316 OA  
ATOM     28  O2  UNL     1      -4.150  -2.067   1.256  1.00  0.00    -0.316 OA  
ATOM     29  C18 UNL     1      -4.949  -1.363   0.279  1.00  0.00     0.337 C   
ENDBRANCH  20  21
ENDBRANCH  17  20
ENDBRANCH  16  17
BRANCH  16  30
ATOM     30  C19 UNL     1      -0.068   3.747  -0.352  1.00  0.00     0.043 C   
ATOM     31  C20 UNL     1      -0.086   4.008  -1.872  1.00  0.00     0.010 C   
ATOM     32  C23 UNL     1       0.681   4.944   0.267  1.00  0.00     0.010 C   
ATOM     33  C21 UNL     1       0.917   5.131  -2.104  1.00  0.00     0.001 C   
ATOM     34  C22 UNL     1       0.789   5.975  -0.850  1.00  0.00     0.001 C   
ENDBRANCH  16  30
ENDBRANCH   3  16
TORSDOF 9
