REMARK SMILES CC(C)[C@H]([NH2+]Cc1ccc2c(c1)OCO2)c1cn(-c2ccccc2CN)nn1
REMARK SMILES IDX 16 1 17 2 18 3 27 4 28 5 4 6 2 7 1 8 3 9 5 10 6 13 7 14 8 15
REMARK SMILES IDX 12 16 9 17 11 18 10 19 13 20 15 21 14 22 19 23 20 24 24 25
REMARK SMILES IDX 21 26 23 27 22 28 25 29 26 30
REMARK H PARENT 5 11 5 12 26 31 26 32
ROOT
ATOM     1   C13 UNL     1      -0.310   0.240   1.567  1.00  0.00     0.127 A   
ATOM     2   C14 UNL     1      -1.219   0.572   0.587  1.00  0.00     0.135 A   
ATOM     3   N2  UNL     1      -1.358   1.944   0.656  1.00  0.00    -0.180 N   
ATOM     4   N4  UNL     1      -0.432   2.404   1.553  1.00  0.00    -0.071 NA  
ATOM     5   N5  UNL     1       0.162   1.381   2.140  1.00  0.00    -0.131 NA  
ENDROOT
BRANCH   1   6
ATOM     6   C4  UNL     1       0.228  -1.086   1.999  1.00  0.00     0.117 C   
BRANCH   6   7
ATOM     7   C2  UNL     1      -0.469  -1.613   3.287  1.00  0.00     0.037 C   
ATOM     8   C1  UNL     1       0.095  -2.962   3.757  1.00  0.00     0.014 C   
ATOM     9   C3  UNL     1      -1.984  -1.775   3.078  1.00  0.00     0.014 C   
ENDBRANCH   6   7
BRANCH   6  10
ATOM     10  N1  UNL     1       1.717  -0.958   2.261  1.00  0.00     0.249 N   
ATOM     11  H9  UNL     1       1.825  -0.194   2.943  1.00  0.00     0.199 HD  
ATOM     12  H10 UNL     1       2.084  -1.808   2.694  1.00  0.00     0.199 HD  
BRANCH  10  13
ATOM     13  C5  UNL     1       2.577  -0.630   1.083  1.00  0.00     0.164 C   
BRANCH  13  14
ATOM     14  C6  UNL     1       2.572  -1.710   0.037  1.00  0.00    -0.002 A   
ATOM     15  C7  UNL     1       1.920  -1.498  -1.203  1.00  0.00     0.012 A   
ATOM     16  C11 UNL     1       3.188  -2.948   0.292  1.00  0.00     0.045 A   
ATOM     17  C8  UNL     1       1.873  -2.506  -2.172  1.00  0.00     0.037 A   
ATOM     18  C10 UNL     1       3.122  -3.920  -0.685  1.00  0.00     0.109 A   
ATOM     19  C9  UNL     1       2.482  -3.707  -1.882  1.00  0.00     0.108 A   
ATOM     20  O1  UNL     1       3.655  -5.166  -0.596  1.00  0.00    -0.316 OA  
ATOM     21  O2  UNL     1       2.533  -4.792  -2.696  1.00  0.00    -0.316 OA  
ATOM     22  C12 UNL     1       3.309  -5.707  -1.892  1.00  0.00     0.337 C   
ENDBRANCH  13  14
ENDBRANCH  10  13
ENDBRANCH   6  10
ENDBRANCH   1   6
BRANCH   3  23
ATOM     23  C15 UNL     1      -2.194   2.855  -0.061  1.00  0.00     0.062 A   
ATOM     24  C16 UNL     1      -1.847   4.224   0.032  1.00  0.00     0.026 A   
ATOM     25  C20 UNL     1      -3.323   2.487  -0.831  1.00  0.00    -0.011 A   
ATOM     26  C17 UNL     1      -2.564   5.210  -0.646  1.00  0.00     0.002 A   
ATOM     27  C19 UNL     1      -4.025   3.513  -1.513  1.00  0.00     0.007 A   
ATOM     28  C18 UNL     1      -3.650   4.852  -1.426  1.00  0.00     0.000 A   
BRANCH  25  29
ATOM     29  C21 UNL     1      -3.912   1.103  -0.970  1.00  0.00     0.115 C   
BRANCH  29  30
ATOM     30  N3  UNL     1      -4.283   0.536   0.323  1.00  0.00    -0.326 NA  
ATOM     31  H25 UNL     1      -4.923   1.188   0.785  1.00  0.00     0.119 HD  
ATOM     32  H26 UNL     1      -4.845  -0.302   0.162  1.00  0.00     0.119 HD  
ENDBRANCH  29  30
ENDBRANCH  25  29
ENDBRANCH   3  23
TORSDOF 8
