REMARK SMILES Cc1cc(Cn2cc([C@@H]([NH2+]Cc3ccc4c(c3)OCO4)C(C)(C)C)nn2)on1
REMARK SMILES IDX 6 1 7 2 8 3 25 4 26 5 5 7 4 8 2 9 3 10 28 11 27 12 1 13 9 14
REMARK SMILES IDX 10 15 11 18 12 19 13 20 17 21 14 22 16 23 15 24 18 25 20 26
REMARK SMILES IDX 19 27 21 28 22 29 23 30 24 31
REMARK H PARENT 7 6 10 16 10 17
ROOT
ATOM     1   N1  UNL     1       2.248   0.094   2.709  1.00  0.00    -0.206 N   
ATOM     2   C6  UNL     1       1.045  -0.337   2.220  1.00  0.00     0.046 A   
ATOM     3   C7  UNL     1       1.368  -0.938   1.024  1.00  0.00     0.127 A   
ATOM     4   N3  UNL     1       2.726  -0.879   0.844  1.00  0.00    -0.132 NA  
ATOM     5   N4  UNL     1       3.255  -0.256   1.884  1.00  0.00    -0.076 NA  
ATOM     6   H7  UNL     1       0.110  -0.139   2.727  1.00  0.00     0.083 HD  
ENDROOT
BRANCH   1   7
ATOM     7   C5  UNL     1       2.505   0.861   3.916  1.00  0.00     0.198 C   
BRANCH   7   8
ATOM     8   C4  UNL     1       2.388   2.307   3.635  1.00  0.00     0.106 A   
ATOM     9   C2  UNL     1       2.476   4.478   3.281  1.00  0.00     0.068 A   
ATOM     10  C3  UNL     1       3.248   3.376   3.716  1.00  0.00     0.059 A   
ATOM     11  N5  UNL     1       1.236   4.097   2.949  1.00  0.00    -0.134 NA  
ATOM     12  O3  UNL     1       1.178   2.742   3.192  1.00  0.00    -0.216 OA  
ATOM     13  C1  UNL     1       2.888   5.894   3.154  1.00  0.00     0.069 C   
ENDBRANCH   7   8
ENDBRANCH   1   7
BRANCH   3  14
ATOM     14  C8  UNL     1       0.504  -1.510  -0.060  1.00  0.00     0.120 C   
BRANCH  14  15
ATOM     15  N2  UNL     1       1.107  -1.128  -1.398  1.00  0.00     0.250 N   
ATOM     16  H9  UNL     1       0.771  -1.734  -2.149  1.00  0.00     0.199 HD  
ATOM     17  H10 UNL     1       2.120  -1.295  -1.310  1.00  0.00     0.199 HD  
BRANCH  15  18
ATOM     18  C9  UNL     1       0.932   0.298  -1.812  1.00  0.00     0.164 C   
BRANCH  18  19
ATOM     19  C10 UNL     1      -0.498   0.641  -2.126  1.00  0.00    -0.002 A   
ATOM     20  C11 UNL     1      -1.202   1.567  -1.319  1.00  0.00     0.012 A   
ATOM     21  C15 UNL     1      -1.155   0.031  -3.209  1.00  0.00     0.045 A   
ATOM     22  C12 UNL     1      -2.544   1.870  -1.575  1.00  0.00     0.037 A   
ATOM     23  C14 UNL     1      -2.478   0.350  -3.431  1.00  0.00     0.109 A   
ATOM     24  C13 UNL     1      -3.155   1.241  -2.636  1.00  0.00     0.108 A   
ATOM     25  O1  UNL     1      -3.258  -0.163  -4.419  1.00  0.00    -0.316 OA  
ATOM     26  O2  UNL     1      -4.447   1.402  -3.024  1.00  0.00    -0.316 OA  
ATOM     27  C16 UNL     1      -4.499   0.539  -4.180  1.00  0.00     0.337 C   
ENDBRANCH  18  19
ENDBRANCH  15  18
ENDBRANCH  14  15
BRANCH  14  28
ATOM     28  C17 UNL     1       0.304  -3.062   0.025  1.00  0.00     0.010 C   
ATOM     29  C18 UNL     1       1.608  -3.849  -0.211  1.00  0.00     0.017 C   
ATOM     30  C19 UNL     1      -0.255  -3.454   1.412  1.00  0.00     0.017 C   
ATOM     31  C20 UNL     1      -0.738  -3.523  -1.022  1.00  0.00     0.017 C   
ENDBRANCH  14  28
ENDBRANCH   3  14
TORSDOF 7
