REMARK SMILES CC(C)(C)[C@H]([NH2+]Cc1ccc2c(c1)OCO2)c1cn(Cc2ccc(CO)cc2)nn1
REMARK SMILES IDX 17 1 18 2 19 3 29 4 30 5 5 7 2 8 1 9 3 10 4 11 6 12 7 15
REMARK SMILES IDX 8 16 9 17 13 18 10 19 12 20 11 21 14 22 16 23 15 24 20 25
REMARK SMILES IDX 21 26 22 27 28 28 23 29 27 30 24 31 25 32 26 33
REMARK H PARENT 18 6 6 13 6 14 26 34
ROOT
ATOM     1   C14 UNL     1       1.387   0.260  -0.212  1.00  0.00     0.127 A   
ATOM     2   C15 UNL     1       0.522   1.214   0.278  1.00  0.00     0.046 A   
ATOM     3   N2  UNL     1       0.073   1.858  -0.842  1.00  0.00    -0.208 N   
ATOM     4   N3  UNL     1       0.622   1.330  -1.954  1.00  0.00    -0.076 NA  
ATOM     5   N4  UNL     1       1.421   0.345  -1.582  1.00  0.00    -0.132 NA  
ATOM     6   H20 UNL     1       0.186   1.477   1.271  1.00  0.00     0.083 HD  
ENDROOT
BRANCH   1   7
ATOM     7   C5  UNL     1       2.165  -0.827   0.466  1.00  0.00     0.120 C   
BRANCH   7   8
ATOM     8   C2  UNL     1       3.637  -0.436   0.835  1.00  0.00     0.010 C   
ATOM     9   C1  UNL     1       3.638   0.795   1.771  1.00  0.00     0.017 C   
ATOM     10  C3  UNL     1       4.498  -0.102  -0.400  1.00  0.00     0.017 C   
ATOM     11  C4  UNL     1       4.315  -1.590   1.610  1.00  0.00     0.017 C   
ENDBRANCH   7   8
BRANCH   7  12
ATOM     12  N1  UNL     1       2.146  -2.047  -0.441  1.00  0.00     0.250 N   
ATOM     13  H11 UNL     1       1.899  -1.690  -1.379  1.00  0.00     0.199 HD  
ATOM     14  H12 UNL     1       3.079  -2.450  -0.552  1.00  0.00     0.199 HD  
BRANCH  12  15
ATOM     15  C6  UNL     1       1.185  -3.126  -0.084  1.00  0.00     0.164 C   
BRANCH  15  16
ATOM     16  C7  UNL     1      -0.251  -2.686  -0.043  1.00  0.00    -0.002 A   
ATOM     17  C8  UNL     1      -0.929  -2.327  -1.233  1.00  0.00     0.012 A   
ATOM     18  C12 UNL     1      -0.928  -2.606   1.186  1.00  0.00     0.045 A   
ATOM     19  C9  UNL     1      -2.260  -1.895  -1.201  1.00  0.00     0.037 A   
ATOM     20  C11 UNL     1      -2.238  -2.174   1.182  1.00  0.00     0.109 A   
ATOM     21  C10 UNL     1      -2.887  -1.832   0.023  1.00  0.00     0.108 A   
ATOM     22  O1  UNL     1      -3.026  -2.038   2.281  1.00  0.00    -0.316 OA  
ATOM     23  O2  UNL     1      -4.171  -1.450   0.241  1.00  0.00    -0.316 OA  
ATOM     24  C13 UNL     1      -4.261  -1.590   1.679  1.00  0.00     0.337 C   
ENDBRANCH  15  16
ENDBRANCH  12  15
ENDBRANCH   7  12
ENDBRANCH   1   7
BRANCH   3  25
ATOM     25  C16 UNL     1      -0.823   2.998  -0.925  1.00  0.00     0.169 C   
BRANCH  25  26
ATOM     26  C17 UNL     1      -2.267   2.571  -0.866  1.00  0.00    -0.029 A   
ATOM     27  C18 UNL     1      -2.898   2.045  -2.002  1.00  0.00     0.006 A   
ATOM     28  C23 UNL     1      -3.000   2.690   0.322  1.00  0.00     0.006 A   
ATOM     29  C19 UNL     1      -4.241   1.663  -1.957  1.00  0.00     0.006 A   
ATOM     30  C22 UNL     1      -4.342   2.307   0.366  1.00  0.00     0.006 A   
ATOM     31  C20 UNL     1      -4.978   1.803  -0.775  1.00  0.00    -0.023 A   
BRANCH  31  32
ATOM     32  C21 UNL     1      -6.421   1.380  -0.712  1.00  0.00     0.191 C   
BRANCH  32  33
ATOM     33  O3  UNL     1      -6.525   0.099  -0.108  1.00  0.00    -0.392 OA  
ATOM     34  H27 UNL     1      -5.734  -0.406  -0.373  1.00  0.00     0.211 HD  
ENDBRANCH  32  33
ENDBRANCH  31  32
ENDBRANCH  25  26
ENDBRANCH   3  25
TORSDOF 9
