REMARK SMILES Oc1ccc(Cn2cc([C@@H]([NH2+]Cc3ccc4c(c3)OCO4)C3CCCC3)nn2)cc1F
REMARK SMILES IDX 7 1 8 2 9 3 27 4 28 5 6 7 5 8 2 9 3 10 30 11 4 12 29 13
REMARK SMILES IDX 31 14 1 15 10 17 11 18 12 21 13 22 14 23 18 24 15 25 17 26
REMARK SMILES IDX 16 27 19 28 21 29 20 30 22 31 23 32 26 33 24 34 25 35
REMARK H PARENT 8 6 1 16 11 19 11 20
ROOT
ATOM     1   N1  UNL     1      -1.062   1.493  -1.575  1.00  0.00    -0.208 N   
ATOM     2   C6  UNL     1      -1.785   0.808  -0.635  1.00  0.00     0.046 A   
ATOM     3   C7  UNL     1      -0.996  -0.281  -0.336  1.00  0.00     0.127 A   
ATOM     4   N3  UNL     1       0.113  -0.261  -1.146  1.00  0.00    -0.132 NA  
ATOM     5   N4  UNL     1       0.052   0.816  -1.909  1.00  0.00    -0.076 NA  
ATOM     6   H6  UNL     1      -2.724   1.179  -0.249  1.00  0.00     0.083 HD  
ENDROOT
BRANCH   1   7
ATOM     7   C5  UNL     1      -1.343   2.797  -2.153  1.00  0.00     0.169 C   
BRANCH   7   8
ATOM     8   C4  UNL     1      -1.031   3.895  -1.166  1.00  0.00    -0.025 A   
ATOM     9   C1  UNL     1      -0.456   5.887   0.717  1.00  0.00     0.107 A   
ATOM     10  C2  UNL     1      -1.777   5.619   0.387  1.00  0.00     0.036 A   
ATOM     11  C23 UNL     1       0.575   5.178   0.113  1.00  0.00     0.153 A   
ATOM     12  C3  UNL     1      -2.066   4.625  -0.554  1.00  0.00     0.008 A   
ATOM     13  C22 UNL     1       0.300   4.188  -0.825  1.00  0.00     0.047 A   
ATOM     14  F1  UNL     1       1.845   5.443   0.448  1.00  0.00    -0.204 F   
BRANCH   9  15
ATOM     15  O1  UNL     1      -0.200   6.856   1.643  1.00  0.00    -0.358 OA  
ATOM     16  H1  UNL     1       0.770   6.944   1.711  1.00  0.00     0.218 HD  
ENDBRANCH   9  15
ENDBRANCH   7   8
ENDBRANCH   1   7
BRANCH   3  17
ATOM     17  C8  UNL     1      -1.150  -1.396   0.651  1.00  0.00     0.117 C   
BRANCH  17  18
ATOM     18  N2  UNL     1      -0.242  -2.539   0.253  1.00  0.00     0.249 N   
ATOM     19  H8  UNL     1       0.055  -3.097   1.058  1.00  0.00     0.199 HD  
ATOM     20  H9  UNL     1       0.618  -2.107  -0.123  1.00  0.00     0.199 HD  
BRANCH  18  21
ATOM     21  C9  UNL     1      -0.775  -3.438  -0.804  1.00  0.00     0.164 C   
BRANCH  21  22
ATOM     22  C10 UNL     1       0.270  -4.434  -1.219  1.00  0.00    -0.002 A   
ATOM     23  C11 UNL     1       0.411  -5.660  -0.524  1.00  0.00     0.012 A   
ATOM     24  C15 UNL     1       1.158  -4.124  -2.264  1.00  0.00     0.045 A   
ATOM     25  C12 UNL     1       1.415  -6.570  -0.870  1.00  0.00     0.037 A   
ATOM     26  C14 UNL     1       2.134  -5.046  -2.581  1.00  0.00     0.109 A   
ATOM     27  C13 UNL     1       2.260  -6.233  -1.905  1.00  0.00     0.108 A   
ATOM     28  O2  UNL     1       3.068  -4.902  -3.557  1.00  0.00    -0.316 OA  
ATOM     29  O3  UNL     1       3.291  -6.988  -2.369  1.00  0.00    -0.316 OA  
ATOM     30  C16 UNL     1       3.795  -6.146  -3.427  1.00  0.00     0.337 C   
ENDBRANCH  21  22
ENDBRANCH  18  21
ENDBRANCH  17  18
BRANCH  17  31
ATOM     31  C17 UNL     1      -0.804  -1.016   2.105  1.00  0.00     0.043 C   
ATOM     32  C18 UNL     1       0.589  -0.414   2.329  1.00  0.00     0.010 C   
ATOM     33  C21 UNL     1      -1.778  -0.025   2.770  1.00  0.00     0.010 C   
ATOM     34  C19 UNL     1       0.447   0.292   3.668  1.00  0.00     0.001 C   
ATOM     35  C20 UNL     1      -0.913   0.959   3.555  1.00  0.00     0.001 C   
ENDBRANCH  17  31
ENDBRANCH   3  17
TORSDOF 8
