REMARK SMILES COc1cc(OC)cc(-n2cc([C@@H]([NH2+]Cc3ccc4c(c3)OCO4)C(C)C)nn2)c1
REMARK SMILES IDX 10 1 11 2 12 3 28 4 29 5 9 6 3 7 4 8 30 9 5 10 8 11 2 12
REMARK SMILES IDX 1 13 6 14 7 15 13 16 14 17 15 20 16 21 17 22 21 23 18 24
REMARK SMILES IDX 20 25 19 26 22 27 24 28 23 29 25 30 26 31 27 32
REMARK H PARENT 14 18 14 19
ROOT
ATOM     1   N1  UNL     1      -0.325  -0.495   0.391  1.00  0.00    -0.180 N   
ATOM     2   C8  UNL     1       0.511   0.256   1.195  1.00  0.00     0.135 A   
ATOM     3   C9  UNL     1      -0.289   1.254   1.704  1.00  0.00     0.127 A   
ATOM     4   N3  UNL     1      -1.572   1.063   1.276  1.00  0.00    -0.131 NA  
ATOM     5   N4  UNL     1      -1.590  -0.011   0.505  1.00  0.00    -0.071 NA  
ENDROOT
BRANCH   1   6
ATOM     6   C7  UNL     1      -0.001  -1.561  -0.482  1.00  0.00     0.063 A   
ATOM     7   C2  UNL     1      -0.711  -3.216  -2.113  1.00  0.00     0.079 A   
ATOM     8   C3  UNL     1       0.613  -3.636  -2.263  1.00  0.00     0.067 A   
ATOM     9   C22 UNL     1      -1.014  -2.180  -1.225  1.00  0.00     0.059 A   
ATOM     10  C4  UNL     1       1.630  -3.021  -1.530  1.00  0.00     0.079 A   
ATOM     11  C6  UNL     1       1.321  -1.988  -0.638  1.00  0.00     0.059 A   
BRANCH   7  12
ATOM     12  O1  UNL     1      -1.796  -3.725  -2.772  1.00  0.00    -0.349 OA  
ATOM     13  C1  UNL     1      -1.564  -4.785  -3.693  1.00  0.00     0.203 C   
ENDBRANCH   7  12
BRANCH  10  14
ATOM     14  O2  UNL     1       2.965  -3.321  -1.596  1.00  0.00    -0.349 OA  
ATOM     15  C5  UNL     1       3.348  -4.391  -2.453  1.00  0.00     0.203 C   
ENDBRANCH  10  14
ENDBRANCH   1   6
BRANCH   3  16
ATOM     16  C10 UNL     1       0.049   2.490   2.476  1.00  0.00     0.117 C   
BRANCH  16  17
ATOM     17  N2  UNL     1      -0.683   3.674   1.880  1.00  0.00     0.249 N   
ATOM     18  H11 UNL     1      -0.956   4.341   2.606  1.00  0.00     0.199 HD  
ATOM     19  H12 UNL     1      -1.565   3.296   1.497  1.00  0.00     0.199 HD  
BRANCH  17  20
ATOM     20  C11 UNL     1       0.021   4.414   0.787  1.00  0.00     0.164 C   
BRANCH  20  21
ATOM     21  C12 UNL     1       0.337   3.573  -0.419  1.00  0.00    -0.002 A   
ATOM     22  C13 UNL     1      -0.690   3.190  -1.315  1.00  0.00     0.012 A   
ATOM     23  C17 UNL     1       1.645   3.100  -0.628  1.00  0.00     0.045 A   
ATOM     24  C14 UNL     1      -0.427   2.330  -2.387  1.00  0.00     0.037 A   
ATOM     25  C16 UNL     1       1.867   2.244  -1.687  1.00  0.00     0.109 A   
ATOM     26  C15 UNL     1       0.861   1.868  -2.541  1.00  0.00     0.108 A   
ATOM     27  O3  UNL     1       3.055   1.661  -1.995  1.00  0.00    -0.316 OA  
ATOM     28  O4  UNL     1       1.289   1.008  -3.501  1.00  0.00    -0.316 OA  
ATOM     29  C18 UNL     1       2.688   0.894  -3.166  1.00  0.00     0.337 C   
ENDBRANCH  20  21
ENDBRANCH  17  20
ENDBRANCH  16  17
BRANCH  16  30
ATOM     30  C19 UNL     1      -0.262   2.355   3.989  1.00  0.00     0.037 C   
ATOM     31  C20 UNL     1       0.373   3.496   4.794  1.00  0.00     0.014 C   
ATOM     32  C21 UNL     1      -1.755   2.258   4.325  1.00  0.00     0.014 C   
ENDBRANCH  16  30
ENDBRANCH   3  16
TORSDOF 8
