REMARK SMILES CC(C)n1nccc1Cn1cc([C@@H]([NH2+]Cc2ccc3c(c2)OCO3)C2CCCCC2)nn1
REMARK SMILES IDX 10 1 11 2 12 3 31 4 32 5 9 7 8 8 4 9 5 10 6 11 7 12 2 13
REMARK SMILES IDX 1 14 3 15 13 16 14 17 15 20 16 21 17 22 21 23 18 24 20 25
REMARK SMILES IDX 19 26 22 27 24 28 23 29 25 30 26 31 30 32 27 33 29 34 28 35
REMARK H PARENT 11 6 14 18 14 19
ROOT
ATOM     1   N3  UNL     1       1.844   0.997   2.692  1.00  0.00    -0.206 N   
ATOM     2   C8  UNL     1       1.513   1.017   1.365  1.00  0.00     0.046 A   
ATOM     3   C9  UNL     1       0.138   1.099   1.362  1.00  0.00     0.127 A   
ATOM     4   N5  UNL     1      -0.312   1.121   2.658  1.00  0.00    -0.132 NA  
ATOM     5   N6  UNL     1       0.738   1.062   3.461  1.00  0.00    -0.076 NA  
ATOM     6   H12 UNL     1       2.257   0.941   0.584  1.00  0.00     0.083 HD  
ENDROOT
BRANCH   1   7
ATOM     7   C7  UNL     1       3.163   0.860   3.293  1.00  0.00     0.187 C   
BRANCH   7   8
ATOM     8   C6  UNL     1       3.735  -0.486   3.006  1.00  0.00     0.049 A   
ATOM     9   N1  UNL     1       3.324  -1.658   3.606  1.00  0.00    -0.225 N   
ATOM     10  N2  UNL     1       3.929  -2.743   3.084  1.00  0.00    -0.190 NA  
ATOM     11  C4  UNL     1       4.820  -2.250   2.226  1.00  0.00     0.133 A   
ATOM     12  C5  UNL     1       4.742  -0.852   2.134  1.00  0.00     0.044 A   
BRANCH   9  13
ATOM     13  C2  UNL     1       2.323  -1.849   4.654  1.00  0.00     0.092 C   
ATOM     14  C1  UNL     1       1.073  -2.536   4.098  1.00  0.00     0.030 C   
ATOM     15  C3  UNL     1       2.896  -2.613   5.852  1.00  0.00     0.030 C   
ENDBRANCH   9  13
ENDBRANCH   7   8
ENDBRANCH   1   7
BRANCH   3  16
ATOM     16  C10 UNL     1      -0.849   1.071   0.234  1.00  0.00     0.117 C   
BRANCH  16  17
ATOM     17  N4  UNL     1      -2.018   0.218   0.677  1.00  0.00     0.249 N   
ATOM     18  H14 UNL     1      -1.611  -0.627   1.097  1.00  0.00     0.199 HD  
ATOM     19  H15 UNL     1      -2.466   0.685   1.476  1.00  0.00     0.199 HD  
BRANCH  17  20
ATOM     20  C11 UNL     1      -3.024  -0.207  -0.329  1.00  0.00     0.164 C   
BRANCH  20  21
ATOM     21  C12 UNL     1      -2.449  -1.130  -1.368  1.00  0.00    -0.002 A   
ATOM     22  C13 UNL     1      -2.152  -2.475  -1.038  1.00  0.00     0.012 A   
ATOM     23  C17 UNL     1      -2.161  -0.656  -2.660  1.00  0.00     0.045 A   
ATOM     24  C14 UNL     1      -1.567  -3.334  -1.975  1.00  0.00     0.037 A   
ATOM     25  C16 UNL     1      -1.588  -1.531  -3.561  1.00  0.00     0.109 A   
ATOM     26  C15 UNL     1      -1.295  -2.830  -3.226  1.00  0.00     0.108 A   
ATOM     27  O1  UNL     1      -1.252  -1.236  -4.845  1.00  0.00    -0.316 OA  
ATOM     28  O2  UNL     1      -0.731  -3.517  -4.254  1.00  0.00    -0.316 OA  
ATOM     29  C18 UNL     1      -0.730  -2.510  -5.290  1.00  0.00     0.337 C   
ENDBRANCH  20  21
ENDBRANCH  17  20
ENDBRANCH  16  17
BRANCH  16  30
ATOM     30  C19 UNL     1      -1.325   2.475  -0.228  1.00  0.00     0.043 C   
ATOM     31  C20 UNL     1      -0.154   3.307  -0.791  1.00  0.00     0.010 C   
ATOM     32  C24 UNL     1      -2.080   3.281   0.850  1.00  0.00     0.010 C   
ATOM     33  C21 UNL     1      -0.618   4.666  -1.310  1.00  0.00     0.001 C   
ATOM     34  C23 UNL     1      -2.531   4.644   0.327  1.00  0.00     0.001 C   
ATOM     35  C22 UNL     1      -1.364   5.448  -0.235  1.00  0.00     0.000 C   
ENDBRANCH  16  30
ENDBRANCH   3  16
TORSDOF 8
