REMARK SMILES Cc1cc(F)cc(Cn2cc([C@@H]([NH2+]Cc3ccc4c(c3)OCO4)C(C)(C)C)nn2)c1
REMARK SMILES IDX 9 1 10 2 11 3 28 4 29 5 8 7 7 8 2 9 3 10 30 11 4 12 6 13
REMARK SMILES IDX 1 14 5 15 12 16 13 17 14 20 15 21 16 22 20 23 17 24 19 25
REMARK SMILES IDX 18 26 21 27 23 28 22 29 24 30 25 31 26 32 27 33
REMARK H PARENT 10 6 13 18 13 19
ROOT
ATOM     1   N1  UNL     1      -0.471   0.832  -1.913  1.00  0.00    -0.208 N   
ATOM     2   C8  UNL     1       0.492   0.883  -0.943  1.00  0.00     0.046 A   
ATOM     3   C9  UNL     1       1.157  -0.316  -1.071  1.00  0.00     0.127 A   
ATOM     4   N3  UNL     1       0.582  -1.043  -2.085  1.00  0.00    -0.132 NA  
ATOM     5   N4  UNL     1      -0.404  -0.327  -2.598  1.00  0.00    -0.076 NA  
ATOM     6   H8  UNL     1       0.594   1.723  -0.270  1.00  0.00     0.083 HD  
ENDROOT
BRANCH   1   7
ATOM     7   C7  UNL     1      -1.460   1.840  -2.252  1.00  0.00     0.169 C   
BRANCH   7   8
ATOM     8   C6  UNL     1      -2.688   1.706  -1.391  1.00  0.00    -0.025 A   
ATOM     9   C2  UNL     1      -4.829   0.623  -0.914  1.00  0.00    -0.048 A   
ATOM     10  C3  UNL     1      -4.976   1.434   0.215  1.00  0.00     0.042 A   
ATOM     11  C23 UNL     1      -3.688   0.773  -1.717  1.00  0.00     0.009 A   
ATOM     12  C4  UNL     1      -3.985   2.351   0.543  1.00  0.00     0.123 A   
ATOM     13  C5  UNL     1      -2.847   2.494  -0.243  1.00  0.00     0.044 A   
ATOM     14  C1  UNL     1      -5.904  -0.352  -1.292  1.00  0.00     0.044 C   
ATOM     15  F1  UNL     1      -4.119   3.105   1.642  1.00  0.00    -0.207 F   
ENDBRANCH   7   8
ENDBRANCH   1   7
BRANCH   3  16
ATOM     16  C10 UNL     1       2.260  -0.938  -0.270  1.00  0.00     0.120 C   
BRANCH  16  17
ATOM     17  N2  UNL     1       1.963  -2.423  -0.147  1.00  0.00     0.250 N   
ATOM     18  H10 UNL     1       2.783  -2.992  -0.370  1.00  0.00     0.199 HD  
ATOM     19  H11 UNL     1       1.284  -2.634  -0.896  1.00  0.00     0.199 HD  
BRANCH  17  20
ATOM     20  C11 UNL     1       1.389  -2.880   1.149  1.00  0.00     0.164 C   
BRANCH  20  21
ATOM     21  C12 UNL     1       0.082  -2.230   1.510  1.00  0.00    -0.002 A   
ATOM     22  C13 UNL     1      -1.090  -2.504   0.765  1.00  0.00     0.012 A   
ATOM     23  C17 UNL     1       0.019  -1.329   2.587  1.00  0.00     0.045 A   
ATOM     24  C14 UNL     1      -2.308  -1.894   1.089  1.00  0.00     0.037 A   
ATOM     25  C16 UNL     1      -1.196  -0.744   2.878  1.00  0.00     0.109 A   
ATOM     26  C15 UNL     1      -2.328  -1.022   2.154  1.00  0.00     0.108 A   
ATOM     27  O1  UNL     1      -1.424   0.145   3.879  1.00  0.00    -0.316 OA  
ATOM     28  O2  UNL     1      -3.416  -0.356   2.619  1.00  0.00    -0.316 OA  
ATOM     29  C18 UNL     1      -2.842   0.381   3.719  1.00  0.00     0.337 C   
ENDBRANCH  20  21
ENDBRANCH  17  20
ENDBRANCH  16  17
BRANCH  16  30
ATOM     30  C19 UNL     1       3.695  -0.707  -0.857  1.00  0.00     0.010 C   
ATOM     31  C20 UNL     1       3.880  -1.326  -2.257  1.00  0.00     0.017 C   
ATOM     32  C21 UNL     1       4.759  -1.308   0.091  1.00  0.00     0.017 C   
ATOM     33  C22 UNL     1       3.986   0.808  -0.957  1.00  0.00     0.017 C   
ENDBRANCH  16  30
ENDBRANCH   3  16
TORSDOF 7
