REMARK SMILES Cc1cccc(N([O-])[O-])c1-n1cc([C@@H]([NH2+]Cc2ccc3c(c2)OCO3)C2CCCCC2)nn1
REMARK SMILES IDX 11 1 12 2 13 3 32 4 33 5 10 6 2 7 3 8 4 9 6 10 5 11 1 12
REMARK SMILES IDX 7 13 8 14 9 15 14 16 15 17 16 20 17 21 18 22 22 23 19 24
REMARK SMILES IDX 21 25 20 26 23 27 25 28 24 29 26 30 27 31 31 32 28 33 30 34
REMARK SMILES IDX 29 35
REMARK H PARENT 15 18 15 19
ROOT
ATOM     1   N2  UNL     1      -2.695   0.951  -1.030  1.00  0.00    -0.178 N   
ATOM     2   C8  UNL     1      -1.528   0.212  -0.967  1.00  0.00     0.135 A   
ATOM     3   C9  UNL     1      -1.094   0.340   0.333  1.00  0.00     0.127 A   
ATOM     4   N4  UNL     1      -2.011   1.061   1.039  1.00  0.00    -0.131 NA  
ATOM     5   N5  UNL     1      -2.996   1.385   0.218  1.00  0.00    -0.071 NA  
ENDROOT
BRANCH   1   6
ATOM     6   C7  UNL     1      -3.474   1.302  -2.165  1.00  0.00     0.089 A   
ATOM     7   C2  UNL     1      -4.884   1.397  -2.072  1.00  0.00    -0.025 A   
ATOM     8   C3  UNL     1      -5.621   1.724  -3.230  1.00  0.00     0.005 A   
ATOM     9   C4  UNL     1      -4.998   1.942  -4.460  1.00  0.00     0.003 A   
ATOM     10  C6  UNL     1      -2.865   1.560  -3.414  1.00  0.00     0.141 A   
ATOM     11  C5  UNL     1      -3.615   1.865  -4.558  1.00  0.00     0.033 A   
ATOM     12  C1  UNL     1      -5.668   1.140  -0.809  1.00  0.00     0.046 C   
BRANCH  10  13
ATOM     13  N1  UNL     1      -1.423   1.671  -3.553  1.00  0.00     0.094 N   
ATOM     14  O1  UNL     1      -0.835   2.457  -2.795  1.00  0.00    -0.138 OA  
ATOM     15  O2  UNL     1      -0.877   0.931  -4.379  1.00  0.00    -0.138 OA  
ENDBRANCH  10  13
ENDBRANCH   1   6
BRANCH   3  16
ATOM     16  C10 UNL     1       0.179  -0.094   0.990  1.00  0.00     0.117 C   
BRANCH  16  17
ATOM     17  N3  UNL     1       0.779   1.114   1.685  1.00  0.00     0.249 N   
ATOM     18  H9  UNL     1       0.020   1.540   2.237  1.00  0.00     0.199 HD  
ATOM     19  H10 UNL     1       1.507   0.837   2.345  1.00  0.00     0.199 HD  
BRANCH  17  20
ATOM     20  C11 UNL     1       1.347   2.172   0.792  1.00  0.00     0.164 C   
BRANCH  20  21
ATOM     21  C12 UNL     1       2.600   1.718   0.095  1.00  0.00    -0.002 A   
ATOM     22  C13 UNL     1       3.806   1.557   0.821  1.00  0.00     0.012 A   
ATOM     23  C17 UNL     1       2.573   1.412  -1.277  1.00  0.00     0.045 A   
ATOM     24  C14 UNL     1       4.964   1.086   0.194  1.00  0.00     0.037 A   
ATOM     25  C16 UNL     1       3.732   0.948  -1.863  1.00  0.00     0.109 A   
ATOM     26  C15 UNL     1       4.893   0.787  -1.149  1.00  0.00     0.108 A   
ATOM     27  O3  UNL     1       3.872   0.595  -3.167  1.00  0.00    -0.316 OA  
ATOM     28  O4  UNL     1       5.912   0.318  -1.915  1.00  0.00    -0.316 OA  
ATOM     29  C18 UNL     1       5.269   0.228  -3.205  1.00  0.00     0.337 C   
ENDBRANCH  20  21
ENDBRANCH  17  20
ENDBRANCH  16  17
BRANCH  16  30
ATOM     30  C19 UNL     1      -0.042  -1.233   2.031  1.00  0.00     0.043 C   
ATOM     31  C20 UNL     1       1.256  -1.717   2.716  1.00  0.00     0.010 C   
ATOM     32  C24 UNL     1      -0.733  -2.471   1.412  1.00  0.00     0.010 C   
ATOM     33  C21 UNL     1       2.190  -2.457   1.760  1.00  0.00     0.001 C   
ATOM     34  C23 UNL     1       0.170  -3.223   0.435  1.00  0.00     0.001 C   
ATOM     35  C22 UNL     1       1.487  -3.633   1.087  1.00  0.00     0.000 C   
ENDBRANCH  16  30
ENDBRANCH   3  16
TORSDOF 7
