REMARK SMILES CC(C)[C@H]([NH2+]Cc1ccc2c(c1)OCO2)c1cn(Cc2cn(C)nc2C(F)F)nn1
REMARK SMILES IDX 16 1 17 2 18 3 29 4 30 5 4 7 2 8 1 9 3 10 5 11 6 14 7 15
REMARK SMILES IDX 8 16 12 17 9 18 11 19 10 20 13 21 15 22 14 23 19 24 20 25
REMARK SMILES IDX 21 26 25 27 22 28 24 29 23 30 26 31 27 32 28 33
REMARK H PARENT 17 6 5 12 5 13
ROOT
ATOM     1   C13 UNL     1       1.616  -0.955   0.829  1.00  0.00     0.127 A   
ATOM     2   C14 UNL     1       1.390  -1.937  -0.110  1.00  0.00     0.046 A   
ATOM     3   N2  UNL     1       0.432  -2.727   0.464  1.00  0.00    -0.208 N   
ATOM     4   N5  UNL     1       0.134  -2.294   1.704  1.00  0.00    -0.076 NA  
ATOM     5   N6  UNL     1       0.840  -1.199   1.932  1.00  0.00    -0.132 NA  
ATOM     6   H18 UNL     1       1.766  -2.113  -1.109  1.00  0.00     0.083 HD  
ENDROOT
BRANCH   1   7
ATOM     7   C4  UNL     1       2.439   0.289   0.774  1.00  0.00     0.117 C   
BRANCH   7   8
ATOM     8   C2  UNL     1       3.831   0.166   1.446  1.00  0.00     0.037 C   
ATOM     9   C1  UNL     1       4.725  -0.839   0.708  1.00  0.00     0.014 C   
ATOM     10  C3  UNL     1       3.788  -0.184   2.939  1.00  0.00     0.014 C   
ENDBRANCH   7   8
BRANCH   7  11
ATOM     11  N1  UNL     1       1.682   1.418   1.441  1.00  0.00     0.249 N   
ATOM     12  H9  UNL     1       2.321   2.174   1.704  1.00  0.00     0.199 HD  
ATOM     13  H10 UNL     1       1.296   1.026   2.312  1.00  0.00     0.199 HD  
BRANCH  11  14
ATOM     14  C5  UNL     1       0.536   1.982   0.666  1.00  0.00     0.164 C   
BRANCH  14  15
ATOM     15  C6  UNL     1       0.986   2.836  -0.488  1.00  0.00    -0.002 A   
ATOM     16  C7  UNL     1       0.808   2.390  -1.818  1.00  0.00     0.012 A   
ATOM     17  C11 UNL     1       1.607   4.076  -0.254  1.00  0.00     0.045 A   
ATOM     18  C8  UNL     1       1.246   3.161  -2.902  1.00  0.00     0.037 A   
ATOM     19  C10 UNL     1       2.029   4.809  -1.343  1.00  0.00     0.109 A   
ATOM     20  C9  UNL     1       1.853   4.366  -2.630  1.00  0.00     0.108 A   
ATOM     21  O1  UNL     1       2.649   6.017  -1.291  1.00  0.00    -0.316 OA  
ATOM     22  O2  UNL     1       2.333   5.243  -3.550  1.00  0.00    -0.316 OA  
ATOM     23  C12 UNL     1       2.816   6.303  -2.697  1.00  0.00     0.337 C   
ENDBRANCH  14  15
ENDBRANCH  11  14
ENDBRANCH   7  11
ENDBRANCH   1   7
BRANCH   3  24
ATOM     24  C15 UNL     1      -0.242  -3.881  -0.110  1.00  0.00     0.173 C   
BRANCH  24  25
ATOM     25  C16 UNL     1      -1.665  -3.575  -0.440  1.00  0.00     0.016 A   
ATOM     26  C17 UNL     1      -2.793  -4.140   0.121  1.00  0.00     0.102 A   
ATOM     27  C19 UNL     1      -2.177  -2.651  -1.403  1.00  0.00     0.131 A   
ATOM     28  N3  UNL     1      -3.865  -3.559  -0.486  1.00  0.00    -0.235 N   
ATOM     29  N4  UNL     1      -3.521  -2.645  -1.408  1.00  0.00    -0.180 NA  
ATOM     30  C18 UNL     1      -5.262  -3.824  -0.230  1.00  0.00     0.159 C   
BRANCH  27  31
ATOM     31  C20 UNL     1      -1.411  -1.752  -2.323  1.00  0.00     0.393 C   
ATOM     32  F1  UNL     1      -0.269  -2.358  -2.762  1.00  0.00    -0.203 F   
ATOM     33  F2  UNL     1      -0.984  -0.628  -1.670  1.00  0.00    -0.203 F   
ENDBRANCH  27  31
ENDBRANCH  24  25
ENDBRANCH   3  24
TORSDOF 8
