REMARK SMILES CCc1nc(C)c(Cn2cc([C@@H]([NH2+]Cc3ccc4c(c3)OCO4)C(C)C)nn2)o1
REMARK SMILES IDX 9 1 10 2 11 3 27 4 28 5 8 7 7 8 3 9 4 10 29 11 5 12 6 13
REMARK SMILES IDX 2 14 1 15 12 16 13 17 14 20 15 21 16 22 20 23 17 24 19 25
REMARK SMILES IDX 18 26 21 27 23 28 22 29 24 30 25 31 26 32
REMARK H PARENT 10 6 13 18 13 19
ROOT
ATOM     1   N2  UNL     1       0.465  -3.232   0.223  1.00  0.00    -0.206 N   
ATOM     2   C8  UNL     1       1.520  -2.371   0.082  1.00  0.00     0.046 A   
ATOM     3   C9  UNL     1       1.129  -1.245   0.771  1.00  0.00     0.127 A   
ATOM     4   N4  UNL     1      -0.118  -1.457   1.303  1.00  0.00    -0.132 NA  
ATOM     5   N5  UNL     1      -0.516  -2.669   0.956  1.00  0.00    -0.076 NA  
ATOM     6   H11 UNL     1       2.399  -2.627  -0.496  1.00  0.00     0.083 HD  
ENDROOT
BRANCH   1   7
ATOM     7   C7  UNL     1       0.303  -4.558  -0.347  1.00  0.00     0.197 C   
BRANCH   7   8
ATOM     8   C6  UNL     1       0.062  -4.443  -1.799  1.00  0.00     0.102 A   
ATOM     9   C3  UNL     1       0.608  -4.489  -3.887  1.00  0.00     0.147 A   
ATOM     10  N1  UNL     1      -0.651  -4.104  -3.902  1.00  0.00    -0.231 NA  
ATOM     11  O3  UNL     1       1.115  -4.702  -2.632  1.00  0.00    -0.296 OA  
ATOM     12  C4  UNL     1      -1.022  -4.094  -2.579  1.00  0.00     0.068 A   
ATOM     13  C5  UNL     1      -2.394  -3.720  -2.175  1.00  0.00     0.069 C   
BRANCH   9  14
ATOM     14  C2  UNL     1       1.528  -4.712  -5.029  1.00  0.00     0.080 C   
ATOM     15  C1  UNL     1       2.611  -3.646  -5.092  1.00  0.00     0.013 C   
ENDBRANCH   9  14
ENDBRANCH   7   8
ENDBRANCH   1   7
BRANCH   3  16
ATOM     16  C10 UNL     1       1.784   0.089   0.938  1.00  0.00     0.117 C   
BRANCH  16  17
ATOM     17  N3  UNL     1       0.735   1.167   1.053  1.00  0.00     0.249 N   
ATOM     18  H13 UNL     1       0.031   0.829   1.726  1.00  0.00     0.199 HD  
ATOM     19  H14 UNL     1       1.123   2.030   1.448  1.00  0.00     0.199 HD  
BRANCH  17  20
ATOM     20  C11 UNL     1       0.010   1.493  -0.207  1.00  0.00     0.164 C   
BRANCH  20  21
ATOM     21  C12 UNL     1      -1.056   2.519   0.054  1.00  0.00    -0.002 A   
ATOM     22  C13 UNL     1      -2.321   2.119   0.550  1.00  0.00     0.012 A   
ATOM     23  C17 UNL     1      -0.787   3.885  -0.139  1.00  0.00     0.045 A   
ATOM     24  C14 UNL     1      -3.308   3.065   0.843  1.00  0.00     0.037 A   
ATOM     25  C16 UNL     1      -1.784   4.790   0.159  1.00  0.00     0.109 A   
ATOM     26  C15 UNL     1      -3.009   4.393   0.635  1.00  0.00     0.108 A   
ATOM     27  O1  UNL     1      -1.688   6.140   0.034  1.00  0.00    -0.316 OA  
ATOM     28  O2  UNL     1      -3.840   5.442   0.866  1.00  0.00    -0.316 OA  
ATOM     29  C18 UNL     1      -3.007   6.550   0.459  1.00  0.00     0.337 C   
ENDBRANCH  20  21
ENDBRANCH  17  20
ENDBRANCH  16  17
BRANCH  16  30
ATOM     30  C19 UNL     1       2.725   0.188   2.165  1.00  0.00     0.037 C   
ATOM     31  C20 UNL     1       2.034  -0.065   3.511  1.00  0.00     0.014 C   
ATOM     32  C21 UNL     1       3.938  -0.739   2.026  1.00  0.00     0.014 C   
ENDBRANCH  16  30
ENDBRANCH   3  16
TORSDOF 8
