REMARK SMILES c1cc(-n2cc([C@@H]([NH2+]Cc3ccc4c(c3)OCO4)C3CCCCC3)nn2)c2[nH]ncc2c1
REMARK SMILES IDX 7 1 6 2 4 3 5 4 26 5 25 6 3 7 1 8 2 9 32 10 31 11 27 12
REMARK SMILES IDX 30 13 28 14 29 15 8 17 9 20 10 21 11 22 15 23 12 24 14 25
REMARK SMILES IDX 13 26 16 27 18 28 17 29 19 30 20 31 24 32 21 33 23 34 22 35
REMARK H PARENT 28 16 8 18 8 19
ROOT
ATOM     1   C6  UNL     1      -0.644   0.503  -0.419  1.00  0.00     0.117 C   
ENDROOT
BRANCH   1   2
ATOM     2   C5  UNL     1      -0.336   0.705   1.038  1.00  0.00     0.127 A   
ATOM     3   N1  UNL     1       0.210   0.628   3.162  1.00  0.00    -0.179 N   
ATOM     4   C4  UNL     1       0.213  -0.116   2.000  1.00  0.00     0.135 A   
ATOM     5   N4  UNL     1      -0.366   1.833   2.905  1.00  0.00    -0.071 NA  
ATOM     6   N3  UNL     1      -0.690   1.886   1.626  1.00  0.00    -0.131 NA  
BRANCH   3   7
ATOM     7   C3  UNL     1       0.679   0.282   4.450  1.00  0.00     0.081 A   
ATOM     8   C1  UNL     1       1.846  -1.243   5.960  1.00  0.00     0.003 A   
ATOM     9   C2  UNL     1       1.377  -0.922   4.685  1.00  0.00     0.028 A   
ATOM     10  C24 UNL     1       1.630  -0.387   7.045  1.00  0.00     0.012 A   
ATOM     11  C23 UNL     1       0.925   0.807   6.838  1.00  0.00     0.019 A   
ATOM     12  C21 UNL     1       0.474   1.122   5.559  1.00  0.00     0.080 A   
ATOM     13  C22 UNL     1       0.505   1.891   7.644  1.00  0.00     0.141 A   
ATOM     14  N5  UNL     1      -0.158   2.336   5.699  1.00  0.00    -0.236 N   
ATOM     15  N6  UNL     1      -0.168   2.813   6.954  1.00  0.00    -0.192 NA  
ATOM     16  H25 UNL     1      -0.604   2.879   4.971  1.00  0.00     0.176 HD  
ENDBRANCH   3   7
ENDBRANCH   1   2
BRANCH   1  17
ATOM     17  N2  UNL     1      -1.227   1.796  -0.978  1.00  0.00     0.249 N   
ATOM     18  H5  UNL     1      -0.524   2.299  -1.536  1.00  0.00     0.199 HD  
ATOM     19  H6  UNL     1      -1.401   2.409  -0.164  1.00  0.00     0.199 HD  
BRANCH  17  20
ATOM     20  C7  UNL     1      -2.500   1.683  -1.745  1.00  0.00     0.164 C   
BRANCH  20  21
ATOM     21  C8  UNL     1      -2.324   0.995  -3.069  1.00  0.00    -0.002 A   
ATOM     22  C9  UNL     1      -1.697   1.670  -4.145  1.00  0.00     0.012 A   
ATOM     23  C13 UNL     1      -2.735  -0.340  -3.234  1.00  0.00     0.045 A   
ATOM     24  C10 UNL     1      -1.468   1.022  -5.365  1.00  0.00     0.037 A   
ATOM     25  C12 UNL     1      -2.494  -0.950  -4.447  1.00  0.00     0.109 A   
ATOM     26  C11 UNL     1      -1.875  -0.289  -5.482  1.00  0.00     0.108 A   
ATOM     27  O1  UNL     1      -2.815  -2.237  -4.762  1.00  0.00    -0.316 OA  
ATOM     28  O2  UNL     1      -1.729  -1.073  -6.582  1.00  0.00    -0.316 OA  
ATOM     29  C14 UNL     1      -2.353  -2.299  -6.134  1.00  0.00     0.337 C   
ENDBRANCH  20  21
ENDBRANCH  17  20
ENDBRANCH   1  17
BRANCH   1  30
ATOM     30  C15 UNL     1       0.551   0.079  -1.307  1.00  0.00     0.043 C   
ATOM     31  C16 UNL     1       1.837   0.905  -1.084  1.00  0.00     0.010 C   
ATOM     32  C20 UNL     1       0.858  -1.430  -1.192  1.00  0.00     0.010 C   
ATOM     33  C17 UNL     1       2.946   0.482  -2.046  1.00  0.00     0.001 C   
ATOM     34  C19 UNL     1       1.961  -1.842  -2.172  1.00  0.00     0.001 C   
ATOM     35  C18 UNL     1       3.232  -1.018  -1.967  1.00  0.00     0.000 C   
ENDBRANCH   1  30
TORSDOF 6
