REMARK SMILES Cc1cc(F)ccc1CCn1cc([C@@H]([NH2+]Cc2ccc3c(c2)OCO3)C(C)(C)C)nn1
REMARK SMILES IDX 11 1 12 2 13 3 30 4 31 5 10 7 9 8 8 9 2 10 3 11 4 12 7 13
REMARK SMILES IDX 6 14 1 15 5 16 14 17 15 18 16 21 17 22 18 23 22 24 19 25
REMARK SMILES IDX 21 26 20 27 23 28 25 29 24 30 26 31 27 32 28 33 29 34
REMARK H PARENT 12 6 15 19 15 20
ROOT
ATOM     1   N1  UNL     1      -2.430   2.058  -0.795  1.00  0.00    -0.212 N   
ATOM     2   C10 UNL     1      -3.006   1.103  -0.004  1.00  0.00     0.045 A   
ATOM     3   C11 UNL     1      -2.093   0.921   1.011  1.00  0.00     0.127 A   
ATOM     4   N3  UNL     1      -1.031   1.768   0.817  1.00  0.00    -0.132 NA  
ATOM     5   N4  UNL     1      -1.256   2.466  -0.284  1.00  0.00    -0.076 NA  
ATOM     6   H11 UNL     1      -3.943   0.627  -0.258  1.00  0.00     0.083 HD  
ENDROOT
BRANCH   1   7
ATOM     7   C9  UNL     1      -2.888   2.541  -2.081  1.00  0.00     0.139 C   
BRANCH   7   8
ATOM     8   C8  UNL     1      -2.101   1.950  -3.258  1.00  0.00     0.057 C   
BRANCH   8   9
ATOM     9   C7  UNL     1      -2.109   0.431  -3.292  1.00  0.00    -0.043 A   
ATOM     10  C2  UNL     1      -0.942  -0.340  -3.085  1.00  0.00    -0.045 A   
ATOM     11  C3  UNL     1      -1.038  -1.741  -3.089  1.00  0.00     0.043 A   
ATOM     12  C4  UNL     1      -2.264  -2.362  -3.296  1.00  0.00     0.123 A   
ATOM     13  C6  UNL     1      -3.334  -0.227  -3.526  1.00  0.00     0.007 A   
ATOM     14  C5  UNL     1      -3.411  -1.619  -3.522  1.00  0.00     0.039 A   
ATOM     15  C1  UNL     1       0.414   0.285  -2.890  1.00  0.00     0.045 C   
ATOM     16  F1  UNL     1      -2.335  -3.699  -3.273  1.00  0.00    -0.207 F   
ENDBRANCH   8   9
ENDBRANCH   7   8
ENDBRANCH   1   7
BRANCH   3  17
ATOM     17  C12 UNL     1      -2.041  -0.086   2.119  1.00  0.00     0.120 C   
BRANCH  17  18
ATOM     18  N2  UNL     1      -0.634  -0.631   2.191  1.00  0.00     0.250 N   
ATOM     19  H13 UNL     1      -0.004   0.184   2.167  1.00  0.00     0.199 HD  
ATOM     20  H14 UNL     1      -0.442  -1.116   3.071  1.00  0.00     0.199 HD  
BRANCH  18  21
ATOM     21  C13 UNL     1      -0.244  -1.522   1.060  1.00  0.00     0.164 C   
BRANCH  21  22
ATOM     22  C14 UNL     1       1.218  -1.856   1.133  1.00  0.00    -0.002 A   
ATOM     23  C15 UNL     1       2.178  -0.938   0.641  1.00  0.00     0.012 A   
ATOM     24  C19 UNL     1       1.646  -3.051   1.734  1.00  0.00     0.045 A   
ATOM     25  C16 UNL     1       3.546  -1.211   0.736  1.00  0.00     0.037 A   
ATOM     26  C18 UNL     1       3.002  -3.289   1.809  1.00  0.00     0.109 A   
ATOM     27  C17 UNL     1       3.926  -2.396   1.326  1.00  0.00     0.108 A   
ATOM     28  O1  UNL     1       3.581  -4.390   2.356  1.00  0.00    -0.316 OA  
ATOM     29  O2  UNL     1       5.203  -2.821   1.507  1.00  0.00    -0.316 OA  
ATOM     30  C20 UNL     1       4.981  -4.100   2.139  1.00  0.00     0.337 C   
ENDBRANCH  21  22
ENDBRANCH  18  21
ENDBRANCH  17  18
BRANCH  17  31
ATOM     31  C21 UNL     1      -2.495   0.462   3.514  1.00  0.00     0.010 C   
ATOM     32  C22 UNL     1      -2.537  -0.683   4.553  1.00  0.00     0.017 C   
ATOM     33  C23 UNL     1      -3.928   1.033   3.416  1.00  0.00     0.017 C   
ATOM     34  C24 UNL     1      -1.568   1.568   4.055  1.00  0.00     0.017 C   
ENDBRANCH  17  31
ENDBRANCH   3  17
TORSDOF 8
