REMARK SMILES CC(C)c1ncc(Cn2cc([C@@H]([NH2+]Cc3ccc4c(c3)OCO4)C(C)(C)C)nn2)cn1
REMARK SMILES IDX 9 1 10 2 11 3 28 4 29 5 8 7 7 8 4 9 5 10 31 11 6 12 30 13
REMARK SMILES IDX 2 14 1 15 3 16 12 17 13 18 14 21 15 22 16 23 20 24 17 25
REMARK SMILES IDX 19 26 18 27 21 28 23 29 22 30 24 31 25 32 26 33 27 34
REMARK H PARENT 10 6 13 19 13 20
ROOT
ATOM     1   N2  UNL     1      -0.291   0.941  -1.344  1.00  0.00    -0.208 N   
ATOM     2   C8  UNL     1      -1.425   1.080  -0.592  1.00  0.00     0.046 A   
ATOM     3   C9  UNL     1      -1.308   2.339  -0.044  1.00  0.00     0.127 A   
ATOM     4   N4  UNL     1      -0.127   2.901  -0.460  1.00  0.00    -0.132 NA  
ATOM     5   N5  UNL     1       0.476   2.046  -1.267  1.00  0.00    -0.076 NA  
ATOM     6   H11 UNL     1      -2.168   0.299  -0.508  1.00  0.00     0.083 HD  
ENDROOT
BRANCH   1   7
ATOM     7   C7  UNL     1       0.102  -0.172  -2.191  1.00  0.00     0.172 C   
BRANCH   7   8
ATOM     8   C6  UNL     1       1.049  -1.092  -1.496  1.00  0.00     0.008 A   
ATOM     9   C4  UNL     1       2.803  -2.799  -0.301  1.00  0.00     0.130 A   
ATOM     10  N1  UNL     1       3.241  -1.568  -0.629  1.00  0.00    -0.241 NA  
ATOM     11  N6  UNL     1       1.540  -3.228  -0.504  1.00  0.00    -0.241 NA  
ATOM     12  C5  UNL     1       2.357  -0.746  -1.222  1.00  0.00     0.120 A   
ATOM     13  C23 UNL     1       0.696  -2.364  -1.099  1.00  0.00     0.120 A   
BRANCH   9  14
ATOM     14  C2  UNL     1       3.810  -3.762   0.288  1.00  0.00     0.051 C   
ATOM     15  C1  UNL     1       3.459  -4.120   1.730  1.00  0.00     0.016 C   
ATOM     16  C3  UNL     1       3.934  -5.018  -0.575  1.00  0.00     0.016 C   
ENDBRANCH   9  14
ENDBRANCH   7   8
ENDBRANCH   1   7
BRANCH   3  17
ATOM     17  C10 UNL     1      -2.162   3.087   0.937  1.00  0.00     0.120 C   
BRANCH  17  18
ATOM     18  N3  UNL     1      -1.241   3.770   1.933  1.00  0.00     0.250 N   
ATOM     19  H13 UNL     1      -1.533   4.732   2.120  1.00  0.00     0.199 HD  
ATOM     20  H14 UNL     1      -0.327   3.856   1.457  1.00  0.00     0.199 HD  
BRANCH  18  21
ATOM     21  C11 UNL     1      -1.026   3.067   3.230  1.00  0.00     0.164 C   
BRANCH  21  22
ATOM     22  C12 UNL     1      -0.450   1.686   3.088  1.00  0.00    -0.002 A   
ATOM     23  C13 UNL     1       0.904   1.509   2.712  1.00  0.00     0.012 A   
ATOM     24  C17 UNL     1      -1.265   0.558   3.286  1.00  0.00     0.045 A   
ATOM     25  C14 UNL     1       1.439   0.229   2.535  1.00  0.00     0.037 A   
ATOM     26  C16 UNL     1      -0.708  -0.689   3.096  1.00  0.00     0.109 A   
ATOM     27  C15 UNL     1       0.606  -0.849   2.738  1.00  0.00     0.108 A   
ATOM     28  O1  UNL     1      -1.360  -1.875   3.225  1.00  0.00    -0.316 OA  
ATOM     29  O2  UNL     1       0.953  -2.154   2.619  1.00  0.00    -0.316 OA  
ATOM     30  C18 UNL     1      -0.292  -2.807   2.932  1.00  0.00     0.337 C   
ENDBRANCH  21  22
ENDBRANCH  18  21
ENDBRANCH  17  18
BRANCH  17  31
ATOM     31  C19 UNL     1      -3.138   4.124   0.283  1.00  0.00     0.010 C   
ATOM     32  C20 UNL     1      -4.051   4.748   1.365  1.00  0.00     0.017 C   
ATOM     33  C21 UNL     1      -4.064   3.412  -0.731  1.00  0.00     0.017 C   
ATOM     34  C22 UNL     1      -2.404   5.263  -0.453  1.00  0.00     0.017 C   
ENDBRANCH  17  31
ENDBRANCH   3  17
TORSDOF 8
