REMARK SMILES OCc1cc(-n2cc([C@@H]([NH2+]Cc3ccc4c(c3)OCO4)C3CCCC3)nn2)ccn1
REMARK SMILES IDX 6 1 7 2 8 3 26 4 27 5 5 6 3 7 4 8 30 9 29 10 28 11 2 12 1 13
REMARK SMILES IDX 9 15 10 16 11 19 12 20 13 21 17 22 14 23 16 24 15 25 18 26
REMARK SMILES IDX 20 27 19 28 21 29 22 30 25 31 23 32 24 33
REMARK H PARENT 1 14 10 17 10 18
ROOT
ATOM     1   N1  UNL     1       0.204  -3.123  -0.760  1.00  0.00    -0.180 N   
ATOM     2   C5  UNL     1      -0.584  -2.166  -1.372  1.00  0.00     0.135 A   
ATOM     3   C6  UNL     1      -0.372  -1.012  -0.651  1.00  0.00     0.127 A   
ATOM     4   N3  UNL     1       0.512  -1.272   0.359  1.00  0.00    -0.131 NA  
ATOM     5   N4  UNL     1       0.846  -2.550   0.293  1.00  0.00    -0.071 NA  
ENDROOT
BRANCH   1   6
ATOM     6   C4  UNL     1       0.367  -4.489  -1.084  1.00  0.00     0.061 A   
ATOM     7   C2  UNL     1      -0.130  -6.414  -2.435  1.00  0.00     0.068 A   
ATOM     8   C3  UNL     1      -0.302  -5.056  -2.173  1.00  0.00     0.052 A   
ATOM     9   N5  UNL     1       0.687  -7.193  -1.686  1.00  0.00    -0.259 NA  
ATOM     10  C22 UNL     1       1.330  -6.624  -0.644  1.00  0.00     0.113 A   
ATOM     11  C21 UNL     1       1.204  -5.290  -0.303  1.00  0.00     0.046 A   
BRANCH   7  12
ATOM     12  C1  UNL     1      -0.811  -7.079  -3.609  1.00  0.00     0.212 C   
BRANCH  12  13
ATOM     13  O1  UNL     1      -2.013  -6.404  -3.982  1.00  0.00    -0.390 OA  
ATOM     14  H1  UNL     1      -2.437  -6.971  -4.651  1.00  0.00     0.211 HD  
ENDBRANCH  12  13
ENDBRANCH   7  12
ENDBRANCH   1   6
BRANCH   3  15
ATOM     15  C7  UNL     1      -0.945   0.365  -0.793  1.00  0.00     0.117 C   
BRANCH  15  16
ATOM     16  N2  UNL     1      -0.806   1.119   0.502  1.00  0.00     0.249 N   
ATOM     17  H7  UNL     1       0.127   0.894   0.879  1.00  0.00     0.199 HD  
ATOM     18  H8  UNL     1      -0.819   2.134   0.371  1.00  0.00     0.199 HD  
BRANCH  16  19
ATOM     19  C8  UNL     1      -1.793   0.757   1.558  1.00  0.00     0.164 C   
BRANCH  19  20
ATOM     20  C9  UNL     1      -1.456   1.453   2.846  1.00  0.00    -0.002 A   
ATOM     21  C10 UNL     1      -0.520   0.877   3.739  1.00  0.00     0.012 A   
ATOM     22  C14 UNL     1      -2.020   2.704   3.147  1.00  0.00     0.045 A   
ATOM     23  C11 UNL     1      -0.158   1.531   4.922  1.00  0.00     0.037 A   
ATOM     24  C13 UNL     1      -1.642   3.321   4.322  1.00  0.00     0.109 A   
ATOM     25  C12 UNL     1      -0.738   2.752   5.184  1.00  0.00     0.108 A   
ATOM     26  O2  UNL     1      -2.091   4.526   4.762  1.00  0.00    -0.316 OA  
ATOM     27  O3  UNL     1      -0.506   3.524   6.277  1.00  0.00    -0.316 OA  
ATOM     28  C15 UNL     1      -1.387   4.638   6.019  1.00  0.00     0.337 C   
ENDBRANCH  19  20
ENDBRANCH  16  19
ENDBRANCH  15  16
BRANCH  15  29
ATOM     29  C16 UNL     1      -0.283   1.140  -1.950  1.00  0.00     0.043 C   
ATOM     30  C17 UNL     1      -0.964   2.465  -2.305  1.00  0.00     0.010 C   
ATOM     31  C20 UNL     1       1.194   1.521  -1.760  1.00  0.00     0.010 C   
ATOM     32  C18 UNL     1       0.064   3.134  -3.204  1.00  0.00     0.001 C   
ATOM     33  C19 UNL     1       1.395   2.829  -2.531  1.00  0.00     0.001 C   
ENDBRANCH  15  29
ENDBRANCH   3  15
TORSDOF 8
