REMARK SMILES CC(C)C[C@H]([NH2+]Cc1ccc2c(c1)OCO2)c1cn(CCc2cnn(C(C)C)c2)nn1
REMARK SMILES IDX 17 1 18 2 19 3 30 4 31 5 5 7 4 8 2 9 1 10 3 11 6 12 7 15
REMARK SMILES IDX 8 16 9 17 13 18 10 19 12 20 11 21 14 22 16 23 15 24 20 25
REMARK SMILES IDX 21 26 22 27 23 28 29 29 24 30 25 31 26 32 27 33 28 34
REMARK H PARENT 18 6 6 13 6 14
ROOT
ATOM     1   C14 UNL     1       0.538   2.044   1.344  1.00  0.00     0.127 A   
ATOM     2   C15 UNL     1       0.200   2.192   0.016  1.00  0.00     0.045 A   
ATOM     3   N2  UNL     1       1.252   2.883  -0.517  1.00  0.00    -0.212 N   
ATOM     4   N5  UNL     1       2.173   3.159   0.424  1.00  0.00    -0.076 NA  
ATOM     5   N6  UNL     1       1.753   2.639   1.567  1.00  0.00    -0.132 NA  
ATOM     6   H20 UNL     1      -0.633   1.849  -0.581  1.00  0.00     0.083 HD  
ENDROOT
BRANCH   1   7
ATOM     7   C5  UNL     1      -0.120   1.284   2.441  1.00  0.00     0.114 C   
BRANCH   7   8
ATOM     8   C4  UNL     1      -0.594   2.165   3.614  1.00  0.00     0.064 C   
BRANCH   8   9
ATOM     9   C2  UNL     1      -1.765   3.140   3.353  1.00  0.00    -0.012 C   
ATOM     10  C1  UNL     1      -2.953   2.474   2.661  1.00  0.00     0.007 C   
ATOM     11  C3  UNL     1      -1.346   4.408   2.610  1.00  0.00     0.007 C   
ENDBRANCH   8   9
ENDBRANCH   7   8
BRANCH   7  12
ATOM     12  N1  UNL     1       0.877   0.292   3.019  1.00  0.00     0.249 N   
ATOM     13  H11 UNL     1       0.556  -0.045   3.929  1.00  0.00     0.199 HD  
ATOM     14  H12 UNL     1       1.747   0.820   3.180  1.00  0.00     0.199 HD  
BRANCH  12  15
ATOM     15  C6  UNL     1       1.208  -0.884   2.159  1.00  0.00     0.164 C   
BRANCH  15  16
ATOM     16  C7  UNL     1       0.044  -1.821   1.999  1.00  0.00    -0.002 A   
ATOM     17  C8  UNL     1      -0.376  -2.639   3.076  1.00  0.00     0.012 A   
ATOM     18  C12 UNL     1      -0.665  -1.859   0.786  1.00  0.00     0.045 A   
ATOM     19  C9  UNL     1      -1.491  -3.475   2.950  1.00  0.00     0.037 A   
ATOM     20  C11 UNL     1      -1.760  -2.692   0.696  1.00  0.00     0.109 A   
ATOM     21  C10 UNL     1      -2.163  -3.476   1.749  1.00  0.00     0.108 A   
ATOM     22  O1  UNL     1      -2.555  -2.840  -0.395  1.00  0.00    -0.316 OA  
ATOM     23  O2  UNL     1      -3.262  -4.218   1.453  1.00  0.00    -0.316 OA  
ATOM     24  C13 UNL     1      -3.497  -3.829   0.083  1.00  0.00     0.337 C   
ENDBRANCH  15  16
ENDBRANCH  12  15
ENDBRANCH   7  12
ENDBRANCH   1   7
BRANCH   3  25
ATOM     25  C16 UNL     1       1.500   3.196  -1.910  1.00  0.00     0.139 C   
BRANCH  25  26
ATOM     26  C17 UNL     1       2.664   2.398  -2.504  1.00  0.00     0.060 C   
BRANCH  26  27
ATOM     27  C18 UNL     1       2.475   0.921  -2.392  1.00  0.00    -0.011 A   
ATOM     28  C19 UNL     1       2.887   0.088  -1.328  1.00  0.00     0.136 A   
ATOM     29  C23 UNL     1       1.866   0.055  -3.275  1.00  0.00     0.101 A   
ATOM     30  N3  UNL     1       2.477  -1.173  -1.471  1.00  0.00    -0.190 NA  
ATOM     31  N4  UNL     1       1.949  -1.192  -2.716  1.00  0.00    -0.230 N   
BRANCH  31  32
ATOM     32  C20 UNL     1       1.531  -2.446  -3.337  1.00  0.00     0.091 C   
ATOM     33  C21 UNL     1       0.334  -3.060  -2.615  1.00  0.00     0.030 C   
ATOM     34  C22 UNL     1       2.690  -3.438  -3.435  1.00  0.00     0.030 C   
ENDBRANCH  31  32
ENDBRANCH  26  27
ENDBRANCH  25  26
ENDBRANCH   3  25
TORSDOF 10
