REMARK SMILES Cc1ccc(N([O-])[O-])c(Cn2cc([C@H](CC(C)C)[NH2+]Cc3ccc4c(c3)OCO4)nn2)c1
REMARK SMILES IDX 11 1 12 2 13 3 30 4 31 5 10 7 9 8 2 9 3 10 32 11 4 12 5 13
REMARK SMILES IDX 1 14 6 15 7 16 8 17 14 18 15 19 16 20 17 21 18 22 19 23
REMARK SMILES IDX 20 26 21 27 22 28 26 29 23 30 25 31 24 32 27 33 29 34 28 35
REMARK H PARENT 12 6 19 24 19 25
ROOT
ATOM     1   N2  UNL     1      -2.059   0.868   1.321  1.00  0.00    -0.208 N   
ATOM     2   C8  UNL     1      -1.441  -0.083   2.092  1.00  0.00     0.046 A   
ATOM     3   C9  UNL     1      -0.102   0.103   1.816  1.00  0.00     0.127 A   
ATOM     4   N4  UNL     1       0.049   1.251   1.085  1.00  0.00    -0.132 NA  
ATOM     5   N5  UNL     1      -1.156   1.711   0.790  1.00  0.00    -0.076 NA  
ATOM     6   H8  UNL     1      -1.991  -0.873   2.588  1.00  0.00     0.083 HD  
ENDROOT
BRANCH   1   7
ATOM     7   C7  UNL     1      -3.432   0.846   0.831  1.00  0.00     0.171 C   
BRANCH   7   8
ATOM     8   C6  UNL     1      -3.499   0.526  -0.654  1.00  0.00     0.000 A   
ATOM     9   C2  UNL     1      -4.137   1.258  -2.909  1.00  0.00    -0.051 A   
ATOM     10  C3  UNL     1      -3.618   0.074  -3.451  1.00  0.00     0.005 A   
ATOM     11  C23 UNL     1      -4.065   1.480  -1.522  1.00  0.00     0.011 A   
ATOM     12  C4  UNL     1      -3.053  -0.893  -2.622  1.00  0.00     0.032 A   
ATOM     13  C5  UNL     1      -3.007  -0.662  -1.242  1.00  0.00     0.122 A   
ATOM     14  C1  UNL     1      -4.702   2.320  -3.812  1.00  0.00     0.044 C   
BRANCH  13  15
ATOM     15  N1  UNL     1      -2.424  -1.709  -0.424  1.00  0.00     0.092 N   
ATOM     16  O1  UNL     1      -1.198  -1.909  -0.522  1.00  0.00    -0.138 OA  
ATOM     17  O2  UNL     1      -3.172  -2.283   0.376  1.00  0.00    -0.138 OA  
ENDBRANCH  13  15
ENDBRANCH   7   8
ENDBRANCH   1   7
BRANCH   3  18
ATOM     18  C10 UNL     1       1.040  -0.849   1.997  1.00  0.00     0.114 C   
BRANCH  18  19
ATOM     19  C11 UNL     1       2.250  -0.240   2.719  1.00  0.00     0.064 C   
BRANCH  19  20
ATOM     20  C12 UNL     1       3.416  -1.212   2.998  1.00  0.00    -0.012 C   
ATOM     21  C13 UNL     1       3.003  -2.374   3.902  1.00  0.00     0.007 C   
ATOM     22  C14 UNL     1       4.578  -0.448   3.641  1.00  0.00     0.007 C   
ENDBRANCH  19  20
ENDBRANCH  18  19
BRANCH  18  23
ATOM     23  N3  UNL     1       1.408  -1.457   0.668  1.00  0.00     0.249 N   
ATOM     24  H19 UNL     1       0.508  -1.683   0.196  1.00  0.00     0.199 HD  
ATOM     25  H20 UNL     1       1.866  -2.364   0.790  1.00  0.00     0.199 HD  
BRANCH  23  26
ATOM     26  C15 UNL     1       2.185  -0.623  -0.298  1.00  0.00     0.164 C   
BRANCH  26  27
ATOM     27  C16 UNL     1       1.775  -0.896  -1.721  1.00  0.00    -0.002 A   
ATOM     28  C17 UNL     1       2.161  -2.094  -2.370  1.00  0.00     0.012 A   
ATOM     29  C21 UNL     1       0.963   0.031  -2.399  1.00  0.00     0.045 A   
ATOM     30  C18 UNL     1       1.751  -2.366  -3.683  1.00  0.00     0.037 A   
ATOM     31  C20 UNL     1       0.585  -0.261  -3.692  1.00  0.00     0.109 A   
ATOM     32  C19 UNL     1       0.968  -1.426  -4.316  1.00  0.00     0.108 A   
ATOM     33  O3  UNL     1      -0.179   0.528  -4.491  1.00  0.00    -0.316 OA  
ATOM     34  O4  UNL     1       0.483  -1.520  -5.581  1.00  0.00    -0.316 OA  
ATOM     35  C22 UNL     1      -0.183  -0.243  -5.711  1.00  0.00     0.337 C   
ENDBRANCH  26  27
ENDBRANCH  23  26
ENDBRANCH  18  23
ENDBRANCH   3  18
TORSDOF 9
