REMARK SMILES Cc1ccc([C@H](CO)n2cc([C@@H]([NH2+]Cc3ccc4c(c3)OCO4)C(C)(C)C)nn2)cn1
REMARK SMILES IDX 9 1 10 2 11 3 28 4 29 5 6 7 5 8 2 9 3 10 31 11 4 12 30 13
REMARK SMILES IDX 1 14 7 15 8 16 12 18 13 19 14 22 15 23 16 24 20 25 17 26
REMARK SMILES IDX 19 27 18 28 21 29 23 30 22 31 24 32 25 33 26 34 27 35
REMARK H PARENT 10 6 8 17 13 20 13 21
ROOT
ATOM     1   N1  UNL     1      -2.189  -0.943  -0.012  1.00  0.00    -0.202 N   
ATOM     2   C8  UNL     1      -1.553   0.051  -0.707  1.00  0.00     0.046 A   
ATOM     3   C9  UNL     1      -0.311   0.135  -0.121  1.00  0.00     0.127 A   
ATOM     4   N3  UNL     1      -0.248  -0.752   0.923  1.00  0.00    -0.132 NA  
ATOM     5   N4  UNL     1      -1.401  -1.399   0.985  1.00  0.00    -0.075 NA  
ATOM     6   H10 UNL     1      -2.025   0.579  -1.525  1.00  0.00     0.083 HD  
ENDROOT
BRANCH   1   7
ATOM     7   C6  UNL     1      -3.528  -1.501  -0.204  1.00  0.00     0.157 C   
BRANCH   7   8
ATOM     8   C5  UNL     1      -3.770  -1.835  -1.664  1.00  0.00    -0.005 A   
ATOM     9   C2  UNL     1      -4.156  -2.414  -4.344  1.00  0.00     0.037 A   
ATOM     10  C3  UNL     1      -3.517  -3.349  -3.539  1.00  0.00     0.024 A   
ATOM     11  N5  UNL     1      -4.588  -1.226  -3.865  1.00  0.00    -0.261 NA  
ATOM     12  C4  UNL     1      -3.318  -3.052  -2.192  1.00  0.00     0.009 A   
ATOM     13  C23 UNL     1      -4.396  -0.966  -2.552  1.00  0.00     0.117 A   
ATOM     14  C1  UNL     1      -4.389  -2.700  -5.797  1.00  0.00     0.067 C   
ENDBRANCH   7   8
BRANCH   7  15
ATOM     15  C7  UNL     1      -4.598  -0.640   0.496  1.00  0.00     0.186 C   
BRANCH  15  16
ATOM     16  O1  UNL     1      -4.590   0.720   0.060  1.00  0.00    -0.394 OA  
ATOM     17  H9  UNL     1      -5.349   1.159   0.489  1.00  0.00     0.210 HD  
ENDBRANCH  15  16
ENDBRANCH   7  15
ENDBRANCH   1   7
BRANCH   3  18
ATOM     18  C10 UNL     1       0.847   1.046  -0.393  1.00  0.00     0.120 C   
BRANCH  18  19
ATOM     19  N2  UNL     1       1.486   1.420   0.924  1.00  0.00     0.250 N   
ATOM     20  H12 UNL     1       1.575   0.546   1.463  1.00  0.00     0.199 HD  
ATOM     21  H13 UNL     1       2.434   1.786   0.811  1.00  0.00     0.199 HD  
BRANCH  19  22
ATOM     22  C11 UNL     1       0.704   2.373   1.761  1.00  0.00     0.164 C   
BRANCH  22  23
ATOM     23  C12 UNL     1       1.405   2.622   3.067  1.00  0.00    -0.002 A   
ATOM     24  C13 UNL     1       2.235   3.755   3.233  1.00  0.00     0.012 A   
ATOM     25  C17 UNL     1       1.277   1.695   4.117  1.00  0.00     0.045 A   
ATOM     26  C14 UNL     1       2.923   3.970   4.432  1.00  0.00     0.037 A   
ATOM     27  C16 UNL     1       1.969   1.938   5.285  1.00  0.00     0.109 A   
ATOM     28  C15 UNL     1       2.769   3.043   5.438  1.00  0.00     0.108 A   
ATOM     29  O2  UNL     1       1.957   1.148   6.390  1.00  0.00    -0.316 OA  
ATOM     30  O3  UNL     1       3.361   3.089   6.660  1.00  0.00    -0.316 OA  
ATOM     31  C18 UNL     1       2.819   1.899   7.274  1.00  0.00     0.337 C   
ENDBRANCH  22  23
ENDBRANCH  19  22
ENDBRANCH  18  19
BRANCH  18  32
ATOM     32  C19 UNL     1       1.918   0.446  -1.370  1.00  0.00     0.010 C   
ATOM     33  C20 UNL     1       2.989   1.510  -1.710  1.00  0.00     0.017 C   
ATOM     34  C21 UNL     1       2.633  -0.788  -0.786  1.00  0.00     0.017 C   
ATOM     35  C22 UNL     1       1.253   0.036  -2.705  1.00  0.00     0.017 C   
ENDBRANCH  18  32
ENDBRANCH   3  18
TORSDOF 9
