REMARK SMILES Cc1ccc([C@@H](CO)n2cc([C@@H]([NH2+]Cc3ccc4c(c3)OCO4)C(C)(C)C)nn2)cn1
REMARK SMILES IDX 9 1 10 2 11 3 28 4 29 5 6 7 5 8 2 9 3 10 31 11 4 12 30 13
REMARK SMILES IDX 1 14 7 15 8 16 12 18 13 19 14 22 15 23 16 24 20 25 17 26
REMARK SMILES IDX 19 27 18 28 21 29 23 30 22 31 24 32 25 33 26 34 27 35
REMARK H PARENT 10 6 8 17 13 20 13 21
ROOT
ATOM     1   N1  UNL     1      -0.296  -3.005  -0.679  1.00  0.00    -0.202 N   
ATOM     2   C8  UNL     1      -0.153  -2.272   0.469  1.00  0.00     0.046 A   
ATOM     3   C9  UNL     1      -1.384  -1.687   0.653  1.00  0.00     0.127 A   
ATOM     4   N3  UNL     1      -2.229  -2.095  -0.347  1.00  0.00    -0.132 NA  
ATOM     5   N4  UNL     1      -1.554  -2.897  -1.155  1.00  0.00    -0.075 NA  
ATOM     6   H10 UNL     1       0.794  -2.195   0.989  1.00  0.00     0.083 HD  
ENDROOT
BRANCH   1   7
ATOM     7   C6  UNL     1       0.751  -3.626  -1.496  1.00  0.00     0.157 C   
BRANCH   7   8
ATOM     8   C5  UNL     1       1.750  -2.560  -1.916  1.00  0.00    -0.005 A   
ATOM     9   C2  UNL     1       3.358  -0.440  -2.681  1.00  0.00     0.037 A   
ATOM     10  C3  UNL     1       3.891  -1.439  -1.876  1.00  0.00     0.024 A   
ATOM     11  N5  UNL     1       2.076  -0.464  -3.108  1.00  0.00    -0.261 NA  
ATOM     12  C4  UNL     1       3.076  -2.502  -1.485  1.00  0.00     0.009 A   
ATOM     13  C23 UNL     1       1.319  -1.522  -2.745  1.00  0.00     0.117 A   
ATOM     14  C1  UNL     1       4.210   0.717  -3.111  1.00  0.00     0.067 C   
ENDBRANCH   7   8
BRANCH   7  15
ATOM     15  C7  UNL     1       1.292  -4.904  -0.827  1.00  0.00     0.186 C   
BRANCH  15  16
ATOM     16  O1  UNL     1       1.875  -4.657   0.452  1.00  0.00    -0.394 OA  
ATOM     17  H9  UNL     1       2.190  -5.516   0.794  1.00  0.00     0.210 HD  
ENDBRANCH  15  16
ENDBRANCH   7  15
ENDBRANCH   1   7
BRANCH   3  18
ATOM     18  C10 UNL     1      -1.827  -0.648   1.634  1.00  0.00     0.120 C   
BRANCH  18  19
ATOM     19  N2  UNL     1      -2.617   0.423   0.904  1.00  0.00     0.250 N   
ATOM     20  H12 UNL     1      -3.380  -0.060   0.412  1.00  0.00     0.199 HD  
ATOM     21  H13 UNL     1      -3.042   1.076   1.566  1.00  0.00     0.199 HD  
BRANCH  19  22
ATOM     22  C11 UNL     1      -1.872   1.214  -0.129  1.00  0.00     0.164 C   
BRANCH  22  23
ATOM     23  C12 UNL     1      -0.700   1.973   0.427  1.00  0.00    -0.002 A   
ATOM     24  C13 UNL     1       0.617   1.626   0.040  1.00  0.00     0.012 A   
ATOM     25  C17 UNL     1      -0.897   3.017   1.347  1.00  0.00     0.045 A   
ATOM     26  C14 UNL     1       1.724   2.295   0.571  1.00  0.00     0.037 A   
ATOM     27  C16 UNL     1       0.217   3.656   1.852  1.00  0.00     0.109 A   
ATOM     28  C15 UNL     1       1.490   3.304   1.478  1.00  0.00     0.108 A   
ATOM     29  O2  UNL     1       0.201   4.673   2.752  1.00  0.00    -0.316 OA  
ATOM     30  O3  UNL     1       2.437   4.056   2.095  1.00  0.00    -0.316 OA  
ATOM     31  C18 UNL     1       1.615   4.947   2.879  1.00  0.00     0.337 C   
ENDBRANCH  22  23
ENDBRANCH  19  22
ENDBRANCH  18  19
BRANCH  18  32
ATOM     32  C19 UNL     1      -2.652  -1.213   2.843  1.00  0.00     0.010 C   
ATOM     33  C20 UNL     1      -2.933  -0.092   3.871  1.00  0.00     0.017 C   
ATOM     34  C21 UNL     1      -1.833  -2.301   3.576  1.00  0.00     0.017 C   
ATOM     35  C22 UNL     1      -4.001  -1.826   2.420  1.00  0.00     0.017 C   
ENDBRANCH  18  32
ENDBRANCH   3  18
TORSDOF 9
