REMARK SMILES Cc1ccc(CCn2cc([C@H](CC(C)C)[NH2+]Cc3ccc4c(c3)OCO4)nn2)c(F)c1
REMARK SMILES IDX 8 1 9 2 10 3 27 4 28 5 7 7 6 8 5 9 2 10 3 11 31 12 4 13
REMARK SMILES IDX 29 14 1 15 30 16 11 17 12 18 13 19 14 20 15 21 16 22 17 25
REMARK SMILES IDX 18 26 19 27 23 28 20 29 22 30 21 31 24 32 26 33 25 34
REMARK H PARENT 9 6 16 23 16 24
ROOT
ATOM     1   N1  UNL     1       0.475  -0.018   3.225  1.00  0.00    -0.212 N   
ATOM     2   C8  UNL     1       0.394   0.495   1.961  1.00  0.00     0.045 A   
ATOM     3   C9  UNL     1      -0.954   0.470   1.683  1.00  0.00     0.127 A   
ATOM     4   N3  UNL     1      -1.632  -0.017   2.772  1.00  0.00    -0.132 NA  
ATOM     5   N4  UNL     1      -0.746  -0.313   3.707  1.00  0.00    -0.076 NA  
ATOM     6   H10 UNL     1       1.269   0.783   1.393  1.00  0.00     0.083 HD  
ENDROOT
BRANCH   1   7
ATOM     7   C7  UNL     1       1.657  -0.277   4.019  1.00  0.00     0.139 C   
BRANCH   7   8
ATOM     8   C6  UNL     1       2.095  -1.740   3.973  1.00  0.00     0.060 C   
BRANCH   8   9
ATOM     9   C5  UNL     1       2.793  -2.110   2.687  1.00  0.00    -0.011 A   
ATOM     10  C2  UNL     1       4.111  -2.800   0.284  1.00  0.00    -0.048 A   
ATOM     11  C3  UNL     1       4.826  -2.254   1.358  1.00  0.00     0.004 A   
ATOM     12  C24 UNL     1       2.735  -3.011   0.424  1.00  0.00     0.043 A   
ATOM     13  C4  UNL     1       4.174  -1.908   2.547  1.00  0.00     0.007 A   
ATOM     14  C23 UNL     1       2.090  -2.658   1.609  1.00  0.00     0.126 A   
ATOM     15  C1  UNL     1       4.822  -3.215  -0.972  1.00  0.00     0.044 C   
ATOM     16  F1  UNL     1       0.762  -2.832   1.693  1.00  0.00    -0.207 F   
ENDBRANCH   8   9
ENDBRANCH   7   8
ENDBRANCH   1   7
BRANCH   3  17
ATOM     17  C10 UNL     1      -1.715   0.802   0.443  1.00  0.00     0.114 C   
BRANCH  17  18
ATOM     18  C11 UNL     1      -2.302   2.226   0.527  1.00  0.00     0.064 C   
BRANCH  18  19
ATOM     19  C12 UNL     1      -3.099   2.717  -0.701  1.00  0.00    -0.012 C   
ATOM     20  C13 UNL     1      -2.300   2.631  -2.000  1.00  0.00     0.007 C   
ATOM     21  C14 UNL     1      -3.558   4.160  -0.470  1.00  0.00     0.007 C   
ENDBRANCH  18  19
ENDBRANCH  17  18
BRANCH  17  22
ATOM     22  N2  UNL     1      -2.839  -0.191   0.254  1.00  0.00     0.249 N   
ATOM     23  H21 UNL     1      -3.341  -0.225   1.153  1.00  0.00     0.199 HD  
ATOM     24  H22 UNL     1      -3.501   0.131  -0.456  1.00  0.00     0.199 HD  
BRANCH  22  25
ATOM     25  C15 UNL     1      -2.432  -1.591  -0.076  1.00  0.00     0.164 C   
BRANCH  25  26
ATOM     26  C16 UNL     1      -1.862  -1.712  -1.462  1.00  0.00    -0.002 A   
ATOM     27  C17 UNL     1      -2.715  -1.731  -2.593  1.00  0.00     0.012 A   
ATOM     28  C21 UNL     1      -0.469  -1.762  -1.647  1.00  0.00     0.045 A   
ATOM     29  C18 UNL     1      -2.188  -1.793  -3.888  1.00  0.00     0.037 A   
ATOM     30  C20 UNL     1       0.019  -1.821  -2.935  1.00  0.00     0.109 A   
ATOM     31  C19 UNL     1      -0.817  -1.834  -4.025  1.00  0.00     0.108 A   
ATOM     32  O1  UNL     1       1.333  -1.864  -3.282  1.00  0.00    -0.316 OA  
ATOM     33  O2  UNL     1      -0.135  -1.887  -5.198  1.00  0.00    -0.316 OA  
ATOM     34  C22 UNL     1       1.230  -1.917  -4.725  1.00  0.00     0.337 C   
ENDBRANCH  25  26
ENDBRANCH  22  25
ENDBRANCH  17  22
ENDBRANCH   3  17
TORSDOF 9
