REMARK SMILES Fc1ccc(Cn2cc([C@@H]([NH2+]Cc3ccc4c(c3)OCO4)C3CCCCC3)nn2)nc1
REMARK SMILES IDX 7 1 8 2 9 3 28 4 29 5 6 7 5 8 2 9 3 10 31 11 4 12 30 13 1 14
REMARK SMILES IDX 10 15 11 16 12 19 13 20 14 21 18 22 15 23 17 24 16 25 19 26
REMARK SMILES IDX 21 27 20 28 22 29 23 30 27 31 24 32 26 33 25 34
REMARK H PARENT 8 6 11 17 11 18
ROOT
ATOM     1   N1  UNL     1      -2.602   1.080   1.373  1.00  0.00    -0.206 N   
ATOM     2   C6  UNL     1      -1.382   0.460   1.401  1.00  0.00     0.046 A   
ATOM     3   C7  UNL     1      -1.680  -0.877   1.236  1.00  0.00     0.127 A   
ATOM     4   N3  UNL     1      -3.038  -1.020   1.152  1.00  0.00    -0.132 NA  
ATOM     5   N4  UNL     1      -3.591   0.181   1.245  1.00  0.00    -0.076 NA  
ATOM     6   H5  UNL     1      -0.465   1.027   1.465  1.00  0.00     0.083 HD  
ENDROOT
BRANCH   1   7
ATOM     7   C5  UNL     1      -2.879   2.504   1.402  1.00  0.00     0.190 C   
BRANCH   7   8
ATOM     8   C4  UNL     1      -2.759   3.086   0.013  1.00  0.00     0.060 A   
ATOM     9   C1  UNL     1      -2.481   4.193  -2.485  1.00  0.00     0.141 A   
ATOM     10  C2  UNL     1      -3.729   4.203  -1.884  1.00  0.00     0.043 A   
ATOM     11  C23 UNL     1      -1.421   3.622  -1.808  1.00  0.00     0.150 A   
ATOM     12  C3  UNL     1      -3.874   3.644  -0.614  1.00  0.00     0.028 A   
ATOM     13  N5  UNL     1      -1.528   3.058  -0.575  1.00  0.00    -0.257 NA  
ATOM     14  F1  UNL     1      -2.308   4.727  -3.701  1.00  0.00    -0.205 F   
ENDBRANCH   7   8
ENDBRANCH   1   7
BRANCH   3  15
ATOM     15  C8  UNL     1      -0.796  -2.062   0.997  1.00  0.00     0.117 C   
BRANCH  15  16
ATOM     16  N2  UNL     1       0.007  -1.873  -0.261  1.00  0.00     0.249 N   
ATOM     17  H7  UNL     1       0.428  -0.936  -0.239  1.00  0.00     0.199 HD  
ATOM     18  H8  UNL     1       0.790  -2.531  -0.314  1.00  0.00     0.199 HD  
BRANCH  16  19
ATOM     19  C9  UNL     1      -0.789  -1.982  -1.522  1.00  0.00     0.164 C   
BRANCH  19  20
ATOM     20  C10 UNL     1      -0.034  -1.367  -2.666  1.00  0.00    -0.002 A   
ATOM     21  C11 UNL     1       0.915  -2.120  -3.397  1.00  0.00     0.012 A   
ATOM     22  C15 UNL     1      -0.228  -0.007  -2.972  1.00  0.00     0.045 A   
ATOM     23  C12 UNL     1       1.658  -1.530  -4.425  1.00  0.00     0.037 A   
ATOM     24  C14 UNL     1       0.516   0.541  -3.994  1.00  0.00     0.109 A   
ATOM     25  C13 UNL     1       1.437  -0.197  -4.697  1.00  0.00     0.108 A   
ATOM     26  O1  UNL     1       0.446   1.828  -4.423  1.00  0.00    -0.316 OA  
ATOM     27  O2  UNL     1       2.067   0.533  -5.654  1.00  0.00    -0.316 OA  
ATOM     28  C16 UNL     1       1.384   1.799  -5.524  1.00  0.00     0.337 C   
ENDBRANCH  19  20
ENDBRANCH  16  19
ENDBRANCH  15  16
BRANCH  15  29
ATOM     29  C17 UNL     1       0.119  -2.418   2.199  1.00  0.00     0.043 C   
ATOM     30  C18 UNL     1       0.609  -3.879   2.098  1.00  0.00     0.010 C   
ATOM     31  C22 UNL     1       1.327  -1.479   2.397  1.00  0.00     0.010 C   
ATOM     32  C19 UNL     1       1.447  -4.283   3.310  1.00  0.00     0.001 C   
ATOM     33  C21 UNL     1       2.167  -1.886   3.608  1.00  0.00     0.001 C   
ATOM     34  C20 UNL     1       2.624  -3.338   3.518  1.00  0.00     0.000 C   
ENDBRANCH  15  29
ENDBRANCH   3  15
TORSDOF 7
