REMARK SMILES Cc1ccc(CCn2cc([C@H](CC(C)C)[NH2+]Cc3ccc4c(c3)OCO4)nn2)cc1O
REMARK SMILES IDX 8 1 9 2 10 3 27 4 28 5 7 7 6 8 5 9 2 10 3 11 30 12 4 13
REMARK SMILES IDX 29 14 1 15 31 16 11 18 12 19 13 20 14 21 15 22 16 23 17 26
REMARK SMILES IDX 18 27 19 28 23 29 20 30 22 31 21 32 24 33 26 34 25 35
REMARK H PARENT 9 6 31 17 16 24 16 25
ROOT
ATOM     1   N1  UNL     1       2.023  -0.055  -2.423  1.00  0.00    -0.212 N   
ATOM     2   C8  UNL     1       1.395  -0.783  -1.450  1.00  0.00     0.045 A   
ATOM     3   C9  UNL     1       0.268  -0.044  -1.167  1.00  0.00     0.127 A   
ATOM     4   N3  UNL     1       0.206   1.030  -2.017  1.00  0.00    -0.132 NA  
ATOM     5   N4  UNL     1       1.273   0.998  -2.799  1.00  0.00    -0.076 NA  
ATOM     6   H10 UNL     1       1.848  -1.653  -0.993  1.00  0.00     0.083 HD  
ENDROOT
BRANCH   1   7
ATOM     7   C7  UNL     1       3.411  -0.150  -2.835  1.00  0.00     0.139 C   
BRANCH   7   8
ATOM     8   C6  UNL     1       4.291   0.931  -2.190  1.00  0.00     0.057 C   
BRANCH   8   9
ATOM     9   C5  UNL     1       4.258   0.888  -0.677  1.00  0.00    -0.044 A   
ATOM     10  C2  UNL     1       4.057   0.685   2.137  1.00  0.00    -0.021 A   
ATOM     11  C3  UNL     1       5.055  -0.004   1.431  1.00  0.00     0.006 A   
ATOM     12  C24 UNL     1       3.156   1.463   1.407  1.00  0.00     0.074 A   
ATOM     13  C4  UNL     1       5.152   0.088   0.039  1.00  0.00     0.004 A   
ATOM     14  C23 UNL     1       3.271   1.594   0.026  1.00  0.00     0.037 A   
ATOM     15  C1  UNL     1       3.959   0.492   3.623  1.00  0.00     0.047 C   
BRANCH  12  16
ATOM     16  O3  UNL     1       2.105   2.104   2.003  1.00  0.00    -0.361 OA  
ATOM     17  H31 UNL     1       2.518   2.643   2.710  1.00  0.00     0.218 HD  
ENDBRANCH  12  16
ENDBRANCH   8   9
ENDBRANCH   7   8
ENDBRANCH   1   7
BRANCH   3  18
ATOM     18  C10 UNL     1      -0.721  -0.168  -0.054  1.00  0.00     0.114 C   
BRANCH  18  19
ATOM     19  C11 UNL     1      -2.174  -0.190  -0.569  1.00  0.00     0.064 C   
BRANCH  19  20
ATOM     20  C12 UNL     1      -2.516  -1.389  -1.482  1.00  0.00    -0.012 C   
ATOM     21  C13 UNL     1      -3.943  -1.239  -2.016  1.00  0.00     0.007 C   
ATOM     22  C14 UNL     1      -2.377  -2.727  -0.753  1.00  0.00     0.007 C   
ENDBRANCH  19  20
ENDBRANCH  18  19
BRANCH  18  23
ATOM     23  N2  UNL     1      -0.517   1.024   0.857  1.00  0.00     0.249 N   
ATOM     24  H21 UNL     1      -0.649   1.871   0.287  1.00  0.00     0.199 HD  
ATOM     25  H22 UNL     1       0.485   1.063   1.114  1.00  0.00     0.199 HD  
BRANCH  23  26
ATOM     26  C15 UNL     1      -1.308   1.117   2.109  1.00  0.00     0.164 C   
BRANCH  26  27
ATOM     27  C16 UNL     1      -1.175  -0.086   3.002  1.00  0.00    -0.002 A   
ATOM     28  C17 UNL     1      -2.255  -0.988   3.163  1.00  0.00     0.012 A   
ATOM     29  C21 UNL     1       0.036  -0.340   3.668  1.00  0.00     0.045 A   
ATOM     30  C18 UNL     1      -2.127  -2.131   3.960  1.00  0.00     0.037 A   
ATOM     31  C20 UNL     1       0.129  -1.473   4.448  1.00  0.00     0.109 A   
ATOM     32  C19 UNL     1      -0.921  -2.346   4.588  1.00  0.00     0.108 A   
ATOM     33  O1  UNL     1       1.226  -1.862   5.149  1.00  0.00    -0.316 OA  
ATOM     34  O2  UNL     1      -0.618  -3.396   5.395  1.00  0.00    -0.316 OA  
ATOM     35  C22 UNL     1       0.738  -3.075   5.769  1.00  0.00     0.337 C   
ENDBRANCH  26  27
ENDBRANCH  23  26
ENDBRANCH  18  23
ENDBRANCH   3  18
TORSDOF 10
