REMARK SMILES Cc1cc(-n2cc([C@H](CC(C)C)[NH2+]Cc3ccc4c(c3)OCO4)nn2)n(C)n1
REMARK SMILES IDX 8 1 7 2 5 3 6 4 25 5 24 6 4 7 2 8 3 9 28 10 26 11 1 12 27 13
REMARK SMILES IDX 9 14 10 15 11 16 12 17 13 18 14 21 15 22 16 23 20 24 17 25
REMARK SMILES IDX 19 26 18 27 21 28 23 29 22 30
REMARK H PARENT 13 19 13 20
ROOT
ATOM     1   C7  UNL     1      -2.212   2.010  -0.603  1.00  0.00     0.114 C   
ENDROOT
BRANCH   1   2
ATOM     2   C6  UNL     1      -1.898   0.705   0.050  1.00  0.00     0.127 A   
ATOM     3   N1  UNL     1      -0.981  -1.091   0.878  1.00  0.00    -0.165 N   
ATOM     4   C5  UNL     1      -0.771   0.260   0.703  1.00  0.00     0.137 A   
ATOM     5   N4  UNL     1      -2.218  -1.412   0.441  1.00  0.00    -0.070 NA  
ATOM     6   N3  UNL     1      -2.780  -0.333  -0.079  1.00  0.00    -0.131 NA  
BRANCH   3   7
ATOM     7   C4  UNL     1      -0.115  -2.064   1.331  1.00  0.00     0.135 A   
ATOM     8   C2  UNL     1       1.650  -3.192   2.052  1.00  0.00     0.059 A   
ATOM     9   C3  UNL     1       1.186  -1.891   1.757  1.00  0.00     0.069 A   
ATOM     10  N6  UNL     1       0.708  -4.111   1.823  1.00  0.00    -0.185 NA  
ATOM     11  N5  UNL     1      -0.369  -3.408   1.416  1.00  0.00    -0.213 N   
ATOM     12  C1  UNL     1       2.990  -3.601   2.539  1.00  0.00     0.068 C   
ATOM     13  C20 UNL     1      -1.579  -4.141   1.113  1.00  0.00     0.161 C   
ENDBRANCH   3   7
ENDBRANCH   1   2
BRANCH   1  14
ATOM     14  C8  UNL     1      -3.329   2.781   0.124  1.00  0.00     0.064 C   
BRANCH  14  15
ATOM     15  C9  UNL     1      -3.000   3.192   1.576  1.00  0.00    -0.012 C   
ATOM     16  C10 UNL     1      -1.780   4.110   1.660  1.00  0.00     0.007 C   
ATOM     17  C11 UNL     1      -4.213   3.886   2.203  1.00  0.00     0.007 C   
ENDBRANCH  14  15
ENDBRANCH   1  14
BRANCH   1  18
ATOM     18  N2  UNL     1      -2.695   1.744  -2.022  1.00  0.00     0.249 N   
ATOM     19  H16 UNL     1      -3.171   0.828  -1.995  1.00  0.00     0.199 HD  
ATOM     20  H17 UNL     1      -3.416   2.422  -2.286  1.00  0.00     0.199 HD  
BRANCH  18  21
ATOM     21  C12 UNL     1      -1.655   1.710  -3.094  1.00  0.00     0.164 C   
BRANCH  21  22
ATOM     22  C13 UNL     1      -0.553   0.712  -2.868  1.00  0.00    -0.002 A   
ATOM     23  C14 UNL     1       0.758   1.154  -2.565  1.00  0.00     0.012 A   
ATOM     24  C18 UNL     1      -0.822  -0.669  -2.906  1.00  0.00     0.045 A   
ATOM     25  C15 UNL     1       1.777   0.241  -2.273  1.00  0.00     0.037 A   
ATOM     26  C17 UNL     1       0.203  -1.542  -2.602  1.00  0.00     0.109 A   
ATOM     27  C16 UNL     1       1.465  -1.100  -2.289  1.00  0.00     0.108 A   
ATOM     28  O1  UNL     1       0.099  -2.895  -2.543  1.00  0.00    -0.316 OA  
ATOM     29  O2  UNL     1       2.315  -2.118  -2.000  1.00  0.00    -0.316 OA  
ATOM     30  C19 UNL     1       1.451  -3.261  -2.180  1.00  0.00     0.337 C   
ENDBRANCH  21  22
ENDBRANCH  18  21
ENDBRANCH   1  18
TORSDOF 7
