REMARK SMILES Cc1cc(N([O-])[O-])cc(-n2cc([C@H](CC(C)C)[NH2+]Cc3ccc4c(c3)OCO4)nn2)c1
REMARK SMILES IDX 10 1 11 2 12 3 29 4 30 5 9 6 2 7 31 8 3 9 4 10 8 11 1 12
REMARK SMILES IDX 5 13 6 14 7 15 13 16 14 17 15 18 16 19 17 20 18 21 19 24
REMARK SMILES IDX 20 25 21 26 25 27 22 28 24 29 23 30 26 31 28 32 27 33
REMARK H PARENT 18 22 18 23
ROOT
ATOM     1   N1  UNL     1       2.117  -0.500   0.636  1.00  0.00    -0.181 N   
ATOM     2   C5  UNL     1       1.103  -0.227  -0.262  1.00  0.00     0.135 A   
ATOM     3   C6  UNL     1       0.303   0.698   0.372  1.00  0.00     0.127 A   
ATOM     4   N3  UNL     1       0.814   0.956   1.611  1.00  0.00    -0.131 NA  
ATOM     5   N4  UNL     1       1.900   0.218   1.768  1.00  0.00    -0.071 NA  
ENDROOT
BRANCH   1   6
ATOM     6   C4  UNL     1       3.226  -1.375   0.499  1.00  0.00     0.060 A   
ATOM     7   C2  UNL     1       5.256  -2.352   1.450  1.00  0.00    -0.047 A   
ATOM     8   C3  UNL     1       4.144  -1.500   1.557  1.00  0.00     0.029 A   
ATOM     9   C22 UNL     1       5.436  -3.104   0.282  1.00  0.00     0.034 A   
ATOM     10  C21 UNL     1       4.522  -2.979  -0.772  1.00  0.00     0.120 A   
ATOM     11  C20 UNL     1       3.418  -2.116  -0.673  1.00  0.00     0.057 A   
ATOM     12  C1  UNL     1       6.212  -2.499   2.600  1.00  0.00     0.044 C   
BRANCH  10  13
ATOM     13  N5  UNL     1       4.715  -3.765  -1.999  1.00  0.00     0.092 N   
ATOM     14  O3  UNL     1       3.870  -3.632  -2.896  1.00  0.00    -0.138 OA  
ATOM     15  O4  UNL     1       5.703  -4.508  -2.062  1.00  0.00    -0.138 OA  
ENDBRANCH  10  13
ENDBRANCH   1   6
BRANCH   3  16
ATOM     16  C7  UNL     1      -0.954   1.381  -0.070  1.00  0.00     0.114 C   
BRANCH  16  17
ATOM     17  C8  UNL     1      -0.624   2.708  -0.785  1.00  0.00     0.064 C   
BRANCH  17  18
ATOM     18  C9  UNL     1      -1.819   3.488  -1.374  1.00  0.00    -0.012 C   
ATOM     19  C10 UNL     1      -2.635   2.655  -2.363  1.00  0.00     0.007 C   
ATOM     20  C11 UNL     1      -1.311   4.758  -2.066  1.00  0.00     0.007 C   
ENDBRANCH  17  18
ENDBRANCH  16  17
BRANCH  16  21
ATOM     21  N2  UNL     1      -1.850   1.669   1.110  1.00  0.00     0.249 N   
ATOM     22  H16 UNL     1      -2.611   2.297   0.840  1.00  0.00     0.199 HD  
ATOM     23  H17 UNL     1      -1.273   2.169   1.802  1.00  0.00     0.199 HD  
BRANCH  21  24
ATOM     24  C12 UNL     1      -2.446   0.484   1.800  1.00  0.00     0.164 C   
BRANCH  24  25
ATOM     25  C13 UNL     1      -3.426  -0.258   0.934  1.00  0.00    -0.002 A   
ATOM     26  C14 UNL     1      -4.708   0.283   0.675  1.00  0.00     0.012 A   
ATOM     27  C18 UNL     1      -3.058  -1.480   0.344  1.00  0.00     0.045 A   
ATOM     28  C15 UNL     1      -5.609  -0.378  -0.167  1.00  0.00     0.037 A   
ATOM     29  C17 UNL     1      -3.969  -2.103  -0.482  1.00  0.00     0.109 A   
ATOM     30  C16 UNL     1      -5.208  -1.568  -0.732  1.00  0.00     0.108 A   
ATOM     31  O1  UNL     1      -3.767  -3.276  -1.137  1.00  0.00    -0.316 OA  
ATOM     32  O2  UNL     1      -5.945  -2.339  -1.573  1.00  0.00    -0.316 OA  
ATOM     33  C19 UNL     1      -5.041  -3.441  -1.803  1.00  0.00     0.337 C   
ENDBRANCH  24  25
ENDBRANCH  21  24
ENDBRANCH  16  21
ENDBRANCH   3  16
TORSDOF 8
