REMARK SMILES CC(C)[C@H]([NH2+]Cc1ccc2c(c1)OCO2)c1cn(-c2cc(=O)oc3ccccc23)nn1
REMARK SMILES IDX 4 1 2 2 1 3 3 4 5 5 6 8 7 9 8 10 12 11 9 12 11 13 10 14
REMARK SMILES IDX 13 15 15 16 14 17 16 18 17 19 31 20 18 21 30 22 19 23 20 24
REMARK SMILES IDX 29 25 21 26 24 27 28 28 23 29 25 30 27 31 26 32 22 33
REMARK H PARENT 5 6 5 7
ROOT
ATOM     1   C4  UNL     1       0.787   1.976   0.310  1.00  0.00     0.117 C   
ENDROOT
BRANCH   1   2
ATOM     2   C2  UNL     1       0.190   3.222   1.015  1.00  0.00     0.037 C   
ATOM     3   C1  UNL     1       0.010   2.979   2.518  1.00  0.00     0.014 C   
ATOM     4   C3  UNL     1      -1.124   3.729   0.411  1.00  0.00     0.014 C   
ENDBRANCH   1   2
BRANCH   1   5
ATOM     5   N1  UNL     1       1.109   2.331  -1.130  1.00  0.00     0.249 N   
ATOM     6   H9  UNL     1       1.190   3.347  -1.238  1.00  0.00     0.199 HD  
ATOM     7   H10 UNL     1       0.285   2.052  -1.686  1.00  0.00     0.199 HD  
BRANCH   5   8
ATOM     8   C5  UNL     1       2.323   1.692  -1.725  1.00  0.00     0.164 C   
BRANCH   8   9
ATOM     9   C6  UNL     1       2.312   0.188  -1.699  1.00  0.00    -0.002 A   
ATOM     10  C7  UNL     1       1.443  -0.540  -2.548  1.00  0.00     0.012 A   
ATOM     11  C11 UNL     1       3.127  -0.508  -0.789  1.00  0.00     0.045 A   
ATOM     12  C8  UNL     1       1.369  -1.937  -2.476  1.00  0.00     0.037 A   
ATOM     13  C10 UNL     1       3.028  -1.884  -0.742  1.00  0.00     0.109 A   
ATOM     14  C9  UNL     1       2.171  -2.578  -1.558  1.00  0.00     0.108 A   
ATOM     15  O1  UNL     1       3.714  -2.698   0.102  1.00  0.00    -0.316 OA  
ATOM     16  O2  UNL     1       2.210  -3.917  -1.330  1.00  0.00    -0.316 OA  
ATOM     17  C12 UNL     1       3.256  -3.999  -0.337  1.00  0.00     0.337 C   
ENDBRANCH   8   9
ENDBRANCH   5   8
ENDBRANCH   1   5
BRANCH   1  18
ATOM     18  C13 UNL     1      -0.097   0.771   0.334  1.00  0.00     0.127 A   
ATOM     19  C14 UNL     1       0.002  -0.411   1.027  1.00  0.00     0.135 A   
ATOM     20  N4  UNL     1      -1.137   0.683  -0.535  1.00  0.00    -0.131 NA  
ATOM     21  N2  UNL     1      -0.976  -1.268   0.497  1.00  0.00    -0.180 N   
ATOM     22  N3  UNL     1      -1.684  -0.510  -0.398  1.00  0.00    -0.071 NA  
BRANCH  21  23
ATOM     23  C15 UNL     1      -1.139  -2.651   0.785  1.00  0.00     0.073 A   
ATOM     24  C16 UNL     1      -0.197  -3.330   1.467  1.00  0.00     0.106 A   
ATOM     25  C23 UNL     1      -2.298  -3.458   0.309  1.00  0.00     0.029 A   
ATOM     26  C17 UNL     1      -0.194  -4.779   1.700  1.00  0.00     0.292 A   
ATOM     27  C18 UNL     1      -2.287  -4.846   0.505  1.00  0.00     0.095 A   
ATOM     28  C22 UNL     1      -3.445  -2.932  -0.306  1.00  0.00     0.013 A   
ATOM     29  O4  UNL     1      -1.235  -5.500   1.170  1.00  0.00    -0.274 OA  
ATOM     30  C19 UNL     1      -3.325  -5.683   0.082  1.00  0.00     0.035 A   
ATOM     31  C21 UNL     1      -4.495  -3.757  -0.734  1.00  0.00     0.001 A   
ATOM     32  C20 UNL     1      -4.432  -5.133  -0.547  1.00  0.00     0.003 A   
ATOM     33  O3  UNL     1       0.734  -5.295   2.310  1.00  0.00    -0.261 OA  
ENDBRANCH  21  23
ENDBRANCH   1  18
TORSDOF 6
