REMARK SMILES CC(C)[C@H]([NH2+]Cc1ccc2c(c1)OCO2)c1cn(C[C@@H]2NCCc3ccoc32)nn1
REMARK SMILES IDX 16 1 17 2 18 3 29 4 30 5 4 7 2 8 1 9 3 10 5 11 6 14 7 15
REMARK SMILES IDX 8 16 12 17 9 18 11 19 10 20 13 21 15 22 14 23 19 24 20 25
REMARK SMILES IDX 21 26 28 27 22 28 24 29 27 30 23 31 25 32 26 33
REMARK H PARENT 17 6 5 12 5 13 21 34
ROOT
ATOM     1   C13 UNL     1      -1.363   1.062  -1.488  1.00  0.00     0.127 A   
ATOM     2   C14 UNL     1      -2.140   0.389  -0.573  1.00  0.00     0.045 A   
ATOM     3   N2  UNL     1      -2.131  -0.902  -1.020  1.00  0.00    -0.210 N   
ATOM     4   N4  UNL     1      -1.429  -1.012  -2.165  1.00  0.00    -0.076 NA  
ATOM     5   N5  UNL     1      -0.945   0.183  -2.457  1.00  0.00    -0.132 NA  
ATOM     6   H18 UNL     1      -2.647   0.682   0.335  1.00  0.00     0.083 HD  
ENDROOT
BRANCH   1   7
ATOM     7   C4  UNL     1      -0.907   2.484  -1.552  1.00  0.00     0.117 C   
BRANCH   7   8
ATOM     8   C2  UNL     1      -2.011   3.446  -2.063  1.00  0.00     0.037 C   
ATOM     9   C1  UNL     1      -2.488   3.158  -3.493  1.00  0.00     0.014 C   
ATOM     10  C3  UNL     1      -1.579   4.912  -1.944  1.00  0.00     0.014 C   
ENDBRANCH   7   8
BRANCH   7  11
ATOM     11  N1  UNL     1       0.328   2.569  -2.425  1.00  0.00     0.249 N   
ATOM     12  H9  UNL     1       0.437   1.630  -2.842  1.00  0.00     0.199 HD  
ATOM     13  H10 UNL     1       0.174   3.188  -3.224  1.00  0.00     0.199 HD  
BRANCH  11  14
ATOM     14  C5  UNL     1       1.603   2.935  -1.753  1.00  0.00     0.164 C   
BRANCH  14  15
ATOM     15  C6  UNL     1       2.008   2.034  -0.618  1.00  0.00    -0.002 A   
ATOM     16  C7  UNL     1       2.159   0.639  -0.806  1.00  0.00     0.012 A   
ATOM     17  C11 UNL     1       2.267   2.588   0.649  1.00  0.00     0.045 A   
ATOM     18  C8  UNL     1       2.542  -0.194   0.252  1.00  0.00     0.037 A   
ATOM     19  C10 UNL     1       2.653   1.740   1.667  1.00  0.00     0.109 A   
ATOM     20  C9  UNL     1       2.787   0.388   1.475  1.00  0.00     0.108 A   
ATOM     21  O1  UNL     1       2.942   2.115   2.940  1.00  0.00    -0.316 OA  
ATOM     22  O2  UNL     1       3.177  -0.259   2.604  1.00  0.00    -0.316 OA  
ATOM     23  C12 UNL     1       3.322   0.847   3.520  1.00  0.00     0.337 C   
ENDBRANCH  14  15
ENDBRANCH  11  14
ENDBRANCH   7  11
ENDBRANCH   1   7
BRANCH   3  24
ATOM     24  C15 UNL     1      -2.800  -2.057  -0.456  1.00  0.00     0.160 C   
BRANCH  24  25
ATOM     25  C16 UNL     1      -1.827  -3.085   0.139  1.00  0.00     0.128 C   
ATOM     26  N3  UNL     1      -2.557  -4.376   0.346  1.00  0.00    -0.307 NA  
ATOM     27  C22 UNL     1      -1.260  -2.631   1.448  1.00  0.00     0.080 A   
ATOM     28  C17 UNL     1      -1.807  -5.317   1.212  1.00  0.00     0.086 C   
ATOM     29  C19 UNL     1      -1.118  -3.374   2.598  1.00  0.00    -0.016 A   
ATOM     30  O3  UNL     1      -0.758  -1.382   1.611  1.00  0.00    -0.321 OA  
ATOM     31  C18 UNL     1      -1.584  -4.783   2.653  1.00  0.00     0.053 C   
ATOM     32  C20 UNL     1      -0.506  -2.525   3.543  1.00  0.00     0.032 A   
ATOM     33  C21 UNL     1      -0.308  -1.323   2.896  1.00  0.00     0.136 A   
ATOM     34  H22 UNL     1      -2.706  -4.819  -0.562  1.00  0.00     0.123 HD  
ENDBRANCH  24  25
ENDBRANCH   3  24
TORSDOF 7
