REMARK SMILES CC(C)[C@H]([NH2+]Cc1ccc2c(c1)OCO2)c1cn(C[C@H]2NCCc3ccoc32)nn1
REMARK SMILES IDX 16 1 17 2 18 3 29 4 30 5 4 7 2 8 1 9 3 10 5 11 6 14 7 15
REMARK SMILES IDX 8 16 12 17 9 18 11 19 10 20 13 21 15 22 14 23 19 24 20 25
REMARK SMILES IDX 21 26 28 27 22 28 24 29 27 30 23 31 25 32 26 33
REMARK H PARENT 17 6 5 12 5 13 21 34
ROOT
ATOM     1   C13 UNL     1       1.698  -0.133  -0.031  1.00  0.00     0.127 A   
ATOM     2   C14 UNL     1       1.429   1.125   0.460  1.00  0.00     0.045 A   
ATOM     3   N2  UNL     1       1.634   1.947  -0.613  1.00  0.00    -0.210 N   
ATOM     4   N4  UNL     1       2.060   1.245  -1.680  1.00  0.00    -0.076 NA  
ATOM     5   N5  UNL     1       2.096  -0.031  -1.339  1.00  0.00    -0.132 NA  
ATOM     6   H18 UNL     1       1.085   1.490   1.418  1.00  0.00     0.083 HD  
ENDROOT
BRANCH   1   7
ATOM     7   C4  UNL     1       1.530  -1.483   0.580  1.00  0.00     0.117 C   
BRANCH   7   8
ATOM     8   C2  UNL     1       2.823  -2.067   1.208  1.00  0.00     0.037 C   
ATOM     9   C1  UNL     1       3.985  -2.243   0.224  1.00  0.00     0.014 C   
ATOM     10  C3  UNL     1       3.286  -1.236   2.410  1.00  0.00     0.014 C   
ENDBRANCH   7   8
BRANCH   7  11
ATOM     11  N1  UNL     1       1.015  -2.459  -0.459  1.00  0.00     0.249 N   
ATOM     12  H9  UNL     1       1.069  -3.417  -0.102  1.00  0.00     0.199 HD  
ATOM     13  H10 UNL     1       1.655  -2.386  -1.262  1.00  0.00     0.199 HD  
BRANCH  11  14
ATOM     14  C5  UNL     1      -0.359  -2.199  -0.988  1.00  0.00     0.164 C   
BRANCH  14  15
ATOM     15  C6  UNL     1      -1.432  -2.340   0.055  1.00  0.00    -0.002 A   
ATOM     16  C7  UNL     1      -1.816  -3.619   0.523  1.00  0.00     0.012 A   
ATOM     17  C11 UNL     1      -2.040  -1.193   0.596  1.00  0.00     0.045 A   
ATOM     18  C8  UNL     1      -2.789  -3.756   1.520  1.00  0.00     0.037 A   
ATOM     19  C10 UNL     1      -2.993  -1.363   1.579  1.00  0.00     0.109 A   
ATOM     20  C9  UNL     1      -3.357  -2.608   2.028  1.00  0.00     0.108 A   
ATOM     21  O1  UNL     1      -3.665  -0.366   2.210  1.00  0.00    -0.316 OA  
ATOM     22  O2  UNL     1      -4.308  -2.552   2.995  1.00  0.00    -0.316 OA  
ATOM     23  C12 UNL     1      -4.524  -1.128   3.088  1.00  0.00     0.337 C   
ENDBRANCH  14  15
ENDBRANCH  11  14
ENDBRANCH   7  11
ENDBRANCH   1   7
BRANCH   3  24
ATOM     24  C15 UNL     1       1.448   3.382  -0.701  1.00  0.00     0.160 C   
BRANCH  24  25
ATOM     25  C16 UNL     1       0.011   3.832  -0.388  1.00  0.00     0.128 C   
ATOM     26  N3  UNL     1      -0.077   5.324  -0.313  1.00  0.00    -0.307 NA  
ATOM     27  C22 UNL     1      -0.980   3.333  -1.386  1.00  0.00     0.080 A   
ATOM     28  C17 UNL     1      -0.163   5.956  -1.659  1.00  0.00     0.086 C   
ATOM     29  C19 UNL     1      -1.628   4.063  -2.355  1.00  0.00    -0.016 A   
ATOM     30  O3  UNL     1      -1.364   2.032  -1.407  1.00  0.00    -0.321 OA  
ATOM     31  C18 UNL     1      -1.405   5.527  -2.490  1.00  0.00     0.053 C   
ATOM     32  C20 UNL     1      -2.462   3.152  -3.037  1.00  0.00     0.032 A   
ATOM     33  C21 UNL     1      -2.268   1.931  -2.423  1.00  0.00     0.136 A   
ATOM     34  H22 UNL     1      -0.943   5.555   0.181  1.00  0.00     0.123 HD  
ENDBRANCH  24  25
ENDBRANCH   3  24
TORSDOF 7
