REMARK SMILES CC(=O)Nc1ccc(S(=O)(=O)n2cc([C@@H]([NH2+]Cc3ccc4c(c3)OCO4)C(C)C)nn2)cc1
REMARK SMILES IDX 12 1 13 2 14 3 30 4 31 5 9 6 10 7 11 8 8 9 5 10 6 11 33 12
REMARK SMILES IDX 7 13 32 14 4 15 2 16 1 17 3 18 15 20 16 21 17 24 18 25 19 26
REMARK SMILES IDX 23 27 20 28 22 29 21 30 24 31 26 32 25 33 27 34 28 35 29 36
REMARK H PARENT 4 19 16 22 16 23
ROOT
ATOM     1   N2  UNL     1      -1.022  -2.078  -0.707  1.00  0.00     0.097 N   
ATOM     2   C7  UNL     1      -0.691  -1.821   0.609  1.00  0.00     0.250 A   
ATOM     3   C8  UNL     1      -1.776  -1.126   1.100  1.00  0.00     0.138 A   
ATOM     4   N4  UNL     1      -2.693  -0.950   0.091  1.00  0.00    -0.123 NA  
ATOM     5   N5  UNL     1      -2.200  -1.482  -1.018  1.00  0.00     0.020 NA  
ENDROOT
BRANCH   1   6
ATOM     6   S1  UNL     1       0.032  -2.844  -1.815  1.00  0.00    -0.080 S   
ATOM     7   O2  UNL     1       0.977  -3.569  -0.994  1.00  0.00    -0.476 OA  
ATOM     8   O3  UNL     1      -0.827  -3.502  -2.776  1.00  0.00    -0.476 OA  
BRANCH   6   9
ATOM     9   C6  UNL     1       0.860  -1.497  -2.598  1.00  0.00     0.341 A   
ATOM     10  C3  UNL     1       2.234   0.588  -3.869  1.00  0.00     0.033 A   
ATOM     11  C4  UNL     1       2.654   0.117  -2.624  1.00  0.00     0.036 A   
ATOM     12  C22 UNL     1       1.127  -0.009  -4.478  1.00  0.00     0.036 A   
ATOM     13  C5  UNL     1       1.971  -0.925  -1.986  1.00  0.00     0.140 A   
ATOM     14  C21 UNL     1       0.436  -1.050  -3.849  1.00  0.00     0.140 A   
BRANCH  10  15
ATOM     15  N1  UNL     1       2.873   1.632  -4.574  1.00  0.00    -0.286 N   
ATOM     16  C2  UNL     1       3.880   2.463  -4.120  1.00  0.00     0.213 C   
ATOM     17  C1  UNL     1       4.333   3.449  -5.173  1.00  0.00     0.111 C   
ATOM     18  O1  UNL     1       4.359   2.485  -2.991  1.00  0.00    -0.278 OA  
ATOM     19  H4  UNL     1       2.511   1.837  -5.496  1.00  0.00     0.156 HD  
ENDBRANCH  10  15
ENDBRANCH   6   9
ENDBRANCH   1   6
BRANCH   3  20
ATOM     20  C9  UNL     1      -2.060  -0.553   2.460  1.00  0.00     0.117 C   
BRANCH  20  21
ATOM     21  N3  UNL     1      -3.097   0.544   2.349  1.00  0.00     0.249 N   
ATOM     22  H9  UNL     1      -3.602   0.376   1.468  1.00  0.00     0.199 HD  
ATOM     23  H10 UNL     1      -3.802   0.463   3.083  1.00  0.00     0.199 HD  
BRANCH  21  24
ATOM     24  C10 UNL     1      -2.595   1.948   2.339  1.00  0.00     0.164 C   
BRANCH  24  25
ATOM     25  C11 UNL     1      -1.573   2.244   1.272  1.00  0.00    -0.002 A   
ATOM     26  C12 UNL     1      -1.907   2.164  -0.102  1.00  0.00     0.012 A   
ATOM     27  C16 UNL     1      -0.266   2.611   1.639  1.00  0.00     0.045 A   
ATOM     28  C13 UNL     1      -0.949   2.411  -1.094  1.00  0.00     0.037 A   
ATOM     29  C15 UNL     1       0.651   2.864   0.636  1.00  0.00     0.109 A   
ATOM     30  C14 UNL     1       0.320   2.766  -0.691  1.00  0.00     0.108 A   
ATOM     31  O4  UNL     1       1.944   3.243   0.823  1.00  0.00    -0.316 OA  
ATOM     32  O5  UNL     1       1.360   3.075  -1.512  1.00  0.00    -0.316 OA  
ATOM     33  C17 UNL     1       2.396   3.376  -0.549  1.00  0.00     0.337 C   
ENDBRANCH  24  25
ENDBRANCH  21  24
ENDBRANCH  20  21
BRANCH  20  34
ATOM     34  C18 UNL     1      -2.518  -1.637   3.470  1.00  0.00     0.037 C   
ATOM     35  C19 UNL     1      -2.508  -1.106   4.909  1.00  0.00     0.014 C   
ATOM     36  C20 UNL     1      -3.887  -2.256   3.153  1.00  0.00     0.014 C   
ENDBRANCH  20  34
ENDBRANCH   3  20
TORSDOF 8
