REMARK SMILES CC(C)[C@H]([NH2+]Cc1ccc2c(c1)OCO2)c1cn(Cc2cc[nH]n2)nn1
REMARK SMILES IDX 16 1 17 2 18 3 25 4 26 5 4 7 2 8 1 9 3 10 5 11 6 14 7 15
REMARK SMILES IDX 8 16 12 17 9 18 11 19 10 20 13 21 15 22 14 23 19 24 20 25
REMARK SMILES IDX 21 26 24 27 22 28 23 29
REMARK H PARENT 17 6 5 12 5 13 23 30
ROOT
ATOM     1   C13 UNL     1      -1.279   0.233   0.412  1.00  0.00     0.127 A   
ATOM     2   C14 UNL     1      -2.475   0.911   0.441  1.00  0.00     0.046 A   
ATOM     3   N2  UNL     1      -2.196   2.052   1.146  1.00  0.00    -0.206 N   
ATOM     4   N5  UNL     1      -0.910   2.057   1.556  1.00  0.00    -0.076 NA  
ATOM     5   N6  UNL     1      -0.339   0.950   1.112  1.00  0.00    -0.132 NA  
ATOM     6   H18 UNL     1      -3.459   0.719   0.032  1.00  0.00     0.083 HD  
ENDROOT
BRANCH   1   7
ATOM     7   C4  UNL     1      -0.891  -1.059  -0.236  1.00  0.00     0.117 C   
BRANCH   7   8
ATOM     8   C2  UNL     1      -1.429  -2.290   0.538  1.00  0.00     0.037 C   
ATOM     9   C1  UNL     1      -0.791  -2.484   1.918  1.00  0.00     0.014 C   
ATOM     10  C3  UNL     1      -1.295  -3.580  -0.281  1.00  0.00     0.014 C   
ENDBRANCH   7   8
BRANCH   7  11
ATOM     11  N1  UNL     1       0.607  -1.142  -0.374  1.00  0.00     0.249 N   
ATOM     12  H9  UNL     1       1.000  -0.775   0.506  1.00  0.00     0.199 HD  
ATOM     13  H10 UNL     1       0.942  -2.105  -0.458  1.00  0.00     0.199 HD  
BRANCH  11  14
ATOM     14  C5  UNL     1       1.186  -0.327  -1.478  1.00  0.00     0.164 C   
BRANCH  14  15
ATOM     15  C6  UNL     1       2.687  -0.336  -1.400  1.00  0.00    -0.002 A   
ATOM     16  C7  UNL     1       3.359   0.630  -0.614  1.00  0.00     0.012 A   
ATOM     17  C11 UNL     1       3.426  -1.336  -2.052  1.00  0.00     0.045 A   
ATOM     18  C8  UNL     1       4.753   0.610  -0.489  1.00  0.00     0.037 A   
ATOM     19  C10 UNL     1       4.798  -1.327  -1.905  1.00  0.00     0.109 A   
ATOM     20  C9  UNL     1       5.443  -0.383  -1.146  1.00  0.00     0.108 A   
ATOM     21  O1  UNL     1       5.658  -2.222  -2.460  1.00  0.00    -0.316 OA  
ATOM     22  O2  UNL     1       6.790  -0.560  -1.129  1.00  0.00    -0.316 OA  
ATOM     23  C12 UNL     1       6.925  -1.719  -1.980  1.00  0.00     0.337 C   
ENDBRANCH  14  15
ENDBRANCH  11  14
ENDBRANCH   7  11
ENDBRANCH   1   7
BRANCH   3  24
ATOM     24  C15 UNL     1      -3.103   3.123   1.520  1.00  0.00     0.191 C   
BRANCH  24  25
ATOM     25  C16 UNL     1      -3.486   3.920   0.322  1.00  0.00     0.079 A   
ATOM     26  C17 UNL     1      -2.905   5.125  -0.145  1.00  0.00     0.044 A   
ATOM     27  N4  UNL     1      -4.502   3.529  -0.465  1.00  0.00    -0.188 NA  
ATOM     28  C18 UNL     1      -3.640   5.467  -1.254  1.00  0.00     0.094 A   
ATOM     29  N3  UNL     1      -4.593   4.501  -1.391  1.00  0.00    -0.246 N   
ATOM     30  H23 UNL     1      -5.334   4.441  -2.085  1.00  0.00     0.175 HD  
ENDBRANCH  24  25
ENDBRANCH   3  24
TORSDOF 7
