REMARK SMILES Nc1ccc(CCn2cc([C@@H]([NH2+]Cc3ccc4c(c3)OCO4)C3CCCCC3)nn2)cc1
REMARK SMILES IDX 8 1 9 2 10 3 29 4 30 5 7 7 6 8 5 9 2 10 3 11 32 12 4 13
REMARK SMILES IDX 31 14 1 15 11 18 12 19 13 22 14 23 15 24 19 25 16 26 18 27
REMARK SMILES IDX 17 28 20 29 22 30 21 31 23 32 24 33 28 34 25 35 27 36 26 37
REMARK H PARENT 9 6 1 16 1 17 12 20 12 21
ROOT
ATOM     1   N2  UNL     1      -1.835   1.901   0.961  1.00  0.00    -0.212 N   
ATOM     2   C7  UNL     1      -0.762   1.066   0.826  1.00  0.00     0.045 A   
ATOM     3   C8  UNL     1      -1.317  -0.129   0.420  1.00  0.00     0.127 A   
ATOM     4   N4  UNL     1      -2.683  -0.001   0.390  1.00  0.00    -0.132 NA  
ATOM     5   N5  UNL     1      -2.987   1.243   0.734  1.00  0.00    -0.076 NA  
ATOM     6   H9  UNL     1       0.254   1.400   0.982  1.00  0.00     0.083 HD  
ENDROOT
BRANCH   1   7
ATOM     7   C6  UNL     1      -1.831   3.308   1.304  1.00  0.00     0.139 C   
BRANCH   7   8
ATOM     8   C5  UNL     1      -1.927   4.221   0.080  1.00  0.00     0.057 C   
BRANCH   8   9
ATOM     9   C4  UNL     1      -0.767   4.058  -0.875  1.00  0.00    -0.046 A   
ATOM     10  C1  UNL     1       1.403   3.679  -2.641  1.00  0.00     0.023 A   
ATOM     11  C2  UNL     1       0.117   3.270  -2.997  1.00  0.00     0.023 A   
ATOM     12  C25 UNL     1       1.605   4.227  -1.372  1.00  0.00     0.023 A   
ATOM     13  C3  UNL     1      -0.964   3.470  -2.131  1.00  0.00     0.005 A   
ATOM     14  C24 UNL     1       0.528   4.444  -0.506  1.00  0.00     0.005 A   
BRANCH  10  15
ATOM     15  N1  UNL     1       2.497   3.337  -3.445  1.00  0.00    -0.358 N   
ATOM     16  H1  UNL     1       3.317   3.912  -3.283  1.00  0.00     0.143 HD  
ATOM     17  H2  UNL     1       2.271   3.290  -4.436  1.00  0.00     0.143 HD  
ENDBRANCH  10  15
ENDBRANCH   8   9
ENDBRANCH   7   8
ENDBRANCH   1   7
BRANCH   3  18
ATOM     18  C9  UNL     1      -0.683  -1.437   0.083  1.00  0.00     0.117 C   
BRANCH  18  19
ATOM     19  N3  UNL     1      -1.563  -2.589   0.527  1.00  0.00     0.249 N   
ATOM     20  H11 UNL     1      -1.206  -3.467   0.141  1.00  0.00     0.199 HD  
ATOM     21  H12 UNL     1      -2.490  -2.421   0.112  1.00  0.00     0.199 HD  
BRANCH  19  22
ATOM     22  C10 UNL     1      -1.780  -2.740   1.998  1.00  0.00     0.164 C   
BRANCH  22  23
ATOM     23  C11 UNL     1      -0.512  -2.890   2.790  1.00  0.00    -0.002 A   
ATOM     24  C12 UNL     1       0.295  -4.047   2.655  1.00  0.00     0.012 A   
ATOM     25  C16 UNL     1      -0.100  -1.857   3.655  1.00  0.00     0.045 A   
ATOM     26  C13 UNL     1       1.496  -4.175   3.361  1.00  0.00     0.037 A   
ATOM     27  C15 UNL     1       1.079  -2.021   4.352  1.00  0.00     0.109 A   
ATOM     28  C14 UNL     1       1.852  -3.149   4.210  1.00  0.00     0.108 A   
ATOM     29  O1  UNL     1       1.622  -1.128   5.218  1.00  0.00    -0.316 OA  
ATOM     30  O2  UNL     1       2.978  -3.106   4.972  1.00  0.00    -0.316 OA  
ATOM     31  C17 UNL     1       2.782  -1.862   5.678  1.00  0.00     0.337 C   
ENDBRANCH  22  23
ENDBRANCH  19  22
ENDBRANCH  18  19
BRANCH  18  32
ATOM     32  C18 UNL     1      -0.374  -1.624  -1.428  1.00  0.00     0.043 C   
ATOM     33  C19 UNL     1      -1.612  -1.556  -2.341  1.00  0.00     0.010 C   
ATOM     34  C23 UNL     1       0.703  -0.633  -1.918  1.00  0.00     0.010 C   
ATOM     35  C20 UNL     1      -1.242  -1.779  -3.807  1.00  0.00     0.001 C   
ATOM     36  C22 UNL     1       1.057  -0.855  -3.388  1.00  0.00     0.001 C   
ATOM     37  C21 UNL     1      -0.177  -0.795  -4.276  1.00  0.00     0.000 C   
ENDBRANCH  18  32
ENDBRANCH   3  18
TORSDOF 9
