REMARK SMILES CC(C)C[C@H]([NH2+]Cc1ccc2c(c1)OCO2)c1cn(Cc2cc(F)ccc2O)nn1
REMARK SMILES IDX 17 1 18 2 19 3 29 4 30 5 5 7 4 8 2 9 1 10 3 11 6 12 7 15
REMARK SMILES IDX 8 16 9 17 13 18 10 19 12 20 11 21 14 22 16 23 15 24 20 25
REMARK SMILES IDX 21 26 22 27 27 28 23 29 26 30 25 31 24 32 28 33
REMARK H PARENT 18 6 6 13 6 14 28 34
ROOT
ATOM     1   C14 UNL     1       1.473  -0.735  -0.771  1.00  0.00     0.127 A   
ATOM     2   C15 UNL     1       1.487  -1.754   0.153  1.00  0.00     0.046 A   
ATOM     3   N2  UNL     1       1.936  -1.157   1.299  1.00  0.00    -0.208 N   
ATOM     4   N3  UNL     1       2.181   0.152   1.092  1.00  0.00    -0.076 NA  
ATOM     5   N4  UNL     1       1.894   0.424  -0.170  1.00  0.00    -0.132 NA  
ATOM     6   H20 UNL     1       1.230  -2.805   0.116  1.00  0.00     0.083 HD  
ENDROOT
BRANCH   1   7
ATOM     7   C5  UNL     1       1.037  -0.695  -2.196  1.00  0.00     0.114 C   
BRANCH   7   8
ATOM     8   C4  UNL     1       2.223  -0.757  -3.178  1.00  0.00     0.064 C   
BRANCH   8   9
ATOM     9   C2  UNL     1       3.048  -2.061  -3.135  1.00  0.00    -0.012 C   
ATOM     10  C1  UNL     1       4.239  -1.943  -4.093  1.00  0.00     0.007 C   
ATOM     11  C3  UNL     1       2.212  -3.291  -3.497  1.00  0.00     0.007 C   
ENDBRANCH   8   9
ENDBRANCH   7   8
BRANCH   7  12
ATOM     12  N1  UNL     1       0.316   0.605  -2.469  1.00  0.00     0.249 N   
ATOM     13  H11 UNL     1       0.227   0.780  -3.473  1.00  0.00     0.199 HD  
ATOM     14  H12 UNL     1       0.914   1.357  -2.092  1.00  0.00     0.199 HD  
BRANCH  12  15
ATOM     15  C6  UNL     1      -1.021   0.748  -1.826  1.00  0.00     0.164 C   
BRANCH  15  16
ATOM     16  C7  UNL     1      -1.597   2.106  -2.118  1.00  0.00    -0.002 A   
ATOM     17  C8  UNL     1      -2.446   2.303  -3.234  1.00  0.00     0.012 A   
ATOM     18  C12 UNL     1      -1.246   3.204  -1.310  1.00  0.00     0.045 A   
ATOM     19  C9  UNL     1      -2.951   3.573  -3.535  1.00  0.00     0.037 A   
ATOM     20  C11 UNL     1      -1.755   4.444  -1.640  1.00  0.00     0.109 A   
ATOM     21  C10 UNL     1      -2.587   4.622  -2.719  1.00  0.00     0.108 A   
ATOM     22  O1  UNL     1      -1.508   5.603  -0.974  1.00  0.00    -0.316 OA  
ATOM     23  O2  UNL     1      -2.970   5.919  -2.865  1.00  0.00    -0.316 OA  
ATOM     24  C13 UNL     1      -2.278   6.540  -1.761  1.00  0.00     0.337 C   
ENDBRANCH  15  16
ENDBRANCH  12  15
ENDBRANCH   7  12
ENDBRANCH   1   7
BRANCH   3  25
ATOM     25  C16 UNL     1       2.211  -1.769   2.587  1.00  0.00     0.172 C   
BRANCH  25  26
ATOM     26  C17 UNL     1       1.051  -1.605   3.534  1.00  0.00     0.004 A   
ATOM     27  C18 UNL     1       1.037  -0.538   4.449  1.00  0.00     0.047 A   
ATOM     28  C22 UNL     1      -0.035  -2.491   3.525  1.00  0.00     0.076 A   
ATOM     29  C19 UNL     1      -0.026  -0.393   5.336  1.00  0.00     0.123 A   
ATOM     30  C21 UNL     1      -1.100  -2.344   4.417  1.00  0.00     0.036 A   
ATOM     31  C20 UNL     1      -1.090  -1.290   5.332  1.00  0.00     0.042 A   
ATOM     32  F1  UNL     1      -0.021   0.626   6.207  1.00  0.00    -0.207 F   
BRANCH  28  33
ATOM     33  O3  UNL     1      -0.041  -3.517   2.617  1.00  0.00    -0.361 OA  
ATOM     34  H26 UNL     1      -0.768  -4.125   2.848  1.00  0.00     0.218 HD  
ENDBRANCH  28  33
ENDBRANCH  25  26
ENDBRANCH   3  25
TORSDOF 9
