REMARK SMILES COc1cccc(F)c1CCn1cc([C@@H]([NH2+]Cc2ccc3c(c2)OCO3)C(C)C)nn1
REMARK SMILES IDX 12 1 13 2 14 3 30 4 31 5 11 7 10 8 9 9 3 10 4 11 5 12 7 13
REMARK SMILES IDX 6 14 8 15 2 16 1 17 15 18 16 19 17 22 18 23 19 24 23 25
REMARK SMILES IDX 20 26 22 27 21 28 24 29 26 30 25 31 27 32 28 33 29 34
REMARK H PARENT 13 6 16 20 16 21
ROOT
ATOM     1   N1  UNL     1       2.132  -0.558  -1.259  1.00  0.00    -0.212 N   
ATOM     2   C10 UNL     1       1.066  -0.477  -0.408  1.00  0.00     0.045 A   
ATOM     3   C11 UNL     1       0.248  -1.511  -0.807  1.00  0.00     0.127 A   
ATOM     4   N3  UNL     1       0.835  -2.174  -1.854  1.00  0.00    -0.132 NA  
ATOM     5   N4  UNL     1       1.982  -1.576  -2.126  1.00  0.00    -0.076 NA  
ATOM     6   H11 UNL     1       0.988   0.287   0.353  1.00  0.00     0.083 HD  
ENDROOT
BRANCH   1   7
ATOM     7   C9  UNL     1       3.305   0.291  -1.320  1.00  0.00     0.139 C   
BRANCH   7   8
ATOM     8   C8  UNL     1       3.133   1.455  -2.295  1.00  0.00     0.063 C   
BRANCH   8   9
ATOM     9   C7  UNL     1       2.293   2.583  -1.734  1.00  0.00     0.020 A   
ATOM     10  C2  UNL     1       2.828   3.503  -0.814  1.00  0.00     0.081 A   
ATOM     11  C3  UNL     1       2.027   4.541  -0.323  1.00  0.00     0.034 A   
ATOM     12  C4  UNL     1       0.701   4.672  -0.743  1.00  0.00     0.006 A   
ATOM     13  C6  UNL     1       0.958   2.726  -2.127  1.00  0.00     0.129 A   
ATOM     14  C5  UNL     1       0.165   3.762  -1.647  1.00  0.00     0.040 A   
ATOM     15  F1  UNL     1       0.406   1.831  -2.962  1.00  0.00    -0.207 F   
BRANCH  10  16
ATOM     16  O1  UNL     1       4.129   3.284  -0.444  1.00  0.00    -0.349 OA  
ATOM     17  C1  UNL     1       4.784   4.322   0.280  1.00  0.00     0.203 C   
ENDBRANCH  10  16
ENDBRANCH   8   9
ENDBRANCH   7   8
ENDBRANCH   1   7
BRANCH   3  18
ATOM     18  C12 UNL     1      -1.113  -1.931  -0.352  1.00  0.00     0.117 C   
BRANCH  18  19
ATOM     19  N2  UNL     1      -1.942  -2.289  -1.573  1.00  0.00     0.249 N   
ATOM     20  H13 UNL     1      -2.816  -2.745  -1.307  1.00  0.00     0.199 HD  
ATOM     21  H14 UNL     1      -1.382  -2.972  -2.103  1.00  0.00     0.199 HD  
BRANCH  19  22
ATOM     22  C13 UNL     1      -2.267  -1.168  -2.507  1.00  0.00     0.164 C   
BRANCH  22  23
ATOM     23  C14 UNL     1      -3.238  -0.185  -1.913  1.00  0.00    -0.002 A   
ATOM     24  C15 UNL     1      -4.614  -0.500  -1.817  1.00  0.00     0.012 A   
ATOM     25  C19 UNL     1      -2.775   1.045  -1.417  1.00  0.00     0.045 A   
ATOM     26  C16 UNL     1      -5.516   0.396  -1.234  1.00  0.00     0.037 A   
ATOM     27  C18 UNL     1      -3.688   1.906  -0.848  1.00  0.00     0.109 A   
ATOM     28  C17 UNL     1      -5.021   1.590  -0.758  1.00  0.00     0.108 A   
ATOM     29  O2  UNL     1      -3.405   3.126  -0.322  1.00  0.00    -0.316 OA  
ATOM     30  O3  UNL     1      -5.747   2.572  -0.163  1.00  0.00    -0.316 OA  
ATOM     31  C20 UNL     1      -4.723   3.558   0.090  1.00  0.00     0.337 C   
ENDBRANCH  22  23
ENDBRANCH  19  22
ENDBRANCH  18  19
BRANCH  18  32
ATOM     32  C21 UNL     1      -1.064  -3.156   0.605  1.00  0.00     0.037 C   
ATOM     33  C22 UNL     1      -0.242  -2.847   1.867  1.00  0.00     0.014 C   
ATOM     34  C23 UNL     1      -2.460  -3.619   1.047  1.00  0.00     0.014 C   
ENDBRANCH  18  32
ENDBRANCH   3  18
TORSDOF 9
