REMARK SMILES CCc1ccc([C@H](O)Cn2cc([C@@H]([NH2+]Cc3ccc4c(c3)OCO4)C(C)C)nn2)cc1
REMARK SMILES IDX 10 1 11 2 12 3 28 4 29 5 9 7 7 8 6 9 3 10 4 11 31 12 5 13
REMARK SMILES IDX 30 14 2 15 1 16 8 17 13 19 14 20 15 23 16 24 17 25 21 26
REMARK SMILES IDX 18 27 20 28 19 29 22 30 24 31 23 32 25 33 26 34 27 35
REMARK H PARENT 11 6 8 18 14 21 14 22
ROOT
ATOM     1   N1  UNL     1      -0.808  -0.996  -2.100  1.00  0.00    -0.209 N   
ATOM     2   C9  UNL     1      -0.740  -0.388  -0.878  1.00  0.00     0.045 A   
ATOM     3   C10 UNL     1      -0.016  -1.270  -0.109  1.00  0.00     0.127 A   
ATOM     4   N3  UNL     1       0.274  -2.384  -0.857  1.00  0.00    -0.132 NA  
ATOM     5   N4  UNL     1      -0.229  -2.209  -2.068  1.00  0.00    -0.076 NA  
ATOM     6   H12 UNL     1      -1.157   0.593  -0.694  1.00  0.00     0.083 HD  
ENDROOT
BRANCH   1   7
ATOM     7   C8  UNL     1      -1.378  -0.480  -3.323  1.00  0.00     0.170 C   
BRANCH   7   8
ATOM     8   C7  UNL     1      -0.316  -0.013  -4.322  1.00  0.00     0.164 C   
BRANCH   8   9
ATOM     9   C6  UNL     1       0.548   1.113  -3.789  1.00  0.00    -0.018 A   
ATOM     10  C3  UNL     1       2.164   3.189  -2.772  1.00  0.00    -0.048 A   
ATOM     11  C4  UNL     1       0.823   3.426  -3.094  1.00  0.00     0.004 A   
ATOM     12  C24 UNL     1       2.688   1.903  -2.950  1.00  0.00     0.004 A   
ATOM     13  C5  UNL     1       0.023   2.400  -3.601  1.00  0.00     0.007 A   
ATOM     14  C23 UNL     1       1.888   0.875  -3.454  1.00  0.00     0.007 A   
BRANCH  10  15
ATOM     15  C2  UNL     1       3.029   4.301  -2.237  1.00  0.00     0.032 C   
ATOM     16  C1  UNL     1       2.962   4.394  -0.722  1.00  0.00     0.009 C   
ENDBRANCH  10  15
ENDBRANCH   8   9
BRANCH   8  17
ATOM     17  O1  UNL     1      -0.972   0.428  -5.514  1.00  0.00    -0.387 OA  
ATOM     18  H9  UNL     1      -0.301   0.872  -6.064  1.00  0.00     0.211 HD  
ENDBRANCH   8  17
ENDBRANCH   7   8
ENDBRANCH   1   7
BRANCH   3  19
ATOM     19  C11 UNL     1       0.433  -1.203   1.314  1.00  0.00     0.117 C   
BRANCH  19  20
ATOM     20  N2  UNL     1       0.528  -2.600   1.895  1.00  0.00     0.249 N   
ATOM     21  H14 UNL     1       1.092  -2.593   2.750  1.00  0.00     0.199 HD  
ATOM     22  H15 UNL     1       1.032  -3.166   1.199  1.00  0.00     0.199 HD  
BRANCH  20  23
ATOM     23  C12 UNL     1      -0.767  -3.294   2.163  1.00  0.00     0.164 C   
BRANCH  23  24
ATOM     24  C13 UNL     1      -1.558  -2.647   3.267  1.00  0.00    -0.002 A   
ATOM     25  C14 UNL     1      -2.757  -1.952   2.972  1.00  0.00     0.012 A   
ATOM     26  C18 UNL     1      -1.098  -2.701   4.595  1.00  0.00     0.045 A   
ATOM     27  C15 UNL     1      -3.481  -1.305   3.979  1.00  0.00     0.037 A   
ATOM     28  C17 UNL     1      -1.835  -2.049   5.563  1.00  0.00     0.109 A   
ATOM     29  C16 UNL     1      -2.990  -1.367   5.263  1.00  0.00     0.108 A   
ATOM     30  O2  UNL     1      -1.525  -1.990   6.885  1.00  0.00    -0.316 OA  
ATOM     31  O3  UNL     1      -3.551  -0.790   6.358  1.00  0.00    -0.316 OA  
ATOM     32  C19 UNL     1      -2.622  -1.191   7.388  1.00  0.00     0.337 C   
ENDBRANCH  23  24
ENDBRANCH  20  23
ENDBRANCH  19  20
BRANCH  19  33
ATOM     33  C20 UNL     1       1.804  -0.504   1.511  1.00  0.00     0.037 C   
ATOM     34  C21 UNL     1       1.733   0.990   1.173  1.00  0.00     0.014 C   
ATOM     35  C22 UNL     1       2.958  -1.151   0.739  1.00  0.00     0.014 C   
ENDBRANCH  19  33
ENDBRANCH   3  19
TORSDOF 10
