REMARK SMILES CCc1ccc([C@@H](O)Cn2cc([C@@H]([NH2+]Cc3ccc4c(c3)OCO4)C(C)C)nn2)cc1
REMARK SMILES IDX 10 1 11 2 12 3 28 4 29 5 9 7 7 8 6 9 3 10 4 11 31 12 5 13
REMARK SMILES IDX 30 14 2 15 1 16 8 17 13 19 14 20 15 23 16 24 17 25 21 26
REMARK SMILES IDX 18 27 20 28 19 29 22 30 24 31 23 32 25 33 26 34 27 35
REMARK H PARENT 11 6 8 18 14 21 14 22
ROOT
ATOM     1   N1  UNL     1       0.517  -2.657  -1.963  1.00  0.00    -0.209 N   
ATOM     2   C9  UNL     1       0.692  -2.142  -0.710  1.00  0.00     0.045 A   
ATOM     3   C10 UNL     1      -0.360  -2.661   0.012  1.00  0.00     0.127 A   
ATOM     4   N3  UNL     1      -1.124  -3.450  -0.809  1.00  0.00    -0.132 NA  
ATOM     5   N4  UNL     1      -0.578  -3.438  -2.015  1.00  0.00    -0.076 NA  
ATOM     6   H12 UNL     1       1.503  -1.470  -0.464  1.00  0.00     0.083 HD  
ENDROOT
BRANCH   1   7
ATOM     7   C8  UNL     1       1.312  -2.412  -3.144  1.00  0.00     0.170 C   
BRANCH   7   8
ATOM     8   C7  UNL     1       0.559  -1.640  -4.232  1.00  0.00     0.164 C   
BRANCH   8   9
ATOM     9   C6  UNL     1       0.005  -0.310  -3.759  1.00  0.00    -0.018 A   
ATOM     10  C3  UNL     1      -1.051   2.153  -2.873  1.00  0.00    -0.048 A   
ATOM     11  C4  UNL     1      -1.904   1.107  -3.245  1.00  0.00     0.004 A   
ATOM     12  C24 UNL     1       0.333   1.961  -2.955  1.00  0.00     0.004 A   
ATOM     13  C5  UNL     1      -1.381  -0.115  -3.680  1.00  0.00     0.007 A   
ATOM     14  C23 UNL     1       0.856   0.742  -3.393  1.00  0.00     0.007 A   
BRANCH  10  15
ATOM     15  C2  UNL     1      -1.612   3.479  -2.426  1.00  0.00     0.032 C   
ATOM     16  C1  UNL     1      -1.927   4.389  -3.602  1.00  0.00     0.009 C   
ENDBRANCH  10  15
ENDBRANCH   8   9
BRANCH   8  17
ATOM     17  O1  UNL     1       1.453  -1.408  -5.325  1.00  0.00    -0.387 OA  
ATOM     18  H9  UNL     1       1.054  -0.717  -5.886  1.00  0.00     0.211 HD  
ENDBRANCH   8  17
ENDBRANCH   7   8
ENDBRANCH   1   7
BRANCH   3  19
ATOM     19  C11 UNL     1      -0.788  -2.432   1.426  1.00  0.00     0.117 C   
BRANCH  19  20
ATOM     20  N2  UNL     1      -2.280  -2.162   1.458  1.00  0.00     0.249 N   
ATOM     21  H14 UNL     1      -2.616  -2.101   2.421  1.00  0.00     0.199 HD  
ATOM     22  H15 UNL     1      -2.729  -2.979   1.022  1.00  0.00     0.199 HD  
BRANCH  20  23
ATOM     23  C12 UNL     1      -2.756  -0.949   0.723  1.00  0.00     0.164 C   
BRANCH  23  24
ATOM     24  C13 UNL     1      -2.244   0.335   1.314  1.00  0.00    -0.002 A   
ATOM     25  C14 UNL     1      -2.796   0.848   2.511  1.00  0.00     0.012 A   
ATOM     26  C18 UNL     1      -1.187   1.020   0.690  1.00  0.00     0.045 A   
ATOM     27  C15 UNL     1      -2.303   2.028   3.079  1.00  0.00     0.037 A   
ATOM     28  C17 UNL     1      -0.725   2.179   1.274  1.00  0.00     0.109 A   
ATOM     29  C16 UNL     1      -1.268   2.670   2.435  1.00  0.00     0.108 A   
ATOM     30  O2  UNL     1       0.285   2.957   0.804  1.00  0.00    -0.316 OA  
ATOM     31  O3  UNL     1      -0.673   3.822   2.839  1.00  0.00    -0.316 OA  
ATOM     32  C19 UNL     1       0.289   4.021   1.780  1.00  0.00     0.337 C   
ENDBRANCH  23  24
ENDBRANCH  20  23
ENDBRANCH  19  20
BRANCH  19  33
ATOM     33  C20 UNL     1      -0.471  -3.651   2.339  1.00  0.00     0.037 C   
ATOM     34  C21 UNL     1      -0.953  -3.457   3.784  1.00  0.00     0.014 C   
ATOM     35  C22 UNL     1       1.038  -3.942   2.373  1.00  0.00     0.014 C   
ENDBRANCH  19  33
ENDBRANCH   3  19
TORSDOF 10
