REMARK SMILES CCn1cnc(Cl)c1CCn1cc([C@@H]([NH2+]Cc2ccc3c(c2)OCO3)C2CCCCC2)nn1
REMARK SMILES IDX 11 1 12 2 13 3 32 4 33 5 10 7 9 8 8 9 3 10 4 11 5 12 6 13
REMARK SMILES IDX 7 14 2 15 1 16 14 17 15 18 16 21 17 22 18 23 22 24 19 25
REMARK SMILES IDX 21 26 20 27 23 28 25 29 24 30 26 31 27 32 31 33 28 34 30 35
REMARK SMILES IDX 29 36
REMARK H PARENT 12 6 15 19 15 20
ROOT
ATOM     1   N3  UNL     1       0.193   1.986   1.672  1.00  0.00    -0.212 N   
ATOM     2   C8  UNL     1      -0.539   0.907   2.084  1.00  0.00     0.045 A   
ATOM     3   C9  UNL     1      -1.031   0.373   0.909  1.00  0.00     0.127 A   
ATOM     4   N5  UNL     1      -0.686   1.195  -0.130  1.00  0.00    -0.132 NA  
ATOM     5   N6  UNL     1       0.059   2.177   0.349  1.00  0.00    -0.076 NA  
ATOM     6   H11 UNL     1      -0.557   0.580   3.114  1.00  0.00     0.083 HD  
ENDROOT
BRANCH   1   7
ATOM     7   C7  UNL     1       1.193   2.728   2.411  1.00  0.00     0.140 C   
BRANCH   7   8
ATOM     8   C6  UNL     1       2.343   1.860   2.952  1.00  0.00     0.076 C   
BRANCH   8   9
ATOM     9   C5  UNL     1       2.876   0.875   1.954  1.00  0.00     0.050 A   
ATOM     10  N1  UNL     1       3.650   1.184   0.858  1.00  0.00    -0.293 N   
ATOM     11  C3  UNL     1       3.800   0.033   0.128  1.00  0.00     0.190 A   
ATOM     12  N2  UNL     1       3.184  -0.983   0.687  1.00  0.00    -0.227 NA  
ATOM     13  C4  UNL     1       2.690  -0.494   1.864  1.00  0.00     0.147 A   
ATOM     14  CL1 UNL     1       1.851  -1.505   2.950  1.00  0.00    -0.061 Cl  
BRANCH  10  15
ATOM     15  C2  UNL     1       4.246   2.460   0.506  1.00  0.00     0.108 C   
ATOM     16  C1  UNL     1       3.635   3.080  -0.741  1.00  0.00     0.025 C   
ENDBRANCH  10  15
ENDBRANCH   8   9
ENDBRANCH   7   8
ENDBRANCH   1   7
BRANCH   3  17
ATOM     17  C10 UNL     1      -1.695  -0.942   0.623  1.00  0.00     0.117 C   
BRANCH  17  18
ATOM     18  N4  UNL     1      -0.639  -2.027   0.542  1.00  0.00     0.249 N   
ATOM     19  H13 UNL     1      -0.087  -2.015   1.407  1.00  0.00     0.199 HD  
ATOM     20  H14 UNL     1      -1.073  -2.949   0.473  1.00  0.00     0.199 HD  
BRANCH  18  21
ATOM     21  C11 UNL     1       0.328  -1.932  -0.604  1.00  0.00     0.164 C   
BRANCH  21  22
ATOM     22  C12 UNL     1      -0.302  -2.327  -1.910  1.00  0.00    -0.002 A   
ATOM     23  C13 UNL     1      -0.471  -3.694  -2.238  1.00  0.00     0.012 A   
ATOM     24  C17 UNL     1      -0.769  -1.339  -2.794  1.00  0.00     0.045 A   
ATOM     25  C14 UNL     1      -1.104  -4.074  -3.425  1.00  0.00     0.037 A   
ATOM     26  C16 UNL     1      -1.398  -1.748  -3.950  1.00  0.00     0.109 A   
ATOM     27  C15 UNL     1      -1.562  -3.076  -4.257  1.00  0.00     0.108 A   
ATOM     28  O1  UNL     1      -1.929  -0.927  -4.895  1.00  0.00    -0.316 OA  
ATOM     29  O2  UNL     1      -2.214  -3.259  -5.435  1.00  0.00    -0.316 OA  
ATOM     30  C18 UNL     1      -2.429  -1.892  -5.847  1.00  0.00     0.337 C   
ENDBRANCH  21  22
ENDBRANCH  18  21
ENDBRANCH  17  18
BRANCH  17  31
ATOM     31  C19 UNL     1      -2.784  -1.318   1.674  1.00  0.00     0.043 C   
ATOM     32  C20 UNL     1      -3.365  -2.733   1.473  1.00  0.00     0.010 C   
ATOM     33  C24 UNL     1      -3.928  -0.276   1.633  1.00  0.00     0.010 C   
ATOM     34  C21 UNL     1      -4.519  -3.043   2.426  1.00  0.00     0.001 C   
ATOM     35  C23 UNL     1      -5.067  -0.605   2.593  1.00  0.00     0.001 C   
ATOM     36  C22 UNL     1      -5.620  -1.999   2.341  1.00  0.00     0.000 C   
ENDBRANCH  17  31
ENDBRANCH   3  17
TORSDOF 9
