REMARK SMILES c1cc2c(cc1C[NH2+][C@H](c1cn(Cc3ccc4c(c3)CCC4)nn1)C1CCCCC1)OCO2
REMARK SMILES IDX 9 1 8 2 7 5 6 6 1 7 2 8 3 9 5 10 4 11 33 12 31 13 32 14
REMARK SMILES IDX 10 15 11 16 24 17 12 18 23 19 13 21 14 22 15 23 19 24 16 25
REMARK SMILES IDX 18 26 17 27 20 28 22 29 21 30 25 31 26 32 30 33 27 34 29 35
REMARK SMILES IDX 28 36
REMARK H PARENT 8 3 8 4 11 20
ROOT
ATOM     1   C8  UNL     1      -0.082  -0.342   2.804  1.00  0.00     0.117 C   
ENDROOT
BRANCH   1   2
ATOM     2   N1  UNL     1       1.273   0.160   2.365  1.00  0.00     0.249 N   
ATOM     3   H6  UNL     1       1.986  -0.004   3.081  1.00  0.00     0.199 HD  
ATOM     4   H7  UNL     1       1.195   1.184   2.247  1.00  0.00     0.199 HD  
BRANCH   2   5
ATOM     5   C7  UNL     1       1.734  -0.392   1.058  1.00  0.00     0.164 C   
BRANCH   5   6
ATOM     6   C6  UNL     1       3.112   0.101   0.717  1.00  0.00    -0.002 A   
ATOM     7   C1  UNL     1       4.253  -0.498   1.306  1.00  0.00     0.012 A   
ATOM     8   C2  UNL     1       5.542  -0.043   1.002  1.00  0.00     0.037 A   
ATOM     9   C3  UNL     1       5.661   1.004   0.112  1.00  0.00     0.108 A   
ATOM     10  C5  UNL     1       3.276   1.176  -0.176  1.00  0.00     0.045 A   
ATOM     11  C4  UNL     1       4.560   1.594  -0.463  1.00  0.00     0.109 A   
ATOM     12  O2  UNL     1       6.825   1.569  -0.304  1.00  0.00    -0.316 OA  
ATOM     13  O1  UNL     1       4.896   2.594  -1.321  1.00  0.00    -0.316 OA  
ATOM     14  C27 UNL     1       6.339   2.552  -1.244  1.00  0.00     0.337 C   
ENDBRANCH   5   6
ENDBRANCH   2   5
ENDBRANCH   1   2
BRANCH   1  15
ATOM     15  C9  UNL     1      -1.146   0.318   1.990  1.00  0.00     0.127 A   
ATOM     16  C10 UNL     1      -2.292  -0.185   1.415  1.00  0.00     0.046 A   
ATOM     17  N4  UNL     1      -0.984   1.625   1.606  1.00  0.00    -0.132 NA  
ATOM     18  N2  UNL     1      -2.779   0.862   0.680  1.00  0.00    -0.208 N   
ATOM     19  N3  UNL     1      -1.988   1.944   0.806  1.00  0.00    -0.076 NA  
ATOM     20  H9  UNL     1      -2.788  -1.144   1.445  1.00  0.00     0.083 HD  
BRANCH  18  21
ATOM     21  C11 UNL     1      -3.941   0.882  -0.196  1.00  0.00     0.169 C   
BRANCH  21  22
ATOM     22  C12 UNL     1      -3.541   0.627  -1.627  1.00  0.00    -0.028 A   
ATOM     23  C13 UNL     1      -3.299  -0.688  -2.087  1.00  0.00     0.006 A   
ATOM     24  C17 UNL     1      -3.388   1.708  -2.511  1.00  0.00     0.009 A   
ATOM     25  C14 UNL     1      -2.905  -0.931  -3.406  1.00  0.00     0.004 A   
ATOM     26  C16 UNL     1      -3.001   1.454  -3.814  1.00  0.00    -0.044 A   
ATOM     27  C15 UNL     1      -2.756   0.151  -4.256  1.00  0.00    -0.045 A   
ATOM     28  C18 UNL     1      -2.846   2.436  -4.934  1.00  0.00     0.036 C   
ATOM     29  C20 UNL     1      -2.388   0.141  -5.708  1.00  0.00     0.036 C   
ATOM     30  C19 UNL     1      -2.014   1.615  -5.932  1.00  0.00     0.010 C   
ENDBRANCH  21  22
ENDBRANCH  18  21
ENDBRANCH   1  15
BRANCH   1  31
ATOM     31  C21 UNL     1      -0.220  -0.161   4.336  1.00  0.00     0.043 C   
ATOM     32  C22 UNL     1      -1.480  -0.878   4.863  1.00  0.00     0.010 C   
ATOM     33  C26 UNL     1      -0.188   1.303   4.816  1.00  0.00     0.010 C   
ATOM     34  C23 UNL     1      -1.602  -0.769   6.382  1.00  0.00     0.001 C   
ATOM     35  C25 UNL     1      -0.329   1.400   6.333  1.00  0.00     0.001 C   
ATOM     36  C24 UNL     1      -1.579   0.686   6.833  1.00  0.00     0.000 C   
ENDBRANCH   1  31
TORSDOF 7
