REMARK SMILES COc1cccnc1CCn1cc([C@@H]([NH2+]Cc2ccc3c(c2)OCO3)C(C)(C)C)nn1
REMARK SMILES IDX 11 1 12 2 13 3 30 4 31 5 10 7 9 8 8 9 3 10 4 11 5 12 7 13
REMARK SMILES IDX 6 14 2 15 1 16 14 17 15 18 16 21 17 22 18 23 22 24 19 25
REMARK SMILES IDX 21 26 20 27 23 28 25 29 24 30 26 31 27 32 28 33 29 34
REMARK H PARENT 12 6 15 19 15 20
ROOT
ATOM     1   N2  UNL     1      -2.531   1.901   0.470  1.00  0.00    -0.212 N   
ATOM     2   C9  UNL     1      -2.158   2.460  -0.721  1.00  0.00     0.045 A   
ATOM     3   C10 UNL     1      -1.974   1.373  -1.547  1.00  0.00     0.127 A   
ATOM     4   N4  UNL     1      -2.305   0.228  -0.868  1.00  0.00    -0.132 NA  
ATOM     5   N5  UNL     1      -2.654   0.566   0.361  1.00  0.00    -0.076 NA  
ATOM     6   H11 UNL     1      -1.982   3.520  -0.835  1.00  0.00     0.083 HD  
ENDROOT
BRANCH   1   7
ATOM     7   C8  UNL     1      -2.692   2.559   1.750  1.00  0.00     0.140 C   
BRANCH   7   8
ATOM     8   C7  UNL     1      -1.374   3.090   2.308  1.00  0.00     0.080 C   
BRANCH   8   9
ATOM     9   C6  UNL     1      -0.363   2.001   2.594  1.00  0.00     0.072 A   
ATOM     10  C2  UNL     1      -0.481   1.197   3.738  1.00  0.00     0.096 A   
ATOM     11  C3  UNL     1       0.506   0.239   3.962  1.00  0.00     0.037 A   
ATOM     12  C4  UNL     1       1.566   0.116   3.066  1.00  0.00     0.023 A   
ATOM     13  N1  UNL     1       0.648   1.870   1.684  1.00  0.00    -0.259 NA  
ATOM     14  C5  UNL     1       1.597   0.949   1.961  1.00  0.00     0.111 A   
BRANCH  10  15
ATOM     15  O1  UNL     1      -1.558   1.431   4.546  1.00  0.00    -0.347 OA  
ATOM     16  C1  UNL     1      -1.682   0.634   5.720  1.00  0.00     0.203 C   
ENDBRANCH  10  15
ENDBRANCH   8   9
ENDBRANCH   7   8
ENDBRANCH   1   7
BRANCH   3  17
ATOM     17  C11 UNL     1      -1.336   1.265  -2.896  1.00  0.00     0.120 C   
BRANCH  17  18
ATOM     18  N3  UNL     1      -0.338   0.131  -2.842  1.00  0.00     0.250 N   
ATOM     19  H13 UNL     1      -0.018  -0.162  -3.766  1.00  0.00     0.199 HD  
ATOM     20  H14 UNL     1      -0.834  -0.673  -2.431  1.00  0.00     0.199 HD  
BRANCH  18  21
ATOM     21  C12 UNL     1       0.852   0.389  -1.979  1.00  0.00     0.164 C   
BRANCH  21  22
ATOM     22  C13 UNL     1       1.665  -0.865  -1.814  1.00  0.00    -0.002 A   
ATOM     23  C14 UNL     1       1.337  -1.790  -0.793  1.00  0.00     0.012 A   
ATOM     24  C18 UNL     1       2.713  -1.155  -2.702  1.00  0.00     0.045 A   
ATOM     25  C15 UNL     1       2.052  -2.984  -0.649  1.00  0.00     0.037 A   
ATOM     26  C17 UNL     1       3.396  -2.343  -2.534  1.00  0.00     0.109 A   
ATOM     27  C16 UNL     1       3.075  -3.232  -1.538  1.00  0.00     0.108 A   
ATOM     28  O2  UNL     1       4.425  -2.779  -3.309  1.00  0.00    -0.316 OA  
ATOM     29  O3  UNL     1       3.865  -4.338  -1.557  1.00  0.00    -0.316 OA  
ATOM     30  C19 UNL     1       4.733  -4.040  -2.671  1.00  0.00     0.337 C   
ENDBRANCH  21  22
ENDBRANCH  18  21
ENDBRANCH  17  18
BRANCH  17  31
ATOM     31  C20 UNL     1      -2.341   1.068  -4.080  1.00  0.00     0.010 C   
ATOM     32  C21 UNL     1      -3.138  -0.248  -3.982  1.00  0.00     0.017 C   
ATOM     33  C22 UNL     1      -1.590   1.075  -5.431  1.00  0.00     0.017 C   
ATOM     34  C23 UNL     1      -3.344   2.244  -4.114  1.00  0.00     0.017 C   
ENDBRANCH  17  31
ENDBRANCH   3  17
TORSDOF 9
