REMARK SMILES COc1c(Cn2cc([C@@H]([NH2+]Cc3ccc4c(c3)OCO4)C(C)(C)C)nn2)ccc(F)c1F
REMARK SMILES IDX 6 1 7 2 8 3 25 4 26 5 5 7 4 8 3 9 31 10 27 11 29 12 28 13
REMARK SMILES IDX 32 14 30 15 2 16 1 17 9 18 10 19 11 22 12 23 13 24 17 25
REMARK SMILES IDX 14 26 16 27 15 28 18 29 20 30 19 31 21 32 22 33 23 34 24 35
REMARK H PARENT 7 6 10 20 10 21
ROOT
ATOM     1   N1  UNL     1       1.208  -2.037   0.263  1.00  0.00    -0.208 N   
ATOM     2   C5  UNL     1       0.109  -1.243   0.089  1.00  0.00     0.046 A   
ATOM     3   C6  UNL     1       0.490  -0.357  -0.894  1.00  0.00     0.127 A   
ATOM     4   N3  UNL     1       1.770  -0.647  -1.290  1.00  0.00    -0.132 NA  
ATOM     5   N4  UNL     1       2.195  -1.681  -0.583  1.00  0.00    -0.076 NA  
ATOM     6   H6  UNL     1      -0.785  -1.354   0.687  1.00  0.00     0.083 HD  
ENDROOT
BRANCH   1   7
ATOM     7   C4  UNL     1       1.394  -3.120   1.214  1.00  0.00     0.172 C   
BRANCH   7   8
ATOM     8   C3  UNL     1       2.246  -2.680   2.385  1.00  0.00     0.005 A   
ATOM     9   C2  UNL     1       1.713  -1.886   3.424  1.00  0.00     0.118 A   
ATOM     10  C23 UNL     1       2.551  -1.484   4.471  1.00  0.00     0.189 A   
ATOM     11  C20 UNL     1       3.603  -3.056   2.424  1.00  0.00     0.011 A   
ATOM     12  C22 UNL     1       3.888  -1.870   4.493  1.00  0.00     0.161 A   
ATOM     13  C21 UNL     1       4.420  -2.654   3.479  1.00  0.00     0.043 A   
ATOM     14  F2  UNL     1       2.103  -0.703   5.464  1.00  0.00    -0.201 F   
ATOM     15  F1  UNL     1       4.682  -1.473   5.497  1.00  0.00    -0.204 F   
BRANCH   9  16
ATOM     16  O1  UNL     1       0.387  -1.556   3.286  1.00  0.00    -0.346 OA  
ATOM     17  C1  UNL     1      -0.263  -0.987   4.421  1.00  0.00     0.203 C   
ENDBRANCH   9  16
ENDBRANCH   7   8
ENDBRANCH   1   7
BRANCH   3  18
ATOM     18  C7  UNL     1      -0.206   0.846  -1.449  1.00  0.00     0.120 C   
BRANCH  18  19
ATOM     19  N2  UNL     1       0.785   1.990  -1.555  1.00  0.00     0.250 N   
ATOM     20  H8  UNL     1       0.377   2.782  -2.055  1.00  0.00     0.199 HD  
ATOM     21  H9  UNL     1       1.573   1.640  -2.117  1.00  0.00     0.199 HD  
BRANCH  19  22
ATOM     22  C8  UNL     1       1.367   2.490  -0.269  1.00  0.00     0.164 C   
BRANCH  22  23
ATOM     23  C9  UNL     1       0.336   3.051   0.670  1.00  0.00    -0.002 A   
ATOM     24  C10 UNL     1      -0.281   4.296   0.399  1.00  0.00     0.012 A   
ATOM     25  C14 UNL     1      -0.049   2.320   1.808  1.00  0.00     0.045 A   
ATOM     26  C11 UNL     1      -1.271   4.805   1.246  1.00  0.00     0.037 A   
ATOM     27  C13 UNL     1      -1.031   2.849   2.619  1.00  0.00     0.109 A   
ATOM     28  C12 UNL     1      -1.625   4.056   2.346  1.00  0.00     0.108 A   
ATOM     29  O2  UNL     1      -1.527   2.268   3.744  1.00  0.00    -0.316 OA  
ATOM     30  O3  UNL     1      -2.566   4.391   3.267  1.00  0.00    -0.316 OA  
ATOM     31  C15 UNL     1      -2.474   3.273   4.176  1.00  0.00     0.337 C   
ENDBRANCH  22  23
ENDBRANCH  19  22
ENDBRANCH  18  19
BRANCH  18  32
ATOM     32  C16 UNL     1      -0.912   0.602  -2.830  1.00  0.00     0.010 C   
ATOM     33  C17 UNL     1      -1.918  -0.565  -2.709  1.00  0.00     0.017 C   
ATOM     34  C18 UNL     1       0.078   0.271  -3.964  1.00  0.00     0.017 C   
ATOM     35  C19 UNL     1      -1.721   1.853  -3.248  1.00  0.00     0.017 C   
ENDBRANCH  18  32
ENDBRANCH   3  18
TORSDOF 8
