REMARK SMILES CC(C)C[C@H]([NH2+]Cc1ccc2c(c1)OCO2)c1cn(Cc2cc(-c3ccccc3)n[nH]2)nn1
REMARK SMILES IDX 17 1 18 2 19 3 32 4 33 5 5 7 4 8 2 9 1 10 3 11 6 12 7 15
REMARK SMILES IDX 8 16 9 17 13 18 10 19 12 20 11 21 14 22 16 23 15 24 20 25
REMARK SMILES IDX 21 26 22 27 31 28 23 29 30 30 24 32 25 33 29 34 26 35 28 36
REMARK SMILES IDX 27 37
REMARK H PARENT 18 6 6 13 6 14 31 31
ROOT
ATOM     1   C14 UNL     1       1.761  -1.085   1.452  1.00  0.00     0.127 A   
ATOM     2   C15 UNL     1       1.471  -2.039   0.503  1.00  0.00     0.046 A   
ATOM     3   N2  UNL     1       0.837  -3.025   1.210  1.00  0.00    -0.206 N   
ATOM     4   N5  UNL     1       0.784  -2.716   2.522  1.00  0.00    -0.076 NA  
ATOM     5   N6  UNL     1       1.363  -1.537   2.684  1.00  0.00    -0.132 NA  
ATOM     6   H20 UNL     1       1.571  -2.072  -0.573  1.00  0.00     0.083 HD  
ENDROOT
BRANCH   1   7
ATOM     7   C5  UNL     1       2.298   0.300   1.302  1.00  0.00     0.114 C   
BRANCH   7   8
ATOM     8   C4  UNL     1       3.781   0.369   1.727  1.00  0.00     0.064 C   
BRANCH   8   9
ATOM     9   C2  UNL     1       4.670   1.389   0.979  1.00  0.00    -0.012 C   
ATOM     10  C1  UNL     1       4.206   2.835   1.120  1.00  0.00     0.007 C   
ATOM     11  C3  UNL     1       4.839   1.026  -0.499  1.00  0.00     0.007 C   
ENDBRANCH   8   9
ENDBRANCH   7   8
BRANCH   7  12
ATOM     12  N1  UNL     1       1.504   1.264   2.160  1.00  0.00     0.249 N   
ATOM     13  H11 UNL     1       1.575   0.919   3.127  1.00  0.00     0.199 HD  
ATOM     14  H12 UNL     1       1.928   2.193   2.142  1.00  0.00     0.199 HD  
BRANCH  12  15
ATOM     15  C6  UNL     1       0.042   1.391   1.857  1.00  0.00     0.164 C   
BRANCH  15  16
ATOM     16  C7  UNL     1      -0.258   1.797   0.442  1.00  0.00    -0.002 A   
ATOM     17  C8  UNL     1      -0.989   0.927  -0.403  1.00  0.00     0.012 A   
ATOM     18  C12 UNL     1       0.177   3.036  -0.058  1.00  0.00     0.045 A   
ATOM     19  C9  UNL     1      -1.269   1.274  -1.730  1.00  0.00     0.037 A   
ATOM     20  C11 UNL     1      -0.110   3.345  -1.371  1.00  0.00     0.109 A   
ATOM     21  C10 UNL     1      -0.810   2.489  -2.185  1.00  0.00     0.108 A   
ATOM     22  O1  UNL     1       0.248   4.491  -2.007  1.00  0.00    -0.316 OA  
ATOM     23  O2  UNL     1      -0.984   2.989  -3.436  1.00  0.00    -0.316 OA  
ATOM     24  C13 UNL     1      -0.338   4.274  -3.312  1.00  0.00     0.337 C   
ENDBRANCH  15  16
ENDBRANCH  12  15
ENDBRANCH   7  12
ENDBRANCH   1   7
BRANCH   3  25
ATOM     25  C16 UNL     1       0.033  -4.117   0.677  1.00  0.00     0.186 C   
BRANCH  25  26
ATOM     26  C17 UNL     1      -1.276  -3.562   0.241  1.00  0.00     0.047 A   
ATOM     27  C18 UNL     1      -1.826  -3.330  -1.000  1.00  0.00     0.053 A   
ATOM     28  N4  UNL     1      -2.195  -3.093   1.137  1.00  0.00    -0.240 N   
ATOM     29  C19 UNL     1      -3.034  -2.614  -0.762  1.00  0.00     0.090 A   
ATOM     30  N3  UNL     1      -3.206  -2.436   0.560  1.00  0.00    -0.184 NA  
ATOM     31  H29 UNL     1      -2.157  -3.121   2.153  1.00  0.00     0.175 HD  
BRANCH  29  32
ATOM     32  C20 UNL     1      -3.977  -2.060  -1.743  1.00  0.00     0.002 A   
ATOM     33  C21 UNL     1      -3.746  -2.173  -3.123  1.00  0.00     0.010 A   
ATOM     34  C25 UNL     1      -5.133  -1.388  -1.314  1.00  0.00     0.010 A   
ATOM     35  C22 UNL     1      -4.644  -1.625  -4.045  1.00  0.00     0.001 A   
ATOM     36  C24 UNL     1      -6.030  -0.842  -2.236  1.00  0.00     0.001 A   
ATOM     37  C23 UNL     1      -5.784  -0.959  -3.601  1.00  0.00     0.000 A   
ENDBRANCH  29  32
ENDBRANCH  25  26
ENDBRANCH   3  25
TORSDOF 9
