REMARK SMILES COc1ccc([C@@H](CO)n2cc([C@@H]([NH2+]Cc3ccc4c(c3)OCO4)C3CCCCC3)nn2)cc1
REMARK SMILES IDX 10 1 11 2 12 3 31 4 32 5 7 7 6 8 3 9 4 10 34 11 5 12 33 13
REMARK SMILES IDX 2 14 1 15 8 16 9 17 13 19 14 20 15 23 16 24 17 25 21 26
REMARK SMILES IDX 18 27 20 28 19 29 22 30 24 31 23 32 25 33 26 34 30 35 27 36
REMARK SMILES IDX 29 37 28 38
REMARK H PARENT 11 6 9 18 14 21 14 22
ROOT
ATOM     1   N1  UNL     1       1.133  -2.620  -0.821  1.00  0.00    -0.202 N   
ATOM     2   C8  UNL     1       1.115  -1.373  -0.252  1.00  0.00     0.046 A   
ATOM     3   C9  UNL     1      -0.217  -1.133  -0.000  1.00  0.00     0.127 A   
ATOM     4   N3  UNL     1      -0.955  -2.200  -0.444  1.00  0.00    -0.132 NA  
ATOM     5   N4  UNL     1      -0.127  -3.084  -0.970  1.00  0.00    -0.075 NA  
ATOM     6   H10 UNL     1       2.016  -0.795  -0.092  1.00  0.00     0.083 HD  
ENDROOT
BRANCH   1   7
ATOM     7   C6  UNL     1       2.273  -3.408  -1.295  1.00  0.00     0.155 C   
BRANCH   7   8
ATOM     8   C5  UNL     1       2.928  -2.709  -2.480  1.00  0.00    -0.023 A   
ATOM     9   C2  UNL     1       4.086  -1.459  -4.733  1.00  0.00     0.075 A   
ATOM     10  C3  UNL     1       3.043  -2.369  -4.896  1.00  0.00     0.034 A   
ATOM     11  C26 UNL     1       4.529  -1.154  -3.446  1.00  0.00     0.034 A   
ATOM     12  C4  UNL     1       2.469  -2.986  -3.780  1.00  0.00     0.008 A   
ATOM     13  C25 UNL     1       3.964  -1.774  -2.328  1.00  0.00     0.008 A   
BRANCH   9  14
ATOM     14  O1  UNL     1       4.731  -0.793  -5.737  1.00  0.00    -0.349 OA  
ATOM     15  C1  UNL     1       4.593  -1.335  -7.045  1.00  0.00     0.203 C   
ENDBRANCH   9  14
ENDBRANCH   7   8
BRANCH   7  16
ATOM     16  C7  UNL     1       3.243  -3.758  -0.149  1.00  0.00     0.185 C   
BRANCH  16  17
ATOM     17  O2  UNL     1       2.631  -4.658   0.774  1.00  0.00    -0.394 OA  
ATOM     18  H9  UNL     1       3.326  -4.984   1.377  1.00  0.00     0.210 HD  
ENDBRANCH  16  17
ENDBRANCH   7  16
ENDBRANCH   1   7
BRANCH   3  19
ATOM     19  C10 UNL     1      -0.927   0.050   0.576  1.00  0.00     0.117 C   
BRANCH  19  20
ATOM     20  N2  UNL     1      -2.354   0.075   0.064  1.00  0.00     0.249 N   
ATOM     21  H12 UNL     1      -2.679  -0.903   0.097  1.00  0.00     0.199 HD  
ATOM     22  H13 UNL     1      -2.958   0.616   0.689  1.00  0.00     0.199 HD  
BRANCH  20  23
ATOM     23  C11 UNL     1      -2.536   0.546  -1.339  1.00  0.00     0.164 C   
BRANCH  23  24
ATOM     24  C12 UNL     1      -2.454   2.043  -1.454  1.00  0.00    -0.002 A   
ATOM     25  C13 UNL     1      -1.325   2.659  -2.046  1.00  0.00     0.012 A   
ATOM     26  C17 UNL     1      -3.498   2.845  -0.954  1.00  0.00     0.045 A   
ATOM     27  C14 UNL     1      -1.232   4.053  -2.136  1.00  0.00     0.037 A   
ATOM     28  C16 UNL     1      -3.375   4.214  -1.064  1.00  0.00     0.109 A   
ATOM     29  C15 UNL     1      -2.274   4.802  -1.637  1.00  0.00     0.108 A   
ATOM     30  O3  UNL     1      -4.289   5.125  -0.638  1.00  0.00    -0.316 OA  
ATOM     31  O4  UNL     1      -2.357   6.158  -1.644  1.00  0.00    -0.316 OA  
ATOM     32  C18 UNL     1      -3.672   6.355  -1.084  1.00  0.00     0.337 C   
ENDBRANCH  23  24
ENDBRANCH  20  23
ENDBRANCH  19  20
BRANCH  19  33
ATOM     33  C19 UNL     1      -0.971   0.086   2.128  1.00  0.00     0.043 C   
ATOM     34  C20 UNL     1       0.429   0.294   2.736  1.00  0.00     0.010 C   
ATOM     35  C24 UNL     1      -1.653  -1.138   2.769  1.00  0.00     0.010 C   
ATOM     36  C21 UNL     1       0.371   0.414   4.258  1.00  0.00     0.001 C   
ATOM     37  C23 UNL     1      -1.702  -1.020   4.293  1.00  0.00     0.001 C   
ATOM     38  C22 UNL     1      -0.317  -0.791   4.889  1.00  0.00     0.000 C   
ENDBRANCH  19  33
ENDBRANCH   3  19
TORSDOF 10
