REMARK SMILES CC(C)C[C@H]([NH2+]Cc1ccc2c(c1)OCO2)c1cn(CCc2ncc[nH]2)nn1
REMARK SMILES IDX 17 1 18 2 19 3 27 4 28 5 5 7 4 8 2 9 1 10 3 11 6 12 7 15
REMARK SMILES IDX 8 16 9 17 13 18 10 19 12 20 11 21 14 22 16 23 15 24 20 25
REMARK SMILES IDX 21 26 22 27 23 28 26 29 24 30 25 31
REMARK H PARENT 18 6 6 13 6 14 26 32
ROOT
ATOM     1   C14 UNL     1       0.795   0.038   1.410  1.00  0.00     0.127 A   
ATOM     2   C15 UNL     1      -0.538  -0.090   1.722  1.00  0.00     0.045 A   
ATOM     3   N2  UNL     1      -0.795   0.994   2.509  1.00  0.00    -0.212 N   
ATOM     4   N5  UNL     1       0.322   1.717   2.719  1.00  0.00    -0.076 NA  
ATOM     5   N6  UNL     1       1.305   1.143   2.043  1.00  0.00    -0.132 NA  
ATOM     6   H20 UNL     1      -1.313  -0.781   1.419  1.00  0.00     0.083 HD  
ENDROOT
BRANCH   1   7
ATOM     7   C5  UNL     1       1.654  -0.734   0.471  1.00  0.00     0.114 C   
BRANCH   7   8
ATOM     8   C4  UNL     1       2.662  -1.644   1.199  1.00  0.00     0.064 C   
BRANCH   8   9
ATOM     9   C2  UNL     1       2.033  -2.761   2.059  1.00  0.00    -0.012 C   
ATOM     10  C1  UNL     1       3.137  -3.542   2.778  1.00  0.00     0.007 C   
ATOM     11  C3  UNL     1       1.178  -3.722   1.232  1.00  0.00     0.007 C   
ENDBRANCH   8   9
ENDBRANCH   7   8
BRANCH   7  12
ATOM     12  N1  UNL     1       2.463   0.225  -0.382  1.00  0.00     0.249 N   
ATOM     13  H11 UNL     1       2.936   0.859   0.277  1.00  0.00     0.199 HD  
ATOM     14  H12 UNL     1       3.185  -0.285  -0.896  1.00  0.00     0.199 HD  
BRANCH  12  15
ATOM     15  C6  UNL     1       1.684   1.075  -1.332  1.00  0.00     0.164 C   
BRANCH  15  16
ATOM     16  C7  UNL     1       1.050   0.283  -2.441  1.00  0.00    -0.002 A   
ATOM     17  C8  UNL     1       1.834  -0.224  -3.505  1.00  0.00     0.012 A   
ATOM     18  C12 UNL     1      -0.329   0.013  -2.409  1.00  0.00     0.045 A   
ATOM     19  C9  UNL     1       1.255  -0.991  -4.521  1.00  0.00     0.037 A   
ATOM     20  C11 UNL     1      -0.869  -0.746  -3.426  1.00  0.00     0.109 A   
ATOM     21  C10 UNL     1      -0.099  -1.235  -4.452  1.00  0.00     0.108 A   
ATOM     22  O1  UNL     1      -2.176  -1.099  -3.543  1.00  0.00    -0.316 OA  
ATOM     23  O2  UNL     1      -0.824  -1.957  -5.345  1.00  0.00    -0.316 OA  
ATOM     24  C13 UNL     1      -2.147  -1.850  -4.778  1.00  0.00     0.337 C   
ENDBRANCH  15  16
ENDBRANCH  12  15
ENDBRANCH   7  12
ENDBRANCH   1   7
BRANCH   3  25
ATOM     25  C16 UNL     1      -2.058   1.407   3.085  1.00  0.00     0.142 C   
BRANCH  25  26
ATOM     26  C17 UNL     1      -2.673   2.614   2.378  1.00  0.00     0.094 C   
BRANCH  26  27
ATOM     27  C18 UNL     1      -3.272   2.263   1.054  1.00  0.00     0.099 A   
ATOM     28  N3  UNL     1      -2.845   1.355   0.199  1.00  0.00    -0.244 NA  
ATOM     29  N4  UNL     1      -4.391   2.898   0.568  1.00  0.00    -0.308 N   
ATOM     30  C19 UNL     1      -3.733   1.383  -0.848  1.00  0.00     0.128 A   
ATOM     31  C20 UNL     1      -4.696   2.338  -0.640  1.00  0.00     0.093 A   
ATOM     32  H27 UNL     1      -4.904   3.639   1.030  1.00  0.00     0.153 HD  
ENDBRANCH  26  27
ENDBRANCH  25  26
ENDBRANCH   3  25
TORSDOF 9
