REMARK SMILES Cc1ccc([C@@H](O)Cn2cc([C@@H]([NH2+]Cc3ccc4c(c3)OCO4)C3CCCCC3)nn2)cc1
REMARK SMILES IDX 9 1 10 2 11 3 30 4 31 5 8 7 6 8 5 9 2 10 3 11 33 12 4 13
REMARK SMILES IDX 32 14 1 15 7 16 12 18 13 19 14 22 15 23 16 24 20 25 17 26
REMARK SMILES IDX 19 27 18 28 21 29 23 30 22 31 24 32 25 33 29 34 26 35 28 36
REMARK SMILES IDX 27 37
REMARK H PARENT 10 6 7 17 13 20 13 21
ROOT
ATOM     1   N1  UNL     1      -0.745  -0.039  -2.863  1.00  0.00    -0.209 N   
ATOM     2   C8  UNL     1      -0.955  -1.276  -2.316  1.00  0.00     0.045 A   
ATOM     3   C9  UNL     1      -0.017  -1.358  -1.311  1.00  0.00     0.127 A   
ATOM     4   N3  UNL     1       0.728  -0.206  -1.298  1.00  0.00    -0.132 NA  
ATOM     5   N4  UNL     1       0.288   0.579  -2.267  1.00  0.00    -0.076 NA  
ATOM     6   H10 UNL     1      -1.725  -1.945  -2.674  1.00  0.00     0.083 HD  
ENDROOT
BRANCH   1   7
ATOM     7   C7  UNL     1      -1.445   0.581  -3.966  1.00  0.00     0.170 C   
BRANCH   7   8
ATOM     8   C6  UNL     1      -2.720   1.310  -3.529  1.00  0.00     0.164 C   
BRANCH   8   9
ATOM     9   C5  UNL     1      -2.472   2.593  -2.765  1.00  0.00    -0.018 A   
ATOM     10  C2  UNL     1      -2.004   4.973  -1.326  1.00  0.00    -0.051 A   
ATOM     11  C3  UNL     1      -1.622   4.870  -2.667  1.00  0.00     0.004 A   
ATOM     12  C26 UNL     1      -2.643   3.889  -0.716  1.00  0.00     0.004 A   
ATOM     13  C4  UNL     1      -1.850   3.690  -3.379  1.00  0.00     0.007 A   
ATOM     14  C25 UNL     1      -2.872   2.708  -1.427  1.00  0.00     0.007 A   
ATOM     15  C1  UNL     1      -1.787   6.253  -0.572  1.00  0.00     0.044 C   
ENDBRANCH   8   9
BRANCH   8  16
ATOM     16  O1  UNL     1      -3.508   1.591  -4.689  1.00  0.00    -0.387 OA  
ATOM     17  H7  UNL     1      -4.050   2.379  -4.495  1.00  0.00     0.211 HD  
ENDBRANCH   8  16
ENDBRANCH   7   8
ENDBRANCH   1   7
BRANCH   3  18
ATOM     18  C10 UNL     1       0.291  -2.439  -0.322  1.00  0.00     0.117 C   
BRANCH  18  19
ATOM     19  N2  UNL     1       1.656  -2.221   0.275  1.00  0.00     0.249 N   
ATOM     20  H12 UNL     1       1.757  -2.649   1.200  1.00  0.00     0.199 HD  
ATOM     21  H13 UNL     1       1.750  -1.204   0.419  1.00  0.00     0.199 HD  
BRANCH  19  22
ATOM     22  C11 UNL     1       2.800  -2.640  -0.581  1.00  0.00     0.164 C   
BRANCH  22  23
ATOM     23  C12 UNL     1       4.099  -2.227   0.049  1.00  0.00    -0.002 A   
ATOM     24  C13 UNL     1       4.811  -3.121   0.884  1.00  0.00     0.012 A   
ATOM     25  C17 UNL     1       4.583  -0.920  -0.141  1.00  0.00     0.045 A   
ATOM     26  C14 UNL     1       5.995  -2.724   1.516  1.00  0.00     0.037 A   
ATOM     27  C16 UNL     1       5.753  -0.562   0.496  1.00  0.00     0.109 A   
ATOM     28  C15 UNL     1       6.439  -1.438   1.302  1.00  0.00     0.108 A   
ATOM     29  O2  UNL     1       6.353   0.654   0.421  1.00  0.00    -0.316 OA  
ATOM     30  O3  UNL     1       7.559  -0.883   1.835  1.00  0.00    -0.316 OA  
ATOM     31  C18 UNL     1       7.510   0.442   1.262  1.00  0.00     0.337 C   
ENDBRANCH  22  23
ENDBRANCH  19  22
ENDBRANCH  18  19
BRANCH  18  32
ATOM     32  C19 UNL     1      -0.781  -2.526   0.798  1.00  0.00     0.043 C   
ATOM     33  C20 UNL     1      -0.659  -3.835   1.602  1.00  0.00     0.010 C   
ATOM     34  C24 UNL     1      -0.791  -1.311   1.748  1.00  0.00     0.010 C   
ATOM     35  C21 UNL     1      -1.755  -3.949   2.660  1.00  0.00     0.001 C   
ATOM     36  C23 UNL     1      -1.885  -1.435   2.808  1.00  0.00     0.001 C   
ATOM     37  C22 UNL     1      -1.768  -2.740   3.588  1.00  0.00     0.000 C   
ENDBRANCH  18  32
ENDBRANCH   3  18
TORSDOF 9
