REMARK SMILES Cc1ccc([C@H](O)Cn2cc([C@@H]([NH2+]Cc3ccc4c(c3)OCO4)C3CCCCC3)nn2)cc1
REMARK SMILES IDX 9 1 10 2 11 3 30 4 31 5 8 7 6 8 5 9 2 10 3 11 33 12 4 13
REMARK SMILES IDX 32 14 1 15 7 16 12 18 13 19 14 22 15 23 16 24 20 25 17 26
REMARK SMILES IDX 19 27 18 28 21 29 23 30 22 31 24 32 25 33 29 34 26 35 28 36
REMARK SMILES IDX 27 37
REMARK H PARENT 10 6 7 17 13 20 13 21
ROOT
ATOM     1   N1  UNL     1       2.116   0.326  -1.620  1.00  0.00    -0.209 N   
ATOM     2   C8  UNL     1       1.258  -0.686  -1.292  1.00  0.00     0.045 A   
ATOM     3   C9  UNL     1       0.464  -0.140  -0.308  1.00  0.00     0.127 A   
ATOM     4   N3  UNL     1       0.897   1.132  -0.035  1.00  0.00    -0.132 NA  
ATOM     5   N4  UNL     1       1.917   1.400  -0.835  1.00  0.00    -0.076 NA  
ATOM     6   H10 UNL     1       1.268  -1.641  -1.798  1.00  0.00     0.083 HD  
ENDROOT
BRANCH   1   7
ATOM     7   C7  UNL     1       3.126   0.339  -2.653  1.00  0.00     0.170 C   
BRANCH   7   8
ATOM     8   C6  UNL     1       2.693   1.113  -3.902  1.00  0.00     0.164 C   
BRANCH   8   9
ATOM     9   C5  UNL     1       1.451   0.542  -4.555  1.00  0.00    -0.018 A   
ATOM     10  C2  UNL     1      -0.893  -0.534  -5.698  1.00  0.00    -0.051 A   
ATOM     11  C3  UNL     1       0.312  -1.242  -5.753  1.00  0.00     0.004 A   
ATOM     12  C26 UNL     1      -0.913   0.726  -5.092  1.00  0.00     0.004 A   
ATOM     13  C4  UNL     1       1.473  -0.711  -5.186  1.00  0.00     0.007 A   
ATOM     14  C25 UNL     1       0.245   1.257  -4.519  1.00  0.00     0.007 A   
ATOM     15  C1  UNL     1      -2.127  -1.089  -6.347  1.00  0.00     0.044 C   
ENDBRANCH   8   9
BRANCH   8  16
ATOM     16  O1  UNL     1       3.768   1.095  -4.845  1.00  0.00    -0.387 OA  
ATOM     17  H7  UNL     1       3.402   1.373  -5.706  1.00  0.00     0.211 HD  
ENDBRANCH   8  16
ENDBRANCH   7   8
ENDBRANCH   1   7
BRANCH   3  18
ATOM     18  C10 UNL     1      -0.673  -0.717   0.474  1.00  0.00     0.117 C   
BRANCH  18  19
ATOM     19  N2  UNL     1      -0.521  -0.295   1.918  1.00  0.00     0.249 N   
ATOM     20  H12 UNL     1      -1.377  -0.436   2.460  1.00  0.00     0.199 HD  
ATOM     21  H13 UNL     1      -0.351   0.723   1.911  1.00  0.00     0.199 HD  
BRANCH  19  22
ATOM     22  C11 UNL     1       0.609  -0.927   2.655  1.00  0.00     0.164 C   
BRANCH  22  23
ATOM     23  C12 UNL     1       0.641  -0.445   4.078  1.00  0.00    -0.002 A   
ATOM     24  C13 UNL     1      -0.016  -1.175   5.098  1.00  0.00     0.012 A   
ATOM     25  C17 UNL     1       1.280   0.767   4.394  1.00  0.00     0.045 A   
ATOM     26  C14 UNL     1      -0.028  -0.711   6.418  1.00  0.00     0.037 A   
ATOM     27  C16 UNL     1       1.249   1.195   5.705  1.00  0.00     0.109 A   
ATOM     28  C15 UNL     1       0.614   0.477   6.688  1.00  0.00     0.108 A   
ATOM     29  O2  UNL     1       1.814   2.336   6.177  1.00  0.00    -0.316 OA  
ATOM     30  O3  UNL     1       0.701   1.075   7.904  1.00  0.00    -0.316 OA  
ATOM     31  C18 UNL     1       1.484   2.245   7.582  1.00  0.00     0.337 C   
ENDBRANCH  22  23
ENDBRANCH  19  22
ENDBRANCH  18  19
BRANCH  18  32
ATOM     32  C19 UNL     1      -2.066  -0.240  -0.043  1.00  0.00     0.043 C   
ATOM     33  C20 UNL     1      -2.262  -0.464  -1.560  1.00  0.00     0.010 C   
ATOM     34  C24 UNL     1      -3.256  -0.906   0.685  1.00  0.00     0.010 C   
ATOM     35  C21 UNL     1      -2.384  -1.940  -1.929  1.00  0.00     0.001 C   
ATOM     36  C23 UNL     1      -3.409  -2.388   0.343  1.00  0.00     0.001 C   
ATOM     37  C22 UNL     1      -3.518  -2.613  -1.163  1.00  0.00     0.000 C   
ENDBRANCH  18  32
ENDBRANCH   3  18
TORSDOF 9
