REMARK SMILES CC(C)[C@H]([NH2+]Cc1ccc2c(c1)OCO2)c1cn(CCOc2ccccc2)nn1
REMARK SMILES IDX 16 1 17 2 18 3 28 4 29 5 4 7 2 8 1 9 3 10 5 11 6 14 7 15
REMARK SMILES IDX 8 16 12 17 9 18 11 19 10 20 13 21 15 22 14 23 19 24 20 25
REMARK SMILES IDX 21 26 22 27 23 28 27 29 24 30 26 31 25 32
REMARK H PARENT 17 6 5 12 5 13
ROOT
ATOM     1   C13 UNL     1       2.414  -0.381  -1.014  1.00  0.00     0.127 A   
ATOM     2   C14 UNL     1       2.454  -0.387   0.362  1.00  0.00     0.045 A   
ATOM     3   N2  UNL     1       2.798   0.894   0.686  1.00  0.00    -0.210 N   
ATOM     4   N3  UNL     1       2.975   1.642  -0.418  1.00  0.00    -0.076 NA  
ATOM     5   N4  UNL     1       2.744   0.871  -1.468  1.00  0.00    -0.132 NA  
ATOM     6   H18 UNL     1       2.234  -1.136   1.111  1.00  0.00     0.083 HD  
ENDROOT
BRANCH   1   7
ATOM     7   C4  UNL     1       1.988  -1.431  -1.985  1.00  0.00     0.117 C   
BRANCH   7   8
ATOM     8   C2  UNL     1       3.159  -2.231  -2.616  1.00  0.00     0.037 C   
ATOM     9   C1  UNL     1       3.905  -3.056  -1.561  1.00  0.00     0.014 C   
ATOM     10  C3  UNL     1       4.159  -1.381  -3.407  1.00  0.00     0.014 C   
ENDBRANCH   7   8
BRANCH   7  11
ATOM     11  N1  UNL     1       1.173  -0.809  -3.101  1.00  0.00     0.249 N   
ATOM     12  H9  UNL     1       1.037  -1.486  -3.857  1.00  0.00     0.199 HD  
ATOM     13  H10 UNL     1       1.738  -0.034  -3.474  1.00  0.00     0.199 HD  
BRANCH  11  14
ATOM     14  C5  UNL     1      -0.149  -0.228  -2.713  1.00  0.00     0.164 C   
BRANCH  14  15
ATOM     15  C6  UNL     1      -1.119  -1.253  -2.196  1.00  0.00    -0.002 A   
ATOM     16  C7  UNL     1      -1.724  -2.180  -3.078  1.00  0.00     0.012 A   
ATOM     17  C11 UNL     1      -1.408  -1.314  -0.821  1.00  0.00     0.045 A   
ATOM     18  C8  UNL     1      -2.599  -3.161  -2.597  1.00  0.00     0.037 A   
ATOM     19  C10 UNL     1      -2.272  -2.295  -0.380  1.00  0.00     0.109 A   
ATOM     20  C9  UNL     1      -2.850  -3.193  -1.243  1.00  0.00     0.108 A   
ATOM     21  O1  UNL     1      -2.646  -2.501   0.910  1.00  0.00    -0.316 OA  
ATOM     22  O2  UNL     1      -3.664  -4.074  -0.606  1.00  0.00    -0.316 OA  
ATOM     23  C12 UNL     1      -3.558  -3.612   0.757  1.00  0.00     0.337 C   
ENDBRANCH  14  15
ENDBRANCH  11  14
ENDBRANCH   7  11
ENDBRANCH   1   7
BRANCH   3  24
ATOM     24  C15 UNL     1       2.875   1.492   2.005  1.00  0.00     0.163 C   
BRANCH  24  25
ATOM     25  C16 UNL     1       1.554   2.153   2.380  1.00  0.00     0.189 C   
BRANCH  25  26
ATOM     26  O3  UNL     1       0.575   1.122   2.557  1.00  0.00    -0.344 OA  
BRANCH  26  27
ATOM     27  C17 UNL     1      -0.721   1.517   2.738  1.00  0.00     0.075 A   
ATOM     28  C18 UNL     1      -1.169   2.832   2.867  1.00  0.00     0.033 A   
ATOM     29  C22 UNL     1      -1.647   0.471   2.794  1.00  0.00     0.033 A   
ATOM     30  C19 UNL     1      -2.532   3.095   3.036  1.00  0.00     0.003 A   
ATOM     31  C21 UNL     1      -3.007   0.733   2.960  1.00  0.00     0.003 A   
ATOM     32  C20 UNL     1      -3.450   2.047   3.079  1.00  0.00     0.000 A   
ENDBRANCH  26  27
ENDBRANCH  25  26
ENDBRANCH  24  25
ENDBRANCH   3  24
TORSDOF 9
