REMARK SMILES CC(C)(C)[C@H]([NH2+]Cc1ccc2c(c1)OCO2)c1cn(CCc2cccc3cn[nH]c23)nn1
REMARK SMILES IDX 17 1 18 2 19 3 31 4 32 5 5 7 2 8 1 9 3 10 4 11 6 12 7 15
REMARK SMILES IDX 8 16 9 17 13 18 10 19 12 20 11 21 14 22 16 23 15 24 20 25
REMARK SMILES IDX 21 26 22 27 23 28 30 29 24 30 26 31 29 32 25 33 27 34 28 35
REMARK H PARENT 18 6 6 13 6 14 29 36
ROOT
ATOM     1   C14 UNL     1      -0.040   1.984  -1.255  1.00  0.00     0.127 A   
ATOM     2   C15 UNL     1      -1.139   1.821  -2.075  1.00  0.00     0.045 A   
ATOM     3   N2  UNL     1      -2.097   2.636  -1.537  1.00  0.00    -0.212 N   
ATOM     4   N5  UNL     1      -1.618   3.290  -0.464  1.00  0.00    -0.076 NA  
ATOM     5   N6  UNL     1      -0.361   2.916  -0.293  1.00  0.00    -0.132 NA  
ATOM     6   H20 UNL     1      -1.359   1.180  -2.917  1.00  0.00     0.083 HD  
ENDROOT
BRANCH   1   7
ATOM     7   C5  UNL     1       1.303   1.303  -1.158  1.00  0.00     0.120 C   
BRANCH   7   8
ATOM     8   C2  UNL     1       1.762   0.396  -2.355  1.00  0.00     0.010 C   
ATOM     9   C1  UNL     1       3.252   0.003  -2.168  1.00  0.00     0.017 C   
ATOM     10  C3  UNL     1       0.946  -0.907  -2.475  1.00  0.00     0.017 C   
ATOM     11  C4  UNL     1       1.692   1.168  -3.692  1.00  0.00     0.017 C   
ENDBRANCH   7   8
BRANCH   7  12
ATOM     12  N1  UNL     1       1.396   0.532   0.144  1.00  0.00     0.250 N   
ATOM     13  H11 UNL     1       0.456   0.157   0.399  1.00  0.00     0.199 HD  
ATOM     14  H12 UNL     1       1.974  -0.305   0.059  1.00  0.00     0.199 HD  
BRANCH  12  15
ATOM     15  C6  UNL     1       1.873   1.300   1.327  1.00  0.00     0.164 C   
BRANCH  15  16
ATOM     16  C7  UNL     1       2.272   0.366   2.440  1.00  0.00    -0.002 A   
ATOM     17  C8  UNL     1       1.345   0.016   3.449  1.00  0.00     0.012 A   
ATOM     18  C12 UNL     1       3.554  -0.214   2.447  1.00  0.00     0.045 A   
ATOM     19  C9  UNL     1       1.685  -0.893   4.457  1.00  0.00     0.037 A   
ATOM     20  C11 UNL     1       3.856  -1.111   3.450  1.00  0.00     0.109 A   
ATOM     21  C10 UNL     1       2.947  -1.442   4.427  1.00  0.00     0.108 A   
ATOM     22  O1  UNL     1       5.036  -1.772   3.592  1.00  0.00    -0.316 OA  
ATOM     23  O2  UNL     1       3.443  -2.346   5.312  1.00  0.00    -0.316 OA  
ATOM     24  C13 UNL     1       4.772  -2.548   4.785  1.00  0.00     0.337 C   
ENDBRANCH  15  16
ENDBRANCH  12  15
ENDBRANCH   7  12
ENDBRANCH   1   7
BRANCH   3  25
ATOM     25  C16 UNL     1      -3.513   2.682  -1.851  1.00  0.00     0.139 C   
BRANCH  25  26
ATOM     26  C17 UNL     1      -4.391   2.031  -0.769  1.00  0.00     0.059 C   
BRANCH  26  27
ATOM     27  C18 UNL     1      -4.183   0.537  -0.655  1.00  0.00    -0.023 A   
ATOM     28  C19 UNL     1      -5.060  -0.359  -1.292  1.00  0.00     0.006 A   
ATOM     29  C24 UNL     1      -3.106  -0.055   0.030  1.00  0.00     0.059 A   
ATOM     30  C20 UNL     1      -4.866  -1.742  -1.241  1.00  0.00     0.001 A   
ATOM     31  C22 UNL     1      -2.858  -1.422   0.049  1.00  0.00     0.017 A   
ATOM     32  N4  UNL     1      -2.102   0.493   0.790  1.00  0.00    -0.238 N   
ATOM     33  C21 UNL     1      -3.764  -2.291  -0.577  1.00  0.00     0.012 A   
ATOM     34  C23 UNL     1      -1.629  -1.553   0.736  1.00  0.00     0.141 A   
ATOM     35  N3  UNL     1      -1.088  -0.369   1.059  1.00  0.00    -0.192 NA  
ATOM     36  H29 UNL     1      -1.993   1.476   1.030  1.00  0.00     0.176 HD  
ENDBRANCH  26  27
ENDBRANCH  25  26
ENDBRANCH   3  25
TORSDOF 8
