REMARK SMILES Cc1ccc([C@@H](CO)n2cc([C@@H]([NH2+]Cc3ccc4c(c3)OCO4)C(C)C)nn2)s1
REMARK SMILES IDX 9 1 10 2 11 3 27 4 28 5 6 7 5 8 2 9 3 10 29 11 4 12 1 13
REMARK SMILES IDX 7 14 8 15 12 17 13 18 14 21 15 22 16 23 20 24 17 25 19 26
REMARK SMILES IDX 18 27 21 28 23 29 22 30 24 31 25 32 26 33
REMARK H PARENT 10 6 8 16 13 19 13 20
ROOT
ATOM     1   N1  UNL     1       0.219  -0.853  -2.505  1.00  0.00    -0.202 N   
ATOM     2   C8  UNL     1      -0.103  -0.116  -1.395  1.00  0.00     0.046 A   
ATOM     3   C9  UNL     1       0.688  -0.640  -0.400  1.00  0.00     0.127 A   
ATOM     4   N3  UNL     1       1.451  -1.656  -0.918  1.00  0.00    -0.132 NA  
ATOM     5   N4  UNL     1       1.152  -1.782  -2.200  1.00  0.00    -0.075 NA  
ATOM     6   H10 UNL     1      -0.827   0.686  -1.428  1.00  0.00     0.083 HD  
ENDROOT
BRANCH   1   7
ATOM     7   C6  UNL     1      -0.289  -0.744  -3.872  1.00  0.00     0.162 C   
BRANCH   7   8
ATOM     8   C5  UNL     1      -1.803  -0.652  -3.884  1.00  0.00     0.014 A   
ATOM     9   C2  UNL     1      -4.210  -1.251  -3.824  1.00  0.00    -0.014 A   
ATOM     10  C3  UNL     1      -4.012   0.105  -3.982  1.00  0.00     0.011 A   
ATOM     11  S1  UNL     1      -2.730  -2.095  -3.713  1.00  0.00    -0.097 S   
ATOM     12  C4  UNL     1      -2.630   0.449  -4.016  1.00  0.00     0.014 A   
ATOM     13  C1  UNL     1      -5.501  -1.996  -3.751  1.00  0.00     0.052 C   
ENDBRANCH   7   8
BRANCH   7  14
ATOM     14  C7  UNL     1       0.428   0.380  -4.642  1.00  0.00     0.186 C   
BRANCH  14  15
ATOM     15  O1  UNL     1       0.271   1.662  -4.031  1.00  0.00    -0.394 OA  
ATOM     16  H9  UNL     1       0.700   2.310  -4.620  1.00  0.00     0.210 HD  
ENDBRANCH  14  15
ENDBRANCH   7  14
ENDBRANCH   1   7
BRANCH   3  17
ATOM     17  C10 UNL     1       0.801  -0.295   1.051  1.00  0.00     0.117 C   
BRANCH  17  18
ATOM     18  N2  UNL     1       1.403  -1.451   1.816  1.00  0.00     0.249 N   
ATOM     19  H12 UNL     1       1.828  -1.138   2.691  1.00  0.00     0.199 HD  
ATOM     20  H13 UNL     1       2.164  -1.815   1.222  1.00  0.00     0.199 HD  
BRANCH  18  21
ATOM     21  C11 UNL     1       0.483  -2.592   2.095  1.00  0.00     0.164 C   
BRANCH  21  22
ATOM     22  C12 UNL     1      -0.531  -2.271   3.158  1.00  0.00    -0.002 A   
ATOM     23  C13 UNL     1      -1.900  -2.143   2.820  1.00  0.00     0.012 A   
ATOM     24  C17 UNL     1      -0.127  -2.079   4.491  1.00  0.00     0.045 A   
ATOM     25  C14 UNL     1      -2.855  -1.824   3.792  1.00  0.00     0.037 A   
ATOM     26  C16 UNL     1      -1.095  -1.770   5.424  1.00  0.00     0.109 A   
ATOM     27  C15 UNL     1      -2.420  -1.642   5.086  1.00  0.00     0.108 A   
ATOM     28  O2  UNL     1      -0.871  -1.557   6.746  1.00  0.00    -0.316 OA  
ATOM     29  O3  UNL     1      -3.198  -1.330   6.154  1.00  0.00    -0.316 OA  
ATOM     30  C18 UNL     1      -2.217  -1.311   7.214  1.00  0.00     0.337 C   
ENDBRANCH  21  22
ENDBRANCH  18  21
ENDBRANCH  17  18
BRANCH  17  31
ATOM     31  C19 UNL     1       1.634   0.994   1.284  1.00  0.00     0.037 C   
ATOM     32  C20 UNL     1       1.475   1.519   2.716  1.00  0.00     0.014 C   
ATOM     33  C21 UNL     1       3.122   0.844   0.947  1.00  0.00     0.014 C   
ENDBRANCH  17  31
ENDBRANCH   3  17
TORSDOF 9
