REMARK SMILES Cc1ccc([C@H](CO)n2cc([C@@H]([NH2+]Cc3ccc4c(c3)OCO4)C(C)C)nn2)s1
REMARK SMILES IDX 9 1 10 2 11 3 27 4 28 5 6 7 5 8 2 9 3 10 29 11 4 12 1 13
REMARK SMILES IDX 7 14 8 15 12 17 13 18 14 21 15 22 16 23 20 24 17 25 19 26
REMARK SMILES IDX 18 27 21 28 23 29 22 30 24 31 25 32 26 33
REMARK H PARENT 10 6 8 16 13 19 13 20
ROOT
ATOM     1   N1  UNL     1       1.484  -1.622   2.191  1.00  0.00    -0.202 N   
ATOM     2   C8  UNL     1       0.210  -1.873   1.749  1.00  0.00     0.046 A   
ATOM     3   C9  UNL     1       0.207  -1.415   0.451  1.00  0.00     0.127 A   
ATOM     4   N3  UNL     1       1.441  -0.897   0.153  1.00  0.00    -0.132 NA  
ATOM     5   N4  UNL     1       2.209  -1.017   1.223  1.00  0.00    -0.075 NA  
ATOM     6   H10 UNL     1      -0.535  -2.342   2.377  1.00  0.00     0.083 HD  
ENDROOT
BRANCH   1   7
ATOM     7   C6  UNL     1       2.046  -1.915   3.510  1.00  0.00     0.162 C   
BRANCH   7   8
ATOM     8   C5  UNL     1       2.229  -0.632   4.287  1.00  0.00     0.014 A   
ATOM     9   C2  UNL     1       1.975   1.196   5.936  1.00  0.00    -0.014 A   
ATOM     10  C3  UNL     1       3.018   1.422   5.064  1.00  0.00     0.011 A   
ATOM     11  S1  UNL     1       1.177  -0.275   5.594  1.00  0.00    -0.097 S   
ATOM     12  C4  UNL     1       3.165   0.372   4.113  1.00  0.00     0.014 A   
ATOM     13  C1  UNL     1       1.511   2.051   7.066  1.00  0.00     0.052 C   
ENDBRANCH   7   8
BRANCH   7  14
ATOM     14  C7  UNL     1       3.341  -2.737   3.416  1.00  0.00     0.186 C   
BRANCH  14  15
ATOM     15  O1  UNL     1       3.049  -4.070   2.987  1.00  0.00    -0.394 OA  
ATOM     16  H9  UNL     1       3.894  -4.558   2.982  1.00  0.00     0.210 HD  
ENDBRANCH  14  15
ENDBRANCH   7  14
ENDBRANCH   1   7
BRANCH   3  17
ATOM     17  C10 UNL     1      -0.875  -1.382  -0.581  1.00  0.00     0.117 C   
BRANCH  17  18
ATOM     18  N2  UNL     1      -0.601  -0.303  -1.593  1.00  0.00     0.249 N   
ATOM     19  H12 UNL     1      -1.109  -0.454  -2.469  1.00  0.00     0.199 HD  
ATOM     20  H13 UNL     1       0.402  -0.367  -1.825  1.00  0.00     0.199 HD  
BRANCH  18  21
ATOM     21  C11 UNL     1      -0.849   1.088  -1.122  1.00  0.00     0.164 C   
BRANCH  21  22
ATOM     22  C12 UNL     1      -0.484   2.075  -2.194  1.00  0.00    -0.002 A   
ATOM     23  C13 UNL     1      -1.466   2.560  -3.090  1.00  0.00     0.012 A   
ATOM     24  C17 UNL     1       0.855   2.480  -2.347  1.00  0.00     0.045 A   
ATOM     25  C14 UNL     1      -1.125   3.445  -4.119  1.00  0.00     0.037 A   
ATOM     26  C16 UNL     1       1.157   3.351  -3.372  1.00  0.00     0.109 A   
ATOM     27  C15 UNL     1       0.196   3.820  -4.233  1.00  0.00     0.108 A   
ATOM     28  O2  UNL     1       2.393   3.836  -3.660  1.00  0.00    -0.316 OA  
ATOM     29  O3  UNL     1       0.705   4.661  -5.170  1.00  0.00    -0.316 OA  
ATOM     30  C18 UNL     1       2.098   4.685  -4.792  1.00  0.00     0.337 C   
ENDBRANCH  21  22
ENDBRANCH  18  21
ENDBRANCH  17  18
BRANCH  17  31
ATOM     31  C19 UNL     1      -1.051  -2.752  -1.288  1.00  0.00     0.037 C   
ATOM     32  C20 UNL     1       0.134  -3.150  -2.176  1.00  0.00     0.014 C   
ATOM     33  C21 UNL     1      -2.349  -2.808  -2.103  1.00  0.00     0.014 C   
ENDBRANCH  17  31
ENDBRANCH   3  17
TORSDOF 9
