REMARK SMILES Cc1c(CCn2cc([C@@H]([NH2+]Cc3ccc4c(c3)OCO4)C(C)(C)C)nn2)cnn1C
REMARK SMILES IDX 6 1 7 2 8 3 25 4 26 5 5 7 4 8 3 9 2 10 29 11 27 12 28 13
REMARK SMILES IDX 1 14 30 15 9 16 10 17 11 20 12 21 13 22 17 23 14 24 16 25
REMARK SMILES IDX 15 26 18 27 20 28 19 29 21 30 22 31 23 32 24 33
REMARK H PARENT 7 6 10 18 10 19
ROOT
ATOM     1   N1  UNL     1       2.526  -1.173  -1.786  1.00  0.00    -0.212 N   
ATOM     2   C6  UNL     1       2.352   0.036  -1.162  1.00  0.00     0.045 A   
ATOM     3   C7  UNL     1       0.984   0.162  -1.048  1.00  0.00     0.127 A   
ATOM     4   N3  UNL     1       0.396  -0.872  -1.738  1.00  0.00    -0.132 NA  
ATOM     5   N4  UNL     1       1.347  -1.679  -2.181  1.00  0.00    -0.076 NA  
ATOM     6   H8  UNL     1       3.191   0.578  -0.755  1.00  0.00     0.083 HD  
ENDROOT
BRANCH   1   7
ATOM     7   C5  UNL     1       3.706  -2.015  -1.709  1.00  0.00     0.139 C   
BRANCH   7   8
ATOM     8   C4  UNL     1       3.629  -3.037  -0.560  1.00  0.00     0.060 C   
BRANCH   8   9
ATOM     9   C3  UNL     1       3.169  -2.423   0.729  1.00  0.00    -0.008 A   
ATOM     10  C2  UNL     1       3.886  -1.730   1.688  1.00  0.00     0.029 A   
ATOM     11  N6  UNL     1       2.956  -1.287   2.599  1.00  0.00    -0.233 N   
ATOM     12  C21 UNL     1       1.830  -2.354   1.178  1.00  0.00     0.136 A   
ATOM     13  N5  UNL     1       1.676  -1.498   2.197  1.00  0.00    -0.190 NA  
ATOM     14  C1  UNL     1       5.343  -1.469   1.825  1.00  0.00     0.064 C   
ATOM     15  C22 UNL     1       3.216  -0.594   3.843  1.00  0.00     0.159 C   
ENDBRANCH   8   9
ENDBRANCH   7   8
ENDBRANCH   1   7
BRANCH   3  16
ATOM     16  C8  UNL     1       0.110   1.062  -0.218  1.00  0.00     0.120 C   
BRANCH  16  17
ATOM     17  N2  UNL     1      -0.232   0.365   1.088  1.00  0.00     0.250 N   
ATOM     18  H10 UNL     1       0.593  -0.186   1.408  1.00  0.00     0.199 HD  
ATOM     19  H11 UNL     1      -0.412   1.032   1.839  1.00  0.00     0.199 HD  
BRANCH  17  20
ATOM     20  C9  UNL     1      -1.377  -0.592   1.045  1.00  0.00     0.164 C   
BRANCH  20  21
ATOM     21  C10 UNL     1      -2.706   0.110   1.002  1.00  0.00    -0.002 A   
ATOM     22  C11 UNL     1      -3.226   0.720   2.170  1.00  0.00     0.012 A   
ATOM     23  C15 UNL     1      -3.424   0.200  -0.204  1.00  0.00     0.045 A   
ATOM     24  C12 UNL     1      -4.437   1.420   2.136  1.00  0.00     0.037 A   
ATOM     25  C14 UNL     1      -4.613   0.897  -0.202  1.00  0.00     0.109 A   
ATOM     26  C13 UNL     1      -5.104   1.493   0.933  1.00  0.00     0.108 A   
ATOM     27  O1  UNL     1      -5.422   1.085  -1.278  1.00  0.00    -0.316 OA  
ATOM     28  O2  UNL     1      -6.285   2.129   0.716  1.00  0.00    -0.316 OA  
ATOM     29  C16 UNL     1      -6.502   1.837  -0.681  1.00  0.00     0.337 C   
ENDBRANCH  20  21
ENDBRANCH  17  20
ENDBRANCH  16  17
BRANCH  16  30
ATOM     30  C17 UNL     1       0.619   2.518   0.062  1.00  0.00     0.010 C   
ATOM     31  C18 UNL     1       1.767   2.586   1.089  1.00  0.00     0.017 C   
ATOM     32  C19 UNL     1       1.073   3.200  -1.248  1.00  0.00     0.017 C   
ATOM     33  C20 UNL     1      -0.552   3.373   0.615  1.00  0.00     0.017 C   
ENDBRANCH  16  30
ENDBRANCH   3  16
TORSDOF 8
