REMARK SMILES Cc1ccc(C(=O)n2cc([C@H](CC(C)C)[NH2+]Cc3ccc4c(c3)OCO4)nn2)o1
REMARK SMILES IDX 8 1 9 2 10 3 27 4 28 5 6 6 7 7 5 8 2 9 3 10 29 11 4 12 1 13
REMARK SMILES IDX 11 14 12 15 13 16 14 17 15 18 16 19 17 22 18 23 19 24 23 25
REMARK SMILES IDX 20 26 22 27 21 28 24 29 26 30 25 31
REMARK H PARENT 16 20 16 21
ROOT
ATOM     1   N1  UNL     1      -0.570  -1.660  -2.458  1.00  0.00    -0.142 N   
ATOM     2   C7  UNL     1       0.046  -2.663  -1.719  1.00  0.00     0.139 A   
ATOM     3   C8  UNL     1       0.286  -2.111  -0.483  1.00  0.00     0.127 A   
ATOM     4   N3  UNL     1      -0.150  -0.815  -0.490  1.00  0.00    -0.131 NA  
ATOM     5   N4  UNL     1      -0.665  -0.551  -1.679  1.00  0.00    -0.068 NA  
ENDROOT
BRANCH   1   6
ATOM     6   C6  UNL     1      -1.009  -1.714  -3.799  1.00  0.00     0.294 C   
ATOM     7   O1  UNL     1      -0.767  -2.778  -4.371  1.00  0.00    -0.267 OA  
BRANCH   6   8
ATOM     8   C5  UNL     1      -1.684  -0.622  -4.470  1.00  0.00     0.146 A   
ATOM     9   C2  UNL     1      -2.679   1.334  -4.659  1.00  0.00     0.057 A   
ATOM     10  C3  UNL     1      -2.711   0.766  -5.912  1.00  0.00     0.032 A   
ATOM     11  O4  UNL     1      -2.057   0.498  -3.783  1.00  0.00    -0.309 OA  
ATOM     12  C4  UNL     1      -2.074  -0.492  -5.791  1.00  0.00     0.042 A   
ATOM     13  C1  UNL     1      -3.170   2.614  -4.111  1.00  0.00     0.073 C   
ENDBRANCH   6   8
ENDBRANCH   1   6
BRANCH   3  14
ATOM     14  C9  UNL     1       0.918  -2.684   0.745  1.00  0.00     0.114 C   
BRANCH  14  15
ATOM     15  C10 UNL     1       0.152  -3.883   1.340  1.00  0.00     0.064 C   
BRANCH  15  16
ATOM     16  C11 UNL     1      -1.125  -3.608   2.167  1.00  0.00    -0.012 C   
ATOM     17  C12 UNL     1      -2.247  -2.953   1.365  1.00  0.00     0.007 C   
ATOM     18  C13 UNL     1      -1.634  -4.928   2.759  1.00  0.00     0.007 C   
ENDBRANCH  15  16
ENDBRANCH  14  15
BRANCH  14  19
ATOM     19  N2  UNL     1       1.124  -1.646   1.812  1.00  0.00     0.249 N   
ATOM     20  H17 UNL     1       0.285  -1.048   1.820  1.00  0.00     0.199 HD  
ATOM     21  H18 UNL     1       1.191  -2.071   2.742  1.00  0.00     0.199 HD  
BRANCH  19  22
ATOM     22  C14 UNL     1       2.298  -0.750   1.615  1.00  0.00     0.164 C   
BRANCH  22  23
ATOM     23  C15 UNL     1       2.312   0.332   2.657  1.00  0.00    -0.002 A   
ATOM     24  C16 UNL     1       2.950   0.120   3.903  1.00  0.00     0.012 A   
ATOM     25  C20 UNL     1       1.643   1.545   2.417  1.00  0.00     0.045 A   
ATOM     26  C17 UNL     1       2.935   1.108   4.894  1.00  0.00     0.037 A   
ATOM     27  C19 UNL     1       1.650   2.498   3.414  1.00  0.00     0.109 A   
ATOM     28  C18 UNL     1       2.276   2.286   4.617  1.00  0.00     0.108 A   
ATOM     29  O2  UNL     1       1.061   3.720   3.343  1.00  0.00    -0.316 OA  
ATOM     30  O3  UNL     1       2.159   3.348   5.456  1.00  0.00    -0.316 OA  
ATOM     31  C21 UNL     1       1.410   4.269   4.634  1.00  0.00     0.337 C   
ENDBRANCH  22  23
ENDBRANCH  19  22
ENDBRANCH  14  19
ENDBRANCH   3  14
TORSDOF 8
