REMARK SMILES Fc1ccc(CCn2cc([C@@H]([NH2+]Cc3ccc4c(c3)OCO4)C3CCCCC3)nn2)c(F)c1
REMARK SMILES IDX 8 1 9 2 10 3 29 4 30 5 7 7 6 8 5 9 2 10 3 11 33 12 4 13
REMARK SMILES IDX 31 14 1 15 32 16 11 17 12 18 13 21 14 22 15 23 19 24 16 25
REMARK SMILES IDX 18 26 17 27 20 28 22 29 21 30 23 31 24 32 28 33 25 34 27 35
REMARK SMILES IDX 26 36
REMARK H PARENT 9 6 12 19 12 20
ROOT
ATOM     1   N1  UNL     1      -1.568   2.013  -2.505  1.00  0.00    -0.212 N   
ATOM     2   C7  UNL     1      -1.427   0.778  -1.936  1.00  0.00     0.045 A   
ATOM     3   C8  UNL     1      -0.335   0.919  -1.109  1.00  0.00     0.127 A   
ATOM     4   N3  UNL     1       0.171   2.188  -1.244  1.00  0.00    -0.132 NA  
ATOM     5   N4  UNL     1      -0.583   2.841  -2.112  1.00  0.00    -0.076 NA  
ATOM     6   H7  UNL     1      -2.118  -0.032  -2.126  1.00  0.00     0.083 HD  
ENDROOT
BRANCH   1   7
ATOM     7   C6  UNL     1      -2.644   2.486  -3.351  1.00  0.00     0.139 C   
BRANCH   7   8
ATOM     8   C5  UNL     1      -3.630   3.388  -2.602  1.00  0.00     0.060 C   
BRANCH   8   9
ATOM     9   C4  UNL     1      -4.256   2.733  -1.392  1.00  0.00    -0.010 A   
ATOM     10  C1  UNL     1      -5.370   1.476   0.835  1.00  0.00     0.126 A   
ATOM     11  C2  UNL     1      -4.534   2.574   1.012  1.00  0.00     0.040 A   
ATOM     12  C25 UNL     1      -5.667   0.997  -0.432  1.00  0.00     0.078 A   
ATOM     13  C3  UNL     1      -3.976   3.205  -0.101  1.00  0.00     0.010 A   
ATOM     14  C24 UNL     1      -5.109   1.631  -1.534  1.00  0.00     0.129 A   
ATOM     15  F1  UNL     1      -5.885   0.865   1.909  1.00  0.00    -0.207 F   
ATOM     16  F2  UNL     1      -5.372   1.154  -2.759  1.00  0.00    -0.207 F   
ENDBRANCH   8   9
ENDBRANCH   7   8
ENDBRANCH   1   7
BRANCH   3  17
ATOM     17  C9  UNL     1       0.305  -0.036  -0.152  1.00  0.00     0.117 C   
BRANCH  17  18
ATOM     18  N2  UNL     1       1.720   0.396   0.152  1.00  0.00     0.249 N   
ATOM     19  H9  UNL     1       1.682   1.416   0.289  1.00  0.00     0.199 HD  
ATOM     20  H10 UNL     1       2.054  -0.014   1.028  1.00  0.00     0.199 HD  
BRANCH  18  21
ATOM     21  C10 UNL     1       2.727   0.139  -0.921  1.00  0.00     0.164 C   
BRANCH  21  22
ATOM     22  C11 UNL     1       3.052  -1.322  -1.071  1.00  0.00    -0.002 A   
ATOM     23  C12 UNL     1       3.832  -1.987  -0.095  1.00  0.00     0.012 A   
ATOM     24  C16 UNL     1       2.554  -2.045  -2.168  1.00  0.00     0.045 A   
ATOM     25  C13 UNL     1       4.109  -3.354  -0.206  1.00  0.00     0.037 A   
ATOM     26  C15 UNL     1       2.842  -3.392  -2.245  1.00  0.00     0.109 A   
ATOM     27  C14 UNL     1       3.597  -4.029  -1.292  1.00  0.00     0.108 A   
ATOM     28  O1  UNL     1       2.428  -4.234  -3.228  1.00  0.00    -0.316 OA  
ATOM     29  O2  UNL     1       3.757  -5.351  -1.556  1.00  0.00    -0.316 OA  
ATOM     30  C17 UNL     1       3.040  -5.473  -2.802  1.00  0.00     0.337 C   
ENDBRANCH  21  22
ENDBRANCH  18  21
ENDBRANCH  17  18
BRANCH  17  31
ATOM     31  C18 UNL     1      -0.516  -0.168   1.161  1.00  0.00     0.043 C   
ATOM     32  C19 UNL     1      -0.056  -1.371   2.007  1.00  0.00     0.010 C   
ATOM     33  C23 UNL     1      -0.538   1.112   2.019  1.00  0.00     0.010 C   
ATOM     34  C20 UNL     1      -0.916  -1.541   3.258  1.00  0.00     0.001 C   
ATOM     35  C22 UNL     1      -1.399   0.933   3.268  1.00  0.00     0.001 C   
ATOM     36  C21 UNL     1      -0.950  -0.267   4.095  1.00  0.00     0.000 C   
ENDBRANCH  17  31
ENDBRANCH   3  17
TORSDOF 8
