REMARK SMILES Cc1cc(Cn2cc([C@@H]([NH2+]Cc3ccc4c(c3)OCO4)C(C)C)nn2)ccn1
REMARK SMILES IDX 6 1 7 2 8 3 24 4 25 5 5 7 4 8 2 9 3 10 28 11 27 12 26 13
REMARK SMILES IDX 1 14 9 15 10 16 11 19 12 20 13 21 17 22 14 23 16 24 15 25
REMARK SMILES IDX 18 26 20 27 19 28 21 29 22 30 23 31
REMARK H PARENT 7 6 10 17 10 18
ROOT
ATOM     1   N1  UNL     1      -0.515   2.095   2.825  1.00  0.00    -0.208 N   
ATOM     2   C6  UNL     1       0.673   1.820   2.204  1.00  0.00     0.046 A   
ATOM     3   C7  UNL     1       0.360   1.836   0.863  1.00  0.00     0.127 A   
ATOM     4   N3  UNL     1      -0.973   2.126   0.717  1.00  0.00    -0.132 NA  
ATOM     5   N4  UNL     1      -1.498   2.277   1.921  1.00  0.00    -0.076 NA  
ATOM     6   H7  UNL     1       1.584   1.630   2.756  1.00  0.00     0.083 HD  
ENDROOT
BRANCH   1   7
ATOM     7   C5  UNL     1      -0.790   2.178   4.251  1.00  0.00     0.169 C   
BRANCH   7   8
ATOM     8   C4  UNL     1      -0.897   0.803   4.856  1.00  0.00    -0.025 A   
ATOM     9   C2  UNL     1      -2.089  -1.266   5.178  1.00  0.00     0.038 A   
ATOM     10  C3  UNL     1      -2.032   0.013   4.632  1.00  0.00     0.029 A   
ATOM     11  N5  UNL     1      -1.082  -1.783   5.916  1.00  0.00    -0.262 NA  
ATOM     12  C21 UNL     1      -0.004  -1.005   6.141  1.00  0.00     0.111 A   
ATOM     13  C20 UNL     1       0.136   0.277   5.636  1.00  0.00     0.025 A   
ATOM     14  C1  UNL     1      -3.295  -2.130   4.957  1.00  0.00     0.067 C   
ENDBRANCH   7   8
ENDBRANCH   1   7
BRANCH   3  15
ATOM     15  C8  UNL     1       1.192   1.563  -0.351  1.00  0.00     0.117 C   
BRANCH  15  16
ATOM     16  N2  UNL     1       0.320   1.101  -1.487  1.00  0.00     0.249 N   
ATOM     17  H9  UNL     1       0.772   1.219  -2.398  1.00  0.00     0.199 HD  
ATOM     18  H10 UNL     1      -0.508   1.716  -1.494  1.00  0.00     0.199 HD  
BRANCH  16  19
ATOM     19  C9  UNL     1      -0.180  -0.298  -1.376  1.00  0.00     0.164 C   
BRANCH  19  20
ATOM     20  C10 UNL     1      -1.125  -0.606  -2.503  1.00  0.00    -0.002 A   
ATOM     21  C11 UNL     1      -2.499  -0.285  -2.383  1.00  0.00     0.012 A   
ATOM     22  C15 UNL     1      -0.643  -1.157  -3.702  1.00  0.00     0.045 A   
ATOM     23  C12 UNL     1      -3.385  -0.522  -3.439  1.00  0.00     0.037 A   
ATOM     24  C14 UNL     1      -1.544  -1.376  -4.723  1.00  0.00     0.109 A   
ATOM     25  C13 UNL     1      -2.876  -1.068  -4.596  1.00  0.00     0.108 A   
ATOM     26  O1  UNL     1      -1.245  -1.898  -5.941  1.00  0.00    -0.316 OA  
ATOM     27  O2  UNL     1      -3.585  -1.361  -5.717  1.00  0.00    -0.316 OA  
ATOM     28  C16 UNL     1      -2.551  -1.909  -6.563  1.00  0.00     0.337 C   
ENDBRANCH  19  20
ENDBRANCH  16  19
ENDBRANCH  15  16
BRANCH  15  29
ATOM     29  C17 UNL     1       2.025   2.799  -0.779  1.00  0.00     0.037 C   
ATOM     30  C18 UNL     1       3.102   2.428  -1.806  1.00  0.00     0.014 C   
ATOM     31  C19 UNL     1       1.183   3.964  -1.312  1.00  0.00     0.014 C   
ENDBRANCH  15  29
ENDBRANCH   3  15
TORSDOF 7
