REMARK SMILES COc1cc(Cn2cc([C@@H]([NH2+]Cc3ccc4c(c3)OCO4)C(C)(C)C)nn2)ccc1F
REMARK SMILES IDX 7 1 8 2 9 3 26 4 27 5 6 7 5 8 3 9 4 10 30 11 29 12 28 13
REMARK SMILES IDX 31 14 2 15 1 16 10 17 11 18 12 21 13 22 14 23 18 24 15 25
REMARK SMILES IDX 17 26 16 27 19 28 21 29 20 30 22 31 23 32 24 33 25 34
REMARK H PARENT 8 6 11 19 11 20
ROOT
ATOM     1   N1  UNL     1      -2.150   1.015  -0.733  1.00  0.00    -0.208 N   
ATOM     2   C6  UNL     1      -1.760  -0.222  -1.169  1.00  0.00     0.046 A   
ATOM     3   C7  UNL     1      -1.785  -1.001  -0.036  1.00  0.00     0.127 A   
ATOM     4   N3  UNL     1      -2.168  -0.228   1.033  1.00  0.00    -0.132 NA  
ATOM     5   N4  UNL     1      -2.389   1.000   0.594  1.00  0.00    -0.076 NA  
ATOM     6   H7  UNL     1      -1.503  -0.417  -2.201  1.00  0.00     0.083 HD  
ENDROOT
BRANCH   1   7
ATOM     7   C5  UNL     1      -2.363   2.224  -1.511  1.00  0.00     0.169 C   
BRANCH   7   8
ATOM     8   C4  UNL     1      -1.098   2.665  -2.209  1.00  0.00    -0.026 A   
ATOM     9   C2  UNL     1       1.110   3.696  -2.117  1.00  0.00     0.111 A   
ATOM     10  C3  UNL     1      -0.072   3.305  -1.484  1.00  0.00     0.042 A   
ATOM     11  C23 UNL     1       1.267   3.420  -3.478  1.00  0.00     0.153 A   
ATOM     12  C22 UNL     1       0.262   2.795  -4.211  1.00  0.00     0.042 A   
ATOM     13  C21 UNL     1      -0.923   2.421  -3.580  1.00  0.00     0.008 A   
ATOM     14  F1  UNL     1       2.406   3.749  -4.106  1.00  0.00    -0.204 F   
BRANCH   9  15
ATOM     15  O1  UNL     1       2.169   4.313  -1.510  1.00  0.00    -0.346 OA  
ATOM     16  C1  UNL     1       1.946   4.865  -0.218  1.00  0.00     0.203 C   
ENDBRANCH   9  15
ENDBRANCH   7   8
ENDBRANCH   1   7
BRANCH   3  17
ATOM     17  C8  UNL     1      -1.412  -2.435   0.200  1.00  0.00     0.120 C   
BRANCH  17  18
ATOM     18  N2  UNL     1      -0.893  -2.557   1.622  1.00  0.00     0.250 N   
ATOM     19  H9  UNL     1      -1.194  -1.691   2.104  1.00  0.00     0.199 HD  
ATOM     20  H10 UNL     1      -1.359  -3.312   2.131  1.00  0.00     0.199 HD  
BRANCH  18  21
ATOM     21  C9  UNL     1       0.582  -2.688   1.777  1.00  0.00     0.164 C   
BRANCH  21  22
ATOM     22  C10 UNL     1       1.347  -1.471   1.340  1.00  0.00    -0.002 A   
ATOM     23  C11 UNL     1       1.325  -0.294   2.126  1.00  0.00     0.012 A   
ATOM     24  C15 UNL     1       2.078  -1.484   0.141  1.00  0.00     0.045 A   
ATOM     25  C12 UNL     1       2.025   0.850   1.732  1.00  0.00     0.037 A   
ATOM     26  C14 UNL     1       2.749  -0.335  -0.226  1.00  0.00     0.109 A   
ATOM     27  C13 UNL     1       2.730   0.796   0.550  1.00  0.00     0.108 A   
ATOM     28  O2  UNL     1       3.499  -0.183  -1.348  1.00  0.00    -0.316 OA  
ATOM     29  O3  UNL     1       3.480   1.796   0.027  1.00  0.00    -0.316 OA  
ATOM     30  C16 UNL     1       3.951   1.183  -1.192  1.00  0.00     0.337 C   
ENDBRANCH  21  22
ENDBRANCH  18  21
ENDBRANCH  17  18
BRANCH  17  31
ATOM     31  C17 UNL     1      -2.571  -3.460  -0.054  1.00  0.00     0.010 C   
ATOM     32  C18 UNL     1      -3.039  -3.377  -1.527  1.00  0.00     0.017 C   
ATOM     33  C19 UNL     1      -2.066  -4.904   0.174  1.00  0.00     0.017 C   
ATOM     34  C20 UNL     1      -3.794  -3.216   0.856  1.00  0.00     0.017 C   
ENDBRANCH  17  31
ENDBRANCH   3  17
TORSDOF 8
