REMARK SMILES CC(C)C[C@H]([NH2+]Cc1ccc2c(c1)OCO2)c1cn(-c2cccc(N)c2)nn1
REMARK SMILES IDX 17 1 18 2 19 3 27 4 28 5 5 6 4 7 2 8 1 9 3 10 6 11 7 14 8 15
REMARK SMILES IDX 9 16 13 17 10 18 12 19 11 20 14 21 16 22 15 23 20 24 21 25
REMARK SMILES IDX 26 26 22 27 24 28 23 29 25 30
REMARK H PARENT 6 12 6 13 25 31 25 32
ROOT
ATOM     1   C14 UNL     1      -0.706   0.278   0.970  1.00  0.00     0.127 A   
ATOM     2   C15 UNL     1      -1.600   0.795   0.058  1.00  0.00     0.135 A   
ATOM     3   N2  UNL     1      -0.880   1.732  -0.661  1.00  0.00    -0.181 N   
ATOM     4   N4  UNL     1       0.404   1.726  -0.216  1.00  0.00    -0.071 NA  
ATOM     5   N5  UNL     1       0.513   0.863   0.779  1.00  0.00    -0.131 NA  
ENDROOT
BRANCH   1   6
ATOM     6   C5  UNL     1      -0.855  -0.775   2.020  1.00  0.00     0.114 C   
BRANCH   6   7
ATOM     7   C4  UNL     1      -1.244  -0.194   3.394  1.00  0.00     0.064 C   
BRANCH   7   8
ATOM     8   C2  UNL     1      -2.620   0.502   3.456  1.00  0.00    -0.012 C   
ATOM     9   C1  UNL     1      -2.849   1.067   4.862  1.00  0.00     0.007 C   
ATOM     10  C3  UNL     1      -3.768  -0.439   3.088  1.00  0.00     0.007 C   
ENDBRANCH   7   8
ENDBRANCH   6   7
BRANCH   6  11
ATOM     11  N1  UNL     1       0.460  -1.496   2.210  1.00  0.00     0.249 N   
ATOM     12  H11 UNL     1       1.191  -0.769   2.258  1.00  0.00     0.199 HD  
ATOM     13  H12 UNL     1       0.494  -1.993   3.105  1.00  0.00     0.199 HD  
BRANCH  11  14
ATOM     14  C6  UNL     1       0.843  -2.434   1.118  1.00  0.00     0.164 C   
BRANCH  14  15
ATOM     15  C7  UNL     1       2.206  -3.010   1.376  1.00  0.00    -0.002 A   
ATOM     16  C8  UNL     1       2.350  -4.252   2.036  1.00  0.00     0.012 A   
ATOM     17  C12 UNL     1       3.353  -2.284   1.007  1.00  0.00     0.045 A   
ATOM     18  C9  UNL     1       3.618  -4.773   2.317  1.00  0.00     0.037 A   
ATOM     19  C11 UNL     1       4.587  -2.827   1.298  1.00  0.00     0.109 A   
ATOM     20  C10 UNL     1       4.717  -4.036   1.933  1.00  0.00     0.108 A   
ATOM     21  O1  UNL     1       5.788  -2.260   1.012  1.00  0.00    -0.316 OA  
ATOM     22  O2  UNL     1       6.015  -4.387   2.121  1.00  0.00    -0.316 OA  
ATOM     23  C13 UNL     1       6.695  -3.262   1.521  1.00  0.00     0.337 C   
ENDBRANCH  14  15
ENDBRANCH  11  14
ENDBRANCH   6  11
ENDBRANCH   1   6
BRANCH   3  24
ATOM     24  C16 UNL     1      -1.313   2.582  -1.708  1.00  0.00     0.059 A   
ATOM     25  C17 UNL     1      -2.650   2.591  -2.123  1.00  0.00     0.026 A   
ATOM     26  C21 UNL     1      -0.390   3.443  -2.324  1.00  0.00     0.049 A   
ATOM     27  C18 UNL     1      -3.053   3.464  -3.134  1.00  0.00     0.004 A   
ATOM     28  C20 UNL     1      -0.779   4.279  -3.375  1.00  0.00     0.025 A   
ATOM     29  C19 UNL     1      -2.126   4.314  -3.740  1.00  0.00     0.023 A   
BRANCH  28  30
ATOM     30  N3  UNL     1       0.113   5.225  -3.890  1.00  0.00    -0.358 N   
ATOM     31  H24 UNL     1      -0.138   5.581  -4.808  1.00  0.00     0.143 HD  
ATOM     32  H25 UNL     1       1.091   4.957  -3.838  1.00  0.00     0.143 HD  
ENDBRANCH  28  30
ENDBRANCH   3  24
TORSDOF 8
