REMARK SMILES Cc1ccc(CCn2cc([C@H](CC(C)C)[NH2+]Cc3ccc4c(c3)OCO4)nn2)c(O)c1
REMARK SMILES IDX 8 1 9 2 10 3 27 4 28 5 7 7 6 8 5 9 2 10 3 11 31 12 4 13
REMARK SMILES IDX 29 14 1 15 30 16 11 18 12 19 13 20 14 21 15 22 16 23 17 26
REMARK SMILES IDX 18 27 19 28 23 29 20 30 22 31 21 32 24 33 26 34 25 35
REMARK H PARENT 9 6 30 17 16 24 16 25
ROOT
ATOM     1   N1  UNL     1       1.153   0.425   3.136  1.00  0.00    -0.212 N   
ATOM     2   C8  UNL     1       1.913   0.397   2.002  1.00  0.00     0.045 A   
ATOM     3   C9  UNL     1       1.888  -0.932   1.630  1.00  0.00     0.127 A   
ATOM     4   N3  UNL     1       1.222  -1.653   2.582  1.00  0.00    -0.132 NA  
ATOM     5   N4  UNL     1       0.780  -0.812   3.501  1.00  0.00    -0.076 NA  
ATOM     6   H10 UNL     1       2.262   1.298   1.519  1.00  0.00     0.083 HD  
ENDROOT
BRANCH   1   7
ATOM     7   C7  UNL     1       0.498   1.575   3.724  1.00  0.00     0.139 C   
BRANCH   7   8
ATOM     8   C6  UNL     1      -0.988   1.640   3.343  1.00  0.00     0.059 C   
BRANCH   8   9
ATOM     9   C5  UNL     1      -1.237   1.923   1.875  1.00  0.00    -0.016 A   
ATOM     10  C2  UNL     1      -1.727   2.620  -0.830  1.00  0.00    -0.049 A   
ATOM     11  C3  UNL     1      -1.587   3.611   0.142  1.00  0.00     0.004 A   
ATOM     12  C24 UNL     1      -1.595   1.282  -0.449  1.00  0.00     0.036 A   
ATOM     13  C4  UNL     1      -1.352   3.267   1.477  1.00  0.00     0.007 A   
ATOM     14  C23 UNL     1      -1.346   0.938   0.882  1.00  0.00     0.075 A   
ATOM     15  C1  UNL     1      -1.976   2.977  -2.266  1.00  0.00     0.044 C   
BRANCH  14  16
ATOM     16  O3  UNL     1      -1.183  -0.403   1.113  1.00  0.00    -0.361 OA  
ATOM     17  H30 UNL     1      -1.298  -0.577   2.068  1.00  0.00     0.218 HD  
ENDBRANCH  14  16
ENDBRANCH   8   9
ENDBRANCH   7   8
ENDBRANCH   1   7
BRANCH   3  18
ATOM     18  C10 UNL     1       2.212  -1.590   0.330  1.00  0.00     0.114 C   
BRANCH  18  19
ATOM     19  C11 UNL     1       3.467  -1.056  -0.382  1.00  0.00     0.064 C   
BRANCH  19  20
ATOM     20  C12 UNL     1       4.832  -1.535   0.165  1.00  0.00    -0.012 C   
ATOM     21  C13 UNL     1       5.139  -1.041   1.575  1.00  0.00     0.007 C   
ATOM     22  C14 UNL     1       4.992  -3.053   0.084  1.00  0.00     0.007 C   
ENDBRANCH  19  20
ENDBRANCH  18  19
BRANCH  18  23
ATOM     23  N2  UNL     1       1.013  -1.370  -0.568  1.00  0.00     0.249 N   
ATOM     24  H21 UNL     1       1.044  -0.436  -0.991  1.00  0.00     0.199 HD  
ATOM     25  H22 UNL     1       0.173  -1.313   0.043  1.00  0.00     0.199 HD  
BRANCH  23  26
ATOM     26  C15 UNL     1       0.751  -2.409  -1.590  1.00  0.00     0.164 C   
BRANCH  26  27
ATOM     27  C16 UNL     1      -0.515  -2.106  -2.341  1.00  0.00    -0.002 A   
ATOM     28  C17 UNL     1      -1.756  -2.592  -1.867  1.00  0.00     0.012 A   
ATOM     29  C21 UNL     1      -0.482  -1.277  -3.475  1.00  0.00     0.045 A   
ATOM     30  C18 UNL     1      -2.950  -2.267  -2.518  1.00  0.00     0.037 A   
ATOM     31  C20 UNL     1      -1.677  -0.974  -4.092  1.00  0.00     0.109 A   
ATOM     32  C19 UNL     1      -2.877  -1.454  -3.627  1.00  0.00     0.108 A   
ATOM     33  O1  UNL     1      -1.824  -0.180  -5.186  1.00  0.00    -0.316 OA  
ATOM     34  O2  UNL     1      -3.928  -1.028  -4.373  1.00  0.00    -0.316 OA  
ATOM     35  C22 UNL     1      -3.255  -0.243  -5.380  1.00  0.00     0.337 C   
ENDBRANCH  26  27
ENDBRANCH  23  26
ENDBRANCH  18  23
ENDBRANCH   3  18
TORSDOF 10
