REMARK SMILES c1cc2n(n1)CC[C@H](n1cc([C@@H]([NH2+]Cc3ccc4c(c3)OCO4)C3CCCC3)nn1)C2
REMARK SMILES IDX 12 1 11 2 9 3 10 4 30 5 29 6 8 8 1 9 2 10 5 11 3 12 4 13
REMARK SMILES IDX 31 14 6 15 7 16 13 17 14 20 15 21 16 22 20 23 17 24 19 25
REMARK SMILES IDX 18 26 21 27 23 28 22 29 24 30 25 31 28 32 26 33 27 34
REMARK H PARENT 10 7 13 18 13 19
ROOT
ATOM     1   C9  UNL     1       1.772   0.140  -0.812  1.00  0.00     0.117 C   
ENDROOT
BRANCH   1   2
ATOM     2   C8  UNL     1       0.669   0.704  -1.644  1.00  0.00     0.127 A   
ATOM     3   N3  UNL     1      -1.140   1.603  -2.431  1.00  0.00    -0.209 N   
ATOM     4   C7  UNL     1      -0.355   1.561  -1.312  1.00  0.00     0.046 A   
ATOM     5   N6  UNL     1      -0.589   0.859  -3.414  1.00  0.00    -0.076 NA  
ATOM     6   N5  UNL     1       0.509   0.294  -2.939  1.00  0.00    -0.132 NA  
ATOM     7   H8  UNL     1      -0.602   2.074  -0.393  1.00  0.00     0.083 HD  
BRANCH   3   8
ATOM     8   C6  UNL     1      -2.462   2.194  -2.635  1.00  0.00     0.107 C   
ATOM     9   C1  UNL     1      -3.966   0.785   1.438  1.00  0.00     0.133 A   
ATOM     10  C2  UNL     1      -3.632   2.087   1.014  1.00  0.00     0.043 A   
ATOM     11  N2  UNL     1      -3.976  -0.091   0.428  1.00  0.00    -0.190 NA  
ATOM     12  C3  UNL     1      -3.458   1.974  -0.346  1.00  0.00     0.032 A   
ATOM     13  N1  UNL     1      -3.774   0.676  -0.653  1.00  0.00    -0.230 N   
ATOM     14  C23 UNL     1      -3.028   2.937  -1.403  1.00  0.00     0.078 C   
ATOM     15  C4  UNL     1      -3.734   0.086  -1.978  1.00  0.00     0.134 C   
ATOM     16  C5  UNL     1      -3.497   1.131  -3.073  1.00  0.00     0.046 C   
ENDBRANCH   3   8
ENDBRANCH   1   2
BRANCH   1  17
ATOM     17  N4  UNL     1       1.956  -1.327  -1.119  1.00  0.00     0.249 N   
ATOM     18  H10 UNL     1       2.011  -1.407  -2.144  1.00  0.00     0.199 HD  
ATOM     19  H11 UNL     1       2.840  -1.673  -0.741  1.00  0.00     0.199 HD  
BRANCH  17  20
ATOM     20  C10 UNL     1       0.850  -2.234  -0.677  1.00  0.00     0.164 C   
BRANCH  20  21
ATOM     21  C11 UNL     1       0.659  -2.254   0.813  1.00  0.00    -0.002 A   
ATOM     22  C12 UNL     1      -0.526  -1.731   1.385  1.00  0.00     0.012 A   
ATOM     23  C16 UNL     1       1.663  -2.769   1.653  1.00  0.00     0.045 A   
ATOM     24  C13 UNL     1      -0.707  -1.708   2.772  1.00  0.00     0.037 A   
ATOM     25  C15 UNL     1       1.454  -2.726   3.016  1.00  0.00     0.109 A   
ATOM     26  C14 UNL     1       0.305  -2.209   3.561  1.00  0.00     0.108 A   
ATOM     27  O1  UNL     1       2.323  -3.170   3.961  1.00  0.00    -0.316 OA  
ATOM     28  O2  UNL     1       0.304  -2.265   4.918  1.00  0.00    -0.316 OA  
ATOM     29  C17 UNL     1       1.578  -2.897   5.169  1.00  0.00     0.337 C   
ENDBRANCH  20  21
ENDBRANCH  17  20
ENDBRANCH   1  17
BRANCH   1  30
ATOM     30  C18 UNL     1       3.092   0.914  -1.000  1.00  0.00     0.043 C   
ATOM     31  C19 UNL     1       3.787   0.786  -2.366  1.00  0.00     0.010 C   
ATOM     32  C22 UNL     1       4.184   0.558   0.014  1.00  0.00     0.010 C   
ATOM     33  C20 UNL     1       5.291   0.843  -2.085  1.00  0.00     0.001 C   
ATOM     34  C21 UNL     1       5.428   1.173  -0.606  1.00  0.00     0.001 C   
ENDBRANCH   1  30
TORSDOF 6
