REMARK SMILES c1cc2n(n1)CC[C@@H](n1cc([C@@H]([NH2+]Cc3ccc4c(c3)OCO4)C3CCCC3)nn1)C2
REMARK SMILES IDX 12 1 11 2 9 3 10 4 30 5 29 6 8 8 1 9 2 10 5 11 3 12 4 13
REMARK SMILES IDX 31 14 6 15 7 16 13 17 14 20 15 21 16 22 20 23 17 24 19 25
REMARK SMILES IDX 18 26 21 27 23 28 22 29 24 30 25 31 28 32 26 33 27 34
REMARK H PARENT 10 7 13 18 13 19
ROOT
ATOM     1   C9  UNL     1      -1.502   0.200   0.229  1.00  0.00     0.117 C   
ENDROOT
BRANCH   1   2
ATOM     2   C8  UNL     1      -0.302   0.988  -0.191  1.00  0.00     0.127 A   
ATOM     3   N3  UNL     1       1.511   1.798  -1.057  1.00  0.00    -0.209 N   
ATOM     4   C7  UNL     1       0.656   0.735  -1.146  1.00  0.00     0.046 A   
ATOM     5   N6  UNL     1       1.111   2.641  -0.083  1.00  0.00    -0.076 NA  
ATOM     6   N5  UNL     1       0.000   2.160   0.448  1.00  0.00    -0.132 NA  
ATOM     7   H8  UNL     1       0.783  -0.073  -1.853  1.00  0.00     0.083 HD  
BRANCH   3   8
ATOM     8   C6  UNL     1       2.698   2.126  -1.839  1.00  0.00     0.107 C   
ATOM     9   C1  UNL     1       2.435  -1.104  -5.109  1.00  0.00     0.133 A   
ATOM     10  C2  UNL     1       3.249  -1.048  -3.961  1.00  0.00     0.043 A   
ATOM     11  N2  UNL     1       1.747   0.027  -5.295  1.00  0.00    -0.190 NA  
ATOM     12  C3  UNL     1       3.035   0.211  -3.441  1.00  0.00     0.032 A   
ATOM     13  N1  UNL     1       2.183   0.832  -4.316  1.00  0.00    -0.230 N   
ATOM     14  C23 UNL     1       3.553   0.903  -2.225  1.00  0.00     0.078 C   
ATOM     15  C4  UNL     1       1.632   2.166  -4.162  1.00  0.00     0.134 C   
ATOM     16  C5  UNL     1       2.353   2.972  -3.080  1.00  0.00     0.046 C   
ENDBRANCH   3   8
ENDBRANCH   1   2
BRANCH   1  17
ATOM     17  N4  UNL     1      -1.786   0.432   1.692  1.00  0.00     0.249 N   
ATOM     18  H10 UNL     1      -1.708   1.450   1.839  1.00  0.00     0.199 HD  
ATOM     19  H11 UNL     1      -2.746   0.167   1.931  1.00  0.00     0.199 HD  
BRANCH  17  20
ATOM     20  C10 UNL     1      -0.847  -0.221   2.653  1.00  0.00     0.164 C   
BRANCH  20  21
ATOM     21  C11 UNL     1      -0.964  -1.721   2.657  1.00  0.00    -0.002 A   
ATOM     22  C12 UNL     1       0.058  -2.519   2.086  1.00  0.00     0.012 A   
ATOM     23  C16 UNL     1      -2.103  -2.340   3.200  1.00  0.00     0.045 A   
ATOM     24  C13 UNL     1      -0.056  -3.913   2.046  1.00  0.00     0.037 A   
ATOM     25  C15 UNL     1      -2.182  -3.716   3.148  1.00  0.00     0.109 A   
ATOM     26  C14 UNL     1      -1.188  -4.481   2.589  1.00  0.00     0.108 A   
ATOM     27  O1  UNL     1      -3.209  -4.466   3.625  1.00  0.00    -0.316 OA  
ATOM     28  O2  UNL     1      -1.468  -5.809   2.639  1.00  0.00    -0.316 OA  
ATOM     29  C17 UNL     1      -2.736  -5.800   3.327  1.00  0.00     0.337 C   
ENDBRANCH  20  21
ENDBRANCH  17  20
ENDBRANCH   1  17
BRANCH   1  30
ATOM     30  C18 UNL     1      -2.735   0.545  -0.630  1.00  0.00     0.043 C   
ATOM     31  C19 UNL     1      -3.384   1.909  -0.388  1.00  0.00     0.010 C   
ATOM     32  C22 UNL     1      -3.917  -0.415  -0.459  1.00  0.00     0.010 C   
ATOM     33  C20 UNL     1      -4.701   1.800  -1.146  1.00  0.00     0.001 C   
ATOM     34  C21 UNL     1      -5.118   0.333  -1.040  1.00  0.00     0.001 C   
ENDBRANCH   1  30
TORSDOF 6
