REMARK SMILES CC(C)C[C@H]([NH2+]Cc1ccc2c(c1)OCO2)c1cn(Cc2cccc(N([O-])[O-])c2F)nn1
REMARK SMILES IDX 17 1 18 2 19 3 31 4 32 5 5 7 4 8 2 9 1 10 3 11 6 12 7 15
REMARK SMILES IDX 8 16 9 17 13 18 10 19 12 20 11 21 14 22 16 23 15 24 20 25
REMARK SMILES IDX 21 26 22 27 29 28 23 29 25 30 24 31 30 32 26 33 27 34 28 35
REMARK H PARENT 18 6 6 13 6 14
ROOT
ATOM     1   C14 UNL     1       1.218  -0.588   1.492  1.00  0.00     0.127 A   
ATOM     2   C15 UNL     1       1.057  -1.425   0.410  1.00  0.00     0.046 A   
ATOM     3   N2  UNL     1       1.144  -2.679   0.954  1.00  0.00    -0.208 N   
ATOM     4   N4  UNL     1       1.451  -2.613   2.263  1.00  0.00    -0.076 NA  
ATOM     5   N5  UNL     1       1.476  -1.337   2.609  1.00  0.00    -0.132 NA  
ATOM     6   H20 UNL     1       0.816  -1.258  -0.631  1.00  0.00     0.083 HD  
ENDROOT
BRANCH   1   7
ATOM     7   C5  UNL     1       1.036   0.885   1.627  1.00  0.00     0.114 C   
BRANCH   7   8
ATOM     8   C4  UNL     1       2.333   1.614   2.027  1.00  0.00     0.064 C   
BRANCH   8   9
ATOM     9   C2  UNL     1       3.483   1.502   1.003  1.00  0.00    -0.012 C   
ATOM     10  C1  UNL     1       3.114   2.094  -0.357  1.00  0.00     0.007 C   
ATOM     11  C3  UNL     1       4.730   2.204   1.550  1.00  0.00     0.007 C   
ENDBRANCH   8   9
ENDBRANCH   7   8
BRANCH   7  12
ATOM     12  N1  UNL     1       0.014   1.169   2.713  1.00  0.00     0.249 N   
ATOM     13  H11 UNL     1       0.022   2.164   2.952  1.00  0.00     0.199 HD  
ATOM     14  H12 UNL     1       0.327   0.651   3.547  1.00  0.00     0.199 HD  
BRANCH  12  15
ATOM     15  C6  UNL     1      -1.394   0.746   2.430  1.00  0.00     0.164 C   
BRANCH  15  16
ATOM     16  C7  UNL     1      -2.006   1.500   1.281  1.00  0.00    -0.002 A   
ATOM     17  C8  UNL     1      -2.396   2.852   1.433  1.00  0.00     0.012 A   
ATOM     18  C12 UNL     1      -2.162   0.872   0.034  1.00  0.00     0.045 A   
ATOM     19  C9  UNL     1      -2.929   3.570   0.357  1.00  0.00     0.037 A   
ATOM     20  C11 UNL     1      -2.691   1.607  -1.006  1.00  0.00     0.109 A   
ATOM     21  C10 UNL     1      -3.062   2.919  -0.850  1.00  0.00     0.108 A   
ATOM     22  O1  UNL     1      -2.900   1.152  -2.269  1.00  0.00    -0.316 OA  
ATOM     23  O2  UNL     1      -3.555   3.457  -1.995  1.00  0.00    -0.316 OA  
ATOM     24  C13 UNL     1      -3.489   2.322  -2.884  1.00  0.00     0.337 C   
ENDBRANCH  15  16
ENDBRANCH  12  15
ENDBRANCH   7  12
ENDBRANCH   1   7
BRANCH   3  25
ATOM     25  C16 UNL     1       0.814  -3.958   0.339  1.00  0.00     0.172 C   
BRANCH  25  26
ATOM     26  C17 UNL     1      -0.605  -4.002  -0.188  1.00  0.00     0.009 A   
ATOM     27  C18 UNL     1      -0.877  -4.601  -1.430  1.00  0.00     0.008 A   
ATOM     28  C22 UNL     1      -1.683  -3.495   0.553  1.00  0.00     0.156 A   
ATOM     29  C19 UNL     1      -2.185  -4.658  -1.929  1.00  0.00     0.003 A   
ATOM     30  C21 UNL     1      -2.977  -3.527   0.037  1.00  0.00     0.154 A   
ATOM     31  C20 UNL     1      -3.244  -4.114  -1.201  1.00  0.00     0.034 A   
ATOM     32  F1  UNL     1      -1.453  -2.965   1.763  1.00  0.00    -0.204 F   
BRANCH  30  33
ATOM     33  N3  UNL     1      -4.047  -2.895   0.785  1.00  0.00     0.095 N   
ATOM     34  O3  UNL     1      -5.159  -3.436   0.755  1.00  0.00    -0.138 OA  
ATOM     35  O4  UNL     1      -3.782  -1.836   1.376  1.00  0.00    -0.138 OA  
ENDBRANCH  30  33
ENDBRANCH  25  26
ENDBRANCH   3  25
TORSDOF 9
