REMARK SMILES CC(C)[C@H]([NH2+]Cc1ccc2c(c1)OCO2)c1cn(Cc2cc(F)cc(F)c2O)nn1
REMARK SMILES IDX 16 1 17 2 18 3 29 4 30 5 4 7 2 8 1 9 3 10 5 11 6 14 7 15
REMARK SMILES IDX 8 16 12 17 9 18 11 19 10 20 13 21 15 22 14 23 19 24 20 25
REMARK SMILES IDX 21 26 27 27 22 28 25 29 24 30 23 31 26 32 28 33
REMARK H PARENT 17 6 5 12 5 13 28 34
ROOT
ATOM     1   C13 UNL     1      -0.525   1.304   1.087  1.00  0.00     0.127 A   
ATOM     2   C14 UNL     1      -1.668   0.723   0.586  1.00  0.00     0.046 A   
ATOM     3   N2  UNL     1      -1.960   1.471  -0.521  1.00  0.00    -0.208 N   
ATOM     4   N3  UNL     1      -1.050   2.452  -0.693  1.00  0.00    -0.076 NA  
ATOM     5   N4  UNL     1      -0.167   2.360   0.286  1.00  0.00    -0.132 NA  
ATOM     6   H18 UNL     1      -2.267  -0.128   0.881  1.00  0.00     0.083 HD  
ENDROOT
BRANCH   1   7
ATOM     7   C4  UNL     1       0.365   0.927   2.228  1.00  0.00     0.117 C   
BRANCH   7   8
ATOM     8   C2  UNL     1       0.100   1.751   3.515  1.00  0.00     0.037 C   
ATOM     9   C1  UNL     1       0.979   1.278   4.684  1.00  0.00     0.014 C   
ATOM     10  C3  UNL     1      -1.368   1.665   3.958  1.00  0.00     0.014 C   
ENDBRANCH   7   8
BRANCH   7  11
ATOM     11  N1  UNL     1       1.800   1.156   1.778  1.00  0.00     0.249 N   
ATOM     12  H9  UNL     1       1.736   1.771   0.950  1.00  0.00     0.199 HD  
ATOM     13  H10 UNL     1       2.323   1.709   2.463  1.00  0.00     0.199 HD  
BRANCH  11  14
ATOM     14  C5  UNL     1       2.578  -0.054   1.403  1.00  0.00     0.164 C   
BRANCH  14  15
ATOM     15  C6  UNL     1       1.985  -0.840   0.267  1.00  0.00    -0.002 A   
ATOM     16  C7  UNL     1       1.938  -0.296  -1.040  1.00  0.00     0.012 A   
ATOM     17  C11 UNL     1       1.462  -2.124   0.497  1.00  0.00     0.045 A   
ATOM     18  C8  UNL     1       1.378  -1.017  -2.101  1.00  0.00     0.037 A   
ATOM     19  C10 UNL     1       0.920  -2.809  -0.571  1.00  0.00     0.109 A   
ATOM     20  C9  UNL     1       0.881  -2.273  -1.834  1.00  0.00     0.108 A   
ATOM     21  O1  UNL     1       0.379  -4.054  -0.518  1.00  0.00    -0.316 OA  
ATOM     22  O2  UNL     1       0.319  -3.117  -2.737  1.00  0.00    -0.316 OA  
ATOM     23  C12 UNL     1       0.038  -4.264  -1.907  1.00  0.00     0.337 C   
ENDBRANCH  14  15
ENDBRANCH  11  14
ENDBRANCH   7  11
ENDBRANCH   1   7
BRANCH   3  24
ATOM     24  C15 UNL     1      -3.072   1.323  -1.442  1.00  0.00     0.172 C   
BRANCH  24  25
ATOM     25  C16 UNL     1      -2.758   0.312  -2.512  1.00  0.00     0.007 A   
ATOM     26  C17 UNL     1      -2.094   0.704  -3.686  1.00  0.00     0.047 A   
ATOM     27  C21 UNL     1      -3.089  -1.037  -2.364  1.00  0.00     0.112 A   
ATOM     28  C18 UNL     1      -1.796  -0.235  -4.675  1.00  0.00     0.126 A   
ATOM     29  C20 UNL     1      -2.789  -1.962  -3.367  1.00  0.00     0.156 A   
ATOM     30  C19 UNL     1      -2.144  -1.571  -4.530  1.00  0.00     0.081 A   
ATOM     31  F1  UNL     1      -1.155   0.162  -5.781  1.00  0.00    -0.207 F   
ATOM     32  F2  UNL     1      -3.120  -3.248  -3.186  1.00  0.00    -0.204 F   
BRANCH  27  33
ATOM     33  O3  UNL     1      -3.708  -1.456  -1.218  1.00  0.00    -0.358 OA  
ATOM     34  H23 UNL     1      -3.938  -2.399  -1.349  1.00  0.00     0.218 HD  
ENDBRANCH  27  33
ENDBRANCH  24  25
ENDBRANCH   3  24
TORSDOF 8
