REMARK SMILES CC(=O)c1cc(-n2cc([C@H](CC(C)C)[NH2+]Cc3ccc4c(c3)OCO4)nn2)ccc1O
REMARK SMILES IDX 7 1 8 2 9 3 26 4 27 5 6 6 4 7 5 8 30 9 29 10 28 11 2 12 1 13
REMARK SMILES IDX 3 14 31 15 10 17 11 18 12 19 13 20 14 21 15 22 16 25 17 26
REMARK SMILES IDX 18 27 22 28 19 29 21 30 20 31 23 32 25 33 24 34
REMARK H PARENT 31 16 15 23 15 24
ROOT
ATOM     1   N1  UNL     1      -0.208  -0.139  -2.026  1.00  0.00    -0.181 N   
ATOM     2   C6  UNL     1       0.129  -0.480  -0.732  1.00  0.00     0.135 A   
ATOM     3   C7  UNL     1      -1.072  -0.605  -0.069  1.00  0.00     0.127 A   
ATOM     4   N3  UNL     1      -2.089  -0.321  -0.933  1.00  0.00    -0.131 NA  
ATOM     5   N4  UNL     1      -1.560  -0.031  -2.109  1.00  0.00    -0.071 NA  
ENDROOT
BRANCH   1   6
ATOM     6   C5  UNL     1       0.634   0.104  -3.140  1.00  0.00     0.058 A   
ATOM     7   C3  UNL     1       0.874   0.683  -5.501  1.00  0.00     0.049 A   
ATOM     8   C4  UNL     1       0.060   0.435  -4.384  1.00  0.00     0.040 A   
ATOM     9   C23 UNL     1       2.266   0.598  -5.354  1.00  0.00     0.082 A   
ATOM     10  C22 UNL     1       2.836   0.273  -4.126  1.00  0.00     0.036 A   
ATOM     11  C21 UNL     1       2.026   0.022  -3.017  1.00  0.00     0.029 A   
BRANCH   7  12
ATOM     12  C2  UNL     1       0.290   1.034  -6.830  1.00  0.00     0.162 C   
ATOM     13  C1  UNL     1      -1.204   1.126  -6.990  1.00  0.00     0.093 C   
ATOM     14  O1  UNL     1       1.051   1.243  -7.776  1.00  0.00    -0.294 OA  
ENDBRANCH   7  12
BRANCH   9  15
ATOM     15  O4  UNL     1       3.147   0.823  -6.376  1.00  0.00    -0.360 OA  
ATOM     16  H27 UNL     1       2.634   1.037  -7.189  1.00  0.00     0.218 HD  
ENDBRANCH   9  15
ENDBRANCH   1   6
BRANCH   3  17
ATOM     17  C8  UNL     1      -1.380  -0.934   1.355  1.00  0.00     0.114 C   
BRANCH  17  18
ATOM     18  C9  UNL     1      -1.819  -2.402   1.538  1.00  0.00     0.064 C   
BRANCH  18  19
ATOM     19  C10 UNL     1      -0.745  -3.457   1.197  1.00  0.00    -0.012 C   
ATOM     20  C11 UNL     1       0.499  -3.326   2.077  1.00  0.00     0.007 C   
ATOM     21  C12 UNL     1      -1.336  -4.862   1.347  1.00  0.00     0.007 C   
ENDBRANCH  18  19
ENDBRANCH  17  18
BRANCH  17  22
ATOM     22  N2  UNL     1      -2.521  -0.074   1.864  1.00  0.00     0.249 N   
ATOM     23  H16 UNL     1      -3.305  -0.205   1.210  1.00  0.00     0.199 HD  
ATOM     24  H17 UNL     1      -2.831  -0.416   2.779  1.00  0.00     0.199 HD  
BRANCH  22  25
ATOM     25  C13 UNL     1      -2.262   1.394   1.961  1.00  0.00     0.164 C   
BRANCH  25  26
ATOM     26  C14 UNL     1      -1.130   1.733   2.890  1.00  0.00    -0.002 A   
ATOM     27  C15 UNL     1       0.090   2.231   2.372  1.00  0.00     0.012 A   
ATOM     28  C19 UNL     1      -1.260   1.524   4.274  1.00  0.00     0.045 A   
ATOM     29  C16 UNL     1       1.171   2.504   3.216  1.00  0.00     0.037 A   
ATOM     30  C18 UNL     1      -0.173   1.802   5.078  1.00  0.00     0.109 A   
ATOM     31  C17 UNL     1       1.008   2.277   4.565  1.00  0.00     0.108 A   
ATOM     32  O2  UNL     1      -0.128   1.645   6.426  1.00  0.00    -0.316 OA  
ATOM     33  O3  UNL     1       1.945   2.482   5.526  1.00  0.00    -0.316 OA  
ATOM     34  C20 UNL     1       1.214   2.102   6.711  1.00  0.00     0.337 C   
ENDBRANCH  25  26
ENDBRANCH  22  25
ENDBRANCH  17  22
ENDBRANCH   3  17
TORSDOF 9
