REMARK SMILES CC(C)C[C@H]([NH2+]Cc1ccc2c(c1)OCO2)c1cn(Cc2ccc(N)c(N)c2)nn1
REMARK SMILES IDX 17 1 18 2 19 3 29 4 30 5 5 7 4 8 2 9 1 10 3 11 6 12 7 15
REMARK SMILES IDX 8 16 9 17 13 18 10 19 12 20 11 21 14 22 16 23 15 24 20 25
REMARK SMILES IDX 21 26 22 27 28 28 23 29 26 30 24 31 27 32 25 35
REMARK H PARENT 18 6 6 13 6 14 27 33 27 34 25 36 25 37
ROOT
ATOM     1   C14 UNL     1      -2.118  -2.130   0.366  1.00  0.00     0.127 A   
ATOM     2   C15 UNL     1      -2.075  -1.636  -0.921  1.00  0.00     0.046 A   
ATOM     3   N2  UNL     1      -1.543  -2.668  -1.650  1.00  0.00    -0.208 N   
ATOM     4   N5  UNL     1      -1.366  -3.755  -0.878  1.00  0.00    -0.076 NA  
ATOM     5   N6  UNL     1      -1.709  -3.435   0.360  1.00  0.00    -0.132 NA  
ATOM     6   H20 UNL     1      -2.264  -0.665  -1.355  1.00  0.00     0.083 HD  
ENDROOT
BRANCH   1   7
ATOM     7   C5  UNL     1      -2.365  -1.435   1.666  1.00  0.00     0.114 C   
BRANCH   7   8
ATOM     8   C4  UNL     1      -3.645  -0.576   1.629  1.00  0.00     0.064 C   
BRANCH   8   9
ATOM     9   C2  UNL     1      -4.042   0.119   2.948  1.00  0.00    -0.012 C   
ATOM     10  C1  UNL     1      -4.254  -0.870   4.093  1.00  0.00     0.007 C   
ATOM     11  C3  UNL     1      -5.318   0.938   2.732  1.00  0.00     0.007 C   
ENDBRANCH   8   9
ENDBRANCH   7   8
BRANCH   7  12
ATOM     12  N1  UNL     1      -1.192  -0.561   2.029  1.00  0.00     0.249 N   
ATOM     13  H11 UNL     1      -1.382  -0.048   2.894  1.00  0.00     0.199 HD  
ATOM     14  H12 UNL     1      -1.050   0.144   1.298  1.00  0.00     0.199 HD  
BRANCH  12  15
ATOM     15  C6  UNL     1       0.110  -1.277   2.215  1.00  0.00     0.164 C   
BRANCH  15  16
ATOM     16  C7  UNL     1       1.171  -0.296   2.632  1.00  0.00    -0.002 A   
ATOM     17  C8  UNL     1       1.974   0.336   1.653  1.00  0.00     0.012 A   
ATOM     18  C12 UNL     1       1.326   0.053   3.984  1.00  0.00     0.045 A   
ATOM     19  C9  UNL     1       2.924   1.299   2.012  1.00  0.00     0.037 A   
ATOM     20  C11 UNL     1       2.270   1.009   4.303  1.00  0.00     0.109 A   
ATOM     21  C10 UNL     1       3.045   1.615   3.346  1.00  0.00     0.108 A   
ATOM     22  O1  UNL     1       2.539   1.465   5.555  1.00  0.00    -0.316 OA  
ATOM     23  O2  UNL     1       3.902   2.528   3.874  1.00  0.00    -0.316 OA  
ATOM     24  C13 UNL     1       3.592   2.417   5.279  1.00  0.00     0.337 C   
ENDBRANCH  15  16
ENDBRANCH  12  15
ENDBRANCH   7  12
ENDBRANCH   1   7
BRANCH   3  25
ATOM     25  C16 UNL     1      -0.953  -2.597  -2.980  1.00  0.00     0.169 C   
BRANCH  25  26
ATOM     26  C17 UNL     1       0.248  -1.679  -2.941  1.00  0.00    -0.027 A   
ATOM     27  C18 UNL     1       0.190  -0.394  -3.488  1.00  0.00     0.007 A   
ATOM     28  C22 UNL     1       1.402  -2.064  -2.236  1.00  0.00     0.030 A   
ATOM     29  C19 UNL     1       1.249   0.497  -3.295  1.00  0.00     0.025 A   
ATOM     30  C21 UNL     1       2.485  -1.190  -2.068  1.00  0.00     0.045 A   
ATOM     31  C20 UNL     1       2.405   0.113  -2.603  1.00  0.00     0.044 A   
BRANCH  30  32
ATOM     32  N4  UNL     1       3.504  -1.561  -1.168  1.00  0.00    -0.357 N   
ATOM     33  H27 UNL     1       3.691  -2.560  -1.166  1.00  0.00     0.143 HD  
ATOM     34  H28 UNL     1       4.359  -1.031  -1.284  1.00  0.00     0.143 HD  
ENDBRANCH  30  32
BRANCH  31  35
ATOM     35  N3  UNL     1       3.353   1.102  -2.273  1.00  0.00    -0.357 N   
ATOM     36  H25 UNL     1       3.375   1.871  -2.938  1.00  0.00     0.143 HD  
ATOM     37  H26 UNL     1       4.284   0.730  -2.122  1.00  0.00     0.143 HD  
ENDBRANCH  31  35
ENDBRANCH  25  26
ENDBRANCH   3  25
TORSDOF 10
