REMARK SMILES CC(C)[C@H]([NH2+]Cc1ccc2c(c1)OCO2)c1cn(Cc2cccc(F)c2)nn1
REMARK SMILES IDX 16 1 17 2 18 3 27 4 28 5 4 7 2 8 1 9 3 10 5 11 6 14 7 15
REMARK SMILES IDX 8 16 12 17 9 18 11 19 10 20 13 21 15 22 14 23 19 24 20 25
REMARK SMILES IDX 21 26 26 27 22 28 24 29 23 30 25 31
REMARK H PARENT 17 6 5 12 5 13
ROOT
ATOM     1   C13 UNL     1       0.841  -0.586  -1.324  1.00  0.00     0.127 A   
ATOM     2   C14 UNL     1       2.125  -0.173  -1.045  1.00  0.00     0.046 A   
ATOM     3   N2  UNL     1       2.145   1.136  -1.446  1.00  0.00    -0.208 N   
ATOM     4   N3  UNL     1       0.948   1.502  -1.947  1.00  0.00    -0.076 NA  
ATOM     5   N4  UNL     1       0.144   0.455  -1.885  1.00  0.00    -0.132 NA  
ATOM     6   H18 UNL     1       2.985  -0.655  -0.602  1.00  0.00     0.083 HD  
ENDROOT
BRANCH   1   7
ATOM     7   C4  UNL     1       0.144  -1.889  -1.081  1.00  0.00     0.117 C   
BRANCH   7   8
ATOM     8   C2  UNL     1       0.448  -2.929  -2.190  1.00  0.00     0.037 C   
ATOM     9   C1  UNL     1      -0.146  -2.572  -3.559  1.00  0.00     0.014 C   
ATOM     10  C3  UNL     1       0.001  -4.339  -1.786  1.00  0.00     0.014 C   
ENDBRANCH   7   8
BRANCH   7  11
ATOM     11  N1  UNL     1      -1.340  -1.670  -0.958  1.00  0.00     0.249 N   
ATOM     12  H9  UNL     1      -1.606  -1.017  -1.711  1.00  0.00     0.199 HD  
ATOM     13  H10 UNL     1      -1.875  -2.527  -1.118  1.00  0.00     0.199 HD  
BRANCH  11  14
ATOM     14  C5  UNL     1      -1.784  -1.050   0.322  1.00  0.00     0.164 C   
BRANCH  14  15
ATOM     15  C6  UNL     1      -3.256  -0.754   0.279  1.00  0.00    -0.002 A   
ATOM     16  C7  UNL     1      -3.712   0.513  -0.161  1.00  0.00     0.012 A   
ATOM     17  C11 UNL     1      -4.190  -1.747   0.619  1.00  0.00     0.045 A   
ATOM     18  C8  UNL     1      -5.079   0.793  -0.248  1.00  0.00     0.037 A   
ATOM     19  C10 UNL     1      -5.530  -1.438   0.519  1.00  0.00     0.109 A   
ATOM     20  C9  UNL     1      -5.963  -0.204   0.098  1.00  0.00     0.108 A   
ATOM     21  O1  UNL     1      -6.557  -2.281   0.801  1.00  0.00    -0.316 OA  
ATOM     22  O2  UNL     1      -7.318  -0.114   0.067  1.00  0.00    -0.316 OA  
ATOM     23  C12 UNL     1      -7.693  -1.423   0.544  1.00  0.00     0.337 C   
ENDBRANCH  14  15
ENDBRANCH  11  14
ENDBRANCH   7  11
ENDBRANCH   1   7
BRANCH   3  24
ATOM     24  C15 UNL     1       3.241   2.088  -1.369  1.00  0.00     0.169 C   
BRANCH  24  25
ATOM     25  C16 UNL     1       3.397   2.620   0.034  1.00  0.00    -0.026 A   
ATOM     26  C17 UNL     1       4.485   2.232   0.833  1.00  0.00     0.005 A   
ATOM     27  C21 UNL     1       2.449   3.507   0.568  1.00  0.00     0.044 A   
ATOM     28  C18 UNL     1       4.620   2.721   2.136  1.00  0.00     0.003 A   
ATOM     29  C20 UNL     1       2.592   3.980   1.868  1.00  0.00     0.123 A   
ATOM     30  C19 UNL     1       3.669   3.596   2.656  1.00  0.00     0.039 A   
ATOM     31  F1  UNL     1       1.670   4.810   2.370  1.00  0.00    -0.207 F   
ENDBRANCH  24  25
ENDBRANCH   3  24
TORSDOF 7
