REMARK SMILES O=C(CCn1cc([C@@H]([NH2+]Cc2ccc3c(c2)OCO3)C2CCCCC2)nn1)c1ccc(F)cc1
REMARK SMILES IDX 5 1 6 2 7 3 26 4 27 5 4 7 3 8 2 9 1 10 28 11 29 12 34 13
REMARK SMILES IDX 30 14 33 15 31 16 32 17 8 18 9 19 10 22 11 23 12 24 16 25
REMARK SMILES IDX 13 26 15 27 14 28 17 29 19 30 18 31 20 32 21 33 25 34 22 35
REMARK SMILES IDX 24 36 23 37
REMARK H PARENT 6 6 9 20 9 21
ROOT
ATOM     1   N1  UNL     1      -2.799  -2.688   1.222  1.00  0.00    -0.212 N   
ATOM     2   C4  UNL     1      -1.934  -1.655   1.440  1.00  0.00     0.045 A   
ATOM     3   C5  UNL     1      -2.635  -0.549   1.017  1.00  0.00     0.127 A   
ATOM     4   N3  UNL     1      -3.894  -0.930   0.631  1.00  0.00    -0.132 NA  
ATOM     5   N4  UNL     1      -3.983  -2.243   0.769  1.00  0.00    -0.076 NA  
ATOM     6   H5  UNL     1      -0.918  -1.804   1.779  1.00  0.00     0.083 HD  
ENDROOT
BRANCH   1   7
ATOM     7   C3  UNL     1      -2.531  -4.110   1.300  1.00  0.00     0.142 C   
BRANCH   7   8
ATOM     8   C2  UNL     1      -2.295  -4.734  -0.069  1.00  0.00     0.102 C   
BRANCH   8   9
ATOM     9   C1  UNL     1      -1.000  -4.232  -0.678  1.00  0.00     0.164 C   
ATOM     10  O1  UNL     1      -0.923  -3.092  -1.140  1.00  0.00    -0.294 OA  
BRANCH   9  11
ATOM     11  C21 UNL     1       0.209  -5.108  -0.700  1.00  0.00     0.018 A   
ATOM     12  C22 UNL     1       1.243  -4.783  -1.595  1.00  0.00     0.015 A   
ATOM     13  C26 UNL     1       0.355  -6.212   0.152  1.00  0.00     0.015 A   
ATOM     14  C23 UNL     1       2.401  -5.560  -1.645  1.00  0.00     0.040 A   
ATOM     15  C25 UNL     1       1.518  -6.987   0.096  1.00  0.00     0.040 A   
ATOM     16  C24 UNL     1       2.526  -6.656  -0.800  1.00  0.00     0.123 A   
ATOM     17  F1  UNL     1       3.636  -7.400  -0.849  1.00  0.00    -0.207 F   
ENDBRANCH   9  11
ENDBRANCH   8   9
ENDBRANCH   7   8
ENDBRANCH   1   7
BRANCH   3  18
ATOM     18  C6  UNL     1      -2.199   0.865   0.811  1.00  0.00     0.117 C   
BRANCH  18  19
ATOM     19  N2  UNL     1      -2.586   1.262  -0.602  1.00  0.00     0.249 N   
ATOM     20  H7  UNL     1      -3.567   0.972  -0.718  1.00  0.00     0.199 HD  
ATOM     21  H8  UNL     1      -2.552   2.274  -0.733  1.00  0.00     0.199 HD  
BRANCH  19  22
ATOM     22  C7  UNL     1      -1.798   0.616  -1.698  1.00  0.00     0.164 C   
BRANCH  22  23
ATOM     23  C8  UNL     1      -0.358   1.049  -1.713  1.00  0.00    -0.002 A   
ATOM     24  C9  UNL     1       0.665   0.116  -1.423  1.00  0.00     0.012 A   
ATOM     25  C13 UNL     1      -0.017   2.385  -1.991  1.00  0.00     0.045 A   
ATOM     26  C10 UNL     1       2.009   0.505  -1.392  1.00  0.00     0.037 A   
ATOM     27  C12 UNL     1       1.316   2.736  -1.948  1.00  0.00     0.109 A   
ATOM     28  C11 UNL     1       2.300   1.824  -1.655  1.00  0.00     0.108 A   
ATOM     29  O2  UNL     1       1.812   3.981  -2.173  1.00  0.00    -0.316 OA  
ATOM     30  O3  UNL     1       3.539   2.378  -1.662  1.00  0.00    -0.316 OA  
ATOM     31  C14 UNL     1       3.230   3.742  -2.021  1.00  0.00     0.337 C   
ENDBRANCH  22  23
ENDBRANCH  19  22
ENDBRANCH  18  19
BRANCH  18  32
ATOM     32  C15 UNL     1      -2.859   1.850   1.822  1.00  0.00     0.043 C   
ATOM     33  C16 UNL     1      -2.598   1.450   3.294  1.00  0.00     0.010 C   
ATOM     34  C20 UNL     1      -2.405   3.317   1.649  1.00  0.00     0.010 C   
ATOM     35  C17 UNL     1      -1.137   1.637   3.705  1.00  0.00     0.001 C   
ATOM     36  C19 UNL     1      -0.942   3.537   2.039  1.00  0.00     0.001 C   
ATOM     37  C18 UNL     1      -0.664   3.067   3.464  1.00  0.00     0.000 C   
ENDBRANCH  18  32
ENDBRANCH   3  18
TORSDOF 9
