REMARK SMILES Nc1ccc(Cl)c(-n2cc([C@@H]([NH2+]Cc3ccc4c(c3)OCO4)C3CCCC3)nn2)c1
REMARK SMILES IDX 8 1 9 2 10 3 28 4 29 5 7 6 2 7 3 8 30 9 4 10 5 11 6 12 1 13
REMARK SMILES IDX 11 16 12 17 13 20 14 21 15 22 19 23 16 24 18 25 17 26 20 27
REMARK SMILES IDX 22 28 21 29 23 30 24 31 27 32 25 33 26 34
REMARK H PARENT 1 14 1 15 12 18 12 19
ROOT
ATOM     1   N2  UNL     1       0.516  -1.172  -2.527  1.00  0.00    -0.179 N   
ATOM     2   C6  UNL     1       0.655  -1.040  -1.159  1.00  0.00     0.135 A   
ATOM     3   C7  UNL     1      -0.270  -0.093  -0.779  1.00  0.00     0.127 A   
ATOM     4   N4  UNL     1      -0.954   0.325  -1.881  1.00  0.00    -0.131 NA  
ATOM     5   N5  UNL     1      -0.499  -0.350  -2.922  1.00  0.00    -0.071 NA  
ENDROOT
BRANCH   1   6
ATOM     6   C5  UNL     1       1.205  -1.982  -3.471  1.00  0.00     0.078 A   
ATOM     7   C1  UNL     1       1.152  -2.976  -5.720  1.00  0.00     0.025 A   
ATOM     8   C2  UNL     1       2.391  -3.558  -5.476  1.00  0.00     0.025 A   
ATOM     9   C22 UNL     1       0.596  -2.152  -4.737  1.00  0.00     0.050 A   
ATOM     10  C3  UNL     1       3.022  -3.388  -4.243  1.00  0.00     0.024 A   
ATOM     11  C4  UNL     1       2.440  -2.604  -3.237  1.00  0.00     0.064 A   
ATOM     12  CL1 UNL     1       3.419  -2.391  -1.829  1.00  0.00    -0.082 Cl  
BRANCH   7  13
ATOM     13  N1  UNL     1       0.589  -3.028  -6.996  1.00  0.00    -0.358 N   
ATOM     14  H1  UNL     1       0.866  -3.832  -7.553  1.00  0.00     0.143 HD  
ATOM     15  H2  UNL     1      -0.412  -2.863  -7.035  1.00  0.00     0.143 HD  
ENDBRANCH   7  13
ENDBRANCH   1   6
BRANCH   3  16
ATOM     16  C8  UNL     1      -0.561   0.515   0.554  1.00  0.00     0.117 C   
BRANCH  16  17
ATOM     17  N3  UNL     1      -0.943   1.973   0.396  1.00  0.00     0.249 N   
ATOM     18  H7  UNL     1      -1.331   2.332   1.273  1.00  0.00     0.199 HD  
ATOM     19  H8  UNL     1      -1.695   2.005  -0.307  1.00  0.00     0.199 HD  
BRANCH  17  20
ATOM     20  C9  UNL     1       0.136   2.897  -0.071  1.00  0.00     0.164 C   
BRANCH  20  21
ATOM     21  C10 UNL     1       1.266   3.024   0.912  1.00  0.00    -0.002 A   
ATOM     22  C11 UNL     1       2.524   2.439   0.631  1.00  0.00     0.012 A   
ATOM     23  C15 UNL     1       1.074   3.700   2.130  1.00  0.00     0.045 A   
ATOM     24  C12 UNL     1       3.575   2.517   1.551  1.00  0.00     0.037 A   
ATOM     25  C14 UNL     1       2.131   3.757   3.014  1.00  0.00     0.109 A   
ATOM     26  C13 UNL     1       3.346   3.182   2.735  1.00  0.00     0.108 A   
ATOM     27  O1  UNL     1       2.110   4.362   4.231  1.00  0.00    -0.316 OA  
ATOM     28  O2  UNL     1       4.244   3.353   3.739  1.00  0.00    -0.316 OA  
ATOM     29  C16 UNL     1       3.466   4.130   4.676  1.00  0.00     0.337 C   
ENDBRANCH  20  21
ENDBRANCH  17  20
ENDBRANCH  16  17
BRANCH  16  30
ATOM     30  C17 UNL     1      -1.686  -0.176   1.349  1.00  0.00     0.043 C   
ATOM     31  C18 UNL     1      -1.440  -1.652   1.667  1.00  0.00     0.010 C   
ATOM     32  C21 UNL     1      -3.069  -0.216   0.692  1.00  0.00     0.010 C   
ATOM     33  C19 UNL     1      -2.790  -2.132   2.189  1.00  0.00     0.001 C   
ATOM     34  C20 UNL     1      -3.839  -1.265   1.493  1.00  0.00     0.001 C   
ENDBRANCH  16  30
ENDBRANCH   3  16
TORSDOF 7
