REMARK SMILES c1ccc2c(c1)C[C@H](Cn1cc([C@@H]([NH2+]Cc3ccc4c(c3)OCO4)C3CCCCC3)nn1)CO2
REMARK SMILES IDX 13 1 12 2 10 3 11 4 32 5 31 6 9 8 8 9 1 10 2 11 6 12 3 13
REMARK SMILES IDX 5 14 4 15 7 16 34 17 33 18 14 19 15 22 16 23 17 24 21 25
REMARK SMILES IDX 18 26 20 27 19 28 22 29 24 30 23 31 25 32 26 33 30 34 27 35
REMARK SMILES IDX 29 36 28 37
REMARK H PARENT 11 7 14 20 14 21
ROOT
ATOM     1   C12 UNL     1      -0.401   1.125   0.499  1.00  0.00     0.117 C   
ENDROOT
BRANCH   1   2
ATOM     2   C11 UNL     1       0.181  -0.130   1.069  1.00  0.00     0.127 A   
ATOM     3   N1  UNL     1       0.803  -1.849   2.227  1.00  0.00    -0.212 N   
ATOM     4   C10 UNL     1      -0.135  -0.854   2.198  1.00  0.00     0.045 A   
ATOM     5   N4  UNL     1       1.688  -1.699   1.222  1.00  0.00    -0.076 NA  
ATOM     6   N3  UNL     1       1.304  -0.666   0.492  1.00  0.00    -0.132 NA  
ATOM     7   H10 UNL     1      -0.904  -0.759   2.952  1.00  0.00     0.083 HD  
BRANCH   3   8
ATOM     8   C9  UNL     1       1.059  -2.814   3.270  1.00  0.00     0.140 C   
BRANCH   8   9
ATOM     9   C8  UNL     1       0.251  -4.125   3.263  1.00  0.00     0.039 C   
ATOM     10  C1  UNL     1      -4.395  -3.323   1.735  1.00  0.00     0.000 A   
ATOM     11  C2  UNL     1      -3.960  -3.506   0.425  1.00  0.00     0.003 A   
ATOM     12  C6  UNL     1      -3.494  -3.449   2.793  1.00  0.00     0.006 A   
ATOM     13  C3  UNL     1      -2.622  -3.806   0.172  1.00  0.00     0.034 A   
ATOM     14  C5  UNL     1      -2.149  -3.760   2.548  1.00  0.00    -0.017 A   
ATOM     15  C4  UNL     1      -1.726  -3.946   1.230  1.00  0.00     0.078 A   
ATOM     16  C7  UNL     1      -1.206  -3.944   3.700  1.00  0.00     0.046 C   
ATOM     17  O3  UNL     1      -0.431  -4.231   0.896  1.00  0.00    -0.345 OA  
ATOM     18  C27 UNL     1       0.306  -4.875   1.935  1.00  0.00     0.173 C   
ENDBRANCH   8   9
ENDBRANCH   3   8
ENDBRANCH   1   2
BRANCH   1  19
ATOM     19  N2  UNL     1       0.735   1.923  -0.096  1.00  0.00     0.249 N   
ATOM     20  H12 UNL     1       1.139   1.383  -0.874  1.00  0.00     0.199 HD  
ATOM     21  H13 UNL     1       1.500   1.917   0.594  1.00  0.00     0.199 HD  
BRANCH  19  22
ATOM     22  C13 UNL     1       0.476   3.324  -0.497  1.00  0.00     0.164 C   
BRANCH  22  23
ATOM     23  C14 UNL     1       1.748   3.991  -0.938  1.00  0.00    -0.002 A   
ATOM     24  C15 UNL     1       2.524   4.737  -0.019  1.00  0.00     0.012 A   
ATOM     25  C19 UNL     1       2.203   3.831  -2.259  1.00  0.00     0.045 A   
ATOM     26  C16 UNL     1       3.732   5.325  -0.411  1.00  0.00     0.037 A   
ATOM     27  C18 UNL     1       3.398   4.422  -2.611  1.00  0.00     0.109 A   
ATOM     28  C17 UNL     1       4.141   5.148  -1.714  1.00  0.00     0.108 A   
ATOM     29  O1  UNL     1       3.977   4.362  -3.838  1.00  0.00    -0.316 OA  
ATOM     30  O2  UNL     1       5.282   5.639  -2.264  1.00  0.00    -0.316 OA  
ATOM     31  C20 UNL     1       5.174   5.141  -3.615  1.00  0.00     0.337 C   
ENDBRANCH  22  23
ENDBRANCH  19  22
ENDBRANCH   1  19
BRANCH   1  32
ATOM     32  C21 UNL     1      -1.523   0.907  -0.548  1.00  0.00     0.043 C   
ATOM     33  C22 UNL     1      -1.087   0.122  -1.800  1.00  0.00     0.010 C   
ATOM     34  C26 UNL     1      -2.766   0.247   0.079  1.00  0.00     0.010 C   
ATOM     35  C23 UNL     1      -2.227   0.010  -2.812  1.00  0.00     0.001 C   
ATOM     36  C25 UNL     1      -3.908   0.127  -0.930  1.00  0.00     0.001 C   
ATOM     37  C24 UNL     1      -3.475  -0.608  -2.195  1.00  0.00     0.000 C   
ENDBRANCH   1  32
TORSDOF 7
