REMARK SMILES OC[C@H](c1cccnc1Cl)n1cc([C@@H]([NH2+]Cc2ccc3c(c2)OCO3)C2CCCC2)nn1
REMARK SMILES IDX 11 1 12 2 13 3 31 4 32 5 3 7 2 8 1 9 4 11 5 12 9 13 6 14
REMARK SMILES IDX 8 15 7 16 10 17 14 18 15 19 16 22 17 23 18 24 22 25 19 26
REMARK SMILES IDX 21 27 20 28 23 29 25 30 24 31 26 32 27 33 30 34 28 35 29 36
REMARK H PARENT 12 6 1 10 15 20 15 21
ROOT
ATOM     1   N2  UNL     1      -1.331   1.736   1.476  1.00  0.00    -0.202 N   
ATOM     2   C8  UNL     1      -0.931   0.589   2.108  1.00  0.00     0.046 A   
ATOM     3   C9  UNL     1      -0.315  -0.144   1.119  1.00  0.00     0.127 A   
ATOM     4   N4  UNL     1      -0.386   0.549  -0.064  1.00  0.00    -0.132 NA  
ATOM     5   N5  UNL     1      -1.010   1.692   0.163  1.00  0.00    -0.075 NA  
ATOM     6   H8  UNL     1      -1.120   0.414   3.159  1.00  0.00     0.083 HD  
ENDROOT
BRANCH   1   7
ATOM     7   C2  UNL     1      -2.030   2.889   2.050  1.00  0.00     0.158 C   
BRANCH   7   8
ATOM     8   C1  UNL     1      -3.419   3.070   1.406  1.00  0.00     0.186 C   
BRANCH   8   9
ATOM     9   O1  UNL     1      -4.300   2.032   1.843  1.00  0.00    -0.394 OA  
ATOM     10  H1  UNL     1      -5.196   2.269   1.535  1.00  0.00     0.210 HD  
ENDBRANCH   8   9
ENDBRANCH   7   8
BRANCH   7  11
ATOM     11  C3  UNL     1      -1.138   4.112   1.992  1.00  0.00     0.014 A   
ATOM     12  C4  UNL     1      -1.124   4.969   0.880  1.00  0.00     0.010 A   
ATOM     13  C7  UNL     1      -0.252   4.433   3.023  1.00  0.00     0.134 A   
ATOM     14  C5  UNL     1      -0.286   6.081   0.862  1.00  0.00     0.021 A   
ATOM     15  N1  UNL     1       0.571   5.500   3.027  1.00  0.00    -0.244 NA  
ATOM     16  C6  UNL     1       0.534   6.306   1.950  1.00  0.00     0.113 A   
ATOM     17  CL1 UNL     1      -0.069   3.466   4.437  1.00  0.00    -0.062 Cl  
ENDBRANCH   7  11
ENDBRANCH   1   7
BRANCH   3  18
ATOM     18  C10 UNL     1       0.278  -1.517   1.129  1.00  0.00     0.117 C   
BRANCH  18  19
ATOM     19  N3  UNL     1      -0.010  -2.188  -0.192  1.00  0.00     0.249 N   
ATOM     20  H10 UNL     1       0.189  -1.478  -0.914  1.00  0.00     0.199 HD  
ATOM     21  H11 UNL     1       0.624  -2.973  -0.371  1.00  0.00     0.199 HD  
BRANCH  19  22
ATOM     22  C11 UNL     1      -1.423  -2.625  -0.380  1.00  0.00     0.164 C   
BRANCH  22  23
ATOM     23  C12 UNL     1      -1.774  -2.724  -1.841  1.00  0.00    -0.002 A   
ATOM     24  C13 UNL     1      -1.589  -3.935  -2.552  1.00  0.00     0.012 A   
ATOM     25  C17 UNL     1      -2.262  -1.588  -2.517  1.00  0.00     0.045 A   
ATOM     26  C14 UNL     1      -1.907  -4.023  -3.915  1.00  0.00     0.037 A   
ATOM     27  C16 UNL     1      -2.567  -1.710  -3.857  1.00  0.00     0.109 A   
ATOM     28  C15 UNL     1      -2.394  -2.892  -4.538  1.00  0.00     0.108 A   
ATOM     29  O2  UNL     1      -3.057  -0.718  -4.651  1.00  0.00    -0.316 OA  
ATOM     30  O3  UNL     1      -2.750  -2.792  -5.849  1.00  0.00    -0.316 OA  
ATOM     31  C18 UNL     1      -3.176  -1.409  -5.916  1.00  0.00     0.337 C   
ENDBRANCH  22  23
ENDBRANCH  19  22
ENDBRANCH  18  19
BRANCH  18  32
ATOM     32  C19 UNL     1       1.798  -1.565   1.372  1.00  0.00     0.043 C   
ATOM     33  C20 UNL     1       2.260  -0.924   2.683  1.00  0.00     0.010 C   
ATOM     34  C23 UNL     1       2.690  -0.910   0.305  1.00  0.00     0.010 C   
ATOM     35  C21 UNL     1       3.765  -0.833   2.491  1.00  0.00     0.001 C   
ATOM     36  C22 UNL     1       3.923  -0.384   1.047  1.00  0.00     0.001 C   
ENDBRANCH  18  32
ENDBRANCH   3  18
TORSDOF 9
