REMARK SMILES OC[C@@H](c1cccnc1Cl)n1cc([C@@H]([NH2+]Cc2ccc3c(c2)OCO3)C2CCCC2)nn1
REMARK SMILES IDX 11 1 12 2 13 3 31 4 32 5 3 7 2 8 1 9 4 11 5 12 9 13 6 14
REMARK SMILES IDX 8 15 7 16 10 17 14 18 15 19 16 22 17 23 18 24 22 25 19 26
REMARK SMILES IDX 21 27 20 28 23 29 25 30 24 31 26 32 27 33 30 34 28 35 29 36
REMARK H PARENT 12 6 1 10 15 20 15 21
ROOT
ATOM     1   N2  UNL     1      -0.825  -1.291  -1.838  1.00  0.00    -0.202 N   
ATOM     2   C8  UNL     1      -1.319  -0.365  -0.957  1.00  0.00     0.046 A   
ATOM     3   C9  UNL     1      -0.194   0.190  -0.390  1.00  0.00     0.127 A   
ATOM     4   N4  UNL     1       0.917  -0.448  -0.876  1.00  0.00    -0.132 NA  
ATOM     5   N5  UNL     1       0.520  -1.365  -1.742  1.00  0.00    -0.075 NA  
ATOM     6   H8  UNL     1      -2.378  -0.177  -0.847  1.00  0.00     0.083 HD  
ENDROOT
BRANCH   1   7
ATOM     7   C2  UNL     1      -1.536  -2.132  -2.806  1.00  0.00     0.158 C   
BRANCH   7   8
ATOM     8   C1  UNL     1      -1.848  -3.503  -2.171  1.00  0.00     0.186 C   
BRANCH   8   9
ATOM     9   O1  UNL     1      -2.646  -3.392  -0.991  1.00  0.00    -0.394 OA  
ATOM     10  H1  UNL     1      -2.795  -4.298  -0.662  1.00  0.00     0.210 HD  
ENDBRANCH   8   9
ENDBRANCH   7   8
BRANCH   7  11
ATOM     11  C3  UNL     1      -2.692  -1.383  -3.455  1.00  0.00     0.014 A   
ATOM     12  C4  UNL     1      -4.037  -1.714  -3.228  1.00  0.00     0.010 A   
ATOM     13  C7  UNL     1      -2.469  -0.302  -4.313  1.00  0.00     0.134 A   
ATOM     14  C5  UNL     1      -5.058  -0.988  -3.839  1.00  0.00     0.021 A   
ATOM     15  N1  UNL     1      -3.440   0.427  -4.904  1.00  0.00    -0.244 NA  
ATOM     16  C6  UNL     1      -4.713   0.065  -4.663  1.00  0.00     0.113 A   
ATOM     17  CL1 UNL     1      -0.899   0.269  -4.727  1.00  0.00    -0.062 Cl  
ENDBRANCH   7  11
ENDBRANCH   1   7
BRANCH   3  18
ATOM     18  C10 UNL     1      -0.035   1.276   0.622  1.00  0.00     0.117 C   
BRANCH  18  19
ATOM     19  N3  UNL     1       1.152   0.974   1.502  1.00  0.00     0.249 N   
ATOM     20  H10 UNL     1       1.929   0.721   0.872  1.00  0.00     0.199 HD  
ATOM     21  H11 UNL     1       1.462   1.796   2.028  1.00  0.00     0.199 HD  
BRANCH  19  22
ATOM     22  C11 UNL     1       0.962  -0.156   2.453  1.00  0.00     0.164 C   
BRANCH  22  23
ATOM     23  C12 UNL     1       2.210  -0.382   3.257  1.00  0.00    -0.002 A   
ATOM     24  C13 UNL     1       2.369   0.229   4.524  1.00  0.00     0.012 A   
ATOM     25  C17 UNL     1       3.251  -1.167   2.730  1.00  0.00     0.045 A   
ATOM     26  C14 UNL     1       3.543   0.053   5.263  1.00  0.00     0.037 A   
ATOM     27  C16 UNL     1       4.395  -1.320   3.486  1.00  0.00     0.109 A   
ATOM     28  C15 UNL     1       4.537  -0.728   4.716  1.00  0.00     0.108 A   
ATOM     29  O2  UNL     1       5.487  -2.043   3.127  1.00  0.00    -0.316 OA  
ATOM     30  O3  UNL     1       5.737  -1.005   5.288  1.00  0.00    -0.316 OA  
ATOM     31  C18 UNL     1       6.330  -1.860   4.287  1.00  0.00     0.337 C   
ENDBRANCH  22  23
ENDBRANCH  19  22
ENDBRANCH  18  19
BRANCH  18  32
ATOM     32  C19 UNL     1       0.182   2.650  -0.043  1.00  0.00     0.043 C   
ATOM     33  C20 UNL     1      -1.011   3.104  -0.894  1.00  0.00     0.010 C   
ATOM     34  C23 UNL     1       0.325   3.817   0.938  1.00  0.00     0.010 C   
ATOM     35  C21 UNL     1      -0.859   4.617  -1.028  1.00  0.00     0.001 C   
ATOM     36  C22 UNL     1       0.104   5.051   0.073  1.00  0.00     0.001 C   
ENDBRANCH  18  32
ENDBRANCH   3  18
TORSDOF 9
