REMARK SMILES Cn1c(-n2cc([C@@H]([NH2+]Cc3ccc4c(c3)OCO4)C3CCCC3)nn2)nc2ccccc21
REMARK SMILES IDX 7 1 6 2 4 3 5 4 25 5 24 6 3 7 2 8 32 9 26 10 27 11 31 12
REMARK SMILES IDX 28 13 30 14 29 15 1 16 8 17 9 20 10 21 11 22 15 23 12 24
REMARK SMILES IDX 14 25 13 26 16 27 18 28 17 29 19 30 20 31 23 32 21 33 22 34
REMARK H PARENT 8 18 8 19
ROOT
ATOM     1   C5  UNL     1       1.194   0.756  -0.870  1.00  0.00     0.117 C   
ENDROOT
BRANCH   1   2
ATOM     2   C4  UNL     1       0.301  -0.441  -0.927  1.00  0.00     0.128 A   
ATOM     3   N2  UNL     1      -0.983  -2.169  -0.566  1.00  0.00    -0.149 N   
ATOM     4   C3  UNL     1      -0.291  -1.167   0.079  1.00  0.00     0.138 A   
ATOM     5   N5  UNL     1      -0.782  -2.066  -1.900  1.00  0.00    -0.068 NA  
ATOM     6   N4  UNL     1      -0.009  -1.014  -2.131  1.00  0.00    -0.131 NA  
BRANCH   3   7
ATOM     7   C2  UNL     1      -1.751  -3.183  -0.008  1.00  0.00     0.214 A   
ATOM     8   N1  UNL     1      -2.450  -4.165  -0.674  1.00  0.00    -0.273 N   
ATOM     9   C24 UNL     1      -3.046  -4.967   0.279  1.00  0.00     0.061 A   
ATOM     10  N6  UNL     1      -1.877  -3.299   1.300  1.00  0.00    -0.215 NA  
ATOM     11  C19 UNL     1      -2.674  -4.397   1.495  1.00  0.00     0.088 A   
ATOM     12  C23 UNL     1      -3.858  -6.107   0.207  1.00  0.00     0.026 A   
ATOM     13  C20 UNL     1      -3.120  -4.967   2.696  1.00  0.00     0.030 A   
ATOM     14  C22 UNL     1      -4.293  -6.663   1.416  1.00  0.00     0.002 A   
ATOM     15  C21 UNL     1      -3.933  -6.104   2.642  1.00  0.00     0.002 A   
ATOM     16  C1  UNL     1      -2.571  -4.345  -2.102  1.00  0.00     0.139 C   
ENDBRANCH   3   7
ENDBRANCH   1   2
BRANCH   1  17
ATOM     17  N3  UNL     1       2.320   0.617  -1.874  1.00  0.00     0.249 N   
ATOM     18  H6  UNL     1       1.882   0.460  -2.792  1.00  0.00     0.199 HD  
ATOM     19  H7  UNL     1       2.848   1.492  -1.936  1.00  0.00     0.199 HD  
BRANCH  17  20
ATOM     20  C6  UNL     1       3.290  -0.496  -1.638  1.00  0.00     0.164 C   
BRANCH  20  21
ATOM     21  C7  UNL     1       4.064  -0.339  -0.359  1.00  0.00    -0.002 A   
ATOM     22  C8  UNL     1       3.805  -1.193   0.740  1.00  0.00     0.012 A   
ATOM     23  C12 UNL     1       5.027   0.677  -0.234  1.00  0.00     0.045 A   
ATOM     24  C9  UNL     1       4.488  -1.034   1.950  1.00  0.00     0.037 A   
ATOM     25  C11 UNL     1       5.682   0.805   0.973  1.00  0.00     0.109 A   
ATOM     26  C10 UNL     1       5.419  -0.024   2.035  1.00  0.00     0.108 A   
ATOM     27  O1  UNL     1       6.630   1.734   1.262  1.00  0.00    -0.316 OA  
ATOM     28  O2  UNL     1       6.171   0.277   3.126  1.00  0.00    -0.316 OA  
ATOM     29  C13 UNL     1       6.959   1.377   2.624  1.00  0.00     0.337 C   
ENDBRANCH  20  21
ENDBRANCH  17  20
ENDBRANCH   1  17
BRANCH   1  30
ATOM     30  C14 UNL     1       0.427   2.058  -1.181  1.00  0.00     0.043 C   
ATOM     31  C15 UNL     1      -0.690   2.360  -0.175  1.00  0.00     0.010 C   
ATOM     32  C18 UNL     1       1.276   3.329  -1.085  1.00  0.00     0.010 C   
ATOM     33  C16 UNL     1      -0.998   3.840  -0.371  1.00  0.00     0.001 C   
ATOM     34  C17 UNL     1       0.258   4.458  -0.980  1.00  0.00     0.001 C   
ENDBRANCH   1  30
TORSDOF 6
