REMARK SMILES Cc1ccc(F)cc1CCn1cc([C@@H]([NH2+]Cc2ccc3c(c2)OCO3)C2CCCCC2)nn1
REMARK SMILES IDX 11 1 12 2 13 3 32 4 33 5 10 7 9 8 8 9 2 10 3 11 4 12 7 13
REMARK SMILES IDX 5 14 1 15 6 16 14 17 15 18 16 21 17 22 18 23 22 24 19 25
REMARK SMILES IDX 21 26 20 27 23 28 25 29 24 30 26 31 27 32 31 33 28 34 30 35
REMARK SMILES IDX 29 36
REMARK H PARENT 12 6 15 19 15 20
ROOT
ATOM     1   N1  UNL     1      -0.680  -2.928  -1.874  1.00  0.00    -0.212 N   
ATOM     2   C10 UNL     1      -0.038  -1.858  -1.317  1.00  0.00     0.045 A   
ATOM     3   C11 UNL     1      -0.537  -1.805  -0.034  1.00  0.00     0.127 A   
ATOM     4   N3  UNL     1      -1.449  -2.815   0.137  1.00  0.00    -0.132 NA  
ATOM     5   N4  UNL     1      -1.522  -3.498  -0.993  1.00  0.00    -0.076 NA  
ATOM     6   H11 UNL     1       0.667  -1.252  -1.867  1.00  0.00     0.083 HD  
ENDROOT
BRANCH   1   7
ATOM     7   C9  UNL     1      -0.605  -3.404  -3.241  1.00  0.00     0.139 C   
BRANCH   7   8
ATOM     8   C8  UNL     1      -1.881  -3.141  -4.047  1.00  0.00     0.057 C   
BRANCH   8   9
ATOM     9   C7  UNL     1      -2.222  -1.667  -4.161  1.00  0.00    -0.041 A   
ATOM     10  C2  UNL     1      -1.689  -0.835  -5.167  1.00  0.00    -0.048 A   
ATOM     11  C3  UNL     1      -2.018   0.534  -5.174  1.00  0.00     0.007 A   
ATOM     12  C4  UNL     1      -2.852   1.076  -4.197  1.00  0.00     0.039 A   
ATOM     13  C6  UNL     1      -3.076  -1.107  -3.194  1.00  0.00     0.043 A   
ATOM     14  C5  UNL     1      -3.373   0.249  -3.214  1.00  0.00     0.123 A   
ATOM     15  C1  UNL     1      -0.797  -1.368  -6.257  1.00  0.00     0.044 C   
ATOM     16  F1  UNL     1      -4.136   0.767  -2.243  1.00  0.00    -0.207 F   
ENDBRANCH   8   9
ENDBRANCH   7   8
ENDBRANCH   1   7
BRANCH   3  17
ATOM     17  C12 UNL     1      -0.308  -0.828   1.076  1.00  0.00     0.117 C   
BRANCH  17  18
ATOM     18  N2  UNL     1      -1.661  -0.435   1.639  1.00  0.00     0.249 N   
ATOM     19  H13 UNL     1      -1.578  -0.015   2.565  1.00  0.00     0.199 HD  
ATOM     20  H14 UNL     1      -2.186  -1.315   1.757  1.00  0.00     0.199 HD  
BRANCH  18  21
ATOM     21  C13 UNL     1      -2.486   0.475   0.786  1.00  0.00     0.164 C   
BRANCH  21  22
ATOM     22  C14 UNL     1      -1.904   1.859   0.698  1.00  0.00    -0.002 A   
ATOM     23  C15 UNL     1      -1.284   2.300  -0.495  1.00  0.00     0.012 A   
ATOM     24  C19 UNL     1      -1.935   2.711   1.816  1.00  0.00     0.045 A   
ATOM     25  C16 UNL     1      -0.695   3.567  -0.575  1.00  0.00     0.037 A   
ATOM     26  C18 UNL     1      -1.344   3.952   1.705  1.00  0.00     0.109 A   
ATOM     27  C17 UNL     1      -0.740   4.368   0.544  1.00  0.00     0.108 A   
ATOM     28  O1  UNL     1      -1.279   4.886   2.689  1.00  0.00    -0.316 OA  
ATOM     29  O2  UNL     1      -0.219   5.618   0.651  1.00  0.00    -0.316 OA  
ATOM     30  C20 UNL     1      -0.591   5.958   2.004  1.00  0.00     0.337 C   
ENDBRANCH  21  22
ENDBRANCH  18  21
ENDBRANCH  17  18
BRANCH  17  31
ATOM     31  C21 UNL     1       0.573  -1.417   2.221  1.00  0.00     0.043 C   
ATOM     32  C22 UNL     1       0.852  -0.423   3.372  1.00  0.00     0.010 C   
ATOM     33  C26 UNL     1       1.940  -1.932   1.711  1.00  0.00     0.010 C   
ATOM     34  C23 UNL     1       1.763   0.731   2.952  1.00  0.00     0.001 C   
ATOM     35  C25 UNL     1       2.865  -0.802   1.262  1.00  0.00     0.001 C   
ATOM     36  C24 UNL     1       3.080   0.222   2.372  1.00  0.00     0.000 C   
ENDBRANCH  17  31
ENDBRANCH   3  17
TORSDOF 8
