REMARK SMILES CC(C)C[C@H]([NH2+]Cc1ccc2c(c1)OCO2)c1cn(C[C@@H](O)c2cccs2)nn1
REMARK SMILES IDX 17 1 18 2 19 3 28 4 29 5 5 7 4 8 2 9 1 10 3 11 6 12 7 15
REMARK SMILES IDX 8 16 9 17 13 18 10 19 12 20 11 21 14 22 16 23 15 24 20 25
REMARK SMILES IDX 21 26 22 27 23 29 24 30 27 31 25 32 26 33
REMARK H PARENT 18 6 6 13 6 14 22 28
ROOT
ATOM     1   C14 UNL     1      -0.682   0.925   0.251  1.00  0.00     0.127 A   
ATOM     2   C15 UNL     1      -2.042   1.093   0.130  1.00  0.00     0.045 A   
ATOM     3   N2  UNL     1      -2.169   2.219  -0.636  1.00  0.00    -0.209 N   
ATOM     4   N3  UNL     1      -0.960   2.708  -0.979  1.00  0.00    -0.076 NA  
ATOM     5   N4  UNL     1      -0.043   1.915  -0.451  1.00  0.00    -0.132 NA  
ATOM     6   H20 UNL     1      -2.897   0.553   0.513  1.00  0.00     0.083 HD  
ENDROOT
BRANCH   1   7
ATOM     7   C5  UNL     1       0.132  -0.104   0.978  1.00  0.00     0.114 C   
BRANCH   7   8
ATOM     8   C4  UNL     1       0.338   0.306   2.452  1.00  0.00     0.064 C   
BRANCH   8   9
ATOM     9   C2  UNL     1       1.082  -0.701   3.355  1.00  0.00    -0.012 C   
ATOM     10  C1  UNL     1       0.404  -2.072   3.395  1.00  0.00     0.007 C   
ATOM     11  C3  UNL     1       1.173  -0.138   4.777  1.00  0.00     0.007 C   
ENDBRANCH   8   9
ENDBRANCH   7   8
BRANCH   7  12
ATOM     12  N1  UNL     1       1.479  -0.231   0.307  1.00  0.00     0.249 N   
ATOM     13  H11 UNL     1       2.201  -0.529   0.968  1.00  0.00     0.199 HD  
ATOM     14  H12 UNL     1       1.729   0.724   0.005  1.00  0.00     0.199 HD  
BRANCH  12  15
ATOM     15  C6  UNL     1       1.523  -1.117  -0.891  1.00  0.00     0.164 C   
BRANCH  15  16
ATOM     16  C7  UNL     1       1.660  -2.567  -0.510  1.00  0.00    -0.002 A   
ATOM     17  C8  UNL     1       2.886  -3.053   0.009  1.00  0.00     0.012 A   
ATOM     18  C12 UNL     1       0.568  -3.445  -0.642  1.00  0.00     0.045 A   
ATOM     19  C9  UNL     1       3.020  -4.390   0.398  1.00  0.00     0.037 A   
ATOM     20  C11 UNL     1       0.736  -4.755  -0.250  1.00  0.00     0.109 A   
ATOM     21  C10 UNL     1       1.926  -5.214   0.257  1.00  0.00     0.108 A   
ATOM     22  O1  UNL     1      -0.212  -5.728  -0.316  1.00  0.00    -0.316 OA  
ATOM     23  O2  UNL     1       1.878  -6.536   0.573  1.00  0.00    -0.316 OA  
ATOM     24  C13 UNL     1       0.524  -6.862   0.195  1.00  0.00     0.337 C   
ENDBRANCH  15  16
ENDBRANCH  12  15
ENDBRANCH   7  12
ENDBRANCH   1   7
BRANCH   3  25
ATOM     25  C16 UNL     1      -3.385   2.889  -1.061  1.00  0.00     0.171 C   
BRANCH  25  26
ATOM     26  C17 UNL     1      -3.549   2.846  -2.582  1.00  0.00     0.170 C   
BRANCH  26  27
ATOM     27  O3  UNL     1      -3.961   1.536  -2.986  1.00  0.00    -0.386 OA  
ATOM     28  H24 UNL     1      -4.246   1.599  -3.916  1.00  0.00     0.211 HD  
ENDBRANCH  26  27
BRANCH  26  29
ATOM     29  C18 UNL     1      -4.580   3.830  -3.073  1.00  0.00     0.019 A   
ATOM     30  C19 UNL     1      -4.366   4.944  -3.871  1.00  0.00     0.014 A   
ATOM     31  S1  UNL     1      -6.242   3.678  -2.663  1.00  0.00    -0.100 S   
ATOM     32  C20 UNL     1      -5.565   5.669  -4.121  1.00  0.00     0.008 A   
ATOM     33  C21 UNL     1      -6.660   5.089  -3.521  1.00  0.00     0.046 A   
ENDBRANCH  26  29
ENDBRANCH  25  26
ENDBRANCH   3  25
TORSDOF 10
