REMARK SMILES CC(C)C[C@H]([NH2+]Cc1ccc2c(c1)OCO2)c1cn(C[C@H](O)c2cccs2)nn1
REMARK SMILES IDX 17 1 18 2 19 3 28 4 29 5 5 7 4 8 2 9 1 10 3 11 6 12 7 15
REMARK SMILES IDX 8 16 9 17 13 18 10 19 12 20 11 21 14 22 16 23 15 24 20 25
REMARK SMILES IDX 21 26 22 27 23 29 24 30 27 31 25 32 26 33
REMARK H PARENT 18 6 6 13 6 14 22 28
ROOT
ATOM     1   C14 UNL     1       1.773   0.553   0.296  1.00  0.00     0.127 A   
ATOM     2   C15 UNL     1       1.923  -0.814   0.349  1.00  0.00     0.045 A   
ATOM     3   N2  UNL     1       2.312  -1.052   1.637  1.00  0.00    -0.209 N   
ATOM     4   N3  UNL     1       2.438   0.100   2.323  1.00  0.00    -0.076 NA  
ATOM     5   N4  UNL     1       2.103   1.091   1.514  1.00  0.00    -0.132 NA  
ATOM     6   H20 UNL     1       1.762  -1.613  -0.362  1.00  0.00     0.083 HD  
ENDROOT
BRANCH   1   7
ATOM     7   C5  UNL     1       1.280   1.447  -0.793  1.00  0.00     0.114 C   
BRANCH   7   8
ATOM     8   C4  UNL     1       2.460   2.063  -1.571  1.00  0.00     0.064 C   
BRANCH   8   9
ATOM     9   C2  UNL     1       2.096   2.956  -2.776  1.00  0.00    -0.012 C   
ATOM     10  C1  UNL     1       1.229   2.231  -3.806  1.00  0.00     0.007 C   
ATOM     11  C3  UNL     1       3.378   3.462  -3.445  1.00  0.00     0.007 C   
ENDBRANCH   8   9
ENDBRANCH   7   8
BRANCH   7  12
ATOM     12  N1  UNL     1       0.442   2.556  -0.204  1.00  0.00     0.249 N   
ATOM     13  H11 UNL     1       1.005   2.965   0.556  1.00  0.00     0.199 HD  
ATOM     14  H12 UNL     1       0.273   3.293  -0.891  1.00  0.00     0.199 HD  
BRANCH  12  15
ATOM     15  C6  UNL     1      -0.867   2.144   0.387  1.00  0.00     0.164 C   
BRANCH  15  16
ATOM     16  C7  UNL     1      -1.853   1.691  -0.654  1.00  0.00    -0.002 A   
ATOM     17  C8  UNL     1      -2.155   0.316  -0.802  1.00  0.00     0.012 A   
ATOM     18  C12 UNL     1      -2.454   2.627  -1.514  1.00  0.00     0.045 A   
ATOM     19  C9  UNL     1      -3.037  -0.125  -1.794  1.00  0.00     0.037 A   
ATOM     20  C11 UNL     1      -3.317   2.158  -2.483  1.00  0.00     0.109 A   
ATOM     21  C10 UNL     1      -3.600   0.822  -2.620  1.00  0.00     0.108 A   
ATOM     22  O1  UNL     1      -3.970   2.924  -3.396  1.00  0.00    -0.316 OA  
ATOM     23  O2  UNL     1      -4.468   0.578  -3.635  1.00  0.00    -0.316 OA  
ATOM     24  C13 UNL     1      -4.722   1.917  -4.111  1.00  0.00     0.337 C   
ENDBRANCH  15  16
ENDBRANCH  12  15
ENDBRANCH   7  12
ENDBRANCH   1   7
BRANCH   3  25
ATOM     25  C16 UNL     1       2.614  -2.322   2.264  1.00  0.00     0.171 C   
BRANCH  25  26
ATOM     26  C17 UNL     1       1.386  -3.185   2.564  1.00  0.00     0.170 C   
BRANCH  26  27
ATOM     27  O3  UNL     1       0.742  -3.592   1.354  1.00  0.00    -0.386 OA  
ATOM     28  H24 UNL     1      -0.029  -4.129   1.618  1.00  0.00     0.211 HD  
ENDBRANCH  26  27
BRANCH  26  29
ATOM     29  C18 UNL     1       0.376  -2.537   3.476  1.00  0.00     0.019 A   
ATOM     30  C19 UNL     1       0.365  -2.567   4.860  1.00  0.00     0.014 A   
ATOM     31  S1  UNL     1      -0.960  -1.639   2.872  1.00  0.00    -0.100 S   
ATOM     32  C20 UNL     1      -0.738  -1.857   5.416  1.00  0.00     0.008 A   
ATOM     33  C21 UNL     1      -1.540  -1.307   4.443  1.00  0.00     0.046 A   
ENDBRANCH  26  29
ENDBRANCH  25  26
ENDBRANCH   3  25
TORSDOF 10
