REMARK SMILES CC(C)C[C@H]([NH2+]Cc1ccc2c(c1)OCO2)c1cn(CCc2csc(C3CC3)n2)nn1
REMARK SMILES IDX 17 1 18 2 19 3 30 4 31 5 5 7 4 8 2 9 1 10 3 11 6 12 7 15
REMARK SMILES IDX 8 16 9 17 13 18 10 19 12 20 11 21 14 22 16 23 15 24 20 25
REMARK SMILES IDX 21 26 22 27 23 28 29 29 24 30 25 31 26 32 27 33 28 34
REMARK H PARENT 18 6 6 13 6 14
ROOT
ATOM     1   C14 UNL     1      -1.902   0.612   0.784  1.00  0.00     0.127 A   
ATOM     2   C15 UNL     1      -1.819   0.483  -0.582  1.00  0.00     0.045 A   
ATOM     3   N2  UNL     1      -2.177   1.713  -1.051  1.00  0.00    -0.212 N   
ATOM     4   N4  UNL     1      -2.541   2.527  -0.043  1.00  0.00    -0.076 NA  
ATOM     5   N5  UNL     1      -2.365   1.867   1.089  1.00  0.00    -0.132 NA  
ATOM     6   H20 UNL     1      -1.481  -0.306  -1.238  1.00  0.00     0.083 HD  
ENDROOT
BRANCH   1   7
ATOM     7   C5  UNL     1      -1.497  -0.318   1.875  1.00  0.00     0.114 C   
BRANCH   7   8
ATOM     8   C4  UNL     1      -2.466  -1.495   2.103  1.00  0.00     0.064 C   
BRANCH   8   9
ATOM     9   C2  UNL     1      -3.783  -1.244   2.872  1.00  0.00    -0.012 C   
ATOM     10  C1  UNL     1      -4.476  -2.589   3.130  1.00  0.00     0.007 C   
ATOM     11  C3  UNL     1      -4.751  -0.316   2.140  1.00  0.00     0.007 C   
ENDBRANCH   8   9
ENDBRANCH   7   8
BRANCH   7  12
ATOM     12  N1  UNL     1      -1.272   0.414   3.171  1.00  0.00     0.249 N   
ATOM     13  H11 UNL     1      -2.077   1.044   3.286  1.00  0.00     0.199 HD  
ATOM     14  H12 UNL     1      -1.272  -0.241   3.958  1.00  0.00     0.199 HD  
BRANCH  12  15
ATOM     15  C6  UNL     1      -0.041   1.262   3.234  1.00  0.00     0.164 C   
BRANCH  15  16
ATOM     16  C7  UNL     1       1.217   0.445   3.340  1.00  0.00    -0.002 A   
ATOM     17  C8  UNL     1       1.554  -0.190   4.560  1.00  0.00     0.012 A   
ATOM     18  C12 UNL     1       2.043   0.270   2.214  1.00  0.00     0.045 A   
ATOM     19  C9  UNL     1       2.688  -1.000   4.655  1.00  0.00     0.037 A   
ATOM     20  C11 UNL     1       3.150  -0.539   2.342  1.00  0.00     0.109 A   
ATOM     21  C10 UNL     1       3.464  -1.158   3.526  1.00  0.00     0.108 A   
ATOM     22  O1  UNL     1       4.034  -0.840   1.351  1.00  0.00    -0.316 OA  
ATOM     23  O2  UNL     1       4.579  -1.925   3.432  1.00  0.00    -0.316 OA  
ATOM     24  C13 UNL     1       4.957  -1.696   2.058  1.00  0.00     0.337 C   
ENDBRANCH  15  16
ENDBRANCH  12  15
ENDBRANCH   7  12
ENDBRANCH   1   7
BRANCH   3  25
ATOM     25  C16 UNL     1      -2.192   2.187  -2.420  1.00  0.00     0.140 C   
BRANCH  25  26
ATOM     26  C17 UNL     1      -1.020   3.113  -2.737  1.00  0.00     0.078 C   
BRANCH  26  27
ATOM     27  C18 UNL     1       0.259   2.387  -3.032  1.00  0.00     0.050 A   
ATOM     28  C19 UNL     1       1.113   2.651  -4.089  1.00  0.00     0.071 A   
ATOM     29  N3  UNL     1       0.671   1.355  -2.198  1.00  0.00    -0.250 NA  
ATOM     30  S1  UNL     1       2.461   1.595  -4.040  1.00  0.00    -0.080 S   
ATOM     31  C20 UNL     1       1.811   0.867  -2.637  1.00  0.00     0.081 A   
BRANCH  31  32
ATOM     32  C21 UNL     1       2.540  -0.306  -1.903  1.00  0.00     0.045 C   
ATOM     33  C22 UNL     1       2.687  -1.633  -2.603  1.00  0.00     0.011 C   
ATOM     34  C23 UNL     1       1.744  -1.504  -1.444  1.00  0.00     0.011 C   
ENDBRANCH  31  32
ENDBRANCH  26  27
ENDBRANCH  25  26
ENDBRANCH   3  25
TORSDOF 10
