REMARK SMILES Cc1cc(F)ccc1Cn1cc([C@@H]([NH2+]Cc2ccc3c(c2)OCO3)C(C)C)nn1
REMARK SMILES IDX 10 1 11 2 12 3 28 4 29 5 9 7 8 8 2 9 3 10 4 11 7 12 6 13
REMARK SMILES IDX 1 14 5 15 13 16 14 17 15 20 16 21 17 22 21 23 18 24 20 25
REMARK SMILES IDX 19 26 22 27 24 28 23 29 25 30 26 31 27 32
REMARK H PARENT 11 6 14 18 14 19
ROOT
ATOM     1   N1  UNL     1      -1.247   0.787   2.476  1.00  0.00    -0.208 N   
ATOM     2   C9  UNL     1       0.053   1.162   2.266  1.00  0.00     0.046 A   
ATOM     3   C10 UNL     1       0.146   1.292   0.898  1.00  0.00     0.127 A   
ATOM     4   N3  UNL     1      -1.070   0.997   0.335  1.00  0.00    -0.132 NA  
ATOM     5   N4  UNL     1      -1.911   0.689   1.308  1.00  0.00    -0.076 NA  
ATOM     6   H9  UNL     1       0.759   1.281   3.075  1.00  0.00     0.083 HD  
ENDROOT
BRANCH   1   7
ATOM     7   C8  UNL     1      -1.916   0.506   3.737  1.00  0.00     0.169 C   
BRANCH   7   8
ATOM     8   C7  UNL     1      -1.455  -0.815   4.315  1.00  0.00    -0.025 A   
ATOM     9   C2  UNL     1      -0.625  -0.901   5.457  1.00  0.00    -0.043 A   
ATOM     10  C3  UNL     1      -0.232  -2.167   5.922  1.00  0.00     0.043 A   
ATOM     11  C4  UNL     1      -0.652  -3.321   5.270  1.00  0.00     0.123 A   
ATOM     12  C6  UNL     1      -1.872  -2.004   3.679  1.00  0.00     0.009 A   
ATOM     13  C5  UNL     1      -1.470  -3.251   4.154  1.00  0.00     0.039 A   
ATOM     14  C1  UNL     1      -0.167   0.316   6.215  1.00  0.00     0.045 C   
ATOM     15  F1  UNL     1      -0.259  -4.516   5.727  1.00  0.00    -0.207 F   
ENDBRANCH   7   8
ENDBRANCH   1   7
BRANCH   3  16
ATOM     16  C11 UNL     1       1.303   1.618   0.009  1.00  0.00     0.117 C   
BRANCH  16  17
ATOM     17  N2  UNL     1       1.143   0.913  -1.317  1.00  0.00     0.249 N   
ATOM     18  H11 UNL     1       1.715   1.346  -2.049  1.00  0.00     0.199 HD  
ATOM     19  H12 UNL     1       0.160   1.039  -1.602  1.00  0.00     0.199 HD  
BRANCH  17  20
ATOM     20  C12 UNL     1       1.405  -0.553  -1.294  1.00  0.00     0.164 C   
BRANCH  20  21
ATOM     21  C13 UNL     1       1.125  -1.157  -2.641  1.00  0.00    -0.002 A   
ATOM     22  C14 UNL     1       2.166  -1.327  -3.583  1.00  0.00     0.012 A   
ATOM     23  C18 UNL     1      -0.191  -1.507  -2.990  1.00  0.00     0.045 A   
ATOM     24  C15 UNL     1       1.905  -1.850  -4.855  1.00  0.00     0.037 A   
ATOM     25  C17 UNL     1      -0.414  -2.019  -4.252  1.00  0.00     0.109 A   
ATOM     26  C16 UNL     1       0.604  -2.186  -5.158  1.00  0.00     0.108 A   
ATOM     27  O1  UNL     1      -1.618  -2.406  -4.747  1.00  0.00    -0.316 OA  
ATOM     28  O2  UNL     1       0.170  -2.702  -6.337  1.00  0.00    -0.316 OA  
ATOM     29  C19 UNL     1      -1.240  -2.859  -6.067  1.00  0.00     0.337 C   
ENDBRANCH  20  21
ENDBRANCH  17  20
ENDBRANCH  16  17
BRANCH  16  30
ATOM     30  C20 UNL     1       1.491   3.133  -0.263  1.00  0.00     0.037 C   
ATOM     31  C21 UNL     1       1.873   3.894   1.011  1.00  0.00     0.014 C   
ATOM     32  C22 UNL     1       0.283   3.807  -0.926  1.00  0.00     0.014 C   
ENDBRANCH  16  30
ENDBRANCH   3  16
TORSDOF 7
