REMARK SMILES CC(=O)c1ccc(-n2cc([C@H](CC(C)C)[NH2+]Cc3ccc4c(c3)OCO4)nn2)cc1
REMARK SMILES IDX 8 1 9 2 10 3 27 4 28 5 7 6 4 7 5 8 30 9 6 10 29 11 2 12 1 13
REMARK SMILES IDX 3 14 11 15 12 16 13 17 14 18 15 19 16 20 17 23 18 24 19 25
REMARK SMILES IDX 23 26 20 27 22 28 21 29 24 30 26 31 25 32
REMARK H PARENT 16 21 16 22
ROOT
ATOM     1   N1  UNL     1      -2.032  -0.681  -0.733  1.00  0.00    -0.181 N   
ATOM     2   C7  UNL     1      -1.546  -0.984   0.525  1.00  0.00     0.135 A   
ATOM     3   C8  UNL     1      -0.377  -0.262   0.641  1.00  0.00     0.127 A   
ATOM     4   N3  UNL     1      -0.161   0.424  -0.520  1.00  0.00    -0.131 NA  
ATOM     5   N4  UNL     1      -1.155   0.153  -1.349  1.00  0.00    -0.071 NA  
ENDROOT
BRANCH   1   6
ATOM     6   C6  UNL     1      -3.218  -1.128  -1.369  1.00  0.00     0.058 A   
ATOM     7   C3  UNL     1      -5.563  -1.992  -2.670  1.00  0.00     0.017 A   
ATOM     8   C4  UNL     1      -4.667  -1.133  -3.317  1.00  0.00     0.014 A   
ATOM     9   C23 UNL     1      -5.279  -2.417  -1.367  1.00  0.00     0.014 A   
ATOM     10  C5  UNL     1      -3.502  -0.701  -2.674  1.00  0.00     0.027 A   
ATOM     11  C22 UNL     1      -4.112  -1.988  -0.717  1.00  0.00     0.027 A   
BRANCH   7  12
ATOM     12  C2  UNL     1      -6.790  -2.422  -3.405  1.00  0.00     0.159 C   
ATOM     13  C1  UNL     1      -7.794  -3.300  -2.706  1.00  0.00     0.093 C   
ATOM     14  O1  UNL     1      -6.960  -2.058  -4.567  1.00  0.00    -0.295 OA  
ENDBRANCH   7  12
ENDBRANCH   1   6
BRANCH   3  15
ATOM     15  C9  UNL     1       0.627  -0.166   1.744  1.00  0.00     0.114 C   
BRANCH  15  16
ATOM     16  C10 UNL     1       0.352   1.013   2.696  1.00  0.00     0.064 C   
BRANCH  16  17
ATOM     17  C11 UNL     1      -0.968   0.929   3.493  1.00  0.00    -0.012 C   
ATOM     18  C12 UNL     1      -1.030  -0.308   4.389  1.00  0.00     0.007 C   
ATOM     19  C13 UNL     1      -1.138   2.191   4.344  1.00  0.00     0.007 C   
ENDBRANCH  16  17
ENDBRANCH  15  16
BRANCH  15  20
ATOM     20  N2  UNL     1       2.005   0.056   1.163  1.00  0.00     0.249 N   
ATOM     21  H17 UNL     1       1.917   0.802   0.456  1.00  0.00     0.199 HD  
ATOM     22  H18 UNL     1       2.658   0.410   1.871  1.00  0.00     0.199 HD  
BRANCH  20  23
ATOM     23  C14 UNL     1       2.618  -1.123   0.490  1.00  0.00     0.164 C   
BRANCH  23  24
ATOM     24  C15 UNL     1       3.947  -0.754  -0.104  1.00  0.00    -0.002 A   
ATOM     25  C16 UNL     1       4.013  -0.203  -1.407  1.00  0.00     0.012 A   
ATOM     26  C20 UNL     1       5.125  -0.899   0.648  1.00  0.00     0.045 A   
ATOM     27  C17 UNL     1       5.237   0.188  -1.959  1.00  0.00     0.037 A   
ATOM     28  C19 UNL     1       6.315  -0.503   0.073  1.00  0.00     0.109 A   
ATOM     29  C18 UNL     1       6.370   0.025  -1.193  1.00  0.00     0.108 A   
ATOM     30  O2  UNL     1       7.537  -0.574   0.661  1.00  0.00    -0.316 OA  
ATOM     31  O3  UNL     1       7.636   0.350  -1.564  1.00  0.00    -0.316 OA  
ATOM     32  C21 UNL     1       8.379  -0.052  -0.394  1.00  0.00     0.337 C   
ENDBRANCH  23  24
ENDBRANCH  20  23
ENDBRANCH  15  20
ENDBRANCH   3  15
TORSDOF 8
