REMARK SMILES O=C1c2ccccc2C[C@H]1n1cc([C@@H]([NH2+]Cc2ccc3c(c2)OCO3)C2CCCC2)nn1
REMARK SMILES IDX 14 1 13 2 11 3 12 4 32 5 31 6 10 8 2 9 3 10 4 11 8 12 9 13
REMARK SMILES IDX 5 14 7 15 6 16 1 17 15 18 16 21 17 22 18 23 22 24 19 25
REMARK SMILES IDX 21 26 20 27 23 28 25 29 24 30 26 31 27 32 30 33 28 34 29 35
REMARK H PARENT 12 7 15 19 15 20
ROOT
ATOM     1   C12 UNL     1      -0.635   1.832  -1.082  1.00  0.00     0.117 C   
ENDROOT
BRANCH   1   2
ATOM     2   C11 UNL     1      -0.505   0.698  -2.044  1.00  0.00     0.127 A   
ATOM     3   N1  UNL     1      -0.268  -1.206  -3.040  1.00  0.00    -0.201 N   
ATOM     4   C10 UNL     1      -0.719  -0.651  -1.874  1.00  0.00     0.046 A   
ATOM     5   N4  UNL     1       0.126  -0.249  -3.901  1.00  0.00    -0.075 NA  
ATOM     6   N3  UNL     1      -0.003   0.921  -3.298  1.00  0.00    -0.132 NA  
ATOM     7   H8  UNL     1      -1.073  -1.243  -1.041  1.00  0.00     0.083 HD  
BRANCH   3   8
ATOM     8   C9  UNL     1      -0.128  -2.601  -3.394  1.00  0.00     0.176 C   
ATOM     9   C1  UNL     1       0.335  -3.438  -2.222  1.00  0.00     0.185 C   
ATOM     10  C2  UNL     1      -0.473  -4.648  -2.161  1.00  0.00     0.023 A   
ATOM     11  C3  UNL     1      -0.331  -5.737  -1.323  1.00  0.00     0.012 A   
ATOM     12  C7  UNL     1      -1.483  -4.549  -3.114  1.00  0.00    -0.035 A   
ATOM     13  C8  UNL     1      -1.442  -3.253  -3.863  1.00  0.00     0.069 C   
ATOM     14  C4  UNL     1      -1.250  -6.777  -1.464  1.00  0.00     0.001 A   
ATOM     15  C6  UNL     1      -2.400  -5.578  -3.253  1.00  0.00     0.004 A   
ATOM     16  C5  UNL     1      -2.275  -6.698  -2.423  1.00  0.00     0.000 A   
ATOM     17  O1  UNL     1       1.218  -3.162  -1.427  1.00  0.00    -0.292 OA  
ENDBRANCH   3   8
ENDBRANCH   1   2
BRANCH   1  18
ATOM     18  N2  UNL     1       0.635   2.658  -1.082  1.00  0.00     0.249 N   
ATOM     19  H10 UNL     1       0.772   2.986  -2.048  1.00  0.00     0.199 HD  
ATOM     20  H11 UNL     1       0.520   3.484  -0.490  1.00  0.00     0.199 HD  
BRANCH  18  21
ATOM     21  C13 UNL     1       1.890   1.949  -0.675  1.00  0.00     0.164 C   
BRANCH  21  22
ATOM     22  C14 UNL     1       1.826   1.372   0.712  1.00  0.00    -0.002 A   
ATOM     23  C15 UNL     1       1.820  -0.033   0.896  1.00  0.00     0.012 A   
ATOM     24  C19 UNL     1       1.746   2.216   1.833  1.00  0.00     0.045 A   
ATOM     25  C16 UNL     1       1.723  -0.591   2.176  1.00  0.00     0.037 A   
ATOM     26  C18 UNL     1       1.650   1.633   3.080  1.00  0.00     0.109 A   
ATOM     27  C17 UNL     1       1.637   0.270   3.247  1.00  0.00     0.108 A   
ATOM     28  O2  UNL     1       1.556   2.302   4.258  1.00  0.00    -0.316 OA  
ATOM     29  O3  UNL     1       1.533  -0.091   4.552  1.00  0.00    -0.316 OA  
ATOM     30  C20 UNL     1       1.516   1.201   5.196  1.00  0.00     0.337 C   
ENDBRANCH  21  22
ENDBRANCH  18  21
ENDBRANCH   1  18
BRANCH   1  31
ATOM     31  C21 UNL     1      -1.817   2.755  -1.437  1.00  0.00     0.043 C   
ATOM     32  C22 UNL     1      -2.013   3.929  -0.472  1.00  0.00     0.010 C   
ATOM     33  C25 UNL     1      -3.177   2.054  -1.358  1.00  0.00     0.010 C   
ATOM     34  C23 UNL     1      -3.471   4.353  -0.640  1.00  0.00     0.001 C   
ATOM     35  C24 UNL     1      -4.174   3.203  -1.356  1.00  0.00     0.001 C   
ENDBRANCH   1  31
TORSDOF 6
