REMARK SMILES O=C1c2ccccc2C[C@@H]1n1cc([C@@H]([NH2+]Cc2ccc3c(c2)OCO3)C2CCCC2)nn1
REMARK SMILES IDX 14 1 13 2 11 3 12 4 32 5 31 6 10 8 2 9 3 10 4 11 8 12 9 13
REMARK SMILES IDX 5 14 7 15 6 16 1 17 15 18 16 21 17 22 18 23 22 24 19 25
REMARK SMILES IDX 21 26 20 27 23 28 25 29 24 30 26 31 27 32 30 33 28 34 29 35
REMARK H PARENT 12 7 15 19 15 20
ROOT
ATOM     1   C12 UNL     1      -0.310   1.417   1.127  1.00  0.00     0.117 C   
ENDROOT
BRANCH   1   2
ATOM     2   C11 UNL     1      -0.403  -0.042   1.423  1.00  0.00     0.127 A   
ATOM     3   N1  UNL     1      -0.053  -2.117   1.928  1.00  0.00    -0.201 N   
ATOM     4   C10 UNL     1       0.388  -0.851   2.208  1.00  0.00     0.046 A   
ATOM     5   N4  UNL     1      -1.088  -2.081   1.067  1.00  0.00    -0.075 NA  
ATOM     6   N3  UNL     1      -1.320  -0.815   0.760  1.00  0.00    -0.132 NA  
ATOM     7   H8  UNL     1       1.244  -0.662   2.841  1.00  0.00     0.083 HD  
BRANCH   3   8
ATOM     8   C9  UNL     1       0.584  -3.360   2.296  1.00  0.00     0.176 C   
ATOM     9   C1  UNL     1       1.588  -3.750   1.233  1.00  0.00     0.185 C   
ATOM     10  C2  UNL     1       1.392  -5.149   0.881  1.00  0.00     0.023 A   
ATOM     11  C3  UNL     1       2.128  -5.928   0.009  1.00  0.00     0.012 A   
ATOM     12  C7  UNL     1       0.293  -5.630   1.586  1.00  0.00    -0.035 A   
ATOM     13  C8  UNL     1      -0.344  -4.585   2.451  1.00  0.00     0.069 C   
ATOM     14  C4  UNL     1       1.733  -7.255  -0.154  1.00  0.00     0.001 A   
ATOM     15  C6  UNL     1      -0.104  -6.947   1.424  1.00  0.00     0.004 A   
ATOM     16  C5  UNL     1       0.625  -7.760   0.549  1.00  0.00     0.000 A   
ATOM     17  O1  UNL     1       2.436  -3.025   0.737  1.00  0.00    -0.292 OA  
ENDBRANCH   3   8
ENDBRANCH   1   2
BRANCH   1  18
ATOM     18  N2  UNL     1      -0.486   1.659  -0.354  1.00  0.00     0.249 N   
ATOM     19  H10 UNL     1      -0.569   2.658  -0.553  1.00  0.00     0.199 HD  
ATOM     20  H11 UNL     1      -1.375   1.215  -0.620  1.00  0.00     0.199 HD  
BRANCH  18  21
ATOM     21  C13 UNL     1       0.562   1.071  -1.249  1.00  0.00     0.164 C   
BRANCH  21  22
ATOM     22  C14 UNL     1       1.944   1.596  -0.978  1.00  0.00    -0.002 A   
ATOM     23  C15 UNL     1       2.933   0.741  -0.435  1.00  0.00     0.012 A   
ATOM     24  C19 UNL     1       2.259   2.941  -1.237  1.00  0.00     0.045 A   
ATOM     25  C16 UNL     1       4.215   1.218  -0.143  1.00  0.00     0.037 A   
ATOM     26  C18 UNL     1       3.532   3.379  -0.936  1.00  0.00     0.109 A   
ATOM     27  C17 UNL     1       4.482   2.543  -0.404  1.00  0.00     0.108 A   
ATOM     28  O2  UNL     1       3.994   4.644  -1.117  1.00  0.00    -0.316 OA  
ATOM     29  O3  UNL     1       5.664   3.176  -0.183  1.00  0.00    -0.316 OA  
ATOM     30  C20 UNL     1       5.362   4.502  -0.668  1.00  0.00     0.337 C   
ENDBRANCH  21  22
ENDBRANCH  18  21
ENDBRANCH   1  18
BRANCH   1  31
ATOM     31  C21 UNL     1      -1.328   2.235   1.947  1.00  0.00     0.043 C   
ATOM     32  C22 UNL     1      -2.801   2.104   1.552  1.00  0.00     0.010 C   
ATOM     33  C25 UNL     1      -1.117   3.751   1.897  1.00  0.00     0.010 C   
ATOM     34  C23 UNL     1      -3.472   3.239   2.317  1.00  0.00     0.001 C   
ATOM     35  C24 UNL     1      -2.419   4.341   2.436  1.00  0.00     0.001 C   
ENDBRANCH   1  31
TORSDOF 6
