REMARK SMILES Cc1ccc(F)c([C@H](CO)n2cc([C@@H]([NH2+]Cc3ccc4c(c3)OCO4)C3CCCC3)nn2)c1
REMARK SMILES IDX 11 1 12 2 13 3 31 4 32 5 8 7 7 8 2 9 3 10 33 11 4 12 5 13
REMARK SMILES IDX 1 14 6 15 9 16 10 17 14 19 15 20 16 23 17 24 18 25 22 26
REMARK SMILES IDX 19 27 21 28 20 29 23 30 25 31 24 32 26 33 27 34 30 35 28 36
REMARK SMILES IDX 29 37
REMARK H PARENT 12 6 10 18 15 21 15 22
ROOT
ATOM     1   N1  UNL     1      -0.335  -0.368   2.733  1.00  0.00    -0.202 N   
ATOM     2   C9  UNL     1      -0.556  -0.241   1.386  1.00  0.00     0.046 A   
ATOM     3   C10 UNL     1       0.277  -1.170   0.817  1.00  0.00     0.127 A   
ATOM     4   N3  UNL     1       0.982  -1.804   1.808  1.00  0.00    -0.132 NA  
ATOM     5   N4  UNL     1       0.640  -1.270   2.966  1.00  0.00    -0.075 NA  
ATOM     6   H10 UNL     1      -1.258   0.476   0.982  1.00  0.00     0.083 HD  
ENDROOT
BRANCH   1   7
ATOM     7   C7  UNL     1      -0.943   0.426   3.802  1.00  0.00     0.158 C   
BRANCH   7   8
ATOM     8   C6  UNL     1      -0.190   1.736   3.939  1.00  0.00     0.013 A   
ATOM     9   C2  UNL     1       1.773   3.032   4.607  1.00  0.00    -0.051 A   
ATOM     10  C3  UNL     1       1.149   4.201   4.146  1.00  0.00     0.006 A   
ATOM     11  C25 UNL     1       1.101   1.802   4.494  1.00  0.00     0.012 A   
ATOM     12  C4  UNL     1      -0.128   4.145   3.583  1.00  0.00     0.040 A   
ATOM     13  C5  UNL     1      -0.784   2.921   3.487  1.00  0.00     0.128 A   
ATOM     14  C1  UNL     1       3.157   3.111   5.185  1.00  0.00     0.044 C   
ATOM     15  F1  UNL     1      -2.017   2.877   2.953  1.00  0.00    -0.207 F   
ENDBRANCH   7   8
BRANCH   7  16
ATOM     16  C8  UNL     1      -1.096  -0.336   5.133  1.00  0.00     0.186 C   
BRANCH  16  17
ATOM     17  O1  UNL     1      -2.136  -1.311   5.022  1.00  0.00    -0.394 OA  
ATOM     18  H9  UNL     1      -2.204  -1.754   5.889  1.00  0.00     0.210 HD  
ENDBRANCH  16  17
ENDBRANCH   7  16
ENDBRANCH   1   7
BRANCH   3  19
ATOM     19  C11 UNL     1       0.526  -1.523  -0.615  1.00  0.00     0.117 C   
BRANCH  19  20
ATOM     20  N2  UNL     1       1.956  -1.982  -0.803  1.00  0.00     0.249 N   
ATOM     21  H12 UNL     1       2.103  -2.764  -0.147  1.00  0.00     0.199 HD  
ATOM     22  H13 UNL     1       2.092  -2.338  -1.753  1.00  0.00     0.199 HD  
BRANCH  20  23
ATOM     23  C12 UNL     1       3.020  -0.967  -0.520  1.00  0.00     0.164 C   
BRANCH  23  24
ATOM     24  C13 UNL     1       2.989   0.210  -1.456  1.00  0.00    -0.002 A   
ATOM     25  C14 UNL     1       2.528   1.468  -0.996  1.00  0.00     0.012 A   
ATOM     26  C18 UNL     1       3.393   0.067  -2.794  1.00  0.00     0.045 A   
ATOM     27  C15 UNL     1       2.465   2.571  -1.853  1.00  0.00     0.037 A   
ATOM     28  C17 UNL     1       3.323   1.176  -3.612  1.00  0.00     0.109 A   
ATOM     29  C16 UNL     1       2.871   2.391  -3.158  1.00  0.00     0.108 A   
ATOM     30  O2  UNL     1       3.660   1.209  -4.931  1.00  0.00    -0.316 OA  
ATOM     31  O3  UNL     1       2.886   3.346  -4.123  1.00  0.00    -0.316 OA  
ATOM     32  C19 UNL     1       3.415   2.598  -5.242  1.00  0.00     0.337 C   
ENDBRANCH  23  24
ENDBRANCH  20  23
ENDBRANCH  19  20
BRANCH  19  33
ATOM     33  C20 UNL     1      -0.430  -2.639  -1.087  1.00  0.00     0.043 C   
ATOM     34  C21 UNL     1      -1.900  -2.169  -1.143  1.00  0.00     0.010 C   
ATOM     35  C24 UNL     1      -0.164  -3.184  -2.493  1.00  0.00     0.010 C   
ATOM     36  C22 UNL     1      -2.534  -2.861  -2.353  1.00  0.00     0.001 C   
ATOM     37  C23 UNL     1      -1.486  -3.832  -2.870  1.00  0.00     0.001 C   
ENDBRANCH  19  33
ENDBRANCH   3  19
TORSDOF 9
