REMARK SMILES Cc1ccc(F)c([C@@H](CO)n2cc([C@@H]([NH2+]Cc3ccc4c(c3)OCO4)C3CCCC3)nn2)c1
REMARK SMILES IDX 11 1 12 2 13 3 31 4 32 5 8 7 7 8 2 9 3 10 33 11 4 12 5 13
REMARK SMILES IDX 1 14 6 15 9 16 10 17 14 19 15 20 16 23 17 24 18 25 22 26
REMARK SMILES IDX 19 27 21 28 20 29 23 30 25 31 24 32 26 33 27 34 30 35 28 36
REMARK SMILES IDX 29 37
REMARK H PARENT 12 6 10 18 15 21 15 22
ROOT
ATOM     1   N1  UNL     1       0.356  -0.800   1.856  1.00  0.00    -0.202 N   
ATOM     2   C9  UNL     1       0.215   0.199   0.929  1.00  0.00     0.046 A   
ATOM     3   C10 UNL     1      -0.214  -0.451  -0.204  1.00  0.00     0.127 A   
ATOM     4   N3  UNL     1      -0.315  -1.795   0.058  1.00  0.00    -0.132 NA  
ATOM     5   N4  UNL     1       0.034  -1.996   1.316  1.00  0.00    -0.075 NA  
ATOM     6   H10 UNL     1       0.407   1.237   1.168  1.00  0.00     0.083 HD  
ENDROOT
BRANCH   1   7
ATOM     7   C7  UNL     1       0.746  -0.711   3.265  1.00  0.00     0.158 C   
BRANCH   7   8
ATOM     8   C6  UNL     1       1.945   0.207   3.453  1.00  0.00     0.013 A   
ATOM     9   C2  UNL     1       3.026   2.262   4.225  1.00  0.00    -0.051 A   
ATOM     10  C3  UNL     1       4.256   1.798   3.745  1.00  0.00     0.006 A   
ATOM     11  C25 UNL     1       1.876   1.469   4.064  1.00  0.00     0.012 A   
ATOM     12  C4  UNL     1       4.341   0.552   3.130  1.00  0.00     0.040 A   
ATOM     13  C5  UNL     1       3.196  -0.225   2.991  1.00  0.00     0.128 A   
ATOM     14  C1  UNL     1       2.920   3.614   4.872  1.00  0.00     0.044 C   
ATOM     15  F1  UNL     1       3.303  -1.419   2.388  1.00  0.00    -0.207 F   
ENDBRANCH   7   8
BRANCH   7  16
ATOM     16  C8  UNL     1      -0.493  -0.449   4.146  1.00  0.00     0.186 C   
BRANCH  16  17
ATOM     17  O1  UNL     1      -1.177   0.757   3.795  1.00  0.00    -0.394 OA  
ATOM     18  H9  UNL     1      -1.942   0.836   4.396  1.00  0.00     0.210 HD  
ENDBRANCH  16  17
ENDBRANCH   7  16
ENDBRANCH   1   7
BRANCH   3  19
ATOM     19  C11 UNL     1      -0.558   0.056  -1.567  1.00  0.00     0.117 C   
BRANCH  19  20
ATOM     20  N2  UNL     1      -0.524  -1.090  -2.551  1.00  0.00     0.249 N   
ATOM     21  H12 UNL     1      -1.195  -0.961  -3.312  1.00  0.00     0.199 HD  
ATOM     22  H13 UNL     1      -0.837  -1.917  -2.020  1.00  0.00     0.199 HD  
BRANCH  20  23
ATOM     23  C12 UNL     1       0.816  -1.412  -3.116  1.00  0.00     0.164 C   
BRANCH  23  24
ATOM     24  C13 UNL     1       1.208  -0.468  -4.219  1.00  0.00    -0.002 A   
ATOM     25  C14 UNL     1       0.562  -0.532  -5.478  1.00  0.00     0.012 A   
ATOM     26  C18 UNL     1       2.203   0.501  -4.002  1.00  0.00     0.045 A   
ATOM     27  C15 UNL     1       0.899   0.356  -6.505  1.00  0.00     0.037 A   
ATOM     28  C17 UNL     1       2.513   1.360  -5.036  1.00  0.00     0.109 A   
ATOM     29  C16 UNL     1       1.879   1.290  -6.252  1.00  0.00     0.108 A   
ATOM     30  O2  UNL     1       3.446   2.347  -4.993  1.00  0.00    -0.316 OA  
ATOM     31  O3  UNL     1       2.337   2.221  -7.129  1.00  0.00    -0.316 OA  
ATOM     32  C19 UNL     1       3.355   2.871  -6.338  1.00  0.00     0.337 C   
ENDBRANCH  23  24
ENDBRANCH  20  23
ENDBRANCH  19  20
BRANCH  19  33
ATOM     33  C20 UNL     1      -1.931   0.756  -1.585  1.00  0.00     0.043 C   
ATOM     34  C21 UNL     1      -3.155  -0.136  -1.339  1.00  0.00     0.010 C   
ATOM     35  C24 UNL     1      -2.276   1.460  -2.898  1.00  0.00     0.010 C   
ATOM     36  C22 UNL     1      -4.337   0.620  -1.952  1.00  0.00     0.001 C   
ATOM     37  C23 UNL     1      -3.748   1.801  -2.718  1.00  0.00     0.001 C   
ENDBRANCH  19  33
ENDBRANCH   3  19
TORSDOF 9
