REMARK SMILES Cc1ncncc1CCn1cc([C@H](CC(C)C)[NH2+]Cc2ccc3c(c2)OCO3)nn1
REMARK SMILES IDX 10 1 11 2 12 3 29 4 30 5 9 7 8 8 7 9 2 10 3 11 4 12 6 13
REMARK SMILES IDX 5 14 1 15 13 16 14 17 15 18 16 19 17 20 18 21 19 24 20 25
REMARK SMILES IDX 21 26 25 27 22 28 24 29 23 30 26 31 28 32 27 33
REMARK H PARENT 11 6 18 22 18 23
ROOT
ATOM     1   N3  UNL     1       1.106   0.872  -3.475  1.00  0.00    -0.212 N   
ATOM     2   C8  UNL     1       1.167   1.073  -2.125  1.00  0.00     0.045 A   
ATOM     3   C9  UNL     1       1.304  -0.196  -1.609  1.00  0.00     0.127 A   
ATOM     4   N5  UNL     1       1.340  -1.101  -2.639  1.00  0.00    -0.132 NA  
ATOM     5   N6  UNL     1       1.220  -0.434  -3.776  1.00  0.00    -0.076 NA  
ATOM     6   H10 UNL     1       1.066   2.053  -1.675  1.00  0.00     0.083 HD  
ENDROOT
BRANCH   1   7
ATOM     7   C7  UNL     1       0.796   1.842  -4.506  1.00  0.00     0.139 C   
BRANCH   7   8
ATOM     8   C6  UNL     1      -0.599   1.649  -5.117  1.00  0.00     0.060 C   
BRANCH   8   9
ATOM     9   C5  UNL     1      -1.705   1.650  -4.092  1.00  0.00    -0.007 A   
ATOM     10  C2  UNL     1      -2.278   2.792  -3.550  1.00  0.00     0.044 A   
ATOM     11  N1  UNL     1      -3.211   2.729  -2.572  1.00  0.00    -0.241 NA  
ATOM     12  C3  UNL     1      -3.592   1.511  -2.159  1.00  0.00     0.221 A   
ATOM     13  C4  UNL     1      -2.177   0.449  -3.576  1.00  0.00     0.118 A   
ATOM     14  N2  UNL     1      -3.091   0.347  -2.591  1.00  0.00    -0.245 NA  
ATOM     15  C1  UNL     1      -1.905   4.175  -4.004  1.00  0.00     0.067 C   
ENDBRANCH   8   9
ENDBRANCH   7   8
ENDBRANCH   1   7
BRANCH   3  16
ATOM     16  C10 UNL     1       1.321  -0.686  -0.196  1.00  0.00     0.114 C   
BRANCH  16  17
ATOM     17  C11 UNL     1       2.756  -1.042   0.248  1.00  0.00     0.064 C   
BRANCH  17  18
ATOM     18  C12 UNL     1       3.078  -0.905   1.754  1.00  0.00    -0.012 C   
ATOM     19  C13 UNL     1       2.936   0.535   2.252  1.00  0.00     0.007 C   
ATOM     20  C14 UNL     1       2.281  -1.855   2.644  1.00  0.00     0.007 C   
ENDBRANCH  17  18
ENDBRANCH  16  17
BRANCH  16  21
ATOM     21  N4  UNL     1       0.450  -1.917  -0.094  1.00  0.00     0.249 N   
ATOM     22  H21 UNL     1       0.717  -2.520  -0.885  1.00  0.00     0.199 HD  
ATOM     23  H22 UNL     1       0.650  -2.443   0.760  1.00  0.00     0.199 HD  
BRANCH  21  24
ATOM     24  C15 UNL     1      -1.025  -1.683  -0.189  1.00  0.00     0.164 C   
BRANCH  24  25
ATOM     25  C16 UNL     1      -1.587  -1.066   1.061  1.00  0.00    -0.002 A   
ATOM     26  C17 UNL     1      -1.872   0.318   1.114  1.00  0.00     0.012 A   
ATOM     27  C21 UNL     1      -1.790  -1.855   2.204  1.00  0.00     0.045 A   
ATOM     28  C18 UNL     1      -2.346   0.913   2.287  1.00  0.00     0.037 A   
ATOM     29  C20 UNL     1      -2.261  -1.239   3.345  1.00  0.00     0.109 A   
ATOM     30  C19 UNL     1      -2.529   0.106   3.386  1.00  0.00     0.108 A   
ATOM     31  O1  UNL     1      -2.503  -1.855   4.533  1.00  0.00    -0.316 OA  
ATOM     32  O2  UNL     1      -2.970   0.508   4.606  1.00  0.00    -0.316 OA  
ATOM     33  C22 UNL     1      -2.985  -0.744   5.322  1.00  0.00     0.337 C   
ENDBRANCH  24  25
ENDBRANCH  21  24
ENDBRANCH  16  21
ENDBRANCH   3  16
TORSDOF 9
