REMARK SMILES COc1ccc(C)cc1Cn1cc([C@@H]([NH2+]Cc2ccc3c(c2)OCO3)C(C)C)nn1
REMARK SMILES IDX 11 1 12 2 13 3 29 4 30 5 10 7 9 8 3 9 4 10 5 11 8 12 6 13
REMARK SMILES IDX 7 14 2 15 1 16 14 17 15 18 16 21 17 22 18 23 22 24 19 25
REMARK SMILES IDX 21 26 20 27 23 28 25 29 24 30 26 31 27 32 28 33
REMARK H PARENT 12 6 15 19 15 20
ROOT
ATOM     1   N1  UNL     1      -1.398  -1.953  -1.748  1.00  0.00    -0.208 N   
ATOM     2   C10 UNL     1      -0.797  -2.036  -0.521  1.00  0.00     0.046 A   
ATOM     3   C11 UNL     1      -0.422  -0.740  -0.245  1.00  0.00     0.127 A   
ATOM     4   N3  UNL     1      -0.729   0.056  -1.322  1.00  0.00    -0.132 NA  
ATOM     5   N4  UNL     1      -1.308  -0.700  -2.240  1.00  0.00    -0.076 NA  
ATOM     6   H12 UNL     1      -0.745  -2.965   0.029  1.00  0.00     0.083 HD  
ENDROOT
BRANCH   1   7
ATOM     7   C9  UNL     1      -2.063  -3.002  -2.501  1.00  0.00     0.172 C   
BRANCH   7   8
ATOM     8   C8  UNL     1      -3.470  -3.213  -1.995  1.00  0.00     0.002 A   
ATOM     9   C2  UNL     1      -3.758  -4.172  -1.006  1.00  0.00     0.079 A   
ATOM     10  C3  UNL     1      -5.071  -4.313  -0.547  1.00  0.00     0.034 A   
ATOM     11  C4  UNL     1      -6.096  -3.511  -1.063  1.00  0.00     0.006 A   
ATOM     12  C7  UNL     1      -4.510  -2.408  -2.500  1.00  0.00     0.011 A   
ATOM     13  C5  UNL     1      -5.827  -2.559  -2.050  1.00  0.00    -0.051 A   
ATOM     14  C6  UNL     1      -6.918  -1.673  -2.578  1.00  0.00     0.044 C   
BRANCH   9  15
ATOM     15  O1  UNL     1      -2.687  -4.894  -0.541  1.00  0.00    -0.349 OA  
ATOM     16  C1  UNL     1      -2.979  -6.019   0.288  1.00  0.00     0.203 C   
ENDBRANCH   9  15
ENDBRANCH   7   8
ENDBRANCH   1   7
BRANCH   3  17
ATOM     17  C12 UNL     1       0.233  -0.129   0.952  1.00  0.00     0.117 C   
BRANCH  17  18
ATOM     18  N2  UNL     1       0.933   1.147   0.551  1.00  0.00     0.249 N   
ATOM     19  H14 UNL     1       0.308   1.622  -0.119  1.00  0.00     0.199 HD  
ATOM     20  H15 UNL     1       1.044   1.789   1.343  1.00  0.00     0.199 HD  
BRANCH  18  21
ATOM     21  C13 UNL     1       2.245   0.974  -0.133  1.00  0.00     0.164 C   
BRANCH  21  22
ATOM     22  C14 UNL     1       2.803   2.315  -0.519  1.00  0.00    -0.002 A   
ATOM     23  C15 UNL     1       2.488   2.879  -1.778  1.00  0.00     0.012 A   
ATOM     24  C19 UNL     1       3.570   3.054   0.399  1.00  0.00     0.045 A   
ATOM     25  C16 UNL     1       2.934   4.160  -2.123  1.00  0.00     0.037 A   
ATOM     26  C18 UNL     1       3.987   4.316   0.029  1.00  0.00     0.109 A   
ATOM     27  C17 UNL     1       3.677   4.855  -1.195  1.00  0.00     0.108 A   
ATOM     28  O2  UNL     1       4.714   5.166   0.802  1.00  0.00    -0.316 OA  
ATOM     29  O3  UNL     1       4.172   6.112  -1.347  1.00  0.00    -0.316 OA  
ATOM     30  C20 UNL     1       4.844   6.302  -0.083  1.00  0.00     0.337 C   
ENDBRANCH  21  22
ENDBRANCH  18  21
ENDBRANCH  17  18
BRANCH  17  31
ATOM     31  C21 UNL     1      -0.746   0.207   2.109  1.00  0.00     0.037 C   
ATOM     32  C22 UNL     1      -1.344  -1.054   2.743  1.00  0.00     0.014 C   
ATOM     33  C23 UNL     1      -1.872   1.173   1.715  1.00  0.00     0.014 C   
ENDBRANCH  17  31
ENDBRANCH   3  17
TORSDOF 8
