REMARK SMILES Cc1nccnc1Cn1cc([C@@H]([NH2+]Cc2ccc3c(c2)OCO3)C2CCCCC2)nn1
REMARK SMILES IDX 9 1 10 2 11 3 30 4 31 5 8 7 7 8 2 9 3 10 4 11 6 12 5 13 1 14
REMARK SMILES IDX 12 15 13 16 14 19 15 20 16 21 20 22 17 23 19 24 18 25 21 26
REMARK SMILES IDX 23 27 22 28 24 29 25 30 29 31 26 32 28 33 27 34
REMARK H PARENT 10 6 13 17 13 18
ROOT
ATOM     1   N3  UNL     1      -1.833   2.627   0.673  1.00  0.00    -0.206 N   
ATOM     2   C7  UNL     1      -1.677   1.459  -0.022  1.00  0.00     0.046 A   
ATOM     3   C8  UNL     1      -0.313   1.281  -0.076  1.00  0.00     0.127 A   
ATOM     4   N5  UNL     1       0.301   2.358   0.515  1.00  0.00    -0.132 NA  
ATOM     5   N6  UNL     1      -0.637   3.179   0.955  1.00  0.00    -0.076 NA  
ATOM     6   H8  UNL     1      -2.522   0.877  -0.366  1.00  0.00     0.083 HD  
ENDROOT
BRANCH   1   7
ATOM     7   C6  UNL     1      -3.067   3.287   1.058  1.00  0.00     0.192 C   
BRANCH   7   8
ATOM     8   C5  UNL     1      -3.761   2.508   2.138  1.00  0.00     0.081 A   
ATOM     9   C2  UNL     1      -3.500   2.700   3.500  1.00  0.00     0.060 A   
ATOM     10  N1  UNL     1      -4.130   1.960   4.449  1.00  0.00    -0.258 NA  
ATOM     11  C3  UNL     1      -5.024   1.047   4.014  1.00  0.00     0.131 A   
ATOM     12  N2  UNL     1      -4.650   1.564   1.710  1.00  0.00    -0.256 NA  
ATOM     13  C4  UNL     1      -5.279   0.853   2.673  1.00  0.00     0.131 A   
ATOM     14  C1  UNL     1      -2.522   3.717   4.007  1.00  0.00     0.069 C   
ENDBRANCH   7   8
ENDBRANCH   1   7
BRANCH   3  15
ATOM     15  C9  UNL     1       0.522   0.199  -0.691  1.00  0.00     0.117 C   
BRANCH  15  16
ATOM     16  N4  UNL     1       1.830   0.823  -1.128  1.00  0.00     0.249 N   
ATOM     17  H10 UNL     1       2.297   1.190  -0.288  1.00  0.00     0.199 HD  
ATOM     18  H11 UNL     1       1.579   1.673  -1.649  1.00  0.00     0.199 HD  
BRANCH  16  19
ATOM     19  C10 UNL     1       2.774   0.030  -1.955  1.00  0.00     0.164 C   
BRANCH  19  20
ATOM     20  C11 UNL     1       2.182  -0.418  -3.261  1.00  0.00    -0.002 A   
ATOM     21  C12 UNL     1       1.940   0.518  -4.296  1.00  0.00     0.012 A   
ATOM     22  C16 UNL     1       1.829  -1.765  -3.453  1.00  0.00     0.045 A   
ATOM     23  C13 UNL     1       1.348   0.122  -5.501  1.00  0.00     0.037 A   
ATOM     24  C15 UNL     1       1.248  -2.122  -4.651  1.00  0.00     0.109 A   
ATOM     25  C14 UNL     1       1.012  -1.206  -5.646  1.00  0.00     0.108 A   
ATOM     26  O1  UNL     1       0.844  -3.373  -4.991  1.00  0.00    -0.316 OA  
ATOM     27  O2  UNL     1       0.431  -1.765  -6.738  1.00  0.00    -0.316 OA  
ATOM     28  C17 UNL     1       0.348  -3.147  -6.330  1.00  0.00     0.337 C   
ENDBRANCH  19  20
ENDBRANCH  16  19
ENDBRANCH  15  16
BRANCH  15  29
ATOM     29  C18 UNL     1       0.770  -1.017   0.241  1.00  0.00     0.043 C   
ATOM     30  C19 UNL     1       1.497  -0.675   1.556  1.00  0.00     0.010 C   
ATOM     31  C23 UNL     1      -0.539  -1.776   0.542  1.00  0.00     0.010 C   
ATOM     32  C20 UNL     1       1.739  -1.922   2.407  1.00  0.00     0.001 C   
ATOM     33  C22 UNL     1      -0.285  -3.025   1.385  1.00  0.00     0.001 C   
ATOM     34  C21 UNL     1       0.447  -2.685   2.678  1.00  0.00     0.000 C   
ENDBRANCH  15  29
ENDBRANCH   3  15
TORSDOF 7
