REMARK SMILES Oc1ccc(Cn2cc([C@@H]([NH2+]Cc3ccc4c(c3)OCO4)C3CCCCC3)nn2)cc1Cl
REMARK SMILES IDX 7 1 8 2 9 3 28 4 29 5 6 7 5 8 2 9 3 10 31 11 4 12 30 13
REMARK SMILES IDX 32 14 1 15 10 17 11 18 12 21 13 22 14 23 18 24 15 25 17 26
REMARK SMILES IDX 16 27 19 28 21 29 20 30 22 31 23 32 27 33 24 34 26 35 25 36
REMARK H PARENT 8 6 1 16 11 19 11 20
ROOT
ATOM     1   N1  UNL     1      -3.515   0.494   0.034  1.00  0.00    -0.208 N   
ATOM     2   C6  UNL     1      -2.575   1.091  -0.763  1.00  0.00     0.046 A   
ATOM     3   C7  UNL     1      -1.380   0.804  -0.140  1.00  0.00     0.127 A   
ATOM     4   N3  UNL     1      -1.632   0.105   1.014  1.00  0.00    -0.132 NA  
ATOM     5   N4  UNL     1      -2.939  -0.063   1.117  1.00  0.00    -0.076 NA  
ATOM     6   H6  UNL     1      -2.834   1.607  -1.677  1.00  0.00     0.083 HD  
ENDROOT
BRANCH   1   7
ATOM     7   C5  UNL     1      -4.956   0.429  -0.158  1.00  0.00     0.169 C   
BRANCH   7   8
ATOM     8   C4  UNL     1      -5.309  -0.353  -1.400  1.00  0.00    -0.027 A   
ATOM     9   C1  UNL     1      -5.935  -1.810  -3.711  1.00  0.00     0.090 A   
ATOM     10  C2  UNL     1      -5.396  -2.464  -2.610  1.00  0.00     0.035 A   
ATOM     11  C24 UNL     1      -6.170  -0.436  -3.670  1.00  0.00     0.071 A   
ATOM     12  C3  UNL     1      -5.086  -1.740  -1.456  1.00  0.00     0.008 A   
ATOM     13  C23 UNL     1      -5.859   0.293  -2.519  1.00  0.00     0.028 A   
ATOM     14  CL1 UNL     1      -6.833   0.382  -5.034  1.00  0.00    -0.081 Cl  
BRANCH   9  15
ATOM     15  O1  UNL     1      -6.218  -2.566  -4.813  1.00  0.00    -0.359 OA  
ATOM     16  H1  UNL     1      -6.645  -1.985  -5.471  1.00  0.00     0.218 HD  
ENDBRANCH   9  15
ENDBRANCH   7   8
ENDBRANCH   1   7
BRANCH   3  17
ATOM     17  C8  UNL     1       0.033   1.130  -0.511  1.00  0.00     0.117 C   
BRANCH  17  18
ATOM     18  N2  UNL     1       0.919   1.075   0.703  1.00  0.00     0.249 N   
ATOM     19  H8  UNL     1       0.633   0.243   1.241  1.00  0.00     0.199 HD  
ATOM     20  H9  UNL     1       1.903   0.933   0.461  1.00  0.00     0.199 HD  
BRANCH  18  21
ATOM     21  C9  UNL     1       0.812   2.243   1.621  1.00  0.00     0.164 C   
BRANCH  21  22
ATOM     22  C10 UNL     1       1.701   2.050   2.817  1.00  0.00    -0.002 A   
ATOM     23  C11 UNL     1       1.216   1.374   3.962  1.00  0.00     0.012 A   
ATOM     24  C15 UNL     1       3.036   2.488   2.784  1.00  0.00     0.045 A   
ATOM     25  C12 UNL     1       2.044   1.149   5.067  1.00  0.00     0.037 A   
ATOM     26  C14 UNL     1       3.826   2.246   3.889  1.00  0.00     0.109 A   
ATOM     27  C13 UNL     1       3.345   1.597   4.999  1.00  0.00     0.108 A   
ATOM     28  O2  UNL     1       5.133   2.597   4.017  1.00  0.00    -0.316 OA  
ATOM     29  O3  UNL     1       4.286   1.463   5.969  1.00  0.00    -0.316 OA  
ATOM     30  C16 UNL     1       5.416   2.114   5.351  1.00  0.00     0.337 C   
ENDBRANCH  21  22
ENDBRANCH  18  21
ENDBRANCH  17  18
BRANCH  17  31
ATOM     31  C17 UNL     1       0.574   0.187  -1.620  1.00  0.00     0.043 C   
ATOM     32  C18 UNL     1       1.877   0.727  -2.242  1.00  0.00     0.010 C   
ATOM     33  C22 UNL     1       0.765  -1.273  -1.160  1.00  0.00     0.010 C   
ATOM     34  C19 UNL     1       2.374  -0.168  -3.376  1.00  0.00     0.001 C   
ATOM     35  C21 UNL     1       1.267  -2.160  -2.298  1.00  0.00     0.001 C   
ATOM     36  C20 UNL     1       2.548  -1.612  -2.918  1.00  0.00     0.000 C   
ENDBRANCH  17  31
ENDBRANCH   3  17
TORSDOF 8
