REMARK SMILES Cc1ccc([C@@H](CO)n2cc([C@@H]([NH2+]Cc3ccc4c(c3)OCO4)C(C)C)nn2)c(C)c1
REMARK SMILES IDX 9 1 10 2 11 3 27 4 28 5 6 7 5 8 2 9 3 10 31 11 4 12 29 13
REMARK SMILES IDX 1 14 30 15 7 16 8 17 12 19 13 20 14 23 15 24 16 25 20 26
REMARK SMILES IDX 17 27 19 28 18 29 21 30 23 31 22 32 24 33 25 34 26 35
REMARK H PARENT 10 6 8 18 13 21 13 22
ROOT
ATOM     1   N1  UNL     1      -1.835  -0.986  -1.159  1.00  0.00    -0.202 N   
ATOM     2   C8  UNL     1      -1.391  -0.738   0.114  1.00  0.00     0.046 A   
ATOM     3   C9  UNL     1      -0.822   0.511   0.035  1.00  0.00     0.127 A   
ATOM     4   N3  UNL     1      -0.919   0.972  -1.253  1.00  0.00    -0.132 NA  
ATOM     5   N4  UNL     1      -1.535   0.049  -1.974  1.00  0.00    -0.075 NA  
ATOM     6   H10 UNL     1      -1.538  -1.443   0.921  1.00  0.00     0.083 HD  
ENDROOT
BRANCH   1   7
ATOM     7   C6  UNL     1      -2.551  -2.152  -1.679  1.00  0.00     0.155 C   
BRANCH   7   8
ATOM     8   C5  UNL     1      -1.802  -3.445  -1.349  1.00  0.00    -0.020 A   
ATOM     9   C2  UNL     1      -0.403  -5.825  -0.681  1.00  0.00    -0.051 A   
ATOM     10  C3  UNL     1      -1.450  -5.372   0.119  1.00  0.00     0.004 A   
ATOM     11  C24 UNL     1      -0.066  -5.096  -1.825  1.00  0.00     0.007 A   
ATOM     12  C4  UNL     1      -2.134  -4.199  -0.207  1.00  0.00     0.006 A   
ATOM     13  C22 UNL     1      -0.741  -3.908  -2.167  1.00  0.00    -0.046 A   
ATOM     14  C1  UNL     1       0.304  -7.108  -0.358  1.00  0.00     0.044 C   
ATOM     15  C23 UNL     1      -0.309  -3.186  -3.417  1.00  0.00     0.045 C   
ENDBRANCH   7   8
BRANCH   7  16
ATOM     16  C7  UNL     1      -4.051  -2.092  -1.312  1.00  0.00     0.185 C   
BRANCH  16  17
ATOM     17  O1  UNL     1      -4.294  -1.960   0.089  1.00  0.00    -0.394 OA  
ATOM     18  H9  UNL     1      -5.263  -1.985   0.211  1.00  0.00     0.210 HD  
ENDBRANCH  16  17
ENDBRANCH   7  16
ENDBRANCH   1   7
BRANCH   3  19
ATOM     19  C10 UNL     1      -0.150   1.348   1.075  1.00  0.00     0.117 C   
BRANCH  19  20
ATOM     20  N2  UNL     1       0.831   2.295   0.438  1.00  0.00     0.249 N   
ATOM     21  H12 UNL     1       1.088   3.061   1.066  1.00  0.00     0.199 HD  
ATOM     22  H13 UNL     1       0.351   2.723  -0.367  1.00  0.00     0.199 HD  
BRANCH  20  23
ATOM     23  C11 UNL     1       2.076   1.662  -0.081  1.00  0.00     0.164 C   
BRANCH  23  24
ATOM     24  C12 UNL     1       2.985   2.708  -0.666  1.00  0.00    -0.002 A   
ATOM     25  C13 UNL     1       4.035   3.258   0.109  1.00  0.00     0.012 A   
ATOM     26  C17 UNL     1       2.761   3.184  -1.970  1.00  0.00     0.045 A   
ATOM     27  C14 UNL     1       4.853   4.269  -0.408  1.00  0.00     0.037 A   
ATOM     28  C16 UNL     1       3.584   4.183  -2.448  1.00  0.00     0.109 A   
ATOM     29  C15 UNL     1       4.599   4.712  -1.689  1.00  0.00     0.108 A   
ATOM     30  O2  UNL     1       3.498   4.763  -3.675  1.00  0.00    -0.316 OA  
ATOM     31  O3  UNL     1       5.280   5.688  -2.343  1.00  0.00    -0.316 OA  
ATOM     32  C18 UNL     1       4.599   5.698  -3.615  1.00  0.00     0.337 C   
ENDBRANCH  23  24
ENDBRANCH  20  23
ENDBRANCH  19  20
BRANCH  19  33
ATOM     33  C19 UNL     1      -1.171   2.132   1.942  1.00  0.00     0.037 C   
ATOM     34  C20 UNL     1      -1.934   3.218   1.175  1.00  0.00     0.014 C   
ATOM     35  C21 UNL     1      -0.509   2.746   3.182  1.00  0.00     0.014 C   
ENDBRANCH  19  33
ENDBRANCH   3  19
TORSDOF 9
