REMARK SMILES Cc1ccc([C@H](CO)n2cc([C@@H]([NH2+]Cc3ccc4c(c3)OCO4)C(C)C)nn2)c(C)c1
REMARK SMILES IDX 9 1 10 2 11 3 27 4 28 5 6 7 5 8 2 9 3 10 31 11 4 12 29 13
REMARK SMILES IDX 1 14 30 15 7 16 8 17 12 19 13 20 14 23 15 24 16 25 20 26
REMARK SMILES IDX 17 27 19 28 18 29 21 30 23 31 22 32 24 33 25 34 26 35
REMARK H PARENT 10 6 8 18 13 21 13 22
ROOT
ATOM     1   N1  UNL     1      -1.214  -1.567   0.393  1.00  0.00    -0.202 N   
ATOM     2   C8  UNL     1      -0.328  -0.582   0.047  1.00  0.00     0.046 A   
ATOM     3   C9  UNL     1      -1.011   0.586   0.286  1.00  0.00     0.127 A   
ATOM     4   N3  UNL     1      -2.272   0.288   0.737  1.00  0.00    -0.132 NA  
ATOM     5   N4  UNL     1      -2.390  -1.028   0.786  1.00  0.00    -0.075 NA  
ATOM     6   H10 UNL     1       0.664  -0.804  -0.324  1.00  0.00     0.083 HD  
ENDROOT
BRANCH   1   7
ATOM     7   C6  UNL     1      -1.045  -3.021   0.358  1.00  0.00     0.155 C   
BRANCH   7   8
ATOM     8   C5  UNL     1       0.309  -3.433   0.942  1.00  0.00    -0.020 A   
ATOM     9   C2  UNL     1       2.839  -4.175   1.996  1.00  0.00    -0.051 A   
ATOM     10  C3  UNL     1       2.642  -4.098   0.619  1.00  0.00     0.004 A   
ATOM     11  C24 UNL     1       1.777  -3.858   2.848  1.00  0.00     0.007 A   
ATOM     12  C4  UNL     1       1.396  -3.736   0.101  1.00  0.00     0.006 A   
ATOM     13  C22 UNL     1       0.515  -3.490   2.344  1.00  0.00    -0.046 A   
ATOM     14  C1  UNL     1       4.184  -4.536   2.556  1.00  0.00     0.044 C   
ATOM     15  C23 UNL     1      -0.576  -3.176   3.336  1.00  0.00     0.045 C   
ENDBRANCH   7   8
BRANCH   7  16
ATOM     16  C7  UNL     1      -1.416  -3.579  -1.034  1.00  0.00     0.185 C   
BRANCH  16  17
ATOM     17  O1  UNL     1      -0.704  -2.951  -2.104  1.00  0.00    -0.394 OA  
ATOM     18  H9  UNL     1      -0.953  -3.422  -2.922  1.00  0.00     0.210 HD  
ENDBRANCH  16  17
ENDBRANCH   7  16
ENDBRANCH   1   7
BRANCH   3  19
ATOM     19  C10 UNL     1      -0.609   2.010   0.086  1.00  0.00     0.117 C   
BRANCH  19  20
ATOM     20  N2  UNL     1      -1.815   2.858  -0.242  1.00  0.00     0.249 N   
ATOM     21  H12 UNL     1      -2.531   2.616   0.457  1.00  0.00     0.199 HD  
ATOM     22  H13 UNL     1      -1.603   3.852  -0.135  1.00  0.00     0.199 HD  
BRANCH  20  23
ATOM     23  C11 UNL     1      -2.427   2.633  -1.586  1.00  0.00     0.164 C   
BRANCH  23  24
ATOM     24  C12 UNL     1      -1.551   3.105  -2.713  1.00  0.00    -0.002 A   
ATOM     25  C13 UNL     1      -1.408   4.488  -2.980  1.00  0.00     0.012 A   
ATOM     26  C17 UNL     1      -0.837   2.173  -3.487  1.00  0.00     0.045 A   
ATOM     27  C14 UNL     1      -0.563   4.939  -3.999  1.00  0.00     0.037 A   
ATOM     28  C16 UNL     1      -0.010   2.651  -4.482  1.00  0.00     0.109 A   
ATOM     29  C15 UNL     1       0.124   3.995  -4.731  1.00  0.00     0.108 A   
ATOM     30  O2  UNL     1       0.755   1.891  -5.308  1.00  0.00    -0.316 OA  
ATOM     31  O3  UNL     1       0.987   4.250  -5.748  1.00  0.00    -0.316 OA  
ATOM     32  C18 UNL     1       1.369   2.910  -6.129  1.00  0.00     0.337 C   
ENDBRANCH  23  24
ENDBRANCH  20  23
ENDBRANCH  19  20
BRANCH  19  33
ATOM     33  C19 UNL     1       0.136   2.588   1.320  1.00  0.00     0.037 C   
ATOM     34  C20 UNL     1      -0.744   2.750   2.565  1.00  0.00     0.014 C   
ATOM     35  C21 UNL     1       0.820   3.922   0.995  1.00  0.00     0.014 C   
ENDBRANCH  19  33
ENDBRANCH   3  19
TORSDOF 9
