REMARK SMILES OC[C@H](c1ccccc1O)n1cc([C@@H]([NH2+]Cc2ccc3c(c2)OCO3)C2CCCC2)nn1
REMARK SMILES IDX 11 1 12 2 13 3 31 4 32 5 3 7 2 8 1 9 4 11 5 12 9 13 6 14
REMARK SMILES IDX 8 15 7 16 10 17 14 19 15 20 16 23 17 24 18 25 22 26 19 27
REMARK SMILES IDX 21 28 20 29 23 30 25 31 24 32 26 33 27 34 30 35 28 36 29 37
REMARK H PARENT 12 6 1 10 10 18 15 21 15 22
ROOT
ATOM     1   N1  UNL     1       0.298  -2.234  -0.374  1.00  0.00    -0.202 N   
ATOM     2   C9  UNL     1      -0.925  -1.615  -0.394  1.00  0.00     0.046 A   
ATOM     3   C10 UNL     1      -0.625  -0.278  -0.508  1.00  0.00     0.127 A   
ATOM     4   N3  UNL     1       0.737  -0.123  -0.556  1.00  0.00    -0.132 NA  
ATOM     5   N4  UNL     1       1.290  -1.320  -0.473  1.00  0.00    -0.075 NA  
ATOM     6   H10 UNL     1      -1.851  -2.171  -0.341  1.00  0.00     0.083 HD  
ENDROOT
BRANCH   1   7
ATOM     7   C2  UNL     1       0.613  -3.664  -0.329  1.00  0.00     0.158 C   
BRANCH   7   8
ATOM     8   C1  UNL     1       0.682  -4.243  -1.758  1.00  0.00     0.186 C   
BRANCH   8   9
ATOM     9   O1  UNL     1      -0.525  -4.053  -2.501  1.00  0.00    -0.394 OA  
ATOM     10  H1  UNL     1      -0.378  -4.447  -3.382  1.00  0.00     0.210 HD  
ENDBRANCH   8   9
ENDBRANCH   7   8
BRANCH   7  11
ATOM     11  C3  UNL     1      -0.270  -4.398   0.676  1.00  0.00     0.007 A   
ATOM     12  C4  UNL     1      -1.356  -5.202   0.290  1.00  0.00     0.008 A   
ATOM     13  C8  UNL     1      -0.011  -4.276   2.052  1.00  0.00     0.076 A   
ATOM     14  C5  UNL     1      -2.140  -5.861   1.243  1.00  0.00     0.001 A   
ATOM     15  C7  UNL     1      -0.788  -4.932   3.007  1.00  0.00     0.033 A   
ATOM     16  C6  UNL     1      -1.855  -5.728   2.598  1.00  0.00     0.003 A   
BRANCH  13  17
ATOM     17  O2  UNL     1       1.030  -3.487   2.457  1.00  0.00    -0.361 OA  
ATOM     18  H9  UNL     1       1.167  -3.615   3.413  1.00  0.00     0.218 HD  
ENDBRANCH  13  17
ENDBRANCH   7  11
ENDBRANCH   1   7
BRANCH   3  19
ATOM     19  C11 UNL     1      -1.504   0.927  -0.562  1.00  0.00     0.117 C   
BRANCH  19  20
ATOM     20  N2  UNL     1      -0.741   2.135  -0.090  1.00  0.00     0.249 N   
ATOM     21  H12 UNL     1       0.209   2.049  -0.485  1.00  0.00     0.199 HD  
ATOM     22  H13 UNL     1      -1.122   3.012  -0.454  1.00  0.00     0.199 HD  
BRANCH  20  23
ATOM     23  C12 UNL     1      -0.580   2.241   1.386  1.00  0.00     0.164 C   
BRANCH  23  24
ATOM     24  C13 UNL     1       0.320   3.392   1.736  1.00  0.00    -0.002 A   
ATOM     25  C14 UNL     1      -0.215   4.685   1.949  1.00  0.00     0.012 A   
ATOM     26  C18 UNL     1       1.711   3.199   1.798  1.00  0.00     0.045 A   
ATOM     27  C15 UNL     1       0.622   5.770   2.233  1.00  0.00     0.037 A   
ATOM     28  C17 UNL     1       2.507   4.289   2.083  1.00  0.00     0.109 A   
ATOM     29  C16 UNL     1       1.979   5.538   2.295  1.00  0.00     0.108 A   
ATOM     30  O3  UNL     1       3.862   4.274   2.186  1.00  0.00    -0.316 OA  
ATOM     31  O4  UNL     1       2.934   6.468   2.558  1.00  0.00    -0.316 OA  
ATOM     32  C19 UNL     1       4.128   5.657   2.510  1.00  0.00     0.337 C   
ENDBRANCH  23  24
ENDBRANCH  20  23
ENDBRANCH  19  20
BRANCH  19  33
ATOM     33  C20 UNL     1      -2.072   1.157  -1.976  1.00  0.00     0.043 C   
ATOM     34  C21 UNL     1      -1.062   1.563  -3.063  1.00  0.00     0.010 C   
ATOM     35  C24 UNL     1      -3.162   2.230  -2.061  1.00  0.00     0.010 C   
ATOM     36  C22 UNL     1      -1.828   2.462  -4.038  1.00  0.00     0.001 C   
ATOM     37  C23 UNL     1      -3.273   2.471  -3.558  1.00  0.00     0.001 C   
ENDBRANCH  19  33
ENDBRANCH   3  19
TORSDOF 10
