REMARK SMILES OC[C@@H](c1ccccc1O)n1cc([C@@H]([NH2+]Cc2ccc3c(c2)OCO3)C2CCCC2)nn1
REMARK SMILES IDX 11 1 12 2 13 3 31 4 32 5 3 7 2 8 1 9 4 11 5 12 9 13 6 14
REMARK SMILES IDX 8 15 7 16 10 17 14 19 15 20 16 23 17 24 18 25 22 26 19 27
REMARK SMILES IDX 21 28 20 29 23 30 25 31 24 32 26 33 27 34 30 35 28 36 29 37
REMARK H PARENT 12 6 1 10 10 18 15 21 15 22
ROOT
ATOM     1   N1  UNL     1       2.632  -0.189   0.348  1.00  0.00    -0.202 N   
ATOM     2   C9  UNL     1       1.421   0.180   0.869  1.00  0.00     0.046 A   
ATOM     3   C10 UNL     1       0.579   0.205  -0.218  1.00  0.00     0.127 A   
ATOM     4   N3  UNL     1       1.293  -0.106  -1.348  1.00  0.00    -0.132 NA  
ATOM     5   N4  UNL     1       2.544  -0.346  -0.991  1.00  0.00    -0.075 NA  
ATOM     6   H10 UNL     1       1.284   0.375   1.924  1.00  0.00     0.083 HD  
ENDROOT
BRANCH   1   7
ATOM     7   C2  UNL     1       3.897  -0.438   1.040  1.00  0.00     0.158 C   
BRANCH   7   8
ATOM     8   C1  UNL     1       4.597   0.881   1.426  1.00  0.00     0.186 C   
BRANCH   8   9
ATOM     9   O1  UNL     1       3.770   1.793   2.150  1.00  0.00    -0.394 OA  
ATOM     10  H1  UNL     1       3.622   1.371   3.023  1.00  0.00     0.210 HD  
ENDBRANCH   8   9
ENDBRANCH   7   8
BRANCH   7  11
ATOM     11  C3  UNL     1       3.720  -1.529   2.094  1.00  0.00     0.007 A   
ATOM     12  C4  UNL     1       3.707  -2.870   1.641  1.00  0.00     0.008 A   
ATOM     13  C8  UNL     1       3.538  -1.311   3.466  1.00  0.00     0.076 A   
ATOM     14  C5  UNL     1       3.537  -3.938   2.525  1.00  0.00     0.001 A   
ATOM     15  C7  UNL     1       3.372  -2.379   4.355  1.00  0.00     0.033 A   
ATOM     16  C6  UNL     1       3.374  -3.692   3.883  1.00  0.00     0.003 A   
BRANCH  13  17
ATOM     17  O2  UNL     1       3.492  -0.038   3.962  1.00  0.00    -0.361 OA  
ATOM     18  H9  UNL     1       3.437  -0.095   4.934  1.00  0.00     0.218 HD  
ENDBRANCH  13  17
ENDBRANCH   7  11
ENDBRANCH   1   7
BRANCH   3  19
ATOM     19  C11 UNL     1      -0.871   0.542  -0.343  1.00  0.00     0.117 C   
BRANCH  19  20
ATOM     20  N2  UNL     1      -1.126   1.060  -1.746  1.00  0.00     0.249 N   
ATOM     21  H12 UNL     1      -0.345   0.702  -2.322  1.00  0.00     0.199 HD  
ATOM     22  H13 UNL     1      -1.978   0.649  -2.141  1.00  0.00     0.199 HD  
BRANCH  20  23
ATOM     23  C12 UNL     1      -1.172   2.541  -1.889  1.00  0.00     0.164 C   
BRANCH  23  24
ATOM     24  C13 UNL     1      -2.507   3.094  -1.468  1.00  0.00    -0.002 A   
ATOM     25  C14 UNL     1      -3.637   2.942  -2.311  1.00  0.00     0.012 A   
ATOM     26  C18 UNL     1      -2.657   3.726  -0.222  1.00  0.00     0.045 A   
ATOM     27  C15 UNL     1      -4.899   3.397  -1.913  1.00  0.00     0.037 A   
ATOM     28  C17 UNL     1      -3.915   4.168   0.138  1.00  0.00     0.109 A   
ATOM     29  C16 UNL     1      -5.006   4.001  -0.678  1.00  0.00     0.108 A   
ATOM     30  O3  UNL     1      -4.228   4.801   1.298  1.00  0.00    -0.316 OA  
ATOM     31  O4  UNL     1      -6.145   4.500  -0.131  1.00  0.00    -0.316 OA  
ATOM     32  C19 UNL     1      -5.636   5.068   1.094  1.00  0.00     0.337 C   
ENDBRANCH  23  24
ENDBRANCH  20  23
ENDBRANCH  19  20
BRANCH  19  33
ATOM     33  C20 UNL     1      -1.839  -0.624  -0.079  1.00  0.00     0.043 C   
ATOM     34  C21 UNL     1      -1.786  -1.194   1.338  1.00  0.00     0.010 C   
ATOM     35  C24 UNL     1      -1.655  -1.875  -0.943  1.00  0.00     0.010 C   
ATOM     36  C22 UNL     1      -2.622  -2.463   1.230  1.00  0.00     0.001 C   
ATOM     37  C23 UNL     1      -2.395  -2.981  -0.189  1.00  0.00     0.001 C   
ENDBRANCH  19  33
ENDBRANCH   3  19
TORSDOF 10
