REMARK SMILES COCc1cccc(-n2cc([C@@H]([NH2+]Cc3ccc4c(c3)OCO4)C(C)(C)C)nn2)c1
REMARK SMILES IDX 9 1 10 2 11 3 28 4 29 5 8 6 4 7 5 8 30 9 6 10 7 11 3 12 2 13
REMARK SMILES IDX 1 14 12 15 13 16 14 19 15 20 16 21 20 22 17 23 19 24 18 25
REMARK SMILES IDX 21 26 23 27 22 28 24 29 25 30 26 31 27 32
REMARK H PARENT 13 17 13 18
ROOT
ATOM     1   N1  UNL     1      -0.062   0.586   2.193  1.00  0.00    -0.181 N   
ATOM     2   C8  UNL     1      -0.763  -0.400   1.522  1.00  0.00     0.135 A   
ATOM     3   C9  UNL     1      -0.288  -0.367   0.231  1.00  0.00     0.128 A   
ATOM     4   N3  UNL     1       0.642   0.628   0.125  1.00  0.00    -0.131 NA  
ATOM     5   N4  UNL     1       0.762   1.207   1.307  1.00  0.00    -0.071 NA  
ENDROOT
BRANCH   1   6
ATOM     6   C7  UNL     1      -0.142   0.977   3.551  1.00  0.00     0.058 A   
ATOM     7   C3  UNL     1      -1.144   0.763   5.768  1.00  0.00    -0.020 A   
ATOM     8   C4  UNL     1      -0.292   1.777   6.229  1.00  0.00     0.006 A   
ATOM     9   C23 UNL     1      -1.048   0.358   4.425  1.00  0.00     0.032 A   
ATOM     10  C5  UNL     1       0.614   2.393   5.365  1.00  0.00     0.002 A   
ATOM     11  C6  UNL     1       0.689   2.001   4.028  1.00  0.00     0.026 A   
BRANCH   7  12
ATOM     12  C2  UNL     1      -2.107   0.106   6.731  1.00  0.00     0.195 C   
BRANCH  12  13
ATOM     13  O1  UNL     1      -3.188  -0.505   6.022  1.00  0.00    -0.380 OA  
ATOM     14  C1  UNL     1      -4.157  -1.036   6.921  1.00  0.00     0.195 C   
ENDBRANCH  12  13
ENDBRANCH   7  12
ENDBRANCH   1   6
BRANCH   3  15
ATOM     15  C10 UNL     1      -0.667  -1.149  -0.993  1.00  0.00     0.120 C   
BRANCH  15  16
ATOM     16  N2  UNL     1      -0.529  -0.243  -2.196  1.00  0.00     0.250 N   
ATOM     17  H11 UNL     1      -0.394  -0.758  -3.069  1.00  0.00     0.199 HD  
ATOM     18  H12 UNL     1       0.337   0.302  -2.055  1.00  0.00     0.199 HD  
BRANCH  16  19
ATOM     19  C11 UNL     1      -1.636   0.737  -2.385  1.00  0.00     0.164 C   
BRANCH  19  20
ATOM     20  C12 UNL     1      -1.302   1.688  -3.499  1.00  0.00    -0.002 A   
ATOM     21  C13 UNL     1      -0.641   2.909  -3.216  1.00  0.00     0.012 A   
ATOM     22  C17 UNL     1      -1.584   1.345  -4.833  1.00  0.00     0.045 A   
ATOM     23  C14 UNL     1      -0.276   3.784  -4.246  1.00  0.00     0.037 A   
ATOM     24  C16 UNL     1      -1.203   2.226  -5.824  1.00  0.00     0.109 A   
ATOM     25  C15 UNL     1      -0.571   3.413  -5.539  1.00  0.00     0.108 A   
ATOM     26  O2  UNL     1      -1.377   2.037  -7.157  1.00  0.00    -0.316 OA  
ATOM     27  O3  UNL     1      -0.279   4.127  -6.657  1.00  0.00    -0.316 OA  
ATOM     28  C18 UNL     1      -0.827   3.269  -7.681  1.00  0.00     0.337 C   
ENDBRANCH  19  20
ENDBRANCH  16  19
ENDBRANCH  15  16
BRANCH  15  29
ATOM     29  C19 UNL     1       0.164  -2.463  -1.203  1.00  0.00     0.010 C   
ATOM     30  C20 UNL     1      -0.392  -3.260  -2.407  1.00  0.00     0.017 C   
ATOM     31  C21 UNL     1       1.661  -2.186  -1.456  1.00  0.00     0.017 C   
ATOM     32  C22 UNL     1       0.042  -3.380   0.035  1.00  0.00     0.017 C   
ENDBRANCH  15  29
ENDBRANCH   3  15
TORSDOF 8
