REMARK SMILES CC(C)(C)[C@H]([NH2+]Cc1ccc2c(c1)OCO2)c1cn(CCc2nccs2)nn1
REMARK SMILES IDX 17 1 18 2 19 3 27 4 28 5 5 7 2 8 1 9 3 10 4 11 6 12 7 15
REMARK SMILES IDX 8 16 9 17 13 18 10 19 12 20 11 21 14 22 16 23 15 24 20 25
REMARK SMILES IDX 21 26 22 27 23 28 26 29 24 30 25 31
REMARK H PARENT 18 6 6 13 6 14
ROOT
ATOM     1   C14 UNL     1       1.298   0.796   1.230  1.00  0.00     0.127 A   
ATOM     2   C15 UNL     1       2.245   0.851   0.232  1.00  0.00     0.045 A   
ATOM     3   N2  UNL     1       3.118  -0.148   0.553  1.00  0.00    -0.212 N   
ATOM     4   N4  UNL     1       2.753  -0.761   1.694  1.00  0.00    -0.076 NA  
ATOM     5   N5  UNL     1       1.638  -0.193   2.119  1.00  0.00    -0.132 NA  
ATOM     6   H20 UNL     1       2.347   1.445  -0.667  1.00  0.00     0.083 HD  
ENDROOT
BRANCH   1   7
ATOM     7   C5  UNL     1       0.003   1.527   1.398  1.00  0.00     0.120 C   
BRANCH   7   8
ATOM     8   C2  UNL     1       0.092   2.786   2.332  1.00  0.00     0.010 C   
ATOM     9   C1  UNL     1       0.445   2.430   3.789  1.00  0.00     0.017 C   
ATOM     10  C3  UNL     1       1.163   3.766   1.799  1.00  0.00     0.017 C   
ATOM     11  C4  UNL     1      -1.254   3.550   2.333  1.00  0.00     0.017 C   
ENDBRANCH   7   8
BRANCH   7  12
ATOM     12  N1  UNL     1      -1.038   0.555   1.922  1.00  0.00     0.250 N   
ATOM     13  H11 UNL     1      -1.870   1.044   2.255  1.00  0.00     0.199 HD  
ATOM     14  H12 UNL     1      -0.607   0.088   2.731  1.00  0.00     0.199 HD  
BRANCH  12  15
ATOM     15  C6  UNL     1      -1.464  -0.526   0.980  1.00  0.00     0.164 C   
BRANCH  15  16
ATOM     16  C7  UNL     1      -2.229  -0.004  -0.203  1.00  0.00    -0.002 A   
ATOM     17  C8  UNL     1      -3.556   0.466  -0.053  1.00  0.00     0.012 A   
ATOM     18  C12 UNL     1      -1.615   0.049  -1.466  1.00  0.00     0.045 A   
ATOM     19  C9  UNL     1      -4.260   0.985  -1.145  1.00  0.00     0.037 A   
ATOM     20  C11 UNL     1      -2.336   0.567  -2.521  1.00  0.00     0.109 A   
ATOM     21  C10 UNL     1      -3.621   1.023  -2.365  1.00  0.00     0.108 A   
ATOM     22  O1  UNL     1      -1.891   0.695  -3.799  1.00  0.00    -0.316 OA  
ATOM     23  O2  UNL     1      -4.149   1.493  -3.525  1.00  0.00    -0.316 OA  
ATOM     24  C13 UNL     1      -3.060   1.254  -4.441  1.00  0.00     0.337 C   
ENDBRANCH  15  16
ENDBRANCH  12  15
ENDBRANCH   7  12
ENDBRANCH   1   7
BRANCH   3  25
ATOM     25  C16 UNL     1       4.293  -0.587  -0.172  1.00  0.00     0.141 C   
BRANCH  25  26
ATOM     26  C17 UNL     1       4.018  -1.798  -1.058  1.00  0.00     0.085 C   
BRANCH  26  27
ATOM     27  C18 UNL     1       3.300  -1.410  -2.317  1.00  0.00     0.079 A   
ATOM     28  N3  UNL     1       2.049  -0.999  -2.365  1.00  0.00    -0.254 NA  
ATOM     29  S1  UNL     1       4.121  -1.467  -3.829  1.00  0.00    -0.081 S   
ATOM     30  C19 UNL     1       1.701  -0.737  -3.680  1.00  0.00     0.119 A   
ATOM     31  C20 UNL     1       2.697  -0.931  -4.611  1.00  0.00     0.067 A   
ENDBRANCH  26  27
ENDBRANCH  25  26
ENDBRANCH   3  25
TORSDOF 8
