REMARK SMILES CS(=O)(=O)c1ccc(-n2cc([C@@H]([NH2+]Cc3ccc4c(c3)OCO4)C3CCCCC3)nn2)cc1
REMARK SMILES IDX 9 1 10 2 11 3 30 4 31 5 8 6 5 7 6 8 33 9 7 10 32 11 2 12
REMARK SMILES IDX 1 13 3 14 4 15 12 16 13 17 14 20 15 21 16 22 20 23 17 24
REMARK SMILES IDX 19 25 18 26 21 27 23 28 22 29 24 30 25 31 29 32 26 33 28 34
REMARK SMILES IDX 27 35
REMARK H PARENT 13 18 13 19
ROOT
ATOM     1   N1  UNL     1      -2.898   1.114  -0.396  1.00  0.00    -0.181 N   
ATOM     2   C6  UNL     1      -1.544   0.967  -0.628  1.00  0.00     0.135 A   
ATOM     3   C7  UNL     1      -1.142  -0.042   0.220  1.00  0.00     0.127 A   
ATOM     4   N3  UNL     1      -2.215  -0.469   0.946  1.00  0.00    -0.131 NA  
ATOM     5   N4  UNL     1      -3.267   0.239   0.575  1.00  0.00    -0.071 NA  
ENDROOT
BRANCH   1   6
ATOM     6   C5  UNL     1      -3.825   1.994  -1.010  1.00  0.00     0.058 A   
ATOM     7   C2  UNL     1      -5.689   3.714  -2.196  1.00  0.00     0.306 A   
ATOM     8   C3  UNL     1      -4.344   3.781  -2.570  1.00  0.00     0.136 A   
ATOM     9   C24 UNL     1      -6.109   2.811  -1.219  1.00  0.00     0.136 A   
ATOM     10  C4  UNL     1      -3.413   2.913  -1.986  1.00  0.00     0.038 A   
ATOM     11  C23 UNL     1      -5.180   1.949  -0.626  1.00  0.00     0.038 A   
BRANCH   7  12
ATOM     12  S1  UNL     1      -6.848   4.855  -2.920  1.00  0.00    -0.239 S   
ATOM     13  C1  UNL     1      -6.986   4.309  -4.605  1.00  0.00     0.674 C   
ATOM     14  O1  UNL     1      -6.211   6.158  -2.907  1.00  0.00    -0.517 OA  
ATOM     15  O2  UNL     1      -8.130   4.635  -2.277  1.00  0.00    -0.517 OA  
ENDBRANCH   7  12
ENDBRANCH   1   6
BRANCH   3  16
ATOM     16  C8  UNL     1       0.200  -0.670   0.442  1.00  0.00     0.117 C   
BRANCH  16  17
ATOM     17  N2  UNL     1       0.232  -1.376   1.776  1.00  0.00     0.249 N   
ATOM     18  H8  UNL     1       0.914  -2.139   1.777  1.00  0.00     0.199 HD  
ATOM     19  H9  UNL     1      -0.697  -1.808   1.893  1.00  0.00     0.199 HD  
BRANCH  17  20
ATOM     20  C9  UNL     1       0.479  -0.511   2.969  1.00  0.00     0.164 C   
BRANCH  20  21
ATOM     21  C10 UNL     1       1.944  -0.210   3.144  1.00  0.00    -0.002 A   
ATOM     22  C11 UNL     1       2.805  -1.178   3.719  1.00  0.00     0.012 A   
ATOM     23  C15 UNL     1       2.477   1.016   2.704  1.00  0.00     0.045 A   
ATOM     24  C12 UNL     1       4.177  -0.924   3.860  1.00  0.00     0.037 A   
ATOM     25  C14 UNL     1       3.831   1.231   2.855  1.00  0.00     0.109 A   
ATOM     26  C13 UNL     1       4.657   0.290   3.422  1.00  0.00     0.108 A   
ATOM     27  O3  UNL     1       4.496   2.357   2.485  1.00  0.00    -0.316 OA  
ATOM     28  O4  UNL     1       5.948   0.712   3.488  1.00  0.00    -0.316 OA  
ATOM     29  C16 UNL     1       5.842   2.034   2.906  1.00  0.00     0.337 C   
ENDBRANCH  20  21
ENDBRANCH  17  20
ENDBRANCH  16  17
BRANCH  16  30
ATOM     30  C17 UNL     1       0.580  -1.652  -0.697  1.00  0.00     0.043 C   
ATOM     31  C18 UNL     1      -0.248  -2.953  -0.703  1.00  0.00     0.010 C   
ATOM     32  C22 UNL     1       2.090  -1.973  -0.681  1.00  0.00     0.010 C   
ATOM     33  C19 UNL     1       0.155  -3.870  -1.855  1.00  0.00     0.001 C   
ATOM     34  C21 UNL     1       2.482  -2.892  -1.833  1.00  0.00     0.001 C   
ATOM     35  C20 UNL     1       1.650  -4.172  -1.835  1.00  0.00     0.000 C   
ENDBRANCH  16  30
ENDBRANCH   3  16
TORSDOF 7
