REMARK SMILES CC(C)[C@H]([NH2+]Cc1ccc2c(c1)OCO2)c1cn(Cc2ccnn2C)nn1
REMARK SMILES IDX 16 1 17 2 18 3 26 4 27 5 4 7 2 8 1 9 3 10 5 11 6 14 7 15
REMARK SMILES IDX 8 16 12 17 9 18 11 19 10 20 13 21 15 22 14 23 19 24 20 25
REMARK SMILES IDX 21 26 24 27 22 28 23 29 25 30
REMARK H PARENT 17 6 5 12 5 13
ROOT
ATOM     1   C13 UNL     1      -0.285   1.889   1.770  1.00  0.00     0.127 A   
ATOM     2   C14 UNL     1      -1.212   1.483   2.704  1.00  0.00     0.046 A   
ATOM     3   N2  UNL     1      -2.251   2.358   2.541  1.00  0.00    -0.206 N   
ATOM     4   N5  UNL     1      -1.975   3.257   1.576  1.00  0.00    -0.076 NA  
ATOM     5   N6  UNL     1      -0.774   2.980   1.095  1.00  0.00    -0.132 NA  
ATOM     6   H18 UNL     1      -1.246   0.670   3.416  1.00  0.00     0.083 HD  
ENDROOT
BRANCH   1   7
ATOM     7   C4  UNL     1       1.037   1.310   1.378  1.00  0.00     0.117 C   
BRANCH   7   8
ATOM     8   C2  UNL     1       2.206   1.889   2.219  1.00  0.00     0.037 C   
ATOM     9   C1  UNL     1       3.484   1.058   2.052  1.00  0.00     0.014 C   
ATOM     10  C3  UNL     1       2.510   3.365   1.938  1.00  0.00     0.014 C   
ENDBRANCH   7   8
BRANCH   7  11
ATOM     11  N1  UNL     1       1.290   1.531  -0.095  1.00  0.00     0.249 N   
ATOM     12  H9  UNL     1       1.069   2.520  -0.278  1.00  0.00     0.199 HD  
ATOM     13  H10 UNL     1       2.278   1.393  -0.322  1.00  0.00     0.199 HD  
BRANCH  11  14
ATOM     14  C5  UNL     1       0.460   0.716  -1.033  1.00  0.00     0.164 C   
BRANCH  14  15
ATOM     15  C6  UNL     1       0.811  -0.746  -0.997  1.00  0.00    -0.002 A   
ATOM     16  C7  UNL     1       2.026  -1.206  -1.560  1.00  0.00     0.012 A   
ATOM     17  C11 UNL     1      -0.052  -1.662  -0.371  1.00  0.00     0.045 A   
ATOM     18  C8  UNL     1       2.382  -2.557  -1.495  1.00  0.00     0.037 A   
ATOM     19  C10 UNL     1       0.330  -2.986  -0.322  1.00  0.00     0.109 A   
ATOM     20  C9  UNL     1       1.513  -3.421  -0.866  1.00  0.00     0.108 A   
ATOM     21  O1  UNL     1      -0.378  -3.992   0.255  1.00  0.00    -0.316 OA  
ATOM     22  O2  UNL     1       1.696  -4.758  -0.706  1.00  0.00    -0.316 OA  
ATOM     23  C12 UNL     1       0.475  -5.125  -0.029  1.00  0.00     0.337 C   
ENDBRANCH  14  15
ENDBRANCH  11  14
ENDBRANCH   7  11
ENDBRANCH   1   7
BRANCH   3  24
ATOM     24  C15 UNL     1      -3.543   2.356   3.212  1.00  0.00     0.187 C   
BRANCH  24  25
ATOM     25  C16 UNL     1      -4.433   1.327   2.606  1.00  0.00     0.049 A   
ATOM     26  C17 UNL     1      -4.792   0.074   3.065  1.00  0.00     0.044 A   
ATOM     27  N4  UNL     1      -5.079   1.474   1.401  1.00  0.00    -0.231 N   
ATOM     28  C18 UNL     1      -5.599  -0.469   2.052  1.00  0.00     0.133 A   
ATOM     29  N3  UNL     1      -5.738   0.365   1.023  1.00  0.00    -0.190 NA  
ATOM     30  C19 UNL     1      -5.098   2.619   0.518  1.00  0.00     0.159 C   
ENDBRANCH  24  25
ENDBRANCH   3  24
TORSDOF 7
