REMARK SMILES CC(C)[C@H]([NH2+]Cc1ccc2c(c1)OCO2)c1cn(CCCOc2ccccc2)nn1
REMARK SMILES IDX 16 1 17 2 18 3 29 4 30 5 4 7 2 8 1 9 3 10 5 11 6 14 7 15
REMARK SMILES IDX 8 16 12 17 9 18 11 19 10 20 13 21 15 22 14 23 19 24 20 25
REMARK SMILES IDX 21 26 22 27 23 28 24 29 28 30 25 31 27 32 26 33
REMARK H PARENT 17 6 5 12 5 13
ROOT
ATOM     1   C13 UNL     1       0.269  -1.946  -1.984  1.00  0.00     0.127 A   
ATOM     2   C14 UNL     1       1.393  -1.919  -2.775  1.00  0.00     0.045 A   
ATOM     3   N2  UNL     1       1.039  -1.118  -3.824  1.00  0.00    -0.212 N   
ATOM     4   N3  UNL     1      -0.243  -0.721  -3.717  1.00  0.00    -0.076 NA  
ATOM     5   N4  UNL     1      -0.720  -1.204  -2.581  1.00  0.00    -0.132 NA  
ATOM     6   H18 UNL     1       2.390  -2.324  -2.666  1.00  0.00     0.083 HD  
ENDROOT
BRANCH   1   7
ATOM     7   C4  UNL     1       0.044  -2.531  -0.629  1.00  0.00     0.117 C   
BRANCH   7   8
ATOM     8   C2  UNL     1      -0.655  -3.914  -0.681  1.00  0.00     0.037 C   
ATOM     9   C1  UNL     1      -2.112  -3.868  -1.162  1.00  0.00     0.014 C   
ATOM     10  C3  UNL     1      -0.587  -4.631   0.674  1.00  0.00     0.014 C   
ENDBRANCH   7   8
BRANCH   7  11
ATOM     11  N1  UNL     1      -0.737  -1.573   0.225  1.00  0.00     0.249 N   
ATOM     12  H9  UNL     1      -1.137  -2.032   1.048  1.00  0.00     0.199 HD  
ATOM     13  H10 UNL     1      -1.534  -1.243  -0.342  1.00  0.00     0.199 HD  
BRANCH  11  14
ATOM     14  C5  UNL     1       0.023  -0.363   0.659  1.00  0.00     0.164 C   
BRANCH  14  15
ATOM     15  C6  UNL     1      -0.826   0.498   1.551  1.00  0.00    -0.002 A   
ATOM     16  C7  UNL     1      -1.574   1.570   1.006  1.00  0.00     0.012 A   
ATOM     17  C11 UNL     1      -0.927   0.208   2.923  1.00  0.00     0.045 A   
ATOM     18  C8  UNL     1      -2.404   2.352   1.818  1.00  0.00     0.037 A   
ATOM     19  C10 UNL     1      -1.758   0.995   3.693  1.00  0.00     0.109 A   
ATOM     20  C9  UNL     1      -2.476   2.037   3.156  1.00  0.00     0.108 A   
ATOM     21  O1  UNL     1      -1.978   0.843   5.024  1.00  0.00    -0.316 OA  
ATOM     22  O2  UNL     1      -3.236   2.674   4.085  1.00  0.00    -0.316 OA  
ATOM     23  C12 UNL     1      -2.895   1.934   5.276  1.00  0.00     0.337 C   
ENDBRANCH  14  15
ENDBRANCH  11  14
ENDBRANCH   7  11
ENDBRANCH   1   7
BRANCH   3  24
ATOM     24  C15 UNL     1       1.895  -0.610  -4.873  1.00  0.00     0.136 C   
BRANCH  24  25
ATOM     25  C16 UNL     1       1.931   0.917  -4.995  1.00  0.00     0.050 C   
BRANCH  25  26
ATOM     26  C17 UNL     1       2.024   1.666  -3.663  1.00  0.00     0.169 C   
BRANCH  26  27
ATOM     27  O3  UNL     1       2.984   1.030  -2.817  1.00  0.00    -0.346 OA  
BRANCH  27  28
ATOM     28  C18 UNL     1       2.961   1.375  -1.494  1.00  0.00     0.075 A   
ATOM     29  C19 UNL     1       3.751   0.573  -0.664  1.00  0.00     0.033 A   
ATOM     30  C23 UNL     1       2.241   2.434  -0.936  1.00  0.00     0.033 A   
ATOM     31  C20 UNL     1       3.810   0.811   0.710  1.00  0.00     0.003 A   
ATOM     32  C22 UNL     1       2.294   2.669   0.443  1.00  0.00     0.003 A   
ATOM     33  C21 UNL     1       3.075   1.857   1.265  1.00  0.00     0.000 A   
ENDBRANCH  27  28
ENDBRANCH  26  27
ENDBRANCH  25  26
ENDBRANCH  24  25
ENDBRANCH   3  24
TORSDOF 10
