REMARK SMILES CC(C)[C@H]([NH2+]Cc1ccc2c(c1)OCO2)c1cn(-c2ccc(N([O-])[O-])cc2)nn1
REMARK SMILES IDX 16 1 17 2 18 3 28 4 29 5 4 6 2 7 1 8 3 9 5 10 6 13 7 14 8 15
REMARK SMILES IDX 12 16 9 17 11 18 10 19 13 20 15 21 14 22 19 23 20 24 27 25
REMARK SMILES IDX 21 26 26 27 22 28 23 29 24 30 25 31
REMARK H PARENT 5 11 5 12
ROOT
ATOM     1   C13 UNL     1       0.516  -0.579  -1.096  1.00  0.00     0.127 A   
ATOM     2   C14 UNL     1       0.851  -0.167  -2.368  1.00  0.00     0.135 A   
ATOM     3   N2  UNL     1      -0.212   0.612  -2.785  1.00  0.00    -0.181 N   
ATOM     4   N4  UNL     1      -1.123   0.679  -1.780  1.00  0.00    -0.071 NA  
ATOM     5   N5  UNL     1      -0.697  -0.049  -0.762  1.00  0.00    -0.131 NA  
ENDROOT
BRANCH   1   6
ATOM     6   C4  UNL     1       1.244  -1.442  -0.110  1.00  0.00     0.117 C   
BRANCH   6   7
ATOM     7   C2  UNL     1       1.149  -2.948  -0.473  1.00  0.00     0.037 C   
ATOM     8   C1  UNL     1      -0.260  -3.534  -0.328  1.00  0.00     0.014 C   
ATOM     9   C3  UNL     1       2.146  -3.791   0.332  1.00  0.00     0.014 C   
ENDBRANCH   6   7
BRANCH   6  10
ATOM     10  N1  UNL     1       0.722  -1.211   1.283  1.00  0.00     0.249 N   
ATOM     11  H9  UNL     1      -0.306  -1.163   1.217  1.00  0.00     0.199 HD  
ATOM     12  H10 UNL     1       0.930  -1.994   1.910  1.00  0.00     0.199 HD  
BRANCH  10  13
ATOM     13  C5  UNL     1       1.175   0.051   1.933  1.00  0.00     0.164 C   
BRANCH  13  14
ATOM     14  C6  UNL     1       0.513   0.215   3.272  1.00  0.00    -0.002 A   
ATOM     15  C7  UNL     1      -0.748   0.852   3.366  1.00  0.00     0.012 A   
ATOM     16  C11 UNL     1       1.111  -0.314   4.428  1.00  0.00     0.045 A   
ATOM     17  C8  UNL     1      -1.401   0.972   4.598  1.00  0.00     0.037 A   
ATOM     18  C10 UNL     1       0.440  -0.178   5.625  1.00  0.00     0.109 A   
ATOM     19  C9  UNL     1      -0.780   0.447   5.709  1.00  0.00     0.108 A   
ATOM     20  O1  UNL     1       0.875  -0.631   6.830  1.00  0.00    -0.316 OA  
ATOM     21  O2  UNL     1      -1.265   0.468   6.977  1.00  0.00    -0.316 OA  
ATOM     22  C12 UNL     1      -0.201  -0.196   7.692  1.00  0.00     0.337 C   
ENDBRANCH  13  14
ENDBRANCH  10  13
ENDBRANCH   6  10
ENDBRANCH   1   6
BRANCH   3  23
ATOM     23  C15 UNL     1      -0.408   1.276  -4.023  1.00  0.00     0.058 A   
ATOM     24  C16 UNL     1       0.551   1.199  -5.046  1.00  0.00     0.028 A   
ATOM     25  C20 UNL     1      -1.582   2.021  -4.228  1.00  0.00     0.028 A   
ATOM     26  C17 UNL     1       0.335   1.861  -6.261  1.00  0.00     0.033 A   
ATOM     27  C19 UNL     1      -1.799   2.683  -5.441  1.00  0.00     0.033 A   
ATOM     28  C18 UNL     1      -0.839   2.601  -6.456  1.00  0.00     0.118 A   
BRANCH  28  29
ATOM     29  N3  UNL     1      -1.062   3.293  -7.732  1.00  0.00     0.092 N   
ATOM     30  O3  UNL     1      -2.117   3.927  -7.865  1.00  0.00    -0.138 OA  
ATOM     31  O4  UNL     1      -0.178   3.200  -8.595  1.00  0.00    -0.138 OA  
ENDBRANCH  28  29
ENDBRANCH   3  23
TORSDOF 7
