REMARK SMILES CC(C)(C)[C@H]([NH2+]Cc1ccc2c(c1)OCO2)c1cn(Cc2n[nH]c3c2CCC3)nn1
REMARK SMILES IDX 17 1 18 2 19 3 29 4 30 5 5 7 2 8 1 9 3 10 4 11 6 12 7 15
REMARK SMILES IDX 8 16 9 17 13 18 10 19 12 20 11 21 14 22 16 23 15 24 20 25
REMARK SMILES IDX 21 26 22 27 25 28 23 29 24 30 26 31 28 32 27 33
REMARK H PARENT 18 6 6 13 6 14 23 34
ROOT
ATOM     1   C14 UNL     1      -0.399  -0.165   1.450  1.00  0.00     0.127 A   
ATOM     2   C15 UNL     1       0.695   0.645   1.251  1.00  0.00     0.046 A   
ATOM     3   N2  UNL     1       1.752  -0.111   1.681  1.00  0.00    -0.206 N   
ATOM     4   N5  UNL     1       1.330  -1.308   2.136  1.00  0.00    -0.076 NA  
ATOM     5   N6  UNL     1       0.015  -1.353   1.998  1.00  0.00    -0.132 NA  
ATOM     6   H20 UNL     1       0.832   1.629   0.823  1.00  0.00     0.083 HD  
ENDROOT
BRANCH   1   7
ATOM     7   C5  UNL     1      -1.833   0.021   1.069  1.00  0.00     0.120 C   
BRANCH   7   8
ATOM     8   C2  UNL     1      -2.754   0.514   2.242  1.00  0.00     0.010 C   
ATOM     9   C1  UNL     1      -2.200   1.832   2.831  1.00  0.00     0.017 C   
ATOM     10  C3  UNL     1      -2.876  -0.512   3.385  1.00  0.00     0.017 C   
ATOM     11  C4  UNL     1      -4.176   0.821   1.715  1.00  0.00     0.017 C   
ENDBRANCH   7   8
BRANCH   7  12
ATOM     12  N1  UNL     1      -2.365  -1.278   0.490  1.00  0.00     0.250 N   
ATOM     13  H11 UNL     1      -3.375  -1.226   0.345  1.00  0.00     0.199 HD  
ATOM     14  H12 UNL     1      -2.187  -2.003   1.197  1.00  0.00     0.199 HD  
BRANCH  12  15
ATOM     15  C6  UNL     1      -1.726  -1.750  -0.778  1.00  0.00     0.164 C   
BRANCH  15  16
ATOM     16  C7  UNL     1      -1.913  -0.799  -1.926  1.00  0.00    -0.002 A   
ATOM     17  C8  UNL     1      -0.822  -0.030  -2.397  1.00  0.00     0.012 A   
ATOM     18  C12 UNL     1      -3.178  -0.639  -2.516  1.00  0.00     0.045 A   
ATOM     19  C9  UNL     1      -0.987   0.892  -3.436  1.00  0.00     0.037 A   
ATOM     20  C11 UNL     1      -3.306   0.279  -3.537  1.00  0.00     0.109 A   
ATOM     21  C10 UNL     1      -2.243   1.025  -3.983  1.00  0.00     0.108 A   
ATOM     22  O1  UNL     1      -4.455   0.559  -4.206  1.00  0.00    -0.316 OA  
ATOM     23  O2  UNL     1      -2.588   1.868  -4.990  1.00  0.00    -0.316 OA  
ATOM     24  C13 UNL     1      -3.991   1.560  -5.141  1.00  0.00     0.337 C   
ENDBRANCH  15  16
ENDBRANCH  12  15
ENDBRANCH   7  12
ENDBRANCH   1   7
BRANCH   3  25
ATOM     25  C16 UNL     1       3.160   0.238   1.682  1.00  0.00     0.192 C   
BRANCH  25  26
ATOM     26  C17 UNL     1       3.727   0.080   0.315  1.00  0.00     0.083 A   
ATOM     27  N3  UNL     1       3.529   1.020  -0.639  1.00  0.00    -0.187 NA  
ATOM     28  C19 UNL     1       4.510  -0.965  -0.185  1.00  0.00    -0.004 A   
ATOM     29  N4  UNL     1       4.244   0.584  -1.711  1.00  0.00    -0.242 N   
ATOM     30  C18 UNL     1       4.812  -0.611  -1.463  1.00  0.00     0.030 A   
ATOM     31  C20 UNL     1       5.124  -2.251   0.184  1.00  0.00     0.039 C   
ATOM     32  C22 UNL     1       5.673  -1.549  -2.194  1.00  0.00     0.054 C   
ATOM     33  C21 UNL     1       6.110  -2.494  -1.017  1.00  0.00     0.011 C   
ATOM     34  H23 UNL     1       4.287   1.163  -2.545  1.00  0.00     0.175 HD  
ENDBRANCH  25  26
ENDBRANCH   3  25
TORSDOF 7
