REMARK SMILES OCc1ccc(-n2cc([C@@H]([NH2+]Cc3ccc4c(c3)OCO4)C3CCCC3)nn2)cc1F
REMARK SMILES IDX 7 1 8 2 9 3 27 4 28 5 6 6 3 7 4 8 30 9 5 10 29 11 31 12 2 13
REMARK SMILES IDX 1 14 10 16 11 17 12 20 13 21 14 22 18 23 15 24 17 25 16 26
REMARK SMILES IDX 19 27 21 28 20 29 22 30 23 31 26 32 24 33 25 34
REMARK H PARENT 1 15 11 18 11 19
ROOT
ATOM     1   N1  UNL     1      -0.657  -2.721   0.005  1.00  0.00    -0.181 N   
ATOM     2   C6  UNL     1      -1.210  -1.742   0.809  1.00  0.00     0.135 A   
ATOM     3   C7  UNL     1      -0.695  -0.556   0.334  1.00  0.00     0.127 A   
ATOM     4   N3  UNL     1       0.144  -0.820  -0.711  1.00  0.00    -0.131 NA  
ATOM     5   N4  UNL     1       0.170  -2.128  -0.895  1.00  0.00    -0.071 NA  
ENDROOT
BRANCH   1   6
ATOM     6   C5  UNL     1      -0.845  -4.124   0.043  1.00  0.00     0.060 A   
ATOM     7   C2  UNL     1      -1.181  -6.925   0.098  1.00  0.00     0.013 A   
ATOM     8   C3  UNL     1      -1.869  -6.104   1.002  1.00  0.00     0.011 A   
ATOM     9   C23 UNL     1      -0.340  -6.317  -0.835  1.00  0.00     0.130 A   
ATOM     10  C4  UNL     1      -1.703  -4.714   0.981  1.00  0.00     0.026 A   
ATOM     11  C22 UNL     1      -0.163  -4.936  -0.872  1.00  0.00     0.065 A   
ATOM     12  F1  UNL     1       0.319  -7.073  -1.725  1.00  0.00    -0.207 F   
BRANCH   7  13
ATOM     13  C1  UNL     1      -1.341  -8.421   0.070  1.00  0.00     0.194 C   
BRANCH  13  14
ATOM     14  O1  UNL     1      -2.030  -8.890   1.223  1.00  0.00    -0.392 OA  
ATOM     15  H1  UNL     1      -2.099  -9.856   1.129  1.00  0.00     0.211 HD  
ENDBRANCH  13  14
ENDBRANCH   7  13
ENDBRANCH   1   6
BRANCH   3  16
ATOM     16  C8  UNL     1      -0.892   0.859   0.780  1.00  0.00     0.117 C   
BRANCH  16  17
ATOM     17  N2  UNL     1       0.285   1.704   0.370  1.00  0.00     0.249 N   
ATOM     18  H8  UNL     1       0.049   2.699   0.312  1.00  0.00     0.199 HD  
ATOM     19  H9  UNL     1       0.539   1.417  -0.588  1.00  0.00     0.199 HD  
BRANCH  17  20
ATOM     20  C9  UNL     1       1.507   1.544   1.207  1.00  0.00     0.164 C   
BRANCH  20  21
ATOM     21  C10 UNL     1       2.630   2.377   0.658  1.00  0.00    -0.002 A   
ATOM     22  C11 UNL     1       2.883   3.671   1.171  1.00  0.00     0.012 A   
ATOM     23  C15 UNL     1       3.404   1.891  -0.411  1.00  0.00     0.045 A   
ATOM     24  C12 UNL     1       3.900   4.469   0.635  1.00  0.00     0.037 A   
ATOM     25  C14 UNL     1       4.397   2.704  -0.916  1.00  0.00     0.109 A   
ATOM     26  C13 UNL     1       4.639   3.957  -0.408  1.00  0.00     0.108 A   
ATOM     27  O2  UNL     1       5.231   2.390  -1.942  1.00  0.00    -0.316 OA  
ATOM     28  O3  UNL     1       5.656   4.589  -1.049  1.00  0.00    -0.316 OA  
ATOM     29  C16 UNL     1       6.043   3.584  -2.011  1.00  0.00     0.337 C   
ENDBRANCH  20  21
ENDBRANCH  17  20
ENDBRANCH  16  17
BRANCH  16  30
ATOM     30  C17 UNL     1      -2.199   1.458   0.223  1.00  0.00     0.043 C   
ATOM     31  C18 UNL     1      -2.577   2.825   0.827  1.00  0.00     0.010 C   
ATOM     32  C21 UNL     1      -2.248   1.671  -1.296  1.00  0.00     0.010 C   
ATOM     33  C19 UNL     1      -3.081   3.681  -0.335  1.00  0.00     0.001 C   
ATOM     34  C20 UNL     1      -3.352   2.702  -1.465  1.00  0.00     0.001 C   
ENDBRANCH  16  30
ENDBRANCH   3  16
TORSDOF 8
