REMARK SMILES CC(C)C[C@H]([NH2+]Cc1ccc2c(c1)OCO2)c1cn([C@@H](CO)c2cc[nH]n2)nn1
REMARK SMILES IDX 17 1 18 2 19 3 28 4 29 5 5 7 4 8 2 9 1 10 3 11 6 12 7 15
REMARK SMILES IDX 8 16 9 17 13 18 10 19 12 20 11 21 14 22 16 23 15 24 20 25
REMARK SMILES IDX 21 26 22 27 23 29 24 30 27 31 25 32 26 33
REMARK H PARENT 18 6 6 13 6 14 22 28 26 34
ROOT
ATOM     1   C14 UNL     1      -1.358  -0.210   0.109  1.00  0.00     0.127 A   
ATOM     2   C15 UNL     1      -2.725  -0.154  -0.017  1.00  0.00     0.046 A   
ATOM     3   N2  UNL     1      -3.147   0.474   1.126  1.00  0.00    -0.201 N   
ATOM     4   N5  UNL     1      -2.088   0.805   1.898  1.00  0.00    -0.075 NA  
ATOM     5   N6  UNL     1      -0.992   0.375   1.295  1.00  0.00    -0.132 NA  
ATOM     6   H20 UNL     1      -3.418  -0.481  -0.782  1.00  0.00     0.083 HD  
ENDROOT
BRANCH   1   7
ATOM     7   C5  UNL     1      -0.310  -0.747  -0.811  1.00  0.00     0.114 C   
BRANCH   7   8
ATOM     8   C4  UNL     1      -0.083  -2.251  -0.560  1.00  0.00     0.064 C   
BRANCH   8   9
ATOM     9   C2  UNL     1       0.923  -2.962  -1.490  1.00  0.00    -0.012 C   
ATOM     10  C1  UNL     1       0.990  -4.451  -1.133  1.00  0.00     0.007 C   
ATOM     11  C3  UNL     1       0.570  -2.801  -2.969  1.00  0.00     0.007 C   
ENDBRANCH   8   9
ENDBRANCH   7   8
BRANCH   7  12
ATOM     12  N1  UNL     1       0.982  -0.005  -0.604  1.00  0.00     0.249 N   
ATOM     13  H11 UNL     1       1.110   0.084   0.415  1.00  0.00     0.199 HD  
ATOM     14  H12 UNL     1       1.790  -0.526  -0.952  1.00  0.00     0.199 HD  
BRANCH  12  15
ATOM     15  C6  UNL     1       1.016   1.370  -1.175  1.00  0.00     0.164 C   
BRANCH  15  16
ATOM     16  C7  UNL     1       2.307   2.051  -0.816  1.00  0.00    -0.002 A   
ATOM     17  C8  UNL     1       2.409   2.782   0.392  1.00  0.00     0.012 A   
ATOM     18  C12 UNL     1       3.434   1.921  -1.646  1.00  0.00     0.045 A   
ATOM     19  C9  UNL     1       3.616   3.383   0.767  1.00  0.00     0.037 A   
ATOM     20  C11 UNL     1       4.609   2.526  -1.245  1.00  0.00     0.109 A   
ATOM     21  C10 UNL     1       4.698   3.235  -0.072  1.00  0.00     0.108 A   
ATOM     22  O1  UNL     1       5.784   2.496  -1.925  1.00  0.00    -0.316 OA  
ATOM     23  O2  UNL     1       5.941   3.739   0.135  1.00  0.00    -0.316 OA  
ATOM     24  C13 UNL     1       6.628   3.278  -1.048  1.00  0.00     0.337 C   
ENDBRANCH  15  16
ENDBRANCH  12  15
ENDBRANCH   7  12
ENDBRANCH   1   7
BRANCH   3  25
ATOM     25  C16 UNL     1      -4.503   0.820   1.544  1.00  0.00     0.175 C   
BRANCH  25  26
ATOM     26  C17 UNL     1      -5.160   1.838   0.594  1.00  0.00     0.187 C   
BRANCH  26  27
ATOM     27  O3  UNL     1      -5.368   1.329  -0.730  1.00  0.00    -0.394 OA  
ATOM     28  H24 UNL     1      -5.915   0.517  -0.617  1.00  0.00     0.210 HD  
ENDBRANCH  26  27
ENDBRANCH  25  26
BRANCH  25  29
ATOM     29  C18 UNL     1      -5.310  -0.435   1.750  1.00  0.00     0.085 A   
ATOM     30  C19 UNL     1      -5.430  -1.191   2.943  1.00  0.00     0.044 A   
ATOM     31  N4  UNL     1      -6.036  -0.978   0.755  1.00  0.00    -0.187 NA  
ATOM     32  C20 UNL     1      -6.277  -2.225   2.629  1.00  0.00     0.094 A   
ATOM     33  N3  UNL     1      -6.622  -2.052   1.322  1.00  0.00    -0.246 N   
ATOM     34  H27 UNL     1      -7.248  -2.622   0.757  1.00  0.00     0.175 HD  
ENDBRANCH  25  29
ENDBRANCH   3  25
TORSDOF 10
