REMARK SMILES CC(C)C[C@H]([NH2+]Cc1ccc2c(c1)OCO2)c1cn([C@H](CO)c2cc[nH]n2)nn1
REMARK SMILES IDX 17 1 18 2 19 3 28 4 29 5 5 7 4 8 2 9 1 10 3 11 6 12 7 15
REMARK SMILES IDX 8 16 9 17 13 18 10 19 12 20 11 21 14 22 16 23 15 24 20 25
REMARK SMILES IDX 21 26 22 27 23 29 24 30 27 31 25 32 26 33
REMARK H PARENT 18 6 6 13 6 14 22 28 26 34
ROOT
ATOM     1   C14 UNL     1       0.016  -1.330  -1.317  1.00  0.00     0.127 A   
ATOM     2   C15 UNL     1      -0.874  -1.962  -0.477  1.00  0.00     0.046 A   
ATOM     3   N2  UNL     1      -1.982  -2.177  -1.254  1.00  0.00    -0.201 N   
ATOM     4   N5  UNL     1      -1.791  -1.677  -2.492  1.00  0.00    -0.075 NA  
ATOM     5   N6  UNL     1      -0.570  -1.169  -2.544  1.00  0.00    -0.132 NA  
ATOM     6   H20 UNL     1      -0.840  -2.257   0.563  1.00  0.00     0.083 HD  
ENDROOT
BRANCH   1   7
ATOM     7   C5  UNL     1       1.364  -0.744  -1.063  1.00  0.00     0.114 C   
BRANCH   7   8
ATOM     8   C4  UNL     1       2.220  -1.543  -0.060  1.00  0.00     0.064 C   
BRANCH   8   9
ATOM     9   C2  UNL     1       2.586  -2.972  -0.515  1.00  0.00    -0.012 C   
ATOM     10  C1  UNL     1       3.328  -3.699   0.612  1.00  0.00     0.007 C   
ATOM     11  C3  UNL     1       3.444  -2.976  -1.780  1.00  0.00     0.007 C   
ENDBRANCH   8   9
ENDBRANCH   7   8
BRANCH   7  12
ATOM     12  N1  UNL     1       1.240   0.661  -0.521  1.00  0.00     0.249 N   
ATOM     13  H11 UNL     1       0.710   0.644   0.359  1.00  0.00     0.199 HD  
ATOM     14  H12 UNL     1       2.171   1.025  -0.292  1.00  0.00     0.199 HD  
BRANCH  12  15
ATOM     15  C6  UNL     1       0.575   1.634  -1.441  1.00  0.00     0.164 C   
BRANCH  15  16
ATOM     16  C7  UNL     1       0.711   3.033  -0.906  1.00  0.00    -0.002 A   
ATOM     17  C8  UNL     1      -0.277   3.571  -0.041  1.00  0.00     0.012 A   
ATOM     18  C12 UNL     1       1.846   3.801  -1.222  1.00  0.00     0.045 A   
ATOM     19  C9  UNL     1      -0.145   4.860   0.488  1.00  0.00     0.037 A   
ATOM     20  C11 UNL     1       1.946   5.066  -0.678  1.00  0.00     0.109 A   
ATOM     21  C10 UNL     1       0.979   5.581   0.151  1.00  0.00     0.108 A   
ATOM     22  O1  UNL     1       2.972   5.934  -0.882  1.00  0.00    -0.316 OA  
ATOM     23  O2  UNL     1       1.273   6.840   0.572  1.00  0.00    -0.316 OA  
ATOM     24  C13 UNL     1       2.529   7.071  -0.104  1.00  0.00     0.337 C   
ENDBRANCH  15  16
ENDBRANCH  12  15
ENDBRANCH   7  12
ENDBRANCH   1   7
BRANCH   3  25
ATOM     25  C16 UNL     1      -3.273  -2.750  -0.883  1.00  0.00     0.175 C   
BRANCH  25  26
ATOM     26  C17 UNL     1      -4.072  -1.785   0.015  1.00  0.00     0.187 C   
BRANCH  26  27
ATOM     27  O3  UNL     1      -3.432  -1.522   1.270  1.00  0.00    -0.394 OA  
ATOM     28  H24 UNL     1      -3.324  -2.405   1.693  1.00  0.00     0.210 HD  
ENDBRANCH  26  27
ENDBRANCH  25  26
BRANCH  25  29
ATOM     29  C18 UNL     1      -3.084  -4.122  -0.287  1.00  0.00     0.085 A   
ATOM     30  C19 UNL     1      -3.039  -5.359  -0.980  1.00  0.00     0.044 A   
ATOM     31  N4  UNL     1      -2.937  -4.299   1.041  1.00  0.00    -0.187 NA  
ATOM     32  C20 UNL     1      -2.871  -6.310  -0.002  1.00  0.00     0.094 A   
ATOM     33  N3  UNL     1      -2.835  -5.638   1.183  1.00  0.00    -0.246 N   
ATOM     34  H27 UNL     1      -2.736  -6.025   2.117  1.00  0.00     0.175 HD  
ENDBRANCH  25  29
ENDBRANCH   3  25
TORSDOF 10
