REMARK SMILES Cc1nn(C)cc1CCn1cc([C@@H]([NH2+]Cc2ccc3c(c2)OCO3)C2CCCCC2)nn1
REMARK SMILES IDX 10 1 11 2 12 3 31 4 32 5 9 7 8 8 7 9 2 10 3 11 4 12 6 13
REMARK SMILES IDX 1 14 5 15 13 16 14 17 15 20 16 21 17 22 21 23 18 24 20 25
REMARK SMILES IDX 19 26 22 27 24 28 23 29 25 30 26 31 30 32 27 33 29 34 28 35
REMARK H PARENT 11 6 14 18 14 19
ROOT
ATOM     1   N3  UNL     1       0.434   0.177  -3.180  1.00  0.00    -0.212 N   
ATOM     2   C8  UNL     1      -0.286  -0.016  -2.029  1.00  0.00     0.045 A   
ATOM     3   C9  UNL     1       0.269  -1.153  -1.483  1.00  0.00     0.127 A   
ATOM     4   N5  UNL     1       1.155  -1.686  -2.384  1.00  0.00    -0.132 NA  
ATOM     5   N6  UNL     1       1.235  -0.872  -3.424  1.00  0.00    -0.076 NA  
ATOM     6   H12 UNL     1      -0.976   0.729  -1.661  1.00  0.00     0.083 HD  
ENDROOT
BRANCH   1   7
ATOM     7   C7  UNL     1       0.647   1.440  -3.863  1.00  0.00     0.139 C   
BRANCH   7   8
ATOM     8   C6  UNL     1       1.893   2.183  -3.342  1.00  0.00     0.060 C   
BRANCH   8   9
ATOM     9   C5  UNL     1       1.923   2.265  -1.844  1.00  0.00    -0.008 A   
ATOM     10  C2  UNL     1       2.617   1.417  -0.930  1.00  0.00     0.060 A   
ATOM     11  N1  UNL     1       2.160   1.584   0.325  1.00  0.00    -0.187 NA  
ATOM     12  N2  UNL     1       1.469   2.746   0.249  1.00  0.00    -0.235 N   
ATOM     13  C4  UNL     1       1.215   3.129  -1.034  1.00  0.00     0.100 A   
ATOM     14  C1  UNL     1       3.633   0.367  -1.212  1.00  0.00     0.069 C   
ATOM     15  C3  UNL     1       0.982   3.385   1.449  1.00  0.00     0.159 C   
ENDBRANCH   8   9
ENDBRANCH   7   8
ENDBRANCH   1   7
BRANCH   3  16
ATOM     16  C10 UNL     1       0.161  -1.758  -0.119  1.00  0.00     0.117 C   
BRANCH  16  17
ATOM     17  N4  UNL     1       0.572  -0.779   0.954  1.00  0.00     0.249 N   
ATOM     18  H14 UNL     1       1.230  -0.071   0.562  1.00  0.00     0.199 HD  
ATOM     19  H15 UNL     1      -0.222  -0.208   1.252  1.00  0.00     0.199 HD  
BRANCH  17  20
ATOM     20  C11 UNL     1       1.251  -1.371   2.133  1.00  0.00     0.164 C   
BRANCH  20  21
ATOM     21  C12 UNL     1       1.171  -0.462   3.327  1.00  0.00    -0.002 A   
ATOM     22  C13 UNL     1       2.175   0.507   3.563  1.00  0.00     0.012 A   
ATOM     23  C17 UNL     1       0.071  -0.546   4.199  1.00  0.00     0.045 A   
ATOM     24  C14 UNL     1       2.096   1.373   4.659  1.00  0.00     0.037 A   
ATOM     25  C16 UNL     1       0.024   0.321   5.272  1.00  0.00     0.109 A   
ATOM     26  C15 UNL     1       1.009   1.251   5.496  1.00  0.00     0.108 A   
ATOM     27  O1  UNL     1      -0.961   0.371   6.207  1.00  0.00    -0.316 OA  
ATOM     28  O2  UNL     1       0.770   2.002   6.602  1.00  0.00    -0.316 OA  
ATOM     29  C18 UNL     1      -0.445   1.393   7.090  1.00  0.00     0.337 C   
ENDBRANCH  20  21
ENDBRANCH  17  20
ENDBRANCH  16  17
BRANCH  16  30
ATOM     30  C19 UNL     1      -1.222  -2.379   0.219  1.00  0.00     0.043 C   
ATOM     31  C20 UNL     1      -1.660  -3.413  -0.833  1.00  0.00     0.010 C   
ATOM     32  C24 UNL     1      -2.346  -1.353   0.494  1.00  0.00     0.010 C   
ATOM     33  C21 UNL     1      -2.911  -4.182  -0.400  1.00  0.00     0.001 C   
ATOM     34  C23 UNL     1      -3.749  -1.867   0.164  1.00  0.00     0.001 C   
ATOM     35  C22 UNL     1      -3.881  -3.356   0.444  1.00  0.00     0.000 C   
ENDBRANCH  16  30
ENDBRANCH   3  16
TORSDOF 8
