REMARK SMILES c1cc(-n2cc([C@@H]([NH2+]Cc3ccc4c(c3)OCO4)C3CCCC3)nn2)c2nccn2c1
REMARK SMILES IDX 7 1 6 2 4 3 5 4 25 5 24 6 3 7 1 8 2 9 31 10 30 11 26 12
REMARK SMILES IDX 29 13 27 14 28 15 8 16 9 19 10 20 11 21 15 22 12 23 14 24
REMARK SMILES IDX 13 25 16 26 18 27 17 28 19 29 20 30 23 31 21 32 22 33
REMARK H PARENT 8 17 8 18
ROOT
ATOM     1   C6  UNL     1      -0.757  -0.942   0.167  1.00  0.00     0.117 C   
ENDROOT
BRANCH   1   2
ATOM     2   C5  UNL     1       0.689  -0.596   0.036  1.00  0.00     0.127 A   
ATOM     3   N1  UNL     1       2.726   0.287   0.109  1.00  0.00    -0.177 N   
ATOM     4   C4  UNL     1       1.423   0.421   0.592  1.00  0.00     0.135 A   
ATOM     5   N4  UNL     1       2.704  -0.794  -0.745  1.00  0.00    -0.071 NA  
ATOM     6   N3  UNL     1       1.493  -1.322  -0.786  1.00  0.00    -0.131 NA  
BRANCH   3   7
ATOM     7   C3  UNL     1       3.856   1.084   0.403  1.00  0.00     0.098 A   
ATOM     8   C1  UNL     1       6.269   1.571   0.151  1.00  0.00     0.018 A   
ATOM     9   C2  UNL     1       5.074   0.790  -0.125  1.00  0.00     0.031 A   
ATOM     10  C23 UNL     1       6.174   2.634   0.962  1.00  0.00     0.082 A   
ATOM     11  N6  UNL     1       4.938   2.956   1.507  1.00  0.00    -0.265 N   
ATOM     12  C20 UNL     1       3.767   2.236   1.266  1.00  0.00     0.152 A   
ATOM     13  C22 UNL     1       4.609   3.989   2.345  1.00  0.00     0.102 A   
ATOM     14  N5  UNL     1       2.747   2.786   1.900  1.00  0.00    -0.237 NA  
ATOM     15  C21 UNL     1       3.260   3.865   2.573  1.00  0.00     0.129 A   
ENDBRANCH   3   7
ENDBRANCH   1   2
BRANCH   1  16
ATOM     16  N2  UNL     1      -1.315  -1.341  -1.183  1.00  0.00     0.249 N   
ATOM     17  H5  UNL     1      -2.248  -1.750  -1.078  1.00  0.00     0.199 HD  
ATOM     18  H6  UNL     1      -0.697  -2.080  -1.546  1.00  0.00     0.199 HD  
BRANCH  16  19
ATOM     19  C7  UNL     1      -1.384  -0.263  -2.215  1.00  0.00     0.164 C   
BRANCH  19  20
ATOM     20  C8  UNL     1      -2.357   0.826  -1.857  1.00  0.00    -0.002 A   
ATOM     21  C9  UNL     1      -1.887   2.096  -1.446  1.00  0.00     0.012 A   
ATOM     22  C13 UNL     1      -3.740   0.579  -1.894  1.00  0.00     0.045 A   
ATOM     23  C10 UNL     1      -2.779   3.106  -1.071  1.00  0.00     0.037 A   
ATOM     24  C12 UNL     1      -4.592   1.597  -1.518  1.00  0.00     0.109 A   
ATOM     25  C11 UNL     1      -4.126   2.824  -1.116  1.00  0.00     0.108 A   
ATOM     26  O1  UNL     1      -5.948   1.522  -1.491  1.00  0.00    -0.316 OA  
ATOM     27  O2  UNL     1      -5.130   3.678  -0.788  1.00  0.00    -0.316 OA  
ATOM     28  C14 UNL     1      -6.288   2.858  -1.053  1.00  0.00     0.337 C   
ENDBRANCH  19  20
ENDBRANCH  16  19
ENDBRANCH   1  16
BRANCH   1  29
ATOM     29  C15 UNL     1      -0.983  -2.111   1.148  1.00  0.00     0.043 C   
ATOM     30  C16 UNL     1      -2.456  -2.492   1.345  1.00  0.00     0.010 C   
ATOM     31  C19 UNL     1      -0.540  -1.798   2.581  1.00  0.00     0.010 C   
ATOM     32  C17 UNL     1      -2.534  -3.161   2.718  1.00  0.00     0.001 C   
ATOM     33  C18 UNL     1      -1.195  -2.899   3.400  1.00  0.00     0.001 C   
ENDBRANCH   1  29
TORSDOF 6
