REMARK SMILES CC(C)C[C@H]([NH2+]Cc1ccc2c(c1)OCO2)c1cn(C[C@@H]2NCCc3nc[nH]c32)nn1
REMARK SMILES IDX 17 1 18 2 19 3 30 4 31 5 5 7 4 8 2 9 1 10 3 11 6 12 7 15
REMARK SMILES IDX 8 16 9 17 13 18 10 19 12 20 11 21 14 22 16 23 15 24 20 25
REMARK SMILES IDX 21 26 22 27 29 28 23 29 25 30 28 31 24 32 26 33 27 34
REMARK H PARENT 18 6 6 13 6 14 22 35 28 36
ROOT
ATOM     1   C14 UNL     1      -1.456   1.232  -0.777  1.00  0.00     0.127 A   
ATOM     2   C15 UNL     1      -1.056   0.824  -2.031  1.00  0.00     0.045 A   
ATOM     3   N2  UNL     1      -0.697   1.997  -2.644  1.00  0.00    -0.210 N   
ATOM     4   N6  UNL     1      -1.109   3.058  -1.917  1.00  0.00    -0.076 NA  
ATOM     5   N7  UNL     1      -1.540   2.600  -0.752  1.00  0.00    -0.132 NA  
ATOM     6   H20 UNL     1      -0.804  -0.142  -2.448  1.00  0.00     0.083 HD  
ENDROOT
BRANCH   1   7
ATOM     7   C5  UNL     1      -1.593   0.448   0.488  1.00  0.00     0.114 C   
BRANCH   7   8
ATOM     8   C4  UNL     1      -3.002   0.557   1.096  1.00  0.00     0.064 C   
BRANCH   8   9
ATOM     9   C2  UNL     1      -4.135   0.002   0.204  1.00  0.00    -0.012 C   
ATOM     10  C1  UNL     1      -3.958  -1.487  -0.100  1.00  0.00     0.007 C   
ATOM     11  C3  UNL     1      -5.487   0.231   0.884  1.00  0.00     0.007 C   
ENDBRANCH   8   9
ENDBRANCH   7   8
BRANCH   7  12
ATOM     12  N1  UNL     1      -0.572   0.991   1.462  1.00  0.00     0.249 N   
ATOM     13  H11 UNL     1      -0.775   1.988   1.599  1.00  0.00     0.199 HD  
ATOM     14  H12 UNL     1       0.351   1.011   0.981  1.00  0.00     0.199 HD  
BRANCH  12  15
ATOM     15  C6  UNL     1      -0.362   0.318   2.763  1.00  0.00     0.164 C   
BRANCH  15  16
ATOM     16  C7  UNL     1       0.088  -1.111   2.635  1.00  0.00    -0.002 A   
ATOM     17  C8  UNL     1       1.439  -1.405   2.333  1.00  0.00     0.012 A   
ATOM     18  C12 UNL     1      -0.832  -2.163   2.782  1.00  0.00     0.045 A   
ATOM     19  C9  UNL     1       1.870  -2.726   2.171  1.00  0.00     0.037 A   
ATOM     20  C11 UNL     1      -0.375  -3.454   2.613  1.00  0.00     0.109 A   
ATOM     21  C10 UNL     1       0.937  -3.728   2.315  1.00  0.00     0.108 A   
ATOM     22  O1  UNL     1      -1.132  -4.578   2.711  1.00  0.00    -0.316 OA  
ATOM     23  O2  UNL     1       1.172  -5.060   2.187  1.00  0.00    -0.316 OA  
ATOM     24  C13 UNL     1      -0.137  -5.599   2.470  1.00  0.00     0.337 C   
ENDBRANCH  15  16
ENDBRANCH  12  15
ENDBRANCH   7  12
ENDBRANCH   1   7
BRANCH   3  25
ATOM     25  C16 UNL     1       0.348   2.178  -3.642  1.00  0.00     0.159 C   
BRANCH  25  26
ATOM     26  C17 UNL     1       1.741   1.665  -3.168  1.00  0.00     0.120 C   
ATOM     27  N3  UNL     1       1.817   0.194  -3.410  1.00  0.00    -0.307 NA  
ATOM     28  C22 UNL     1       1.984   1.952  -1.717  1.00  0.00     0.049 A   
ATOM     29  C18 UNL     1       2.806  -0.512  -2.565  1.00  0.00     0.088 C   
ATOM     30  C20 UNL     1       2.240   1.023  -0.736  1.00  0.00     0.062 A   
ATOM     31  N5  UNL     1       1.940   3.154  -1.066  1.00  0.00    -0.306 N   
ATOM     32  C19 UNL     1       2.483  -0.403  -1.055  1.00  0.00     0.073 C   
ATOM     33  N4  UNL     1       2.114   1.578   0.511  1.00  0.00    -0.244 NA  
ATOM     34  C21 UNL     1       2.031   2.876   0.277  1.00  0.00     0.186 A   
ATOM     35  H24 UNL     1       2.054   0.033  -4.391  1.00  0.00     0.123 HD  
ATOM     36  H30 UNL     1       1.784   4.069  -1.470  1.00  0.00     0.154 HD  
ENDBRANCH  25  26
ENDBRANCH   3  25
TORSDOF 8
