REMARK SMILES CC(C)C[C@H]([NH2+]Cc1ccc2c(c1)OCO2)c1cn(C[C@H]2NCCc3nc[nH]c32)nn1
REMARK SMILES IDX 17 1 18 2 19 3 30 4 31 5 5 7 4 8 2 9 1 10 3 11 6 12 7 15
REMARK SMILES IDX 8 16 9 17 13 18 10 19 12 20 11 21 14 22 16 23 15 24 20 25
REMARK SMILES IDX 21 26 22 27 29 28 23 29 25 30 28 31 24 32 26 33 27 34
REMARK H PARENT 18 6 6 13 6 14 22 35 28 36
ROOT
ATOM     1   C14 UNL     1      -1.001   0.451   1.541  1.00  0.00     0.127 A   
ATOM     2   C15 UNL     1      -0.915  -0.578   2.456  1.00  0.00     0.045 A   
ATOM     3   N2  UNL     1      -2.048  -1.312   2.205  1.00  0.00    -0.210 N   
ATOM     4   N6  UNL     1      -2.903  -0.606   1.446  1.00  0.00    -0.076 NA  
ATOM     5   N7  UNL     1      -2.248   0.443   0.975  1.00  0.00    -0.132 NA  
ATOM     6   H20 UNL     1      -0.114  -0.946   3.081  1.00  0.00     0.083 HD  
ENDROOT
BRANCH   1   7
ATOM     7   C5  UNL     1       0.053   1.365   1.005  1.00  0.00     0.114 C   
BRANCH   7   8
ATOM     8   C4  UNL     1      -0.339   2.849   1.127  1.00  0.00     0.064 C   
BRANCH   8   9
ATOM     9   C2  UNL     1      -0.608   3.334   2.569  1.00  0.00    -0.012 C   
ATOM     10  C1  UNL     1      -1.055   4.798   2.547  1.00  0.00     0.007 C   
ATOM     11  C3  UNL     1       0.618   3.182   3.471  1.00  0.00     0.007 C   
ENDBRANCH   8   9
ENDBRANCH   7   8
BRANCH   7  12
ATOM     12  N1  UNL     1       0.252   1.008  -0.446  1.00  0.00     0.249 N   
ATOM     13  H11 UNL     1       0.359  -0.027  -0.508  1.00  0.00     0.199 HD  
ATOM     14  H12 UNL     1      -0.627   1.185  -0.949  1.00  0.00     0.199 HD  
BRANCH  12  15
ATOM     15  C6  UNL     1       1.405   1.575  -1.176  1.00  0.00     0.164 C   
BRANCH  15  16
ATOM     16  C7  UNL     1       1.275   1.339  -2.656  1.00  0.00    -0.002 A   
ATOM     17  C8  UNL     1       0.682   2.324  -3.483  1.00  0.00     0.012 A   
ATOM     18  C12 UNL     1       1.687   0.120  -3.221  1.00  0.00     0.045 A   
ATOM     19  C9  UNL     1       0.515   2.106  -4.855  1.00  0.00     0.037 A   
ATOM     20  C11 UNL     1       1.506  -0.064  -4.576  1.00  0.00     0.109 A   
ATOM     21  C10 UNL     1       0.937   0.901  -5.370  1.00  0.00     0.108 A   
ATOM     22  O1  UNL     1       1.846  -1.178  -5.277  1.00  0.00    -0.316 OA  
ATOM     23  O2  UNL     1       0.850   0.519  -6.670  1.00  0.00    -0.316 OA  
ATOM     24  C13 UNL     1       1.445  -0.796  -6.611  1.00  0.00     0.337 C   
ENDBRANCH  15  16
ENDBRANCH  12  15
ENDBRANCH   7  12
ENDBRANCH   1   7
BRANCH   3  25
ATOM     25  C16 UNL     1      -2.246  -2.731   2.444  1.00  0.00     0.159 C   
BRANCH  25  26
ATOM     26  C17 UNL     1      -1.606  -3.690   1.383  1.00  0.00     0.120 C   
ATOM     27  N3  UNL     1      -2.520  -4.095   0.289  1.00  0.00    -0.307 NA  
ATOM     28  C22 UNL     1      -0.377  -3.129   0.758  1.00  0.00     0.049 A   
ATOM     29  C18 UNL     1      -2.753  -3.041  -0.730  1.00  0.00     0.088 C   
ATOM     30  C20 UNL     1      -0.338  -2.446  -0.432  1.00  0.00     0.062 A   
ATOM     31  N5  UNL     1       0.906  -3.124   1.224  1.00  0.00    -0.306 N   
ATOM     32  C19 UNL     1      -1.491  -2.397  -1.368  1.00  0.00     0.073 C   
ATOM     33  N4  UNL     1       0.860  -1.791  -0.571  1.00  0.00    -0.244 NA  
ATOM     34  C21 UNL     1       1.615  -2.293   0.390  1.00  0.00     0.186 A   
ATOM     35  H24 UNL     1      -2.110  -4.901  -0.188  1.00  0.00     0.123 HD  
ATOM     36  H30 UNL     1       1.270  -3.607   2.038  1.00  0.00     0.154 HD  
ENDBRANCH  25  26
ENDBRANCH   3  25
TORSDOF 8
