REMARK SMILES CC(C)C[C@H]([NH2+]Cc1ccc2c(c1)OCO2)c1cn(Cc2coc(C(C)(C)C)n2)nn1
REMARK SMILES IDX 17 1 18 2 19 3 30 4 31 5 5 7 4 8 2 9 1 10 3 11 6 12 7 15
REMARK SMILES IDX 8 16 9 17 13 18 10 19 12 20 11 21 14 22 16 23 15 24 20 25
REMARK SMILES IDX 21 26 22 27 29 28 23 29 24 30 25 31 26 32 27 33 28 34
REMARK H PARENT 18 6 6 13 6 14
ROOT
ATOM     1   C14 UNL     1      -0.428  -0.578   2.176  1.00  0.00     0.127 A   
ATOM     2   C15 UNL     1       0.382   0.444   1.734  1.00  0.00     0.046 A   
ATOM     3   N2  UNL     1       1.456   0.414   2.584  1.00  0.00    -0.206 N   
ATOM     4   N4  UNL     1       1.317  -0.575   3.491  1.00  0.00    -0.076 NA  
ATOM     5   N5  UNL     1       0.159  -1.173   3.265  1.00  0.00    -0.132 NA  
ATOM     6   H20 UNL     1       0.312   1.161   0.928  1.00  0.00     0.083 HD  
ENDROOT
BRANCH   1   7
ATOM     7   C5  UNL     1      -1.721  -1.111   1.653  1.00  0.00     0.114 C   
BRANCH   7   8
ATOM     8   C4  UNL     1      -2.949  -0.385   2.237  1.00  0.00     0.064 C   
BRANCH   8   9
ATOM     9   C2  UNL     1      -3.094   1.100   1.842  1.00  0.00    -0.012 C   
ATOM     10  C1  UNL     1      -3.192   1.294   0.327  1.00  0.00     0.007 C   
ATOM     11  C3  UNL     1      -4.334   1.696   2.516  1.00  0.00     0.007 C   
ENDBRANCH   8   9
ENDBRANCH   7   8
BRANCH   7  12
ATOM     12  N1  UNL     1      -1.856  -2.573   2.036  1.00  0.00     0.249 N   
ATOM     13  H11 UNL     1      -2.833  -2.876   1.976  1.00  0.00     0.199 HD  
ATOM     14  H12 UNL     1      -1.577  -2.631   3.027  1.00  0.00     0.199 HD  
BRANCH  12  15
ATOM     15  C6  UNL     1      -0.998  -3.531   1.279  1.00  0.00     0.164 C   
BRANCH  15  16
ATOM     16  C7  UNL     1      -1.468  -3.739  -0.134  1.00  0.00    -0.002 A   
ATOM     17  C8  UNL     1      -2.649  -4.476  -0.396  1.00  0.00     0.012 A   
ATOM     18  C12 UNL     1      -0.746  -3.187  -1.205  1.00  0.00     0.045 A   
ATOM     19  C9  UNL     1      -3.106  -4.660  -1.704  1.00  0.00     0.037 A   
ATOM     20  C11 UNL     1      -1.223  -3.389  -2.483  1.00  0.00     0.109 A   
ATOM     21  C10 UNL     1      -2.371  -4.102  -2.726  1.00  0.00     0.108 A   
ATOM     22  O1  UNL     1      -0.645  -2.930  -3.623  1.00  0.00    -0.316 OA  
ATOM     23  O2  UNL     1      -2.660  -4.182  -4.050  1.00  0.00    -0.316 OA  
ATOM     24  C13 UNL     1      -1.554  -3.450  -4.620  1.00  0.00     0.337 C   
ENDBRANCH  15  16
ENDBRANCH  12  15
ENDBRANCH   7  12
ENDBRANCH   1   7
BRANCH   3  25
ATOM     25  C16 UNL     1       2.610   1.296   2.613  1.00  0.00     0.192 C   
BRANCH  25  26
ATOM     26  C17 UNL     1       3.404   1.147   1.370  1.00  0.00     0.086 A   
ATOM     27  C18 UNL     1       4.580   0.465   1.156  1.00  0.00     0.163 A   
ATOM     28  N3  UNL     1       3.002   1.738   0.191  1.00  0.00    -0.229 NA  
ATOM     29  O3  UNL     1       4.932   0.623  -0.148  1.00  0.00    -0.301 OA  
ATOM     30  C19 UNL     1       3.943   1.413  -0.675  1.00  0.00     0.153 A   
BRANCH  30  31
ATOM     31  C20 UNL     1       4.064   1.782  -2.130  1.00  0.00     0.027 C   
ATOM     32  C21 UNL     1       4.046   0.510  -2.992  1.00  0.00     0.020 C   
ATOM     33  C22 UNL     1       2.882   2.680  -2.541  1.00  0.00     0.020 C   
ATOM     34  C23 UNL     1       5.374   2.550  -2.368  1.00  0.00     0.020 C   
ENDBRANCH  30  31
ENDBRANCH  25  26
ENDBRANCH   3  25
TORSDOF 9
