REMARK SMILES CC(C)c1ncc(Cn2cc([C@@H]([NH2+]Cc3ccc4c(c3)OCO4)C3CCCC3)nn2)cn1
REMARK SMILES IDX 9 1 10 2 11 3 29 4 30 5 8 7 7 8 4 9 5 10 32 11 6 12 31 13
REMARK SMILES IDX 2 14 1 15 3 16 12 17 13 18 14 21 15 22 16 23 20 24 17 25
REMARK SMILES IDX 19 26 18 27 21 28 23 29 22 30 24 31 25 32 28 33 26 34 27 35
REMARK H PARENT 10 6 13 19 13 20
ROOT
ATOM     1   N2  UNL     1      -0.067   2.129   2.512  1.00  0.00    -0.208 N   
ATOM     2   C8  UNL     1       0.035   0.766   2.465  1.00  0.00     0.046 A   
ATOM     3   C9  UNL     1       1.380   0.541   2.272  1.00  0.00     0.127 A   
ATOM     4   N4  UNL     1       2.039   1.742   2.251  1.00  0.00    -0.132 NA  
ATOM     5   N5  UNL     1       1.143   2.705   2.385  1.00  0.00    -0.076 NA  
ATOM     6   H11 UNL     1      -0.826   0.114   2.517  1.00  0.00     0.083 HD  
ENDROOT
BRANCH   1   7
ATOM     7   C7  UNL     1      -1.276   2.937   2.522  1.00  0.00     0.172 C   
BRANCH   7   8
ATOM     8   C6  UNL     1      -1.914   2.916   1.171  1.00  0.00     0.008 A   
ATOM     9   C4  UNL     1      -3.015   2.797  -1.314  1.00  0.00     0.130 A   
ATOM     10  N1  UNL     1      -1.866   3.483  -1.163  1.00  0.00    -0.241 NA  
ATOM     11  N6  UNL     1      -3.631   2.137  -0.316  1.00  0.00    -0.241 NA  
ATOM     12  C5  UNL     1      -1.352   3.543   0.078  1.00  0.00     0.120 A   
ATOM     13  C24 UNL     1      -3.073   2.220   0.905  1.00  0.00     0.120 A   
BRANCH   9  14
ATOM     14  C2  UNL     1      -3.653   2.746  -2.685  1.00  0.00     0.051 C   
ATOM     15  C1  UNL     1      -2.795   1.928  -3.648  1.00  0.00     0.016 C   
ATOM     16  C3  UNL     1      -3.905   4.152  -3.230  1.00  0.00     0.016 C   
ENDBRANCH   9  14
ENDBRANCH   7   8
ENDBRANCH   1   7
BRANCH   3  17
ATOM     17  C10 UNL     1       2.128  -0.724   2.013  1.00  0.00     0.117 C   
BRANCH  17  18
ATOM     18  N3  UNL     1       3.132  -0.530   0.893  1.00  0.00     0.249 N   
ATOM     19  H13 UNL     1       3.678  -1.385   0.758  1.00  0.00     0.199 HD  
ATOM     20  H14 UNL     1       3.783   0.203   1.207  1.00  0.00     0.199 HD  
BRANCH  18  21
ATOM     21  C11 UNL     1       2.591  -0.093  -0.433  1.00  0.00     0.164 C   
BRANCH  21  22
ATOM     22  C12 UNL     1       1.526  -1.001  -0.981  1.00  0.00    -0.002 A   
ATOM     23  C13 UNL     1       0.199  -0.529  -1.128  1.00  0.00     0.012 A   
ATOM     24  C17 UNL     1       1.831  -2.328  -1.334  1.00  0.00     0.045 A   
ATOM     25  C14 UNL     1      -0.815  -1.367  -1.605  1.00  0.00     0.037 A   
ATOM     26  C16 UNL     1       0.808  -3.126  -1.804  1.00  0.00     0.109 A   
ATOM     27  C15 UNL     1      -0.477  -2.661  -1.935  1.00  0.00     0.108 A   
ATOM     28  O1  UNL     1       0.932  -4.426  -2.181  1.00  0.00    -0.316 OA  
ATOM     29  O2  UNL     1      -1.325  -3.609  -2.414  1.00  0.00    -0.316 OA  
ATOM     30  C18 UNL     1      -0.418  -4.715  -2.616  1.00  0.00     0.337 C   
ENDBRANCH  21  22
ENDBRANCH  18  21
ENDBRANCH  17  18
BRANCH  17  31
ATOM     31  C19 UNL     1       2.893  -1.212   3.259  1.00  0.00     0.043 C   
ATOM     32  C20 UNL     1       3.636  -2.542   3.059  1.00  0.00     0.010 C   
ATOM     33  C23 UNL     1       1.988  -1.515   4.457  1.00  0.00     0.010 C   
ATOM     34  C21 UNL     1       3.707  -3.201   4.437  1.00  0.00     0.001 C   
ATOM     35  C22 UNL     1       2.894  -2.320   5.375  1.00  0.00     0.001 C   
ENDBRANCH  17  31
ENDBRANCH   3  17
TORSDOF 8
