REMARK SMILES CC(C)[C@H]([NH2+]Cc1ccc2c(c1)OCO2)c1cn(Cc2ccc(O)cc2)nn1
REMARK SMILES IDX 16 1 17 2 18 3 27 4 28 5 4 7 2 8 1 9 3 10 5 11 6 14 7 15
REMARK SMILES IDX 8 16 12 17 9 18 11 19 10 20 13 21 15 22 14 23 19 24 20 25
REMARK SMILES IDX 21 26 26 27 22 28 25 29 23 30 24 31
REMARK H PARENT 17 6 5 12 5 13 24 32
ROOT
ATOM     1   C13 UNL     1       1.816   0.820   0.620  1.00  0.00     0.127 A   
ATOM     2   C14 UNL     1       2.390   0.556   1.843  1.00  0.00     0.046 A   
ATOM     3   N2  UNL     1       1.704   1.363   2.711  1.00  0.00    -0.208 N   
ATOM     4   N3  UNL     1       0.775   2.089   2.058  1.00  0.00    -0.076 NA  
ATOM     5   N4  UNL     1       0.836   1.766   0.777  1.00  0.00    -0.132 NA  
ATOM     6   H18 UNL     1       3.173  -0.112   2.173  1.00  0.00     0.083 HD  
ENDROOT
BRANCH   1   7
ATOM     7   C4  UNL     1       2.064   0.234  -0.735  1.00  0.00     0.117 C   
BRANCH   7   8
ATOM     8   C2  UNL     1       3.273   0.895  -1.447  1.00  0.00     0.037 C   
ATOM     9   C1  UNL     1       3.037   2.355  -1.850  1.00  0.00     0.014 C   
ATOM     10  C3  UNL     1       3.720   0.086  -2.671  1.00  0.00     0.014 C   
ENDBRANCH   7   8
BRANCH   7  11
ATOM     11  N1  UNL     1       0.828   0.350  -1.587  1.00  0.00     0.249 N   
ATOM     12  H9  UNL     1       0.457   1.301  -1.438  1.00  0.00     0.199 HD  
ATOM     13  H10 UNL     1       1.036   0.275  -2.586  1.00  0.00     0.199 HD  
BRANCH  11  14
ATOM     14  C5  UNL     1      -0.268  -0.601  -1.246  1.00  0.00     0.164 C   
BRANCH  14  15
ATOM     15  C6  UNL     1      -1.474  -0.335  -2.101  1.00  0.00    -0.002 A   
ATOM     16  C7  UNL     1      -1.677  -1.054  -3.303  1.00  0.00     0.012 A   
ATOM     17  C11 UNL     1      -2.384   0.673  -1.733  1.00  0.00     0.045 A   
ATOM     18  C8  UNL     1      -2.776  -0.781  -4.125  1.00  0.00     0.037 A   
ATOM     19  C10 UNL     1      -3.455   0.916  -2.567  1.00  0.00     0.109 A   
ATOM     20  C9  UNL     1      -3.646   0.210  -3.729  1.00  0.00     0.108 A   
ATOM     21  O1  UNL     1      -4.420   1.850  -2.361  1.00  0.00    -0.316 OA  
ATOM     22  O2  UNL     1      -4.757   0.609  -4.401  1.00  0.00    -0.316 OA  
ATOM     23  C12 UNL     1      -5.259   1.637  -3.520  1.00  0.00     0.337 C   
ENDBRANCH  14  15
ENDBRANCH  11  14
ENDBRANCH   7  11
ENDBRANCH   1   7
BRANCH   3  24
ATOM     24  C15 UNL     1       1.872   1.488   4.149  1.00  0.00     0.169 C   
BRANCH  24  25
ATOM     25  C16 UNL     1       1.246   0.317   4.864  1.00  0.00    -0.028 A   
ATOM     26  C17 UNL     1       2.036  -0.753   5.310  1.00  0.00     0.008 A   
ATOM     27  C21 UNL     1      -0.143   0.270   5.070  1.00  0.00     0.008 A   
ATOM     28  C18 UNL     1       1.447  -1.847   5.946  1.00  0.00     0.033 A   
ATOM     29  C20 UNL     1      -0.730  -0.823   5.711  1.00  0.00     0.033 A   
ATOM     30  C19 UNL     1       0.072  -1.873   6.142  1.00  0.00     0.071 A   
BRANCH  30  31
ATOM     31  O3  UNL     1      -0.456  -2.962   6.768  1.00  0.00    -0.361 OA  
ATOM     32  H23 UNL     1      -1.400  -2.805   6.937  1.00  0.00     0.218 HD  
ENDBRANCH  30  31
ENDBRANCH  24  25
ENDBRANCH   3  24
TORSDOF 8
