REMARK SMILES CC(C)[C@H]([NH2+]Cc1ccc2c(c1)OCO2)c1cn(Cc2ccc3cc[nH]c3c2)nn1
REMARK SMILES IDX 16 1 17 2 18 3 29 4 30 5 4 7 2 8 1 9 3 10 5 11 6 14 7 15
REMARK SMILES IDX 8 16 12 17 9 18 11 19 10 20 13 21 15 22 14 23 19 24 20 25
REMARK SMILES IDX 21 26 28 27 22 28 27 29 23 30 26 31 24 32 25 33
REMARK H PARENT 17 6 5 12 5 13 26 34
ROOT
ATOM     1   C13 UNL     1       0.171  -1.216  -1.057  1.00  0.00     0.127 A   
ATOM     2   C14 UNL     1      -0.528  -2.194  -0.385  1.00  0.00     0.046 A   
ATOM     3   N2  UNL     1       0.412  -2.776   0.423  1.00  0.00    -0.208 N   
ATOM     4   N4  UNL     1       1.619  -2.204   0.243  1.00  0.00    -0.076 NA  
ATOM     5   N5  UNL     1       1.484  -1.250  -0.662  1.00  0.00    -0.132 NA  
ATOM     6   H18 UNL     1      -1.564  -2.502  -0.380  1.00  0.00     0.083 HD  
ENDROOT
BRANCH   1   7
ATOM     7   C4  UNL     1      -0.277  -0.176  -2.035  1.00  0.00     0.117 C   
BRANCH   7   8
ATOM     8   C2  UNL     1      -0.359  -0.729  -3.482  1.00  0.00     0.037 C   
ATOM     9   C1  UNL     1       1.003  -1.067  -4.098  1.00  0.00     0.014 C   
ATOM     10  C3  UNL     1      -1.123   0.225  -4.408  1.00  0.00     0.014 C   
ENDBRANCH   7   8
BRANCH   7  11
ATOM     11  N1  UNL     1       0.640   1.016  -1.980  1.00  0.00     0.249 N   
ATOM     12  H9  UNL     1       0.589   1.586  -2.829  1.00  0.00     0.199 HD  
ATOM     13  H10 UNL     1       1.602   0.645  -1.938  1.00  0.00     0.199 HD  
BRANCH  11  14
ATOM     14  C5  UNL     1       0.464   1.896  -0.792  1.00  0.00     0.164 C   
BRANCH  14  15
ATOM     15  C6  UNL     1       1.509   2.975  -0.782  1.00  0.00    -0.002 A   
ATOM     16  C7  UNL     1       2.763   2.741  -0.167  1.00  0.00     0.012 A   
ATOM     17  C11 UNL     1       1.273   4.198  -1.431  1.00  0.00     0.045 A   
ATOM     18  C8  UNL     1       3.766   3.717  -0.186  1.00  0.00     0.037 A   
ATOM     19  C10 UNL     1       2.284   5.137  -1.433  1.00  0.00     0.109 A   
ATOM     20  C9  UNL     1       3.495   4.904  -0.829  1.00  0.00     0.108 A   
ATOM     21  O1  UNL     1       2.221   6.363  -2.016  1.00  0.00    -0.316 OA  
ATOM     22  O2  UNL     1       4.345   5.956  -0.950  1.00  0.00    -0.316 OA  
ATOM     23  C12 UNL     1       3.529   6.888  -1.690  1.00  0.00     0.337 C   
ENDBRANCH  14  15
ENDBRANCH  11  14
ENDBRANCH   7  11
ENDBRANCH   1   7
BRANCH   3  24
ATOM     24  C15 UNL     1       0.230  -3.846   1.390  1.00  0.00     0.169 C   
BRANCH  24  25
ATOM     25  C16 UNL     1      -0.553  -3.362   2.587  1.00  0.00    -0.027 A   
ATOM     26  C17 UNL     1       0.045  -2.487   3.506  1.00  0.00     0.006 A   
ATOM     27  C23 UNL     1      -1.885  -3.773   2.772  1.00  0.00     0.029 A   
ATOM     28  C18 UNL     1      -0.664  -2.000   4.610  1.00  0.00     0.010 A   
ATOM     29  C22 UNL     1      -2.578  -3.274   3.883  1.00  0.00     0.037 A   
ATOM     30  C19 UNL     1      -2.000  -2.396   4.800  1.00  0.00    -0.003 A   
ATOM     31  N3  UNL     1      -3.866  -3.512   4.311  1.00  0.00    -0.321 N   
ATOM     32  C20 UNL     1      -2.986  -2.104   5.782  1.00  0.00     0.025 A   
ATOM     33  C21 UNL     1      -4.125  -2.801   5.452  1.00  0.00     0.072 A   
ATOM     34  H25 UNL     1      -4.523  -4.130   3.853  1.00  0.00     0.152 HD  
ENDBRANCH  24  25
ENDBRANCH   3  24
TORSDOF 7
