REMARK SMILES Cc1n[nH]c(C(C)C)c1Cn1cc([C@H](CC(C)C)[NH2+]Cc2ccc3c(c2)OCO3)nn1
REMARK SMILES IDX 11 1 12 2 13 3 30 4 31 5 10 7 9 8 2 9 3 10 4 11 5 12 1 13
REMARK SMILES IDX 6 15 7 16 8 17 14 18 15 19 16 20 17 21 18 22 19 23 20 26
REMARK SMILES IDX 21 27 22 28 26 29 23 30 25 31 24 32 27 33 29 34 28 35
REMARK H PARENT 12 6 4 14 19 24 19 25
ROOT
ATOM     1   N3  UNL     1       1.612   2.208   0.245  1.00  0.00    -0.208 N   
ATOM     2   C9  UNL     1       0.505   1.401   0.234  1.00  0.00     0.046 A   
ATOM     3   C10 UNL     1       0.201   1.226   1.565  1.00  0.00     0.127 A   
ATOM     4   N5  UNL     1       1.093   1.937   2.327  1.00  0.00    -0.132 NA  
ATOM     5   N6  UNL     1       1.953   2.524   1.512  1.00  0.00    -0.076 NA  
ATOM     6   H14 UNL     1       0.069   1.027  -0.683  1.00  0.00     0.083 HD  
ENDROOT
BRANCH   1   7
ATOM     7   C8  UNL     1       2.392   2.735  -0.869  1.00  0.00     0.173 C   
BRANCH   7   8
ATOM     8   C7  UNL     1       2.421   1.799  -2.030  1.00  0.00     0.013 A   
ATOM     9   C2  UNL     1       3.088   0.543  -2.099  1.00  0.00     0.062 A   
ATOM     10  N1  UNL     1       2.876  -0.063  -3.269  1.00  0.00    -0.189 NA  
ATOM     11  N2  UNL     1       2.155   0.813  -3.976  1.00  0.00    -0.242 N   
ATOM     12  C3  UNL     1       1.823   1.942  -3.274  1.00  0.00     0.034 A   
ATOM     13  C1  UNL     1       3.916  -0.124  -1.062  1.00  0.00     0.069 C   
ATOM     14  H4  UNL     1       1.913   0.573  -4.933  1.00  0.00     0.175 HD  
BRANCH  12  15
ATOM     15  C4  UNL     1       0.989   3.039  -3.873  1.00  0.00     0.029 C   
ATOM     16  C5  UNL     1       1.683   3.670  -5.080  1.00  0.00     0.014 C   
ATOM     17  C6  UNL     1      -0.407   2.540  -4.246  1.00  0.00     0.014 C   
ENDBRANCH  12  15
ENDBRANCH   7   8
ENDBRANCH   1   7
BRANCH   3  18
ATOM     18  C11 UNL     1      -0.861   0.413   2.233  1.00  0.00     0.114 C   
BRANCH  18  19
ATOM     19  C12 UNL     1      -2.176   1.214   2.331  1.00  0.00     0.064 C   
BRANCH  19  20
ATOM     20  C13 UNL     1      -3.393   0.465   2.916  1.00  0.00    -0.012 C   
ATOM     21  C14 UNL     1      -3.743  -0.797   2.126  1.00  0.00     0.007 C   
ATOM     22  C15 UNL     1      -4.605   1.403   2.951  1.00  0.00     0.007 C   
ENDBRANCH  19  20
ENDBRANCH  18  19
BRANCH  18  23
ATOM     23  N4  UNL     1      -0.422   0.020   3.625  1.00  0.00     0.249 N   
ATOM     24  H25 UNL     1      -1.212  -0.317   4.177  1.00  0.00     0.199 HD  
ATOM     25  H26 UNL     1      -0.081   0.884   4.070  1.00  0.00     0.199 HD  
BRANCH  23  26
ATOM     26  C16 UNL     1       0.678  -0.985   3.711  1.00  0.00     0.164 C   
BRANCH  26  27
ATOM     27  C17 UNL     1       0.244  -2.359   3.282  1.00  0.00    -0.002 A   
ATOM     28  C18 UNL     1      -0.616  -3.128   4.102  1.00  0.00     0.012 A   
ATOM     29  C22 UNL     1       0.672  -2.878   2.048  1.00  0.00     0.045 A   
ATOM     30  C19 UNL     1      -1.049  -4.395   3.698  1.00  0.00     0.037 A   
ATOM     31  C21 UNL     1       0.230  -4.132   1.683  1.00  0.00     0.109 A   
ATOM     32  C20 UNL     1      -0.607  -4.868   2.482  1.00  0.00     0.108 A   
ATOM     33  O1  UNL     1       0.550  -4.777   0.530  1.00  0.00    -0.316 OA  
ATOM     34  O2  UNL     1      -0.922  -6.070   1.933  1.00  0.00    -0.316 OA  
ATOM     35  C23 UNL     1      -0.150  -6.028   0.713  1.00  0.00     0.337 C   
ENDBRANCH  26  27
ENDBRANCH  23  26
ENDBRANCH  18  23
ENDBRANCH   3  18
TORSDOF 9
