REMARK SMILES Cc1cc(CCn2cc([C@@H]([NH2+]Cc3ccc4c(c3)OCO4)C3CCCCC3)nn2)ccc1F
REMARK SMILES IDX 7 1 8 2 9 3 28 4 29 5 6 7 5 8 4 9 2 10 3 11 32 12 31 13
REMARK SMILES IDX 30 14 1 15 33 16 10 17 11 18 12 21 13 22 14 23 18 24 15 25
REMARK SMILES IDX 17 26 16 27 19 28 21 29 20 30 22 31 23 32 27 33 24 34 26 35
REMARK SMILES IDX 25 36
REMARK H PARENT 8 6 11 19 11 20
ROOT
ATOM     1   N1  UNL     1      -2.148   1.656  -0.050  1.00  0.00    -0.212 N   
ATOM     2   C7  UNL     1      -1.001   1.988   0.614  1.00  0.00     0.045 A   
ATOM     3   C8  UNL     1       0.003   1.621  -0.254  1.00  0.00     0.127 A   
ATOM     4   N3  UNL     1      -0.558   1.097  -1.393  1.00  0.00    -0.132 NA  
ATOM     5   N4  UNL     1      -1.873   1.128  -1.256  1.00  0.00    -0.076 NA  
ATOM     6   H9  UNL     1      -1.008   2.402   1.613  1.00  0.00     0.083 HD  
ENDROOT
BRANCH   1   7
ATOM     7   C6  UNL     1      -3.511   1.731   0.433  1.00  0.00     0.139 C   
BRANCH   7   8
ATOM     8   C5  UNL     1      -4.101   0.360   0.775  1.00  0.00     0.057 C   
BRANCH   8   9
ATOM     9   C4  UNL     1      -3.293  -0.392   1.810  1.00  0.00    -0.046 A   
ATOM     10  C2  UNL     1      -2.500  -0.644   4.102  1.00  0.00    -0.015 A   
ATOM     11  C3  UNL     1      -3.286   0.022   3.152  1.00  0.00     0.010 A   
ATOM     12  C26 UNL     1      -1.746  -1.747   3.695  1.00  0.00     0.126 A   
ATOM     13  C25 UNL     1      -1.752  -2.178   2.373  1.00  0.00     0.040 A   
ATOM     14  C24 UNL     1      -2.521  -1.500   1.429  1.00  0.00     0.007 A   
ATOM     15  C1  UNL     1      -2.523  -0.232   5.543  1.00  0.00     0.047 C   
ATOM     16  F1  UNL     1      -0.991  -2.407   4.583  1.00  0.00    -0.207 F   
ENDBRANCH   8   9
ENDBRANCH   7   8
ENDBRANCH   1   7
BRANCH   3  17
ATOM     17  C9  UNL     1       1.488   1.614  -0.097  1.00  0.00     0.117 C   
BRANCH  17  18
ATOM     18  N2  UNL     1       2.061   0.384  -0.757  1.00  0.00     0.249 N   
ATOM     19  H11 UNL     1       1.616   0.312  -1.685  1.00  0.00     0.199 HD  
ATOM     20  H12 UNL     1       3.067   0.480  -0.924  1.00  0.00     0.199 HD  
BRANCH  18  21
ATOM     21  C10 UNL     1       1.800  -0.897  -0.042  1.00  0.00     0.164 C   
BRANCH  21  22
ATOM     22  C11 UNL     1       2.336  -2.057  -0.832  1.00  0.00    -0.002 A   
ATOM     23  C12 UNL     1       3.618  -2.586  -0.552  1.00  0.00     0.012 A   
ATOM     24  C16 UNL     1       1.581  -2.590  -1.892  1.00  0.00     0.045 A   
ATOM     25  C13 UNL     1       4.142  -3.636  -1.313  1.00  0.00     0.037 A   
ATOM     26  C15 UNL     1       2.128  -3.626  -2.621  1.00  0.00     0.109 A   
ATOM     27  C14 UNL     1       3.372  -4.134  -2.341  1.00  0.00     0.108 A   
ATOM     28  O1  UNL     1       1.536  -4.250  -3.672  1.00  0.00    -0.316 OA  
ATOM     29  O2  UNL     1       3.721  -5.144  -3.179  1.00  0.00    -0.316 OA  
ATOM     30  C17 UNL     1       2.544  -5.230  -4.012  1.00  0.00     0.337 C   
ENDBRANCH  21  22
ENDBRANCH  18  21
ENDBRANCH  17  18
BRANCH  17  31
ATOM     31  C18 UNL     1       2.204   2.863  -0.674  1.00  0.00     0.043 C   
ATOM     32  C19 UNL     1       1.833   4.139   0.109  1.00  0.00     0.010 C   
ATOM     33  C23 UNL     1       1.982   3.083  -2.183  1.00  0.00     0.010 C   
ATOM     34  C20 UNL     1       2.600   5.356  -0.403  1.00  0.00     0.001 C   
ATOM     35  C22 UNL     1       2.744   4.307  -2.691  1.00  0.00     0.001 C   
ATOM     36  C21 UNL     1       2.392   5.562  -1.899  1.00  0.00     0.000 C   
ENDBRANCH  17  31
ENDBRANCH   3  17
TORSDOF 8
