REMARK SMILES Cc1cccc([C@@H](CO)n2cc([C@@H]([NH2+]Cc3ccc4c(c3)OCO4)C3CCCCC3)nn2)n1
REMARK SMILES IDX 10 1 11 2 12 3 31 4 32 5 7 7 6 8 2 9 3 10 33 11 4 12 5 13
REMARK SMILES IDX 1 14 8 15 9 16 13 18 14 19 15 22 16 23 17 24 21 25 18 26
REMARK SMILES IDX 20 27 19 28 22 29 24 30 23 31 25 32 26 33 30 34 27 35 29 36
REMARK SMILES IDX 28 37
REMARK H PARENT 11 6 9 17 14 20 14 21
ROOT
ATOM     1   N1  UNL     1      -1.602  -2.065  -1.323  1.00  0.00    -0.201 N   
ATOM     2   C9  UNL     1      -0.290  -2.187  -0.941  1.00  0.00     0.046 A   
ATOM     3   C10 UNL     1      -0.235  -1.554   0.282  1.00  0.00     0.127 A   
ATOM     4   N3  UNL     1      -1.479  -1.075   0.599  1.00  0.00    -0.132 NA  
ATOM     5   N4  UNL     1      -2.309  -1.405  -0.377  1.00  0.00    -0.075 NA  
ATOM     6   H11 UNL     1       0.454  -2.657  -1.569  1.00  0.00     0.083 HD  
ENDROOT
BRANCH   1   7
ATOM     7   C7  UNL     1      -2.250  -2.488  -2.559  1.00  0.00     0.174 C   
BRANCH   7   8
ATOM     8   C6  UNL     1      -1.956  -1.481  -3.657  1.00  0.00     0.066 A   
ATOM     9   C2  UNL     1      -0.384  -0.374  -4.979  1.00  0.00     0.038 A   
ATOM     10  C3  UNL     1      -1.382   0.322  -5.652  1.00  0.00     0.023 A   
ATOM     11  N5  UNL     1      -0.652  -1.268  -3.992  1.00  0.00    -0.256 NA  
ATOM     12  C4  UNL     1      -2.709   0.091  -5.305  1.00  0.00     0.004 A   
ATOM     13  C5  UNL     1      -3.003  -0.822  -4.297  1.00  0.00     0.026 A   
ATOM     14  C1  UNL     1       1.056  -0.135  -5.325  1.00  0.00     0.067 C   
ENDBRANCH   7   8
BRANCH   7  15
ATOM     15  C8  UNL     1      -1.844  -3.907  -2.980  1.00  0.00     0.187 C   
BRANCH  15  16
ATOM     16  O1  UNL     1      -2.723  -4.428  -3.978  1.00  0.00    -0.394 OA  
ATOM     17  H10 UNL     1      -2.422  -4.099  -4.845  1.00  0.00     0.210 HD  
ENDBRANCH  15  16
ENDBRANCH   7  15
ENDBRANCH   1   7
BRANCH   3  18
ATOM     18  C11 UNL     1       0.925  -1.238   1.169  1.00  0.00     0.117 C   
BRANCH  18  19
ATOM     19  N2  UNL     1       0.803   0.173   1.676  1.00  0.00     0.249 N   
ATOM     20  H13 UNL     1      -0.180   0.298   1.962  1.00  0.00     0.199 HD  
ATOM     21  H14 UNL     1       1.368   0.339   2.514  1.00  0.00     0.199 HD  
BRANCH  19  22
ATOM     22  C12 UNL     1       1.102   1.226   0.666  1.00  0.00     0.164 C   
BRANCH  22  23
ATOM     23  C13 UNL     1       0.913   2.599   1.244  1.00  0.00    -0.002 A   
ATOM     24  C14 UNL     1       2.025   3.343   1.706  1.00  0.00     0.012 A   
ATOM     25  C18 UNL     1      -0.379   3.143   1.353  1.00  0.00     0.045 A   
ATOM     26  C15 UNL     1       1.857   4.620   2.253  1.00  0.00     0.037 A   
ATOM     27  C17 UNL     1      -0.510   4.404   1.899  1.00  0.00     0.109 A   
ATOM     28  C16 UNL     1       0.577   5.124   2.330  1.00  0.00     0.108 A   
ATOM     29  O2  UNL     1      -1.679   5.073   2.071  1.00  0.00    -0.316 OA  
ATOM     30  O3  UNL     1       0.229   6.340   2.825  1.00  0.00    -0.316 OA  
ATOM     31  C19 UNL     1      -1.202   6.318   2.633  1.00  0.00     0.337 C   
ENDBRANCH  22  23
ENDBRANCH  19  22
ENDBRANCH  18  19
BRANCH  18  32
ATOM     32  C20 UNL     1       1.066  -2.236   2.350  1.00  0.00     0.043 C   
ATOM     33  C21 UNL     1      -0.023  -2.098   3.433  1.00  0.00     0.010 C   
ATOM     34  C25 UNL     1       2.467  -2.147   2.990  1.00  0.00     0.010 C   
ATOM     35  C22 UNL     1       0.165  -3.112   4.562  1.00  0.00     0.001 C   
ATOM     36  C24 UNL     1       2.642  -3.167   4.114  1.00  0.00     0.001 C   
ATOM     37  C23 UNL     1       1.556  -3.023   5.176  1.00  0.00     0.000 C   
ENDBRANCH  18  32
ENDBRANCH   3  18
TORSDOF 9
