REMARK SMILES Cc1cccc([C@H](CO)n2cc([C@@H]([NH2+]Cc3ccc4c(c3)OCO4)C3CCCCC3)nn2)n1
REMARK SMILES IDX 10 1 11 2 12 3 31 4 32 5 7 7 6 8 2 9 3 10 33 11 4 12 5 13
REMARK SMILES IDX 1 14 8 15 9 16 13 18 14 19 15 22 16 23 17 24 21 25 18 26
REMARK SMILES IDX 20 27 19 28 22 29 24 30 23 31 25 32 26 33 30 34 27 35 29 36
REMARK SMILES IDX 28 37
REMARK H PARENT 11 6 9 17 14 20 14 21
ROOT
ATOM     1   N1  UNL     1      -0.934  -0.894   1.426  1.00  0.00    -0.201 N   
ATOM     2   C9  UNL     1       0.369  -0.483   1.544  1.00  0.00     0.046 A   
ATOM     3   C10 UNL     1       0.858  -0.540   0.260  1.00  0.00     0.127 A   
ATOM     4   N3  UNL     1      -0.140  -0.955  -0.585  1.00  0.00    -0.132 NA  
ATOM     5   N4  UNL     1      -1.228  -1.165   0.134  1.00  0.00    -0.075 NA  
ATOM     6   H11 UNL     1       0.800  -0.206   2.496  1.00  0.00     0.083 HD  
ENDROOT
BRANCH   1   7
ATOM     7   C7  UNL     1      -1.957  -1.040   2.454  1.00  0.00     0.174 C   
BRANCH   7   8
ATOM     8   C6  UNL     1      -2.447   0.333   2.863  1.00  0.00     0.066 A   
ATOM     9   C2  UNL     1      -2.155   2.238   4.175  1.00  0.00     0.038 A   
ATOM     10  C3  UNL     1      -3.269   2.845   3.609  1.00  0.00     0.023 A   
ATOM     11  N5  UNL     1      -1.734   1.001   3.809  1.00  0.00    -0.256 NA  
ATOM     12  C4  UNL     1      -3.982   2.160   2.632  1.00  0.00     0.004 A   
ATOM     13  C5  UNL     1      -3.568   0.889   2.249  1.00  0.00     0.026 A   
ATOM     14  C1  UNL     1      -1.367   2.954   5.232  1.00  0.00     0.067 C   
ENDBRANCH   7   8
BRANCH   7  15
ATOM     15  C8  UNL     1      -1.477  -1.862   3.661  1.00  0.00     0.187 C   
BRANCH  15  16
ATOM     16  O1  UNL     1      -1.148  -3.197   3.271  1.00  0.00    -0.394 OA  
ATOM     17  H10 UNL     1      -1.129  -3.736   4.084  1.00  0.00     0.210 HD  
ENDBRANCH  15  16
ENDBRANCH   7  15
ENDBRANCH   1   7
BRANCH   3  18
ATOM     18  C11 UNL     1       2.220  -0.279  -0.298  1.00  0.00     0.117 C   
BRANCH  18  19
ATOM     19  N2  UNL     1       2.408  -1.085  -1.557  1.00  0.00     0.249 N   
ATOM     20  H13 UNL     1       3.108  -0.683  -2.186  1.00  0.00     0.199 HD  
ATOM     21  H14 UNL     1       1.509  -1.036  -2.063  1.00  0.00     0.199 HD  
BRANCH  19  22
ATOM     22  C12 UNL     1       2.703  -2.528  -1.340  1.00  0.00     0.164 C   
BRANCH  22  23
ATOM     23  C13 UNL     1       2.688  -3.273  -2.643  1.00  0.00    -0.002 A   
ATOM     24  C14 UNL     1       3.889  -3.506  -3.355  1.00  0.00     0.012 A   
ATOM     25  C18 UNL     1       1.465  -3.707  -3.185  1.00  0.00     0.045 A   
ATOM     26  C15 UNL     1       3.875  -4.172  -4.586  1.00  0.00     0.037 A   
ATOM     27  C17 UNL     1       1.487  -4.360  -4.400  1.00  0.00     0.109 A   
ATOM     28  C16 UNL     1       2.658  -4.587  -5.081  1.00  0.00     0.108 A   
ATOM     29  O2  UNL     1       0.401  -4.845  -5.058  1.00  0.00    -0.316 OA  
ATOM     30  O3  UNL     1       2.457  -5.242  -6.254  1.00  0.00    -0.316 OA  
ATOM     31  C19 UNL     1       1.025  -5.431  -6.222  1.00  0.00     0.337 C   
ENDBRANCH  22  23
ENDBRANCH  19  22
ENDBRANCH  18  19
BRANCH  18  32
ATOM     32  C20 UNL     1       2.470   1.228  -0.570  1.00  0.00     0.043 C   
ATOM     33  C21 UNL     1       1.598   1.814  -1.699  1.00  0.00     0.010 C   
ATOM     34  C25 UNL     1       3.962   1.516  -0.840  1.00  0.00     0.010 C   
ATOM     35  C22 UNL     1       1.872   3.304  -1.908  1.00  0.00     0.001 C   
ATOM     36  C24 UNL     1       4.223   3.006  -1.051  1.00  0.00     0.001 C   
ATOM     37  C23 UNL     1       3.350   3.575  -2.164  1.00  0.00     0.000 C   
ENDBRANCH  18  32
ENDBRANCH   3  18
TORSDOF 9
