REMARK SMILES Oc1ccc(Cn2cc([C@@H]([NH2+]Cc3ccc4c(c3)OCO4)C3CCCC3)nn2)c(F)c1
REMARK SMILES IDX 7 1 8 2 9 3 27 4 28 5 6 7 5 8 2 9 3 10 31 11 4 12 29 13
REMARK SMILES IDX 30 14 1 15 10 17 11 18 12 21 13 22 14 23 18 24 15 25 17 26
REMARK SMILES IDX 16 27 19 28 21 29 20 30 22 31 23 32 26 33 24 34 25 35
REMARK H PARENT 8 6 1 16 11 19 11 20
ROOT
ATOM     1   N1  UNL     1      -2.400  -2.521  -0.663  1.00  0.00    -0.208 N   
ATOM     2   C6  UNL     1      -1.166  -2.156  -0.202  1.00  0.00     0.046 A   
ATOM     3   C7  UNL     1      -1.365  -0.896   0.318  1.00  0.00     0.127 A   
ATOM     4   N3  UNL     1      -2.688  -0.561   0.194  1.00  0.00    -0.132 NA  
ATOM     5   N4  UNL     1      -3.311  -1.561  -0.410  1.00  0.00    -0.076 NA  
ATOM     6   H6  UNL     1      -0.293  -2.782  -0.324  1.00  0.00     0.083 HD  
ENDROOT
BRANCH   1   7
ATOM     7   C5  UNL     1      -2.766  -3.724  -1.392  1.00  0.00     0.172 C   
BRANCH   7   8
ATOM     8   C4  UNL     1      -2.725  -3.482  -2.877  1.00  0.00     0.007 A   
ATOM     9   C1  UNL     1      -2.608  -2.974  -5.623  1.00  0.00     0.074 A   
ATOM     10  C2  UNL     1      -3.845  -3.049  -4.990  1.00  0.00     0.034 A   
ATOM     11  C23 UNL     1      -1.430  -3.148  -4.909  1.00  0.00     0.072 A   
ATOM     12  C3  UNL     1      -3.904  -3.300  -3.615  1.00  0.00     0.011 A   
ATOM     13  C22 UNL     1      -1.498  -3.401  -3.546  1.00  0.00     0.130 A   
ATOM     14  F1  UNL     1      -0.357  -3.550  -2.856  1.00  0.00    -0.207 F   
BRANCH   9  15
ATOM     15  O1  UNL     1      -2.506  -2.719  -6.957  1.00  0.00    -0.361 OA  
ATOM     16  H1  UNL     1      -3.394  -2.707  -7.353  1.00  0.00     0.218 HD  
ENDBRANCH   9  15
ENDBRANCH   7   8
ENDBRANCH   1   7
BRANCH   3  17
ATOM     17  C8  UNL     1      -0.396   0.098   0.866  1.00  0.00     0.117 C   
BRANCH  17  18
ATOM     18  N2  UNL     1      -0.702   1.478   0.317  1.00  0.00     0.249 N   
ATOM     19  H8  UNL     1      -0.101   2.176   0.763  1.00  0.00     0.199 HD  
ATOM     20  H9  UNL     1      -1.673   1.689   0.584  1.00  0.00     0.199 HD  
BRANCH  18  21
ATOM     21  C9  UNL     1      -0.607   1.643  -1.167  1.00  0.00     0.164 C   
BRANCH  21  22
ATOM     22  C10 UNL     1       0.765   1.353  -1.709  1.00  0.00    -0.002 A   
ATOM     23  C11 UNL     1       0.993   0.188  -2.480  1.00  0.00     0.012 A   
ATOM     24  C15 UNL     1       1.838   2.217  -1.428  1.00  0.00     0.045 A   
ATOM     25  C12 UNL     1       2.271  -0.120  -2.960  1.00  0.00     0.037 A   
ATOM     26  C14 UNL     1       3.085   1.883  -1.915  1.00  0.00     0.109 A   
ATOM     27  C13 UNL     1       3.296   0.748  -2.658  1.00  0.00     0.108 A   
ATOM     28  O2  UNL     1       4.224   2.600  -1.726  1.00  0.00    -0.316 OA  
ATOM     29  O3  UNL     1       4.594   0.609  -3.034  1.00  0.00    -0.316 OA  
ATOM     30  C16 UNL     1       5.177   1.799  -2.462  1.00  0.00     0.337 C   
ENDBRANCH  21  22
ENDBRANCH  18  21
ENDBRANCH  17  18
BRANCH  17  31
ATOM     31  C17 UNL     1      -0.447   0.168   2.405  1.00  0.00     0.043 C   
ATOM     32  C18 UNL     1       0.544   1.162   3.023  1.00  0.00     0.010 C   
ATOM     33  C21 UNL     1      -0.051  -1.145   3.088  1.00  0.00     0.010 C   
ATOM     34  C19 UNL     1       0.794   0.669   4.448  1.00  0.00     0.001 C   
ATOM     35  C20 UNL     1       0.193  -0.730   4.530  1.00  0.00     0.001 C   
ENDBRANCH  17  31
ENDBRANCH   3  17
TORSDOF 8
