REMARK SMILES Cc1nn(C)c(Cl)c1Cn1cc([C@@H]([NH2+]Cc2ccc3c(c2)OCO3)C2CCCC2)nn1
REMARK SMILES IDX 10 1 11 2 12 3 30 4 31 5 9 7 8 8 2 9 3 10 4 11 6 12 1 13
REMARK SMILES IDX 5 14 7 15 13 16 14 17 15 20 16 21 17 22 21 23 18 24 20 25
REMARK SMILES IDX 19 26 22 27 24 28 23 29 25 30 26 31 29 32 27 33 28 34
REMARK H PARENT 11 6 14 18 14 19
ROOT
ATOM     1   N3  UNL     1      -0.569   1.915  -0.606  1.00  0.00    -0.208 N   
ATOM     2   C7  UNL     1      -1.084   0.708  -0.217  1.00  0.00     0.046 A   
ATOM     3   C8  UNL     1      -0.125   0.195   0.627  1.00  0.00     0.127 A   
ATOM     4   N5  UNL     1       0.918   1.083   0.716  1.00  0.00    -0.132 NA  
ATOM     5   N6  UNL     1       0.627   2.138  -0.024  1.00  0.00    -0.076 NA  
ATOM     6   H9  UNL     1      -2.028   0.335  -0.590  1.00  0.00     0.083 HD  
ENDROOT
BRANCH   1   7
ATOM     7   C6  UNL     1      -1.143   2.893  -1.514  1.00  0.00     0.174 C   
BRANCH   7   8
ATOM     8   C5  UNL     1      -0.643   2.675  -2.895  1.00  0.00     0.029 A   
ATOM     9   C2  UNL     1       0.594   3.104  -3.459  1.00  0.00     0.063 A   
ATOM     10  N1  UNL     1       0.721   2.721  -4.736  1.00  0.00    -0.185 NA  
ATOM     11  N2  UNL     1      -0.434   2.081  -5.015  1.00  0.00    -0.217 N   
ATOM     12  C4  UNL     1      -1.258   2.017  -3.933  1.00  0.00     0.123 A   
ATOM     13  C1  UNL     1       1.695   3.865  -2.813  1.00  0.00     0.069 C   
ATOM     14  C3  UNL     1      -0.650   1.605  -6.360  1.00  0.00     0.161 C   
ATOM     15  CL1 UNL     1      -2.765   1.229  -4.005  1.00  0.00    -0.065 Cl  
ENDBRANCH   7   8
ENDBRANCH   1   7
BRANCH   3  16
ATOM     16  C9  UNL     1      -0.004  -1.124   1.318  1.00  0.00     0.117 C   
BRANCH  16  17
ATOM     17  N4  UNL     1       1.438  -1.589   1.211  1.00  0.00     0.249 N   
ATOM     18  H11 UNL     1       1.778  -1.929   2.115  1.00  0.00     0.199 HD  
ATOM     19  H12 UNL     1       1.992  -0.740   1.014  1.00  0.00     0.199 HD  
BRANCH  17  20
ATOM     20  C10 UNL     1       1.740  -2.605   0.165  1.00  0.00     0.164 C   
BRANCH  20  21
ATOM     21  C11 UNL     1       1.276  -2.245  -1.219  1.00  0.00    -0.002 A   
ATOM     22  C12 UNL     1       1.868  -1.174  -1.931  1.00  0.00     0.012 A   
ATOM     23  C16 UNL     1       0.226  -2.967  -1.813  1.00  0.00     0.045 A   
ATOM     24  C13 UNL     1       1.419  -0.823  -3.210  1.00  0.00     0.037 A   
ATOM     25  C15 UNL     1      -0.193  -2.596  -3.073  1.00  0.00     0.109 A   
ATOM     26  C14 UNL     1       0.387  -1.555  -3.754  1.00  0.00     0.108 A   
ATOM     27  O1  UNL     1      -1.195  -3.186  -3.776  1.00  0.00    -0.316 OA  
ATOM     28  O2  UNL     1      -0.175  -1.362  -4.976  1.00  0.00    -0.316 OA  
ATOM     29  C17 UNL     1      -1.148  -2.427  -5.004  1.00  0.00     0.337 C   
ENDBRANCH  20  21
ENDBRANCH  17  20
ENDBRANCH  16  17
BRANCH  16  30
ATOM     30  C18 UNL     1      -0.402  -1.117   2.805  1.00  0.00     0.043 C   
ATOM     31  C19 UNL     1       0.351  -0.151   3.723  1.00  0.00     0.010 C   
ATOM     32  C22 UNL     1      -1.860  -0.737   3.071  1.00  0.00     0.010 C   
ATOM     33  C20 UNL     1      -0.495  -0.108   4.994  1.00  0.00     0.001 C   
ATOM     34  C21 UNL     1      -1.908  -0.520   4.581  1.00  0.00     0.001 C   
ENDBRANCH  16  30
ENDBRANCH   3  16
TORSDOF 7
