REMARK SMILES Cc1ccc2c(c1)C[C@@H](Cn1cc([C@@H]([NH2+]Cc3ccc4c(c3)OCO4)C(C)C)nn1)O2
REMARK SMILES IDX 11 1 12 2 13 3 29 4 30 5 10 7 9 8 2 9 3 10 7 11 4 12 6 13
REMARK SMILES IDX 5 14 8 15 31 16 1 17 14 18 15 19 16 22 17 23 18 24 22 25
REMARK SMILES IDX 19 26 21 27 20 28 23 29 25 30 24 31 26 32 27 33 28 34
REMARK H PARENT 12 6 15 20 15 21
ROOT
ATOM     1   N1  UNL     1      -2.181  -2.967  -0.252  1.00  0.00    -0.210 N   
ATOM     2   C11 UNL     1      -2.525  -1.948   0.592  1.00  0.00     0.045 A   
ATOM     3   C12 UNL     1      -1.504  -1.038   0.443  1.00  0.00     0.127 A   
ATOM     4   N3  UNL     1      -0.551  -1.564  -0.394  1.00  0.00    -0.132 NA  
ATOM     5   N4  UNL     1      -0.966  -2.755  -0.791  1.00  0.00    -0.076 NA  
ATOM     6   H12 UNL     1      -3.458  -1.941   1.139  1.00  0.00     0.083 HD  
ENDROOT
BRANCH   1   7
ATOM     7   C10 UNL     1      -2.943  -4.151  -0.588  1.00  0.00     0.166 C   
BRANCH   7   8
ATOM     8   C9  UNL     1      -4.042  -3.916  -1.633  1.00  0.00     0.149 C   
ATOM     9   C2  UNL     1      -4.595   0.353  -3.329  1.00  0.00    -0.051 A   
ATOM     10  C3  UNL     1      -5.499   0.379  -2.246  1.00  0.00     0.006 A   
ATOM     11  C7  UNL     1      -3.905  -0.831  -3.631  1.00  0.00     0.010 A   
ATOM     12  C4  UNL     1      -5.699  -0.753  -1.452  1.00  0.00     0.034 A   
ATOM     13  C6  UNL     1      -4.111  -1.941  -2.830  1.00  0.00    -0.015 A   
ATOM     14  C5  UNL     1      -4.991  -1.894  -1.764  1.00  0.00     0.079 A   
ATOM     15  C8  UNL     1      -3.559  -3.308  -2.962  1.00  0.00     0.072 C   
ATOM     16  O3  UNL     1      -5.080  -3.068  -1.063  1.00  0.00    -0.341 OA  
ATOM     17  C1  UNL     1      -4.439   1.563  -4.205  1.00  0.00     0.044 C   
ENDBRANCH   7   8
ENDBRANCH   1   7
BRANCH   3  18
ATOM     18  C13 UNL     1      -1.311   0.328   1.020  1.00  0.00     0.117 C   
BRANCH  18  19
ATOM     19  N2  UNL     1       0.146   0.704   0.993  1.00  0.00     0.249 N   
ATOM     20  H14 UNL     1       0.287   1.717   1.035  1.00  0.00     0.199 HD  
ATOM     21  H15 UNL     1       0.506   0.400   0.075  1.00  0.00     0.199 HD  
BRANCH  19  22
ATOM     22  C14 UNL     1       0.990   0.049   2.030  1.00  0.00     0.164 C   
BRANCH  22  23
ATOM     23  C15 UNL     1       2.437   0.394   1.818  1.00  0.00    -0.002 A   
ATOM     24  C16 UNL     1       3.225  -0.379   0.930  1.00  0.00     0.012 A   
ATOM     25  C20 UNL     1       2.999   1.516   2.448  1.00  0.00     0.045 A   
ATOM     26  C17 UNL     1       4.561  -0.045   0.681  1.00  0.00     0.037 A   
ATOM     27  C19 UNL     1       4.319   1.816   2.181  1.00  0.00     0.109 A   
ATOM     28  C18 UNL     1       5.078   1.059   1.322  1.00  0.00     0.108 A   
ATOM     29  O1  UNL     1       5.013   2.861   2.704  1.00  0.00    -0.316 OA  
ATOM     30  O2  UNL     1       6.345   1.531   1.196  1.00  0.00    -0.316 OA  
ATOM     31  C21 UNL     1       6.309   2.660   2.095  1.00  0.00     0.337 C   
ENDBRANCH  22  23
ENDBRANCH  19  22
ENDBRANCH  18  19
BRANCH  18  32
ATOM     32  C22 UNL     1      -2.156   1.397   0.277  1.00  0.00     0.037 C   
ATOM     33  C23 UNL     1      -2.216   2.715   1.057  1.00  0.00     0.014 C   
ATOM     34  C24 UNL     1      -1.691   1.667  -1.159  1.00  0.00     0.014 C   
ENDBRANCH  18  32
ENDBRANCH   3  18
TORSDOF 7
