REMARK SMILES Cc1ccc2c(c1)C[C@H](Cn1cc([C@@H]([NH2+]Cc3ccc4c(c3)OCO4)C(C)C)nn1)O2
REMARK SMILES IDX 11 1 12 2 13 3 29 4 30 5 10 7 9 8 2 9 3 10 7 11 4 12 6 13
REMARK SMILES IDX 5 14 8 15 31 16 1 17 14 18 15 19 16 22 17 23 18 24 22 25
REMARK SMILES IDX 19 26 21 27 20 28 23 29 25 30 24 31 26 32 27 33 28 34
REMARK H PARENT 12 6 15 20 15 21
ROOT
ATOM     1   N1  UNL     1       1.080   0.876  -0.290  1.00  0.00    -0.210 N   
ATOM     2   C11 UNL     1       0.102   0.033   0.155  1.00  0.00     0.045 A   
ATOM     3   C12 UNL     1       0.171  -1.036  -0.710  1.00  0.00     0.127 A   
ATOM     4   N3  UNL     1       1.153  -0.800  -1.641  1.00  0.00    -0.132 NA  
ATOM     5   N4  UNL     1       1.697   0.376  -1.377  1.00  0.00    -0.076 NA  
ATOM     6   H12 UNL     1      -0.514   0.261   1.013  1.00  0.00     0.083 HD  
ENDROOT
BRANCH   1   7
ATOM     7   C10 UNL     1       1.478   2.158   0.257  1.00  0.00     0.166 C   
BRANCH   7   8
ATOM     8   C9  UNL     1       2.613   2.002   1.261  1.00  0.00     0.149 C   
ATOM     9   C2  UNL     1       4.304   3.372   5.319  1.00  0.00    -0.051 A   
ATOM     10  C3  UNL     1       3.584   2.221   5.706  1.00  0.00     0.006 A   
ATOM     11  C7  UNL     1       4.239   3.820   3.991  1.00  0.00     0.010 A   
ATOM     12  C4  UNL     1       2.825   1.502   4.779  1.00  0.00     0.034 A   
ATOM     13  C6  UNL     1       3.491   3.089   3.084  1.00  0.00    -0.015 A   
ATOM     14  C5  UNL     1       2.803   1.954   3.477  1.00  0.00     0.079 A   
ATOM     15  C8  UNL     1       3.215   3.360   1.656  1.00  0.00     0.072 C   
ATOM     16  O3  UNL     1       2.098   1.359   2.464  1.00  0.00    -0.341 OA  
ATOM     17  C1  UNL     1       5.085   4.143   6.345  1.00  0.00     0.044 C   
ENDBRANCH   7   8
ENDBRANCH   1   7
BRANCH   3  18
ATOM     18  C13 UNL     1      -0.634  -2.292  -0.801  1.00  0.00     0.117 C   
BRANCH  18  19
ATOM     19  N2  UNL     1      -0.720  -2.734  -2.247  1.00  0.00     0.249 N   
ATOM     20  H14 UNL     1       0.105  -2.320  -2.711  1.00  0.00     0.199 HD  
ATOM     21  H15 UNL     1      -0.606  -3.747  -2.333  1.00  0.00     0.199 HD  
BRANCH  19  22
ATOM     22  C14 UNL     1      -1.938  -2.316  -2.999  1.00  0.00     0.164 C   
BRANCH  22  23
ATOM     23  C15 UNL     1      -2.143  -0.829  -3.068  1.00  0.00    -0.002 A   
ATOM     24  C16 UNL     1      -1.282  -0.019  -3.848  1.00  0.00     0.012 A   
ATOM     25  C20 UNL     1      -3.176  -0.224  -2.332  1.00  0.00     0.045 A   
ATOM     26  C17 UNL     1      -1.434   1.372  -3.881  1.00  0.00     0.037 A   
ATOM     27  C19 UNL     1      -3.300   1.149  -2.390  1.00  0.00     0.109 A   
ATOM     28  C18 UNL     1      -2.452   1.926  -3.140  1.00  0.00     0.108 A   
ATOM     29  O1  UNL     1      -4.236   1.886  -1.735  1.00  0.00    -0.316 OA  
ATOM     30  O2  UNL     1      -2.744   3.250  -3.049  1.00  0.00    -0.316 OA  
ATOM     31  C21 UNL     1      -3.909   3.217  -2.197  1.00  0.00     0.337 C   
ENDBRANCH  22  23
ENDBRANCH  19  22
ENDBRANCH  18  19
BRANCH  18  32
ATOM     32  C22 UNL     1      -0.055  -3.428   0.084  1.00  0.00     0.037 C   
ATOM     33  C23 UNL     1       1.322  -3.934  -0.362  1.00  0.00     0.014 C   
ATOM     34  C24 UNL     1      -1.031  -4.606   0.194  1.00  0.00     0.014 C   
ENDBRANCH  18  32
ENDBRANCH   3  18
TORSDOF 7
