REMARK SMILES CC(C)[C@H]([NH2+]Cc1ccc2c(c1)OCO2)c1cn(C[C@H](O)c2cccs2)nn1
REMARK SMILES IDX 16 1 17 2 18 3 27 4 28 5 4 7 2 8 1 9 3 10 5 11 6 14 7 15
REMARK SMILES IDX 8 16 12 17 9 18 11 19 10 20 13 21 15 22 14 23 19 24 20 25
REMARK SMILES IDX 21 26 22 28 23 29 26 30 24 31 25 32
REMARK H PARENT 17 6 5 12 5 13 21 27
ROOT
ATOM     1   C13 UNL     1       0.152  -1.378  -2.127  1.00  0.00     0.127 A   
ATOM     2   C14 UNL     1       0.695  -2.639  -2.223  1.00  0.00     0.045 A   
ATOM     3   N2  UNL     1       1.989  -2.472  -1.814  1.00  0.00    -0.209 N   
ATOM     4   N3  UNL     1       2.242  -1.181  -1.529  1.00  0.00    -0.076 NA  
ATOM     5   N4  UNL     1       1.122  -0.502  -1.706  1.00  0.00    -0.132 NA  
ATOM     6   H18 UNL     1       0.296  -3.608  -2.492  1.00  0.00     0.083 HD  
ENDROOT
BRANCH   1   7
ATOM     7   C4  UNL     1      -1.243  -0.880  -2.315  1.00  0.00     0.117 C   
BRANCH   7   8
ATOM     8   C2  UNL     1      -1.565  -0.404  -3.754  1.00  0.00     0.037 C   
ATOM     9   C1  UNL     1      -0.665   0.731  -4.259  1.00  0.00     0.014 C   
ATOM     10  C3  UNL     1      -1.539  -1.569  -4.750  1.00  0.00     0.014 C   
ENDBRANCH   7   8
BRANCH   7  11
ATOM     11  N1  UNL     1      -1.488   0.265  -1.362  1.00  0.00     0.249 N   
ATOM     12  H9  UNL     1      -2.233   0.887  -1.691  1.00  0.00     0.199 HD  
ATOM     13  H10 UNL     1      -0.621   0.827  -1.360  1.00  0.00     0.199 HD  
BRANCH  11  14
ATOM     14  C5  UNL     1      -1.748  -0.134   0.047  1.00  0.00     0.164 C   
BRANCH  14  15
ATOM     15  C6  UNL     1      -1.691   1.061   0.955  1.00  0.00    -0.002 A   
ATOM     16  C7  UNL     1      -0.513   1.335   1.689  1.00  0.00     0.012 A   
ATOM     17  C11 UNL     1      -2.781   1.942   1.040  1.00  0.00     0.045 A   
ATOM     18  C8  UNL     1      -0.423   2.466   2.507  1.00  0.00     0.037 A   
ATOM     19  C10 UNL     1      -2.657   3.050   1.851  1.00  0.00     0.109 A   
ATOM     20  C9  UNL     1      -1.512   3.305   2.565  1.00  0.00     0.108 A   
ATOM     21  O1  UNL     1      -3.609   4.002   2.038  1.00  0.00    -0.316 OA  
ATOM     22  O2  UNL     1      -1.601   4.447   3.296  1.00  0.00    -0.316 OA  
ATOM     23  C12 UNL     1      -2.943   4.874   2.980  1.00  0.00     0.337 C   
ENDBRANCH  14  15
ENDBRANCH  11  14
ENDBRANCH   7  11
ENDBRANCH   1   7
BRANCH   3  24
ATOM     24  C15 UNL     1       3.026  -3.472  -1.676  1.00  0.00     0.171 C   
BRANCH  24  25
ATOM     25  C16 UNL     1       2.836  -4.404  -0.478  1.00  0.00     0.170 C   
BRANCH  25  26
ATOM     26  O3  UNL     1       1.717  -5.266  -0.690  1.00  0.00    -0.386 OA  
ATOM     27  H22 UNL     1       1.615  -5.792   0.124  1.00  0.00     0.211 HD  
ENDBRANCH  25  26
BRANCH  25  28
ATOM     28  C17 UNL     1       2.684  -3.690   0.843  1.00  0.00     0.019 A   
ATOM     29  C18 UNL     1       3.698  -3.175   1.632  1.00  0.00     0.014 A   
ATOM     30  S1  UNL     1       1.148  -3.418   1.567  1.00  0.00    -0.100 S   
ATOM     31  C19 UNL     1       3.212  -2.578   2.831  1.00  0.00     0.008 A   
ATOM     32  C20 UNL     1       1.842  -2.655   2.926  1.00  0.00     0.046 A   
ENDBRANCH  25  28
ENDBRANCH  24  25
ENDBRANCH   3  24
TORSDOF 9
