REMARK SMILES CC(C)[C@H]([NH2+]Cc1ccc2c(c1)OCO2)c1cn(C[C@@H](O)c2cccs2)nn1
REMARK SMILES IDX 16 1 17 2 18 3 27 4 28 5 4 7 2 8 1 9 3 10 5 11 6 14 7 15
REMARK SMILES IDX 8 16 12 17 9 18 11 19 10 20 13 21 15 22 14 23 19 24 20 25
REMARK SMILES IDX 21 26 22 28 23 29 26 30 24 31 25 32
REMARK H PARENT 17 6 5 12 5 13 21 27
ROOT
ATOM     1   C13 UNL     1      -0.845   0.135   0.541  1.00  0.00     0.127 A   
ATOM     2   C14 UNL     1      -1.518   1.178   1.136  1.00  0.00     0.045 A   
ATOM     3   N2  UNL     1      -2.801   1.039   0.687  1.00  0.00    -0.209 N   
ATOM     4   N3  UNL     1      -2.928  -0.058  -0.081  1.00  0.00    -0.076 NA  
ATOM     5   N4  UNL     1      -1.732  -0.612  -0.193  1.00  0.00    -0.132 NA  
ATOM     6   H18 UNL     1      -1.212   1.994   1.776  1.00  0.00     0.083 HD  
ENDROOT
BRANCH   1   7
ATOM     7   C4  UNL     1       0.596  -0.263   0.584  1.00  0.00     0.117 C   
BRANCH   7   8
ATOM     8   C2  UNL     1       1.474   0.632  -0.332  1.00  0.00     0.037 C   
ATOM     9   C1  UNL     1       1.205   0.442  -1.830  1.00  0.00     0.014 C   
ATOM     10  C3  UNL     1       2.968   0.442  -0.045  1.00  0.00     0.014 C   
ENDBRANCH   7   8
BRANCH   7  11
ATOM     11  N1  UNL     1       0.751  -1.715   0.199  1.00  0.00     0.249 N   
ATOM     12  H9  UNL     1       0.127  -1.860  -0.609  1.00  0.00     0.199 HD  
ATOM     13  H10 UNL     1       1.703  -1.916  -0.116  1.00  0.00     0.199 HD  
BRANCH  11  14
ATOM     14  C5  UNL     1       0.360  -2.713   1.238  1.00  0.00     0.164 C   
BRANCH  14  15
ATOM     15  C6  UNL     1       1.353  -2.788   2.365  1.00  0.00    -0.002 A   
ATOM     16  C7  UNL     1       2.613  -3.404   2.171  1.00  0.00     0.012 A   
ATOM     17  C11 UNL     1       1.048  -2.218   3.613  1.00  0.00     0.045 A   
ATOM     18  C8  UNL     1       3.559  -3.445   3.200  1.00  0.00     0.037 A   
ATOM     19  C10 UNL     1       2.003  -2.274   4.606  1.00  0.00     0.109 A   
ATOM     20  C9  UNL     1       3.224  -2.869   4.406  1.00  0.00     0.108 A   
ATOM     21  O1  UNL     1       1.872  -1.766   5.859  1.00  0.00    -0.316 OA  
ATOM     22  O2  UNL     1       4.015  -2.813   5.508  1.00  0.00    -0.316 OA  
ATOM     23  C12 UNL     1       3.142  -2.140   6.441  1.00  0.00     0.337 C   
ENDBRANCH  14  15
ENDBRANCH  11  14
ENDBRANCH   7  11
ENDBRANCH   1   7
BRANCH   3  24
ATOM     24  C15 UNL     1      -3.932   1.906   0.924  1.00  0.00     0.171 C   
BRANCH  24  25
ATOM     25  C16 UNL     1      -4.263   2.787  -0.281  1.00  0.00     0.170 C   
BRANCH  25  26
ATOM     26  O3  UNL     1      -5.457   3.519   0.009  1.00  0.00    -0.386 OA  
ATOM     27  H22 UNL     1      -5.660   4.055  -0.780  1.00  0.00     0.211 HD  
ENDBRANCH  25  26
BRANCH  25  28
ATOM     28  C17 UNL     1      -3.190   3.806  -0.562  1.00  0.00     0.019 A   
ATOM     29  C18 UNL     1      -2.913   4.982   0.111  1.00  0.00     0.014 A   
ATOM     30  S1  UNL     1      -2.102   3.567  -1.868  1.00  0.00    -0.100 S   
ATOM     31  C19 UNL     1      -1.809   5.684  -0.450  1.00  0.00     0.008 A   
ATOM     32  C20 UNL     1      -1.276   5.024  -1.534  1.00  0.00     0.046 A   
ENDBRANCH  25  28
ENDBRANCH  24  25
ENDBRANCH   3  24
TORSDOF 9
