REMARK SMILES COc1cc(Cn2cc([C@@H]([NH2+]Cc3ccc4c(c3)OCO4)C3CCCCC3)nn2)ccc1C
REMARK SMILES IDX 7 1 8 2 9 3 28 4 29 5 6 7 5 8 3 9 4 10 32 11 31 12 30 13
REMARK SMILES IDX 33 14 2 15 1 16 10 17 11 18 12 21 13 22 14 23 18 24 15 25
REMARK SMILES IDX 17 26 16 27 19 28 21 29 20 30 22 31 23 32 27 33 24 34 26 35
REMARK SMILES IDX 25 36
REMARK H PARENT 8 6 11 19 11 20
ROOT
ATOM     1   N1  UNL     1       0.397  -1.271   2.907  1.00  0.00    -0.208 N   
ATOM     2   C6  UNL     1       0.117  -1.284   1.567  1.00  0.00     0.046 A   
ATOM     3   C7  UNL     1       1.334  -1.042   0.971  1.00  0.00     0.127 A   
ATOM     4   N3  UNL     1       2.296  -0.920   1.942  1.00  0.00    -0.132 NA  
ATOM     5   N4  UNL     1       1.711  -1.060   3.120  1.00  0.00    -0.076 NA  
ATOM     6   H7  UNL     1      -0.885  -1.425   1.186  1.00  0.00     0.083 HD  
ENDROOT
BRANCH   1   7
ATOM     7   C5  UNL     1      -0.527  -1.412   4.020  1.00  0.00     0.169 C   
BRANCH   7   8
ATOM     8   C4  UNL     1      -1.366  -0.168   4.171  1.00  0.00    -0.026 A   
ATOM     9   C2  UNL     1      -3.415   1.069   3.716  1.00  0.00     0.078 A   
ATOM     10  C3  UNL     1      -2.659  -0.105   3.626  1.00  0.00     0.039 A   
ATOM     11  C25 UNL     1      -2.876   2.201   4.349  1.00  0.00    -0.021 A   
ATOM     12  C24 UNL     1      -1.589   2.135   4.899  1.00  0.00     0.006 A   
ATOM     13  C23 UNL     1      -0.841   0.962   4.813  1.00  0.00     0.006 A   
ATOM     14  C26 UNL     1      -3.663   3.480   4.441  1.00  0.00     0.047 C   
BRANCH   9  15
ATOM     15  O1  UNL     1      -4.665   1.217   3.175  1.00  0.00    -0.349 OA  
ATOM     16  C1  UNL     1      -5.445   0.034   3.039  1.00  0.00     0.203 C   
ENDBRANCH   9  15
ENDBRANCH   7   8
ENDBRANCH   1   7
BRANCH   3  17
ATOM     17  C8  UNL     1       1.705  -0.852  -0.464  1.00  0.00     0.117 C   
BRANCH  17  18
ATOM     18  N2  UNL     1       2.894   0.071  -0.579  1.00  0.00     0.249 N   
ATOM     19  H9  UNL     1       3.575  -0.252   0.124  1.00  0.00     0.199 HD  
ATOM     20  H10 UNL     1       3.341  -0.013  -1.495  1.00  0.00     0.199 HD  
BRANCH  18  21
ATOM     21  C9  UNL     1       2.634   1.516  -0.296  1.00  0.00     0.164 C   
BRANCH  21  22
ATOM     22  C10 UNL     1       1.743   2.161  -1.322  1.00  0.00    -0.002 A   
ATOM     23  C11 UNL     1       0.419   2.533  -0.985  1.00  0.00     0.012 A   
ATOM     24  C15 UNL     1       2.208   2.373  -2.632  1.00  0.00     0.045 A   
ATOM     25  C12 UNL     1      -0.434   3.099  -1.938  1.00  0.00     0.037 A   
ATOM     26  C14 UNL     1       1.341   2.934  -3.546  1.00  0.00     0.109 A   
ATOM     27  C13 UNL     1       0.057   3.285  -3.211  1.00  0.00     0.108 A   
ATOM     28  O2  UNL     1       1.631   3.200  -4.847  1.00  0.00    -0.316 OA  
ATOM     29  O3  UNL     1      -0.626   3.816  -4.258  1.00  0.00    -0.316 OA  
ATOM     30  C16 UNL     1       0.388   3.794  -5.287  1.00  0.00     0.337 C   
ENDBRANCH  21  22
ENDBRANCH  18  21
ENDBRANCH  17  18
BRANCH  17  31
ATOM     31  C17 UNL     1       1.990  -2.200  -1.180  1.00  0.00     0.043 C   
ATOM     32  C18 UNL     1       3.271  -2.911  -0.701  1.00  0.00     0.010 C   
ATOM     33  C22 UNL     1       2.016  -2.032  -2.713  1.00  0.00     0.010 C   
ATOM     34  C19 UNL     1       3.473  -4.246  -1.418  1.00  0.00     0.001 C   
ATOM     35  C21 UNL     1       2.223  -3.369  -3.424  1.00  0.00     0.001 C   
ATOM     36  C20 UNL     1       3.482  -4.076  -2.934  1.00  0.00     0.000 C   
ENDBRANCH  17  31
ENDBRANCH   3  17
TORSDOF 8
