REMARK SMILES Oc1ccc(Cn2cc([C@@H]([NH2+]Cc3ccc4c(c3)OCO4)C3CCCCC3)nn2)c(O)c1
REMARK SMILES IDX 7 1 8 2 9 3 28 4 29 5 6 7 5 8 2 9 3 10 32 11 4 12 30 13 1 14
REMARK SMILES IDX 31 16 10 18 11 19 12 22 13 23 14 24 18 25 15 26 17 27 16 28
REMARK SMILES IDX 19 29 21 30 20 31 22 32 23 33 27 34 24 35 26 36 25 37
REMARK H PARENT 8 6 1 15 31 17 11 20 11 21
ROOT
ATOM     1   N1  UNL     1      -3.284  -0.955  -0.808  1.00  0.00    -0.208 N   
ATOM     2   C6  UNL     1      -1.958  -1.255  -0.968  1.00  0.00     0.046 A   
ATOM     3   C7  UNL     1      -1.467  -1.286   0.317  1.00  0.00     0.127 A   
ATOM     4   N3  UNL     1      -2.487  -1.030   1.197  1.00  0.00    -0.132 NA  
ATOM     5   N4  UNL     1      -3.591  -0.825   0.498  1.00  0.00    -0.076 NA  
ATOM     6   H6  UNL     1      -1.513  -1.388  -1.945  1.00  0.00     0.083 HD  
ENDROOT
BRANCH   1   7
ATOM     7   C5  UNL     1      -4.295  -0.767  -1.834  1.00  0.00     0.172 C   
BRANCH   7   8
ATOM     8   C4  UNL     1      -4.179   0.603  -2.453  1.00  0.00     0.002 A   
ATOM     9   C1  UNL     1      -3.954   3.162  -3.560  1.00  0.00     0.074 A   
ATOM     10  C2  UNL     1      -4.663   2.983  -2.379  1.00  0.00     0.034 A   
ATOM     11  C24 UNL     1      -3.348   2.086  -4.201  1.00  0.00     0.066 A   
ATOM     12  C3  UNL     1      -4.778   1.707  -1.826  1.00  0.00     0.011 A   
ATOM     13  C23 UNL     1      -3.461   0.814  -3.637  1.00  0.00     0.079 A   
BRANCH   9  14
ATOM     14  O1  UNL     1      -3.871   4.428  -4.057  1.00  0.00    -0.361 OA  
ATOM     15  H1  UNL     1      -3.449   4.410  -4.932  1.00  0.00     0.218 HD  
ENDBRANCH   9  14
BRANCH  13  16
ATOM     16  O4  UNL     1      -2.855  -0.257  -4.233  1.00  0.00    -0.361 OA  
ATOM     17  H28 UNL     1      -2.573   0.004  -5.129  1.00  0.00     0.218 HD  
ENDBRANCH  13  16
ENDBRANCH   7   8
ENDBRANCH   1   7
BRANCH   3  18
ATOM     18  C8  UNL     1      -0.080  -1.489   0.835  1.00  0.00     0.117 C   
BRANCH  18  19
ATOM     19  N2  UNL     1       0.100  -0.757   2.144  1.00  0.00     0.249 N   
ATOM     20  H8  UNL     1       0.920  -1.100   2.649  1.00  0.00     0.199 HD  
ATOM     21  H9  UNL     1      -0.727  -0.984   2.713  1.00  0.00     0.199 HD  
BRANCH  19  22
ATOM     22  C9  UNL     1       0.168   0.734   2.057  1.00  0.00     0.164 C   
BRANCH  22  23
ATOM     23  C10 UNL     1       1.400   1.222   1.347  1.00  0.00    -0.002 A   
ATOM     24  C11 UNL     1       1.295   1.817   0.067  1.00  0.00     0.012 A   
ATOM     25  C15 UNL     1       2.667   1.065   1.935  1.00  0.00     0.045 A   
ATOM     26  C12 UNL     1       2.434   2.242  -0.625  1.00  0.00     0.037 A   
ATOM     27  C14 UNL     1       3.770   1.493   1.225  1.00  0.00     0.109 A   
ATOM     28  C13 UNL     1       3.658   2.063  -0.019  1.00  0.00     0.108 A   
ATOM     29  O2  UNL     1       5.060   1.407   1.643  1.00  0.00    -0.316 OA  
ATOM     30  O3  UNL     1       4.863   2.409  -0.541  1.00  0.00    -0.316 OA  
ATOM     31  C16 UNL     1       5.750   2.018   0.529  1.00  0.00     0.337 C   
ENDBRANCH  22  23
ENDBRANCH  19  22
ENDBRANCH  18  19
BRANCH  18  32
ATOM     32  C17 UNL     1       0.271  -2.993   1.001  1.00  0.00     0.043 C   
ATOM     33  C18 UNL     1      -0.502  -3.699   2.132  1.00  0.00     0.010 C   
ATOM     34  C22 UNL     1       1.788  -3.204   1.181  1.00  0.00     0.010 C   
ATOM     35  C19 UNL     1      -0.140  -5.182   2.219  1.00  0.00     0.001 C   
ATOM     36  C21 UNL     1       2.143  -4.687   1.269  1.00  0.00     0.001 C   
ATOM     37  C20 UNL     1       1.363  -5.387   2.377  1.00  0.00     0.000 C   
ENDBRANCH  18  32
ENDBRANCH   3  18
TORSDOF 9
