REMARK SMILES c1cc2c(cc1C[NH2+][C@H](c1cn(Cc3csc(C4CC4)n3)nn1)C1CCCCC1)OCO2
REMARK SMILES IDX 10 1 11 2 12 3 22 4 23 5 9 7 8 8 7 11 6 12 1 13 2 14 3 15
REMARK SMILES IDX 5 16 4 17 32 18 30 19 31 20 24 21 25 22 29 23 26 24 28 25
REMARK SMILES IDX 27 26 13 27 14 28 15 29 21 30 16 31 17 32 18 33 19 34 20 35
REMARK H PARENT 11 6 8 9 8 10
ROOT
ATOM     1   C9  UNL     1      -0.762  -1.379  -0.578  1.00  0.00     0.127 A   
ATOM     2   C10 UNL     1      -0.178  -1.054  -1.781  1.00  0.00     0.046 A   
ATOM     3   N2  UNL     1      -1.068  -1.509  -2.717  1.00  0.00    -0.206 N   
ATOM     4   N4  UNL     1      -2.135  -2.082  -2.125  1.00  0.00    -0.076 NA  
ATOM     5   N5  UNL     1      -1.958  -2.012  -0.815  1.00  0.00    -0.132 NA  
ATOM     6   H9  UNL     1       0.730  -0.537  -2.058  1.00  0.00     0.083 HD  
ENDROOT
BRANCH   1   7
ATOM     7   C8  UNL     1      -0.346  -1.098   0.830  1.00  0.00     0.117 C   
BRANCH   7   8
ATOM     8   N1  UNL     1      -1.575  -0.920   1.700  1.00  0.00     0.249 N   
ATOM     9   H6  UNL     1      -2.197  -1.710   1.479  1.00  0.00     0.199 HD  
ATOM     10  H7  UNL     1      -1.327  -0.990   2.690  1.00  0.00     0.199 HD  
BRANCH   8  11
ATOM     11  C7  UNL     1      -2.364   0.328   1.476  1.00  0.00     0.164 C   
BRANCH  11  12
ATOM     12  C6  UNL     1      -1.677   1.554   2.009  1.00  0.00    -0.002 A   
ATOM     13  C1  UNL     1      -1.641   1.804   3.402  1.00  0.00     0.012 A   
ATOM     14  C2  UNL     1      -0.981   2.928   3.912  1.00  0.00     0.037 A   
ATOM     15  C3  UNL     1      -0.364   3.775   3.017  1.00  0.00     0.108 A   
ATOM     16  C5  UNL     1      -1.042   2.448   1.129  1.00  0.00     0.045 A   
ATOM     17  C4  UNL     1      -0.393   3.540   1.666  1.00  0.00     0.109 A   
ATOM     18  O2  UNL     1       0.322   4.903   3.334  1.00  0.00    -0.316 OA  
ATOM     19  O1  UNL     1       0.284   4.484   0.961  1.00  0.00    -0.316 OA  
ATOM     20  C24 UNL     1       0.744   5.346   2.028  1.00  0.00     0.337 C   
ENDBRANCH  11  12
ENDBRANCH   8  11
ENDBRANCH   7   8
BRANCH   7  21
ATOM     21  C18 UNL     1       0.545  -2.200   1.466  1.00  0.00     0.043 C   
ATOM     22  C19 UNL     1       1.923  -2.284   0.778  1.00  0.00     0.010 C   
ATOM     23  C23 UNL     1      -0.109  -3.597   1.513  1.00  0.00     0.010 C   
ATOM     24  C20 UNL     1       2.832  -3.311   1.453  1.00  0.00     0.001 C   
ATOM     25  C22 UNL     1       0.805  -4.625   2.183  1.00  0.00     0.001 C   
ATOM     26  C21 UNL     1       2.175  -4.688   1.513  1.00  0.00     0.000 C   
ENDBRANCH   7  21
ENDBRANCH   1   7
BRANCH   3  27
ATOM     27  C11 UNL     1      -0.967  -1.431  -4.164  1.00  0.00     0.190 C   
BRANCH  27  28
ATOM     28  C12 UNL     1      -1.273  -0.044  -4.615  1.00  0.00     0.067 A   
ATOM     29  C13 UNL     1      -2.500   0.441  -5.039  1.00  0.00     0.073 A   
ATOM     30  N3  UNL     1      -0.245   0.894  -4.625  1.00  0.00    -0.248 NA  
ATOM     31  S1  UNL     1      -2.358   2.089  -5.482  1.00  0.00    -0.080 S   
ATOM     32  C14 UNL     1      -0.688   2.045  -5.086  1.00  0.00     0.081 A   
BRANCH  32  33
ATOM     33  C15 UNL     1       0.304   3.257  -5.234  1.00  0.00     0.045 C   
ATOM     34  C16 UNL     1       0.254   4.136  -6.455  1.00  0.00     0.011 C   
ATOM     35  C17 UNL     1      -0.172   4.686  -5.115  1.00  0.00     0.011 C   
ENDBRANCH  32  33
ENDBRANCH  27  28
ENDBRANCH   3  27
TORSDOF 8
