REMARK SMILES CC(C)[C@H]([NH2+]Cc1ccc2c(c1)OCO2)c1cn(CCc2cn3c(n2)CCCC3)nn1
REMARK SMILES IDX 16 1 17 2 18 3 30 4 31 5 4 7 2 8 1 9 3 10 5 11 6 14 7 15
REMARK SMILES IDX 8 16 12 17 9 18 11 19 10 20 13 21 15 22 14 23 19 24 20 25
REMARK SMILES IDX 21 26 22 27 25 28 23 29 24 30 29 31 26 32 28 33 27 34
REMARK H PARENT 17 6 5 12 5 13
ROOT
ATOM     1   C13 UNL     1      -2.013  -0.900  -0.325  1.00  0.00     0.127 A   
ATOM     2   C14 UNL     1      -1.236  -1.997  -0.612  1.00  0.00     0.045 A   
ATOM     3   N2  UNL     1      -1.799  -2.509  -1.746  1.00  0.00    -0.212 N   
ATOM     4   N5  UNL     1      -2.889  -1.803  -2.106  1.00  0.00    -0.076 NA  
ATOM     5   N6  UNL     1      -3.026  -0.808  -1.246  1.00  0.00    -0.132 NA  
ATOM     6   H18 UNL     1      -0.336  -2.412  -0.180  1.00  0.00     0.083 HD  
ENDROOT
BRANCH   1   7
ATOM     7   C4  UNL     1      -1.849   0.172   0.699  1.00  0.00     0.117 C   
BRANCH   7   8
ATOM     8   C2  UNL     1      -2.674  -0.098   1.984  1.00  0.00     0.037 C   
ATOM     9   C1  UNL     1      -2.247   0.829   3.131  1.00  0.00     0.014 C   
ATOM     10  C3  UNL     1      -4.192  -0.008   1.793  1.00  0.00     0.014 C   
ENDBRANCH   7   8
BRANCH   7  11
ATOM     11  N1  UNL     1      -2.225   1.508   0.100  1.00  0.00     0.249 N   
ATOM     12  H9  UNL     1      -2.351   2.213   0.828  1.00  0.00     0.199 HD  
ATOM     13  H10 UNL     1      -3.136   1.364  -0.357  1.00  0.00     0.199 HD  
BRANCH  11  14
ATOM     14  C5  UNL     1      -1.296   2.035  -0.946  1.00  0.00     0.164 C   
BRANCH  14  15
ATOM     15  C6  UNL     1       0.021   2.487  -0.379  1.00  0.00    -0.002 A   
ATOM     16  C7  UNL     1       0.111   3.705   0.336  1.00  0.00     0.012 A   
ATOM     17  C11 UNL     1       1.167   1.684  -0.528  1.00  0.00     0.045 A   
ATOM     18  C8  UNL     1       1.322   4.119   0.900  1.00  0.00     0.037 A   
ATOM     19  C10 UNL     1       2.345   2.122   0.043  1.00  0.00     0.109 A   
ATOM     20  C9  UNL     1       2.420   3.304   0.738  1.00  0.00     0.108 A   
ATOM     21  O1  UNL     1       3.536   1.470  -0.000  1.00  0.00    -0.316 OA  
ATOM     22  O2  UNL     1       3.667   3.545   1.218  1.00  0.00    -0.316 OA  
ATOM     23  C12 UNL     1       4.378   2.386   0.735  1.00  0.00     0.337 C   
ENDBRANCH  14  15
ENDBRANCH  11  14
ENDBRANCH   7  11
ENDBRANCH   1   7
BRANCH   3  24
ATOM     24  C15 UNL     1      -1.361  -3.642  -2.534  1.00  0.00     0.140 C   
BRANCH  24  25
ATOM     25  C16 UNL     1      -0.750  -3.234  -3.870  1.00  0.00     0.079 C   
BRANCH  25  26
ATOM     26  C17 UNL     1       0.597  -2.601  -3.769  1.00  0.00     0.058 A   
ATOM     27  C18 UNL     1       1.409  -2.177  -4.802  1.00  0.00     0.100 A   
ATOM     28  N4  UNL     1       1.220  -2.388  -2.557  1.00  0.00    -0.241 NA  
ATOM     29  N3  UNL     1       2.550  -1.739  -4.201  1.00  0.00    -0.294 N   
ATOM     30  C19 UNL     1       2.406  -1.892  -2.845  1.00  0.00     0.100 A   
ATOM     31  C23 UNL     1       3.716  -1.176  -4.851  1.00  0.00     0.112 C   
ATOM     32  C20 UNL     1       3.513  -1.575  -1.897  1.00  0.00     0.073 C   
ATOM     33  C22 UNL     1       4.941  -1.165  -3.936  1.00  0.00     0.020 C   
ATOM     34  C21 UNL     1       4.567  -0.669  -2.537  1.00  0.00     0.009 C   
ENDBRANCH  25  26
ENDBRANCH  24  25
ENDBRANCH   3  24
TORSDOF 8
