REMARK SMILES CC(C)C[C@H]([NH2+]Cc1ccc2c(c1)OCO2)c1cn(CCc2cc(F)ccc2O)nn1
REMARK SMILES IDX 17 1 18 2 19 3 30 4 31 5 5 7 4 8 2 9 1 10 3 11 6 12 7 15
REMARK SMILES IDX 8 16 9 17 13 18 10 19 12 20 11 21 14 22 16 23 15 24 20 25
REMARK SMILES IDX 21 26 22 27 23 28 28 29 24 30 27 31 26 32 25 33 29 34
REMARK H PARENT 18 6 6 13 6 14 29 35
ROOT
ATOM     1   C14 UNL     1       1.749  -0.077  -1.357  1.00  0.00     0.127 A   
ATOM     2   C15 UNL     1       2.930   0.446  -0.882  1.00  0.00     0.045 A   
ATOM     3   N2  UNL     1       2.872   1.765  -1.241  1.00  0.00    -0.212 N   
ATOM     4   N3  UNL     1       1.738   2.031  -1.916  1.00  0.00    -0.076 NA  
ATOM     5   N4  UNL     1       1.040   0.910  -1.993  1.00  0.00    -0.132 NA  
ATOM     6   H20 UNL     1       3.753   0.039  -0.309  1.00  0.00     0.083 HD  
ENDROOT
BRANCH   1   7
ATOM     7   C5  UNL     1       1.140  -1.434  -1.213  1.00  0.00     0.114 C   
BRANCH   7   8
ATOM     8   C4  UNL     1       1.362  -2.272  -2.487  1.00  0.00     0.064 C   
BRANCH   8   9
ATOM     9   C2  UNL     1       0.836  -3.724  -2.457  1.00  0.00    -0.012 C   
ATOM     10  C1  UNL     1       1.171  -4.420  -3.780  1.00  0.00     0.007 C   
ATOM     11  C3  UNL     1       1.406  -4.532  -1.291  1.00  0.00     0.007 C   
ENDBRANCH   8   9
ENDBRANCH   7   8
BRANCH   7  12
ATOM     12  N1  UNL     1      -0.337  -1.299  -0.952  1.00  0.00     0.249 N   
ATOM     13  H11 UNL     1      -0.843  -2.173  -1.123  1.00  0.00     0.199 HD  
ATOM     14  H12 UNL     1      -0.697  -0.619  -1.640  1.00  0.00     0.199 HD  
BRANCH  12  15
ATOM     15  C6  UNL     1      -0.695  -0.790   0.402  1.00  0.00     0.164 C   
BRANCH  15  16
ATOM     16  C7  UNL     1      -2.184  -0.651   0.538  1.00  0.00    -0.002 A   
ATOM     17  C8  UNL     1      -2.976  -1.754   0.934  1.00  0.00     0.012 A   
ATOM     18  C12 UNL     1      -2.804   0.573   0.226  1.00  0.00     0.045 A   
ATOM     19  C9  UNL     1      -4.367  -1.639   1.034  1.00  0.00     0.037 A   
ATOM     20  C11 UNL     1      -4.176   0.653   0.337  1.00  0.00     0.109 A   
ATOM     21  C10 UNL     1      -4.936  -0.422   0.730  1.00  0.00     0.108 A   
ATOM     22  O1  UNL     1      -4.928   1.756   0.083  1.00  0.00    -0.316 OA  
ATOM     23  O2  UNL     1      -6.262  -0.129   0.775  1.00  0.00    -0.316 OA  
ATOM     24  C13 UNL     1      -6.250   1.266   0.399  1.00  0.00     0.337 C   
ENDBRANCH  15  16
ENDBRANCH  12  15
ENDBRANCH   7  12
ENDBRANCH   1   7
BRANCH   3  25
ATOM     25  C16 UNL     1       3.778   2.834  -0.871  1.00  0.00     0.139 C   
BRANCH  25  26
ATOM     26  C17 UNL     1       3.183   3.764   0.189  1.00  0.00     0.060 C   
BRANCH  26  27
ATOM     27  C18 UNL     1       2.860   3.044   1.480  1.00  0.00    -0.013 A   
ATOM     28  C19 UNL     1       1.545   2.627   1.736  1.00  0.00     0.045 A   
ATOM     29  C23 UNL     1       3.855   2.731   2.414  1.00  0.00     0.075 A   
ATOM     30  C20 UNL     1       1.256   1.907   2.890  1.00  0.00     0.123 A   
ATOM     31  C22 UNL     1       3.556   2.033   3.585  1.00  0.00     0.036 A   
ATOM     32  C21 UNL     1       2.246   1.613   3.820  1.00  0.00     0.042 A   
ATOM     33  F1  UNL     1       0.009   1.455   3.083  1.00  0.00    -0.207 F   
BRANCH  29  34
ATOM     34  O3  UNL     1       5.139   3.107   2.145  1.00  0.00    -0.361 OA  
ATOM     35  H28 UNL     1       5.671   3.027   2.957  1.00  0.00     0.218 HD  
ENDBRANCH  29  34
ENDBRANCH  26  27
ENDBRANCH  25  26
ENDBRANCH   3  25
TORSDOF 10
