REMARK SMILES CC(C)(C)[C@H]([NH2+]Cc1ccc2c(c1)OCO2)c1cn(CCc2csc(C3CC3)n2)nn1
REMARK SMILES IDX 17 1 18 2 19 3 30 4 31 5 5 7 2 8 1 9 3 10 4 11 6 12 7 15
REMARK SMILES IDX 8 16 9 17 13 18 10 19 12 20 11 21 14 22 16 23 15 24 20 25
REMARK SMILES IDX 21 26 22 27 23 28 29 29 24 30 25 31 26 32 27 33 28 34
REMARK H PARENT 18 6 6 13 6 14
ROOT
ATOM     1   C14 UNL     1       0.053  -1.241   1.798  1.00  0.00     0.127 A   
ATOM     2   C15 UNL     1       0.370  -2.324   1.010  1.00  0.00     0.045 A   
ATOM     3   N2  UNL     1      -0.845  -2.787   0.595  1.00  0.00    -0.212 N   
ATOM     4   N4  UNL     1      -1.849  -2.086   1.150  1.00  0.00    -0.076 NA  
ATOM     5   N5  UNL     1      -1.312  -1.126   1.883  1.00  0.00    -0.132 NA  
ATOM     6   H20 UNL     1       1.302  -2.734   0.647  1.00  0.00     0.083 HD  
ENDROOT
BRANCH   1   7
ATOM     7   C5  UNL     1       0.916  -0.163   2.372  1.00  0.00     0.120 C   
BRANCH   7   8
ATOM     8   C2  UNL     1       1.164  -0.277   3.914  1.00  0.00     0.010 C   
ATOM     9   C1  UNL     1      -0.121  -0.100   4.747  1.00  0.00     0.017 C   
ATOM     10  C3  UNL     1       1.774  -1.657   4.248  1.00  0.00     0.017 C   
ATOM     11  C4  UNL     1       2.185   0.792   4.370  1.00  0.00     0.017 C   
ENDBRANCH   7   8
BRANCH   7  12
ATOM     12  N1  UNL     1       0.290   1.167   2.024  1.00  0.00     0.250 N   
ATOM     13  H11 UNL     1       0.672   1.939   2.575  1.00  0.00     0.199 HD  
ATOM     14  H12 UNL     1      -0.709   1.096   2.272  1.00  0.00     0.199 HD  
BRANCH  12  15
ATOM     15  C6  UNL     1       0.347   1.525   0.577  1.00  0.00     0.164 C   
BRANCH  15  16
ATOM     16  C7  UNL     1      -0.342   2.837   0.333  1.00  0.00    -0.002 A   
ATOM     17  C8  UNL     1      -1.726   2.866   0.040  1.00  0.00     0.012 A   
ATOM     18  C12 UNL     1       0.369   4.044   0.444  1.00  0.00     0.045 A   
ATOM     19  C9  UNL     1      -2.394   4.079  -0.154  1.00  0.00     0.037 A   
ATOM     20  C11 UNL     1      -0.320   5.223   0.247  1.00  0.00     0.109 A   
ATOM     21  C10 UNL     1      -1.662   5.241  -0.044  1.00  0.00     0.108 A   
ATOM     22  O1  UNL     1       0.213   6.470   0.317  1.00  0.00    -0.316 OA  
ATOM     23  O2  UNL     1      -2.142   6.502  -0.196  1.00  0.00    -0.316 OA  
ATOM     24  C13 UNL     1      -0.946   7.281   0.015  1.00  0.00     0.337 C   
ENDBRANCH  15  16
ENDBRANCH  12  15
ENDBRANCH   7  12
ENDBRANCH   1   7
BRANCH   3  25
ATOM     25  C16 UNL     1      -1.124  -3.810  -0.390  1.00  0.00     0.140 C   
BRANCH  25  26
ATOM     26  C17 UNL     1      -1.385  -3.222  -1.773  1.00  0.00     0.078 C   
BRANCH  26  27
ATOM     27  C18 UNL     1      -0.146  -2.696  -2.431  1.00  0.00     0.050 A   
ATOM     28  C19 UNL     1       0.661  -3.391  -3.316  1.00  0.00     0.071 A   
ATOM     29  N3  UNL     1       0.268  -1.395  -2.164  1.00  0.00    -0.250 NA  
ATOM     30  S1  UNL     1       1.942  -2.391  -3.855  1.00  0.00    -0.080 S   
ATOM     31  C20 UNL     1       1.316  -1.114  -2.908  1.00  0.00     0.081 A   
BRANCH  31  32
ATOM     32  C21 UNL     1       1.969   0.307  -2.912  1.00  0.00     0.045 C   
ATOM     33  C22 UNL     1       1.087   1.530  -2.948  1.00  0.00     0.011 C   
ATOM     34  C23 UNL     1       1.873   1.141  -4.165  1.00  0.00     0.011 C   
ENDBRANCH  31  32
ENDBRANCH  26  27
ENDBRANCH  25  26
ENDBRANCH   3  25
TORSDOF 9
