REMARK SMILES c1cnn(-c2ccc(Cn3cc([C@@H]([NH2+]Cc4ccc5c(c4)OCO5)C4CCCC4)nn3)cc2)c1
REMARK SMILES IDX 10 1 11 2 12 3 30 4 31 5 9 7 8 8 5 9 6 10 33 11 7 12 32 13
REMARK SMILES IDX 4 14 1 15 2 16 34 17 3 18 13 19 14 20 15 23 16 24 17 25
REMARK SMILES IDX 21 26 18 27 20 28 19 29 22 30 24 31 23 32 25 33 26 34 29 35
REMARK SMILES IDX 27 36 28 37
REMARK H PARENT 11 6 14 21 14 22
ROOT
ATOM     1   N3  UNL     1       3.211  -0.819   0.468  1.00  0.00    -0.208 N   
ATOM     2   C8  UNL     1       2.461   0.291   0.194  1.00  0.00     0.046 A   
ATOM     3   C9  UNL     1       2.289   0.887   1.424  1.00  0.00     0.127 A   
ATOM     4   N5  UNL     1       2.974   0.172   2.371  1.00  0.00    -0.132 NA  
ATOM     5   N6  UNL     1       3.527  -0.873   1.777  1.00  0.00    -0.076 NA  
ATOM     6   H7  UNL     1       2.083   0.506  -0.796  1.00  0.00     0.083 HD  
ENDROOT
BRANCH   1   7
ATOM     7   C7  UNL     1       3.561  -1.905  -0.433  1.00  0.00     0.169 C   
BRANCH   7   8
ATOM     8   C6  UNL     1       2.389  -2.844  -0.591  1.00  0.00    -0.028 A   
ATOM     9   C3  UNL     1       0.123  -4.513  -0.782  1.00  0.00     0.056 A   
ATOM     10  C4  UNL     1       0.297  -3.442  -1.671  1.00  0.00     0.026 A   
ATOM     11  C25 UNL     1       1.097  -4.754   0.196  1.00  0.00     0.026 A   
ATOM     12  C5  UNL     1       1.422  -2.619  -1.580  1.00  0.00     0.007 A   
ATOM     13  C24 UNL     1       2.216  -3.919   0.293  1.00  0.00     0.007 A   
BRANCH   9  14
ATOM     14  N2  UNL     1      -1.041  -5.326  -0.889  1.00  0.00    -0.201 N   
ATOM     15  C1  UNL     1      -2.586  -6.890  -0.610  1.00  0.00     0.039 A   
ATOM     16  C2  UNL     1      -2.939  -5.978  -1.613  1.00  0.00     0.133 A   
ATOM     17  C26 UNL     1      -1.366  -6.449  -0.157  1.00  0.00     0.103 A   
ATOM     18  N1  UNL     1      -2.020  -5.027  -1.784  1.00  0.00    -0.185 NA  
ENDBRANCH   9  14
ENDBRANCH   7   8
ENDBRANCH   1   7
BRANCH   3  19
ATOM     19  C10 UNL     1       1.445   2.048   1.831  1.00  0.00     0.117 C   
BRANCH  19  20
ATOM     20  N4  UNL     1       0.682   1.738   3.105  1.00  0.00     0.249 N   
ATOM     21  H9  UNL     1       0.127   2.550   3.384  1.00  0.00     0.199 HD  
ATOM     22  H10 UNL     1       1.387   1.576   3.836  1.00  0.00     0.199 HD  
BRANCH  20  23
ATOM     23  C11 UNL     1      -0.209   0.534   3.087  1.00  0.00     0.164 C   
BRANCH  23  24
ATOM     24  C12 UNL     1      -1.239   0.557   1.992  1.00  0.00    -0.002 A   
ATOM     25  C13 UNL     1      -2.326   1.463   2.037  1.00  0.00     0.012 A   
ATOM     26  C17 UNL     1      -1.110  -0.312   0.894  1.00  0.00     0.045 A   
ATOM     27  C14 UNL     1      -3.267   1.507   1.001  1.00  0.00     0.037 A   
ATOM     28  C16 UNL     1      -2.049  -0.238  -0.112  1.00  0.00     0.109 A   
ATOM     29  C15 UNL     1      -3.099   0.644  -0.060  1.00  0.00     0.108 A   
ATOM     30  O1  UNL     1      -2.055  -0.987  -1.245  1.00  0.00    -0.316 OA  
ATOM     31  O2  UNL     1      -3.907   0.551  -1.148  1.00  0.00    -0.316 OA  
ATOM     32  C18 UNL     1      -3.276  -0.531  -1.869  1.00  0.00     0.337 C   
ENDBRANCH  23  24
ENDBRANCH  20  23
ENDBRANCH  19  20
BRANCH  19  33
ATOM     33  C19 UNL     1       2.290   3.316   2.071  1.00  0.00     0.043 C   
ATOM     34  C20 UNL     1       3.007   3.812   0.811  1.00  0.00     0.010 C   
ATOM     35  C23 UNL     1       1.478   4.551   2.474  1.00  0.00     0.010 C   
ATOM     36  C21 UNL     1       3.427   5.232   1.164  1.00  0.00     0.001 C   
ATOM     37  C22 UNL     1       2.377   5.741   2.149  1.00  0.00     0.001 C   
ENDBRANCH  19  33
ENDBRANCH   3  19
TORSDOF 8
