REMARK SMILES [O-]N([O-])c1cc(-n2cc([C@@H]([NH2+]Cc3ccc4c(c3)OCO4)C3CCCC3)nn2)ccc1F
REMARK SMILES IDX 7 1 8 2 9 3 27 4 28 5 6 6 4 7 5 8 31 9 30 10 29 11 32 12
REMARK SMILES IDX 2 13 1 14 3 15 10 16 11 17 12 20 13 21 14 22 18 23 15 24
REMARK SMILES IDX 17 25 16 26 19 27 21 28 20 29 22 30 23 31 26 32 24 33 25 34
REMARK H PARENT 11 18 11 19
ROOT
ATOM     1   N2  UNL     1       0.579   0.522   0.765  1.00  0.00    -0.181 N   
ATOM     2   C4  UNL     1       0.299  -0.590   1.536  1.00  0.00     0.135 A   
ATOM     3   C5  UNL     1       1.426  -1.376   1.445  1.00  0.00     0.127 A   
ATOM     4   N4  UNL     1       2.363  -0.731   0.689  1.00  0.00    -0.131 NA  
ATOM     5   N5  UNL     1       1.851   0.426   0.303  1.00  0.00    -0.071 NA  
ENDROOT
BRANCH   1   6
ATOM     6   C3  UNL     1      -0.268   1.603   0.410  1.00  0.00     0.060 A   
ATOM     7   C1  UNL     1      -2.424   2.701   0.404  1.00  0.00     0.155 A   
ATOM     8   C2  UNL     1      -1.612   1.627   0.809  1.00  0.00     0.060 A   
ATOM     9   C22 UNL     1      -1.923   3.733  -0.378  1.00  0.00     0.151 A   
ATOM     10  C21 UNL     1      -0.588   3.713  -0.766  1.00  0.00     0.043 A   
ATOM     11  C20 UNL     1       0.240   2.652  -0.377  1.00  0.00     0.029 A   
ATOM     12  F1  UNL     1      -2.699   4.739  -0.801  1.00  0.00    -0.205 F   
BRANCH   7  13
ATOM     13  N1  UNL     1      -3.820   2.712   0.794  1.00  0.00     0.095 N   
ATOM     14  O1  UNL     1      -4.310   3.780   1.173  1.00  0.00    -0.138 OA  
ATOM     15  O2  UNL     1      -4.410   1.621   0.766  1.00  0.00    -0.138 OA  
ENDBRANCH   7  13
ENDBRANCH   1   6
BRANCH   3  16
ATOM     16  C6  UNL     1       1.698  -2.772   1.913  1.00  0.00     0.117 C   
BRANCH  16  17
ATOM     17  N3  UNL     1       2.285  -3.576   0.771  1.00  0.00     0.249 N   
ATOM     18  H4  UNL     1       2.800  -2.902   0.183  1.00  0.00     0.199 HD  
ATOM     19  H5  UNL     1       2.989  -4.237   1.111  1.00  0.00     0.199 HD  
BRANCH  17  20
ATOM     20  C7  UNL     1       1.316  -4.314  -0.096  1.00  0.00     0.164 C   
BRANCH  20  21
ATOM     21  C8  UNL     1       0.274  -3.438  -0.736  1.00  0.00    -0.002 A   
ATOM     22  C9  UNL     1       0.625  -2.543  -1.776  1.00  0.00     0.012 A   
ATOM     23  C13 UNL     1      -1.050  -3.459  -0.264  1.00  0.00     0.045 A   
ATOM     24  C10 UNL     1      -0.318  -1.661  -2.317  1.00  0.00     0.037 A   
ATOM     25  C12 UNL     1      -1.954  -2.576  -0.818  1.00  0.00     0.109 A   
ATOM     26  C11 UNL     1      -1.598  -1.698  -1.811  1.00  0.00     0.108 A   
ATOM     27  O3  UNL     1      -3.256  -2.447  -0.452  1.00  0.00    -0.316 OA  
ATOM     28  O4  UNL     1      -2.631  -0.903  -2.192  1.00  0.00    -0.316 OA  
ATOM     29  C14 UNL     1      -3.704  -1.435  -1.385  1.00  0.00     0.337 C   
ENDBRANCH  20  21
ENDBRANCH  17  20
ENDBRANCH  16  17
BRANCH  16  30
ATOM     30  C15 UNL     1       2.628  -2.793   3.141  1.00  0.00     0.043 C   
ATOM     31  C16 UNL     1       2.768  -4.167   3.804  1.00  0.00     0.010 C   
ATOM     32  C19 UNL     1       4.082  -2.354   2.913  1.00  0.00     0.010 C   
ATOM     33  C17 UNL     1       3.938  -3.960   4.752  1.00  0.00     0.001 C   
ATOM     34  C18 UNL     1       4.914  -3.092   3.966  1.00  0.00     0.001 C   
ENDBRANCH  16  30
ENDBRANCH   3  16
TORSDOF 7
