REMARK SMILES Cc1ccc(F)c(Cn2cc([C@@H]([NH2+]Cc3ccc4c(c3)OCO4)C(C)C)nn2)c1
REMARK SMILES IDX 9 1 10 2 11 3 27 4 28 5 8 7 7 8 2 9 3 10 29 11 4 12 5 13
REMARK SMILES IDX 1 14 6 15 12 16 13 17 14 20 15 21 16 22 20 23 17 24 19 25
REMARK SMILES IDX 18 26 21 27 23 28 22 29 24 30 25 31 26 32
REMARK H PARENT 10 6 13 18 13 19
ROOT
ATOM     1   N1  UNL     1      -2.532  -2.098  -0.112  1.00  0.00    -0.208 N   
ATOM     2   C8  UNL     1      -2.915  -0.829  -0.454  1.00  0.00     0.046 A   
ATOM     3   C9  UNL     1      -1.848  -0.045  -0.075  1.00  0.00     0.127 A   
ATOM     4   N3  UNL     1      -0.893  -0.839   0.510  1.00  0.00    -0.132 NA  
ATOM     5   N4  UNL     1      -1.331  -2.087   0.499  1.00  0.00    -0.076 NA  
ATOM     6   H8  UNL     1      -3.859  -0.622  -0.939  1.00  0.00     0.083 HD  
ENDROOT
BRANCH   1   7
ATOM     7   C7  UNL     1      -3.260  -3.340  -0.300  1.00  0.00     0.172 C   
BRANCH   7   8
ATOM     8   C6  UNL     1      -3.078  -3.866  -1.696  1.00  0.00     0.007 A   
ATOM     9   C2  UNL     1      -1.876  -5.235  -3.316  1.00  0.00    -0.051 A   
ATOM     10  C3  UNL     1      -2.745  -4.794  -4.323  1.00  0.00     0.006 A   
ATOM     11  C22 UNL     1      -2.039  -4.755  -2.007  1.00  0.00     0.012 A   
ATOM     12  C4  UNL     1      -3.773  -3.901  -4.024  1.00  0.00     0.040 A   
ATOM     13  C5  UNL     1      -3.929  -3.447  -2.720  1.00  0.00     0.128 A   
ATOM     14  C1  UNL     1      -0.747  -6.168  -3.647  1.00  0.00     0.044 C   
ATOM     15  F1  UNL     1      -4.909  -2.572  -2.449  1.00  0.00    -0.207 F   
ENDBRANCH   7   8
ENDBRANCH   1   7
BRANCH   3  16
ATOM     16  C10 UNL     1      -1.614   1.428  -0.191  1.00  0.00     0.117 C   
BRANCH  16  17
ATOM     17  N2  UNL     1      -0.565   1.871   0.794  1.00  0.00     0.249 N   
ATOM     18  H10 UNL     1      -0.128   2.757   0.526  1.00  0.00     0.199 HD  
ATOM     19  H11 UNL     1       0.182   1.160   0.766  1.00  0.00     0.199 HD  
BRANCH  17  20
ATOM     20  C11 UNL     1      -1.022   1.965   2.209  1.00  0.00     0.164 C   
BRANCH  20  21
ATOM     21  C12 UNL     1       0.127   2.331   3.106  1.00  0.00    -0.002 A   
ATOM     22  C13 UNL     1       0.370   3.683   3.447  1.00  0.00     0.012 A   
ATOM     23  C17 UNL     1       0.999   1.330   3.570  1.00  0.00     0.045 A   
ATOM     24  C14 UNL     1       1.463   4.035   4.246  1.00  0.00     0.037 A   
ATOM     25  C16 UNL     1       2.066   1.712   4.356  1.00  0.00     0.109 A   
ATOM     26  C15 UNL     1       2.292   3.026   4.684  1.00  0.00     0.108 A   
ATOM     27  O1  UNL     1       2.999   0.877   4.883  1.00  0.00    -0.316 OA  
ATOM     28  O2  UNL     1       3.396   3.184   5.461  1.00  0.00    -0.316 OA  
ATOM     29  C18 UNL     1       3.829   1.814   5.605  1.00  0.00     0.337 C   
ENDBRANCH  20  21
ENDBRANCH  17  20
ENDBRANCH  16  17
BRANCH  16  30
ATOM     30  C19 UNL     1      -1.209   1.843  -1.630  1.00  0.00     0.037 C   
ATOM     31  C20 UNL     1      -1.281   3.362  -1.824  1.00  0.00     0.014 C   
ATOM     32  C21 UNL     1       0.171   1.331  -2.058  1.00  0.00     0.014 C   
ENDBRANCH  16  30
ENDBRANCH   3  16
TORSDOF 7
