REMARK SMILES O=C(Cn1cc([C@@H]([NH2+]Cc2ccc3c(c2)OCO3)C2CCCC2)nn1)c1ccccc1
REMARK SMILES IDX 4 1 5 2 6 3 24 4 25 5 3 7 2 8 1 9 26 10 27 11 31 12 28 13
REMARK SMILES IDX 30 14 29 15 7 16 8 17 9 20 10 21 11 22 15 23 12 24 14 25
REMARK SMILES IDX 13 26 16 27 18 28 17 29 19 30 20 31 23 32 21 33 22 34
REMARK H PARENT 5 6 8 18 8 19
ROOT
ATOM     1   N1  UNL     1       3.072  -2.345  -0.266  1.00  0.00    -0.204 N   
ATOM     2   C3  UNL     1       1.847  -2.716  -0.748  1.00  0.00     0.046 A   
ATOM     3   C4  UNL     1       1.219  -1.521  -1.015  1.00  0.00     0.127 A   
ATOM     4   N3  UNL     1       2.070  -0.488  -0.709  1.00  0.00    -0.132 NA  
ATOM     5   N4  UNL     1       3.197  -1.006  -0.245  1.00  0.00    -0.076 NA  
ATOM     6   H3  UNL     1       1.543  -3.752  -0.815  1.00  0.00     0.083 HD  
ENDROOT
BRANCH   1   7
ATOM     7   C2  UNL     1       4.124  -3.192   0.246  1.00  0.00     0.214 C   
BRANCH   7   8
ATOM     8   C1  UNL     1       3.750  -3.702   1.614  1.00  0.00     0.182 C   
ATOM     9   O1  UNL     1       2.877  -4.561   1.744  1.00  0.00    -0.292 OA  
BRANCH   8  10
ATOM     10  C19 UNL     1       4.415  -3.144   2.825  1.00  0.00     0.019 A   
ATOM     11  C20 UNL     1       4.397  -3.914   3.996  1.00  0.00     0.012 A   
ATOM     12  C24 UNL     1       5.018  -1.881   2.839  1.00  0.00     0.012 A   
ATOM     13  C21 UNL     1       4.991  -3.435   5.163  1.00  0.00     0.001 A   
ATOM     14  C23 UNL     1       5.606  -1.403   4.014  1.00  0.00     0.001 A   
ATOM     15  C22 UNL     1       5.596  -2.179   5.171  1.00  0.00     0.000 A   
ENDBRANCH   8  10
ENDBRANCH   7   8
ENDBRANCH   1   7
BRANCH   3  16
ATOM     16  C5  UNL     1      -0.171  -1.226  -1.479  1.00  0.00     0.117 C   
BRANCH  16  17
ATOM     17  N2  UNL     1      -0.679   0.018  -0.792  1.00  0.00     0.249 N   
ATOM     18  H5  UNL     1       0.047   0.741  -0.905  1.00  0.00     0.199 HD  
ATOM     19  H6  UNL     1      -1.525   0.382  -1.240  1.00  0.00     0.199 HD  
BRANCH  17  20
ATOM     20  C6  UNL     1      -0.946  -0.125   0.668  1.00  0.00     0.164 C   
BRANCH  20  21
ATOM     21  C7  UNL     1      -1.399   1.187   1.246  1.00  0.00    -0.002 A   
ATOM     22  C8  UNL     1      -0.446   2.176   1.595  1.00  0.00     0.012 A   
ATOM     23  C12 UNL     1      -2.768   1.460   1.393  1.00  0.00     0.045 A   
ATOM     24  C9  UNL     1      -0.852   3.421   2.086  1.00  0.00     0.037 A   
ATOM     25  C11 UNL     1      -3.133   2.696   1.887  1.00  0.00     0.109 A   
ATOM     26  C10 UNL     1      -2.204   3.650   2.220  1.00  0.00     0.108 A   
ATOM     27  O2  UNL     1      -4.407   3.118   2.092  1.00  0.00    -0.316 OA  
ATOM     28  O3  UNL     1      -2.776   4.794   2.675  1.00  0.00    -0.316 OA  
ATOM     29  C13 UNL     1      -4.175   4.438   2.635  1.00  0.00     0.337 C   
ENDBRANCH  20  21
ENDBRANCH  17  20
ENDBRANCH  16  17
BRANCH  16  30
ATOM     30  C14 UNL     1      -0.239  -1.006  -3.002  1.00  0.00     0.043 C   
ATOM     31  C15 UNL     1      -1.650  -0.723  -3.534  1.00  0.00     0.010 C   
ATOM     32  C18 UNL     1       0.165  -2.242  -3.814  1.00  0.00     0.010 C   
ATOM     33  C16 UNL     1      -1.631  -1.138  -5.005  1.00  0.00     0.001 C   
ATOM     34  C17 UNL     1      -0.343  -1.929  -5.212  1.00  0.00     0.001 C   
ENDBRANCH  16  30
ENDBRANCH   3  16
TORSDOF 8
