REMARK SMILES CC(C)[C@H]([NH2+]Cc1ccc2c(c1)OCO2)c1cn(Cc2cc[nH]c2)nn1
REMARK SMILES IDX 16 1 17 2 18 3 25 4 26 5 4 7 2 8 1 9 3 10 5 11 6 14 7 15
REMARK SMILES IDX 8 16 12 17 9 18 11 19 10 20 13 21 15 22 14 23 19 24 20 25
REMARK SMILES IDX 21 26 24 27 22 28 23 29
REMARK H PARENT 17 6 5 12 5 13 23 30
ROOT
ATOM     1   C13 UNL     1      -0.917  -0.409   0.850  1.00  0.00     0.127 A   
ATOM     2   C14 UNL     1      -1.887  -0.673   1.790  1.00  0.00     0.046 A   
ATOM     3   N2  UNL     1      -2.067   0.527   2.428  1.00  0.00    -0.208 N   
ATOM     4   N4  UNL     1      -1.243   1.466   1.919  1.00  0.00    -0.076 NA  
ATOM     5   N5  UNL     1      -0.533   0.904   0.955  1.00  0.00    -0.132 NA  
ATOM     6   H18 UNL     1      -2.458  -1.554   2.050  1.00  0.00     0.083 HD  
ENDROOT
BRANCH   1   7
ATOM     7   C4  UNL     1      -0.299  -1.274  -0.203  1.00  0.00     0.117 C   
BRANCH   7   8
ATOM     8   C2  UNL     1       0.806  -2.198   0.370  1.00  0.00     0.037 C   
ATOM     9   C1  UNL     1       1.206  -3.291  -0.628  1.00  0.00     0.014 C   
ATOM     10  C3  UNL     1       2.058  -1.450   0.846  1.00  0.00     0.014 C   
ENDBRANCH   7   8
BRANCH   7  11
ATOM     11  N1  UNL     1       0.256  -0.422  -1.313  1.00  0.00     0.249 N   
ATOM     12  H9  UNL     1       0.736   0.371  -0.862  1.00  0.00     0.199 HD  
ATOM     13  H10 UNL     1       0.966  -0.911  -1.865  1.00  0.00     0.199 HD  
BRANCH  11  14
ATOM     14  C5  UNL     1      -0.761   0.158  -2.235  1.00  0.00     0.164 C   
BRANCH  14  15
ATOM     15  C6  UNL     1      -0.107   1.091  -3.213  1.00  0.00    -0.002 A   
ATOM     16  C7  UNL     1       0.105   2.448  -2.865  1.00  0.00     0.012 A   
ATOM     17  C11 UNL     1       0.351   0.614  -4.453  1.00  0.00     0.045 A   
ATOM     18  C8  UNL     1       0.751   3.322  -3.745  1.00  0.00     0.037 A   
ATOM     19  C10 UNL     1       0.985   1.503  -5.296  1.00  0.00     0.109 A   
ATOM     20  C9  UNL     1       1.180   2.819  -4.953  1.00  0.00     0.108 A   
ATOM     21  O1  UNL     1       1.485   1.207  -6.524  1.00  0.00    -0.316 OA  
ATOM     22  O2  UNL     1       1.824   3.517  -5.923  1.00  0.00    -0.316 OA  
ATOM     23  C12 UNL     1       1.998   2.497  -6.929  1.00  0.00     0.337 C   
ENDBRANCH  14  15
ENDBRANCH  11  14
ENDBRANCH   7  11
ENDBRANCH   1   7
BRANCH   3  24
ATOM     24  C15 UNL     1      -2.959   0.836   3.535  1.00  0.00     0.170 C   
BRANCH  24  25
ATOM     25  C16 UNL     1      -4.388   0.753   3.106  1.00  0.00    -0.013 A   
ATOM     26  C17 UNL     1      -5.280  -0.335   3.326  1.00  0.00     0.022 A   
ATOM     27  C19 UNL     1      -5.116   1.724   2.440  1.00  0.00     0.076 A   
ATOM     28  C18 UNL     1      -6.500   0.006   2.788  1.00  0.00     0.072 A   
ATOM     29  N3  UNL     1      -6.395   1.265   2.259  1.00  0.00    -0.327 N   
ATOM     30  H23 UNL     1      -7.148   1.781   1.820  1.00  0.00     0.152 HD  
ENDBRANCH  24  25
ENDBRANCH   3  24
TORSDOF 7
