REMARK SMILES CC(C)C[C@H]([NH2+]Cc1ccc2c(c1)OCO2)c1cn(Cc2ccnn2C(C)C)nn1
REMARK SMILES IDX 17 1 18 2 19 3 29 4 30 5 5 7 4 8 2 9 1 10 3 11 6 12 7 15
REMARK SMILES IDX 8 16 9 17 13 18 10 19 12 20 11 21 14 22 16 23 15 24 20 25
REMARK SMILES IDX 21 26 22 27 25 28 23 29 24 30 26 31 27 32 28 33
REMARK H PARENT 18 6 6 13 6 14
ROOT
ATOM     1   C14 UNL     1       2.070  -0.412  -0.194  1.00  0.00     0.127 A   
ATOM     2   C15 UNL     1       2.242   0.666   0.644  1.00  0.00     0.046 A   
ATOM     3   N2  UNL     1       2.990   1.544  -0.095  1.00  0.00    -0.206 N   
ATOM     4   N5  UNL     1       3.272   1.030  -1.309  1.00  0.00    -0.076 NA  
ATOM     5   N6  UNL     1       2.721  -0.170  -1.378  1.00  0.00    -0.132 NA  
ATOM     6   H20 UNL     1       1.896   0.898   1.643  1.00  0.00     0.083 HD  
ENDROOT
BRANCH   1   7
ATOM     7   C5  UNL     1       1.294  -1.677  -0.015  1.00  0.00     0.114 C   
BRANCH   7   8
ATOM     8   C4  UNL     1       2.200  -2.793   0.545  1.00  0.00     0.064 C   
BRANCH   8   9
ATOM     9   C2  UNL     1       1.513  -4.135   0.875  1.00  0.00    -0.012 C   
ATOM     10  C1  UNL     1       2.553  -5.123   1.416  1.00  0.00     0.007 C   
ATOM     11  C3  UNL     1       0.374  -3.982   1.883  1.00  0.00     0.007 C   
ENDBRANCH   8   9
ENDBRANCH   7   8
BRANCH   7  12
ATOM     12  N1  UNL     1       0.705  -2.136  -1.328  1.00  0.00     0.249 N   
ATOM     13  H11 UNL     1       0.305  -3.072  -1.233  1.00  0.00     0.199 HD  
ATOM     14  H12 UNL     1       1.485  -2.199  -1.996  1.00  0.00     0.199 HD  
BRANCH  12  15
ATOM     15  C6  UNL     1      -0.329  -1.245  -1.940  1.00  0.00     0.164 C   
BRANCH  15  16
ATOM     16  C7  UNL     1      -1.563  -1.105  -1.093  1.00  0.00    -0.002 A   
ATOM     17  C8  UNL     1      -1.878   0.138  -0.495  1.00  0.00     0.012 A   
ATOM     18  C12 UNL     1      -2.403  -2.213  -0.870  1.00  0.00     0.045 A   
ATOM     19  C9  UNL     1      -3.007   0.278   0.322  1.00  0.00     0.037 A   
ATOM     20  C11 UNL     1      -3.502  -2.040  -0.054  1.00  0.00     0.109 A   
ATOM     21  C10 UNL     1      -3.796  -0.831   0.526  1.00  0.00     0.108 A   
ATOM     22  O1  UNL     1      -4.401  -3.005   0.273  1.00  0.00    -0.316 OA  
ATOM     23  O2  UNL     1      -4.921  -0.882   1.285  1.00  0.00    -0.316 OA  
ATOM     24  C13 UNL     1      -5.326  -2.252   1.092  1.00  0.00     0.337 C   
ENDBRANCH  15  16
ENDBRANCH  12  15
ENDBRANCH   7  12
ENDBRANCH   1   7
BRANCH   3  25
ATOM     25  C16 UNL     1       3.414   2.890   0.263  1.00  0.00     0.187 C   
BRANCH  25  26
ATOM     26  C17 UNL     1       2.235   3.799   0.339  1.00  0.00     0.049 A   
ATOM     27  C18 UNL     1       1.565   4.290   1.444  1.00  0.00     0.044 A   
ATOM     28  N4  UNL     1       1.577   4.322  -0.753  1.00  0.00    -0.225 N   
ATOM     29  C19 UNL     1       0.494   5.033   0.926  1.00  0.00     0.133 A   
ATOM     30  N3  UNL     1       0.471   5.012  -0.404  1.00  0.00    -0.190 NA  
BRANCH  28  31
ATOM     31  C20 UNL     1       1.902   4.188  -2.174  1.00  0.00     0.092 C   
ATOM     32  C21 UNL     1       0.857   3.340  -2.899  1.00  0.00     0.030 C   
ATOM     33  C22 UNL     1       2.067   5.553  -2.846  1.00  0.00     0.030 C   
ENDBRANCH  28  31
ENDBRANCH  25  26
ENDBRANCH   3  25
TORSDOF 9
