REMARK SMILES COc1cc(O)ccc1Cn1cc([C@@H]([NH2+]Cc2ccc3c(c2)OCO3)C2CCCC2)nn1
REMARK SMILES IDX 11 1 12 2 13 3 31 4 32 5 10 7 9 8 3 9 4 10 5 11 8 12 7 13
REMARK SMILES IDX 2 14 1 15 6 16 14 18 15 19 16 22 17 23 18 24 22 25 19 26
REMARK SMILES IDX 21 27 20 28 23 29 25 30 24 31 26 32 27 33 30 34 28 35 29 36
REMARK H PARENT 12 6 6 17 15 20 15 21
ROOT
ATOM     1   N1  UNL     1       2.404   1.755  -0.435  1.00  0.00    -0.208 N   
ATOM     2   C9  UNL     1       1.197   2.332  -0.721  1.00  0.00     0.046 A   
ATOM     3   C10 UNL     1       0.417   2.042   0.376  1.00  0.00     0.127 A   
ATOM     4   N3  UNL     1       1.158   1.310   1.271  1.00  0.00    -0.132 NA  
ATOM     5   N4  UNL     1       2.370   1.146   0.768  1.00  0.00    -0.076 NA  
ATOM     6   H10 UNL     1       1.017   2.859  -1.648  1.00  0.00     0.083 HD  
ENDROOT
BRANCH   1   7
ATOM     7   C8  UNL     1       3.619   1.761  -1.233  1.00  0.00     0.172 C   
BRANCH   7   8
ATOM     8   C7  UNL     1       3.676   0.560  -2.144  1.00  0.00     0.002 A   
ATOM     9   C2  UNL     1       3.075   0.578  -3.417  1.00  0.00     0.082 A   
ATOM     10  C3  UNL     1       3.131  -0.564  -4.222  1.00  0.00     0.067 A   
ATOM     11  C4  UNL     1       3.788  -1.705  -3.770  1.00  0.00     0.074 A   
ATOM     12  C6  UNL     1       4.327  -0.608  -1.705  1.00  0.00     0.011 A   
ATOM     13  C5  UNL     1       4.388  -1.739  -2.519  1.00  0.00     0.034 A   
BRANCH   9  14
ATOM     14  O1  UNL     1       2.442   1.744  -3.767  1.00  0.00    -0.349 OA  
ATOM     15  C1  UNL     1       2.124   1.905  -5.150  1.00  0.00     0.203 C   
ENDBRANCH   9  14
BRANCH  11  16
ATOM     16  O2  UNL     1       3.813  -2.787  -4.599  1.00  0.00    -0.361 OA  
ATOM     17  H5  UNL     1       4.364  -3.481  -4.200  1.00  0.00     0.218 HD  
ENDBRANCH  11  16
ENDBRANCH   7   8
ENDBRANCH   1   7
BRANCH   3  18
ATOM     18  C11 UNL     1      -1.020   2.320   0.671  1.00  0.00     0.117 C   
BRANCH  18  19
ATOM     19  N2  UNL     1      -1.599   1.181   1.478  1.00  0.00     0.249 N   
ATOM     20  H12 UNL     1      -0.920   0.975   2.227  1.00  0.00     0.199 HD  
ATOM     21  H13 UNL     1      -2.471   1.453   1.943  1.00  0.00     0.199 HD  
BRANCH  19  22
ATOM     22  C12 UNL     1      -1.818  -0.084   0.725  1.00  0.00     0.164 C   
BRANCH  22  23
ATOM     23  C13 UNL     1      -2.343  -1.153   1.641  1.00  0.00    -0.002 A   
ATOM     24  C14 UNL     1      -1.442  -1.971   2.365  1.00  0.00     0.012 A   
ATOM     25  C18 UNL     1      -3.727  -1.314   1.823  1.00  0.00     0.045 A   
ATOM     26  C15 UNL     1      -1.911  -2.946   3.253  1.00  0.00     0.037 A   
ATOM     27  C17 UNL     1      -4.155  -2.290   2.700  1.00  0.00     0.109 A   
ATOM     28  C16 UNL     1      -3.275  -3.083   3.394  1.00  0.00     0.108 A   
ATOM     29  O3  UNL     1      -5.452  -2.585   2.977  1.00  0.00    -0.316 OA  
ATOM     30  O4  UNL     1      -3.906  -3.975   4.200  1.00  0.00    -0.316 OA  
ATOM     31  C19 UNL     1      -5.290  -3.674   3.916  1.00  0.00     0.337 C   
ENDBRANCH  22  23
ENDBRANCH  19  22
ENDBRANCH  18  19
BRANCH  18  32
ATOM     32  C20 UNL     1      -1.277   3.623   1.452  1.00  0.00     0.043 C   
ATOM     33  C21 UNL     1      -0.566   3.760   2.800  1.00  0.00     0.010 C   
ATOM     34  C24 UNL     1      -0.884   4.910   0.713  1.00  0.00     0.010 C   
ATOM     35  C22 UNL     1      -0.773   5.230   3.137  1.00  0.00     0.001 C   
ATOM     36  C23 UNL     1      -0.628   5.954   1.804  1.00  0.00     0.001 C   
ENDBRANCH  18  32
ENDBRANCH   3  18
TORSDOF 9
