REMARK SMILES Cc1ncccc1[C@@H](CO)n1cc([C@H](CC(C)C)[NH2+]Cc2ccc3c(c2)OCO3)nn1
REMARK SMILES IDX 11 1 12 2 13 3 30 4 31 5 8 7 7 8 2 9 3 10 4 11 6 12 5 13
REMARK SMILES IDX 1 14 9 15 10 16 14 18 15 19 16 20 17 21 18 22 19 23 20 26
REMARK SMILES IDX 21 27 22 28 26 29 23 30 25 31 24 32 27 33 29 34 28 35
REMARK H PARENT 12 6 10 17 19 24 19 25
ROOT
ATOM     1   N2  UNL     1      -2.693  -0.841   0.922  1.00  0.00    -0.202 N   
ATOM     2   C9  UNL     1      -1.498  -0.799   0.255  1.00  0.00     0.046 A   
ATOM     3   C10 UNL     1      -0.787  -1.858   0.768  1.00  0.00     0.127 A   
ATOM     4   N4  UNL     1      -1.558  -2.515   1.689  1.00  0.00    -0.132 NA  
ATOM     5   N5  UNL     1      -2.726  -1.895   1.765  1.00  0.00    -0.075 NA  
ATOM     6   H11 UNL     1      -1.263  -0.022  -0.460  1.00  0.00     0.083 HD  
ENDROOT
BRANCH   1   7
ATOM     7   C7  UNL     1      -3.766   0.155   0.935  1.00  0.00     0.157 C   
BRANCH   7   8
ATOM     8   C6  UNL     1      -3.193   1.513   1.333  1.00  0.00    -0.002 A   
ATOM     9   C2  UNL     1      -2.892   1.820   2.673  1.00  0.00     0.042 A   
ATOM     10  N1  UNL     1      -2.278   2.973   3.041  1.00  0.00    -0.261 NA  
ATOM     11  C3  UNL     1      -1.992   3.880   2.086  1.00  0.00     0.111 A   
ATOM     12  C5  UNL     1      -2.867   2.487   0.373  1.00  0.00     0.009 A   
ATOM     13  C4  UNL     1      -2.269   3.685   0.751  1.00  0.00     0.020 A   
ATOM     14  C1  UNL     1      -3.203   0.894   3.816  1.00  0.00     0.067 C   
ENDBRANCH   7   8
BRANCH   7  15
ATOM     15  C8  UNL     1      -4.612   0.078  -0.354  1.00  0.00     0.186 C   
BRANCH  15  16
ATOM     16  O1  UNL     1      -3.842   0.235  -1.546  1.00  0.00    -0.394 OA  
ATOM     17  H10 UNL     1      -4.454   0.124  -2.298  1.00  0.00     0.210 HD  
ENDBRANCH  15  16
ENDBRANCH   7  15
ENDBRANCH   1   7
BRANCH   3  18
ATOM     18  C11 UNL     1       0.632  -2.250   0.564  1.00  0.00     0.114 C   
BRANCH  18  19
ATOM     19  C12 UNL     1       0.811  -3.665  -0.023  1.00  0.00     0.064 C   
BRANCH  19  20
ATOM     20  C13 UNL     1       0.365  -3.898  -1.484  1.00  0.00    -0.012 C   
ATOM     21  C14 UNL     1       0.944  -2.870  -2.455  1.00  0.00     0.007 C   
ATOM     22  C15 UNL     1      -1.151  -4.003  -1.652  1.00  0.00     0.007 C   
ENDBRANCH  19  20
ENDBRANCH  18  19
BRANCH  18  23
ATOM     23  N3  UNL     1       1.355  -2.244   1.903  1.00  0.00     0.249 N   
ATOM     24  H22 UNL     1       0.852  -2.909   2.506  1.00  0.00     0.199 HD  
ATOM     25  H23 UNL     1       2.307  -2.601   1.782  1.00  0.00     0.199 HD  
BRANCH  23  26
ATOM     26  C16 UNL     1       1.410  -0.938   2.634  1.00  0.00     0.164 C   
BRANCH  26  27
ATOM     27  C17 UNL     1       2.062   0.169   1.853  1.00  0.00    -0.002 A   
ATOM     28  C18 UNL     1       3.427   0.092   1.487  1.00  0.00     0.012 A   
ATOM     29  C22 UNL     1       1.308   1.294   1.472  1.00  0.00     0.045 A   
ATOM     30  C19 UNL     1       4.029   1.109   0.736  1.00  0.00     0.037 A   
ATOM     31  C21 UNL     1       1.930   2.277   0.732  1.00  0.00     0.109 A   
ATOM     32  C20 UNL     1       3.252   2.186   0.373  1.00  0.00     0.108 A   
ATOM     33  O2  UNL     1       1.346   3.416   0.276  1.00  0.00    -0.316 OA  
ATOM     34  O3  UNL     1       3.668   3.257  -0.352  1.00  0.00    -0.316 OA  
ATOM     35  C23 UNL     1       2.466   4.054  -0.380  1.00  0.00     0.337 C   
ENDBRANCH  26  27
ENDBRANCH  23  26
ENDBRANCH  18  23
ENDBRANCH   3  18
TORSDOF 10
