REMARK SMILES Cc1ncccc1[C@H](CO)n1cc([C@H](CC(C)C)[NH2+]Cc2ccc3c(c2)OCO3)nn1
REMARK SMILES IDX 11 1 12 2 13 3 30 4 31 5 8 7 7 8 2 9 3 10 4 11 6 12 5 13
REMARK SMILES IDX 1 14 9 15 10 16 14 18 15 19 16 20 17 21 18 22 19 23 20 26
REMARK SMILES IDX 21 27 22 28 26 29 23 30 25 31 24 32 27 33 29 34 28 35
REMARK H PARENT 12 6 10 17 19 24 19 25
ROOT
ATOM     1   N2  UNL     1       1.132  -0.454   0.759  1.00  0.00    -0.202 N   
ATOM     2   C9  UNL     1       0.038  -1.219   1.065  1.00  0.00     0.046 A   
ATOM     3   C10 UNL     1      -0.298  -1.818  -0.126  1.00  0.00     0.127 A   
ATOM     4   N4  UNL     1       0.584  -1.417  -1.094  1.00  0.00    -0.132 NA  
ATOM     5   N5  UNL     1       1.456  -0.595  -0.541  1.00  0.00    -0.075 NA  
ATOM     6   H11 UNL     1      -0.399  -1.230   2.051  1.00  0.00     0.083 HD  
ENDROOT
BRANCH   1   7
ATOM     7   C7  UNL     1       1.881   0.442   1.647  1.00  0.00     0.157 C   
BRANCH   7   8
ATOM     8   C6  UNL     1       1.850   1.869   1.118  1.00  0.00    -0.002 A   
ATOM     9   C2  UNL     1       0.927   2.820   1.581  1.00  0.00     0.042 A   
ATOM     10  N1  UNL     1       0.885   4.092   1.109  1.00  0.00    -0.261 NA  
ATOM     11  C3  UNL     1       1.766   4.447   0.152  1.00  0.00     0.111 A   
ATOM     12  C5  UNL     1       2.740   2.284   0.111  1.00  0.00     0.009 A   
ATOM     13  C4  UNL     1       2.701   3.583  -0.378  1.00  0.00     0.020 A   
ATOM     14  C1  UNL     1      -0.087   2.516   2.646  1.00  0.00     0.067 C   
ENDBRANCH   7   8
BRANCH   7  15
ATOM     15  C8  UNL     1       3.297  -0.105   1.912  1.00  0.00     0.186 C   
BRANCH  15  16
ATOM     16  O1  UNL     1       3.228  -1.234   2.791  1.00  0.00    -0.394 OA  
ATOM     17  H10 UNL     1       4.148  -1.494   2.994  1.00  0.00     0.210 HD  
ENDBRANCH  15  16
ENDBRANCH   7  15
ENDBRANCH   1   7
BRANCH   3  18
ATOM     18  C11 UNL     1      -1.442  -2.695  -0.516  1.00  0.00     0.114 C   
BRANCH  18  19
ATOM     19  C12 UNL     1      -1.109  -4.196  -0.456  1.00  0.00     0.064 C   
BRANCH  19  20
ATOM     20  C13 UNL     1      -0.825  -4.744   0.962  1.00  0.00    -0.012 C   
ATOM     21  C14 UNL     1      -2.018  -4.575   1.907  1.00  0.00     0.007 C   
ATOM     22  C15 UNL     1      -0.440  -6.228   0.880  1.00  0.00     0.007 C   
ENDBRANCH  19  20
ENDBRANCH  18  19
BRANCH  18  23
ATOM     23  N3  UNL     1      -1.824  -2.364  -1.952  1.00  0.00     0.249 N   
ATOM     24  H22 UNL     1      -1.069  -1.742  -2.300  1.00  0.00     0.199 HD  
ATOM     25  H23 UNL     1      -1.767  -3.196  -2.551  1.00  0.00     0.199 HD  
BRANCH  23  26
ATOM     26  C16 UNL     1      -3.126  -1.672  -2.150  1.00  0.00     0.164 C   
BRANCH  26  27
ATOM     27  C17 UNL     1      -3.242  -0.369  -1.406  1.00  0.00    -0.002 A   
ATOM     28  C18 UNL     1      -4.109  -0.264  -0.291  1.00  0.00     0.012 A   
ATOM     29  C22 UNL     1      -2.472   0.744  -1.788  1.00  0.00     0.045 A   
ATOM     30  C19 UNL     1      -4.199   0.923   0.445  1.00  0.00     0.037 A   
ATOM     31  C21 UNL     1      -2.591   1.902  -1.046  1.00  0.00     0.109 A   
ATOM     32  C20 UNL     1      -3.425   1.987   0.042  1.00  0.00     0.108 A   
ATOM     33  O2  UNL     1      -1.925   3.062  -1.283  1.00  0.00    -0.316 OA  
ATOM     34  O3  UNL     1      -3.387   3.207   0.634  1.00  0.00    -0.316 OA  
ATOM     35  C23 UNL     1      -2.456   3.900  -0.228  1.00  0.00     0.337 C   
ENDBRANCH  26  27
ENDBRANCH  23  26
ENDBRANCH  18  23
ENDBRANCH   3  18
TORSDOF 10
