REMARK SMILES CC(C)[C@H]([NH2+]Cc1ccc2c(c1)OCO2)c1cn(Cc2ccncc2F)nn1
REMARK SMILES IDX 16 1 17 2 18 3 27 4 28 5 4 7 2 8 1 9 3 10 5 11 6 14 7 15
REMARK SMILES IDX 8 16 12 17 9 18 11 19 10 20 13 21 15 22 14 23 19 24 20 25
REMARK SMILES IDX 21 26 25 27 22 28 24 29 23 30 26 31
REMARK H PARENT 17 6 5 12 5 13
ROOT
ATOM     1   C13 UNL     1      -0.228   1.657   0.305  1.00  0.00     0.127 A   
ATOM     2   C14 UNL     1       0.360   2.170   1.441  1.00  0.00     0.046 A   
ATOM     3   N2  UNL     1      -0.646   2.158   2.369  1.00  0.00    -0.208 N   
ATOM     4   N4  UNL     1      -1.786   1.677   1.833  1.00  0.00    -0.076 NA  
ATOM     5   N5  UNL     1      -1.542   1.367   0.572  1.00  0.00    -0.132 NA  
ATOM     6   H18 UNL     1       1.359   2.512   1.676  1.00  0.00     0.083 HD  
ENDROOT
BRANCH   1   7
ATOM     7   C4  UNL     1       0.330   1.364  -1.052  1.00  0.00     0.117 C   
BRANCH   7   8
ATOM     8   C2  UNL     1       0.358   2.622  -1.960  1.00  0.00     0.037 C   
ATOM     9   C1  UNL     1      -1.031   3.124  -2.371  1.00  0.00     0.014 C   
ATOM     10  C3  UNL     1       1.217   2.397  -3.210  1.00  0.00     0.014 C   
ENDBRANCH   7   8
BRANCH   7  11
ATOM     11  N1  UNL     1      -0.459   0.262  -1.709  1.00  0.00     0.249 N   
ATOM     12  H9  UNL     1      -0.364   0.269  -2.728  1.00  0.00     0.199 HD  
ATOM     13  H10 UNL     1      -1.454   0.454  -1.511  1.00  0.00     0.199 HD  
BRANCH  11  14
ATOM     14  C5  UNL     1      -0.173  -1.111  -1.204  1.00  0.00     0.164 C   
BRANCH  14  15
ATOM     15  C6  UNL     1      -1.101  -2.104  -1.846  1.00  0.00    -0.002 A   
ATOM     16  C7  UNL     1      -2.367  -2.366  -1.268  1.00  0.00     0.012 A   
ATOM     17  C11 UNL     1      -0.748  -2.725  -3.057  1.00  0.00     0.045 A   
ATOM     18  C8  UNL     1      -3.268  -3.243  -1.883  1.00  0.00     0.037 A   
ATOM     19  C10 UNL     1      -1.660  -3.584  -3.635  1.00  0.00     0.109 A   
ATOM     20  C9  UNL     1      -2.885  -3.834  -3.067  1.00  0.00     0.108 A   
ATOM     21  O1  UNL     1      -1.480  -4.260  -4.800  1.00  0.00    -0.316 OA  
ATOM     22  O2  UNL     1      -3.631  -4.699  -3.802  1.00  0.00    -0.316 OA  
ATOM     23  C12 UNL     1      -2.728  -4.986  -4.892  1.00  0.00     0.337 C   
ENDBRANCH  14  15
ENDBRANCH  11  14
ENDBRANCH   7  11
ENDBRANCH   1   7
BRANCH   3  24
ATOM     24  C15 UNL     1      -0.596   2.573   3.761  1.00  0.00     0.172 C   
BRANCH  24  25
ATOM     25  C16 UNL     1      -0.423   1.390   4.671  1.00  0.00     0.010 A   
ATOM     26  C17 UNL     1      -1.506   0.838   5.365  1.00  0.00     0.028 A   
ATOM     27  C20 UNL     1       0.826   0.788   4.821  1.00  0.00     0.146 A   
ATOM     28  C18 UNL     1      -1.289  -0.276   6.165  1.00  0.00     0.111 A   
ATOM     29  C19 UNL     1       0.953  -0.319   5.643  1.00  0.00     0.150 A   
ATOM     30  N3  UNL     1      -0.082  -0.869   6.317  1.00  0.00    -0.262 NA  
ATOM     31  F1  UNL     1       1.887   1.263   4.154  1.00  0.00    -0.205 F   
ENDBRANCH  24  25
ENDBRANCH   3  24
TORSDOF 7
