REMARK SMILES c1ccc2nc(Cn3cc([C@@H]([NH2+]Cc4ccc5c(c4)OCO5)C4CCCC4)nn3)cnc2c1
REMARK SMILES IDX 11 1 10 2 8 3 9 4 29 5 28 6 7 8 6 9 1 10 2 11 33 12 3 13
REMARK SMILES IDX 32 14 4 15 31 16 5 17 30 18 12 19 13 22 14 23 15 24 19 25
REMARK SMILES IDX 16 26 18 27 17 28 20 29 22 30 21 31 23 32 24 33 27 34 25 35
REMARK SMILES IDX 26 36
REMARK H PARENT 9 7 12 20 12 21
ROOT
ATOM     1   C9  UNL     1      -0.244   1.482   1.910  1.00  0.00     0.117 C   
ENDROOT
BRANCH   1   2
ATOM     2   C8  UNL     1       0.933   0.598   1.651  1.00  0.00     0.127 A   
ATOM     3   N2  UNL     1       2.808  -0.336   1.113  1.00  0.00    -0.206 N   
ATOM     4   C7  UNL     1       2.229   0.891   1.292  1.00  0.00     0.046 A   
ATOM     5   N5  UNL     1       1.923  -1.324   1.350  1.00  0.00    -0.076 NA  
ATOM     6   N4  UNL     1       0.773  -0.764   1.686  1.00  0.00    -0.132 NA  
ATOM     7   H6  UNL     1       2.770   1.813   1.124  1.00  0.00     0.083 HD  
BRANCH   3   8
ATOM     8   C6  UNL     1       4.154  -0.639   0.670  1.00  0.00     0.191 C   
BRANCH   8   9
ATOM     9   C5  UNL     1       4.220  -0.564  -0.826  1.00  0.00     0.079 A   
ATOM     10  C1  UNL     1       4.697   0.857  -5.531  1.00  0.00     0.002 A   
ATOM     11  C2  UNL     1       5.048   1.954  -4.754  1.00  0.00     0.002 A   
ATOM     12  C25 UNL     1       4.306  -0.329  -4.910  1.00  0.00     0.030 A   
ATOM     13  C3  UNL     1       5.003   1.855  -3.362  1.00  0.00     0.030 A   
ATOM     14  C24 UNL     1       4.259  -0.440  -3.526  1.00  0.00     0.089 A   
ATOM     15  C4  UNL     1       4.615   0.678  -2.733  1.00  0.00     0.089 A   
ATOM     16  N6  UNL     1       3.873  -1.601  -2.961  1.00  0.00    -0.253 NA  
ATOM     17  N1  UNL     1       4.579   0.621  -1.384  1.00  0.00    -0.248 NA  
ATOM     18  C23 UNL     1       3.868  -1.649  -1.612  1.00  0.00     0.137 A   
ENDBRANCH   8   9
ENDBRANCH   3   8
ENDBRANCH   1   2
BRANCH   1  19
ATOM     19  N3  UNL     1      -1.477   0.867   1.295  1.00  0.00     0.249 N   
ATOM     20  H8  UNL     1      -2.336   1.303   1.643  1.00  0.00     0.199 HD  
ATOM     21  H9  UNL     1      -1.506  -0.117   1.604  1.00  0.00     0.199 HD  
BRANCH  19  22
ATOM     22  C10 UNL     1      -1.514   0.867  -0.195  1.00  0.00     0.164 C   
BRANCH  22  23
ATOM     23  C11 UNL     1      -2.784   0.232  -0.686  1.00  0.00    -0.002 A   
ATOM     24  C12 UNL     1      -3.917   1.026  -0.981  1.00  0.00     0.012 A   
ATOM     25  C16 UNL     1      -2.868  -1.167  -0.805  1.00  0.00     0.045 A   
ATOM     26  C13 UNL     1      -5.116   0.439  -1.400  1.00  0.00     0.037 A   
ATOM     27  C15 UNL     1      -4.064  -1.713  -1.221  1.00  0.00     0.109 A   
ATOM     28  C14 UNL     1      -5.157  -0.933  -1.510  1.00  0.00     0.108 A   
ATOM     29  O1  UNL     1      -4.312  -3.038  -1.390  1.00  0.00    -0.316 OA  
ATOM     30  O2  UNL     1      -6.230  -1.669  -1.900  1.00  0.00    -0.316 OA  
ATOM     31  C17 UNL     1      -5.684  -3.005  -1.843  1.00  0.00     0.337 C   
ENDBRANCH  22  23
ENDBRANCH  19  22
ENDBRANCH   1  19
BRANCH   1  32
ATOM     32  C18 UNL     1      -0.496   1.682   3.417  1.00  0.00     0.043 C   
ATOM     33  C19 UNL     1       0.657   2.386   4.139  1.00  0.00     0.010 C   
ATOM     34  C22 UNL     1      -1.678   2.605   3.742  1.00  0.00     0.010 C   
ATOM     35  C20 UNL     1       0.044   2.812   5.465  1.00  0.00     0.001 C   
ATOM     36  C21 UNL     1      -1.419   3.116   5.158  1.00  0.00     0.001 C   
ENDBRANCH   1  32
TORSDOF 7
