REMARK SMILES c1ccc(CCCn2cc([C@@H]([NH2+]Cc3ccc4c(c3)OCO4)C3CCCCC3)nn2)cc1
REMARK SMILES IDX 8 1 9 2 10 3 29 4 30 5 7 7 6 8 5 9 4 10 1 11 2 12 32 13 3 14
REMARK SMILES IDX 31 15 11 16 12 17 13 20 14 21 15 22 19 23 16 24 18 25 17 26
REMARK SMILES IDX 20 27 22 28 21 29 23 30 24 31 28 32 25 33 27 34 26 35
REMARK H PARENT 9 6 12 18 12 19
ROOT
ATOM     1   N1  UNL     1       0.311   2.526   1.169  1.00  0.00    -0.212 N   
ATOM     2   C8  UNL     1      -0.651   1.885   1.899  1.00  0.00     0.045 A   
ATOM     3   C9  UNL     1      -1.011   0.814   1.110  1.00  0.00     0.127 A   
ATOM     4   N3  UNL     1      -0.289   0.856  -0.057  1.00  0.00    -0.132 NA  
ATOM     5   N4  UNL     1       0.483   1.929  -0.025  1.00  0.00    -0.076 NA  
ATOM     6   H10 UNL     1      -0.981   2.244   2.863  1.00  0.00     0.083 HD  
ENDROOT
BRANCH   1   7
ATOM     7   C7  UNL     1       0.950   3.792   1.455  1.00  0.00     0.134 C   
BRANCH   7   8
ATOM     8   C6  UNL     1       1.879   3.792   2.669  1.00  0.00     0.026 C   
BRANCH   8   9
ATOM     9   C5  UNL     1       3.240   3.136   2.413  1.00  0.00     0.037 C   
BRANCH   9  10
ATOM     10  C4  UNL     1       3.226   1.630   2.472  1.00  0.00    -0.048 A   
ATOM     11  C1  UNL     1       3.308  -1.170   2.603  1.00  0.00     0.000 A   
ATOM     12  C2  UNL     1       3.115  -0.423   3.763  1.00  0.00     0.000 A   
ATOM     13  C26 UNL     1       3.451  -0.525   1.377  1.00  0.00     0.000 A   
ATOM     14  C3  UNL     1       3.072   0.970   3.699  1.00  0.00     0.004 A   
ATOM     15  C25 UNL     1       3.413   0.869   1.312  1.00  0.00     0.004 A   
ENDBRANCH   9  10
ENDBRANCH   8   9
ENDBRANCH   7   8
ENDBRANCH   1   7
BRANCH   3  16
ATOM     16  C10 UNL     1      -2.065  -0.233   1.277  1.00  0.00     0.117 C   
BRANCH  16  17
ATOM     17  N2  UNL     1      -2.523  -0.712  -0.082  1.00  0.00     0.249 N   
ATOM     18  H12 UNL     1      -2.964  -1.635  -0.034  1.00  0.00     0.199 HD  
ATOM     19  H13 UNL     1      -1.669  -0.826  -0.651  1.00  0.00     0.199 HD  
BRANCH  17  20
ATOM     20  C11 UNL     1      -3.415   0.223  -0.821  1.00  0.00     0.164 C   
BRANCH  20  21
ATOM     21  C12 UNL     1      -3.721  -0.317  -2.189  1.00  0.00    -0.002 A   
ATOM     22  C13 UNL     1      -4.901  -1.063  -2.420  1.00  0.00     0.012 A   
ATOM     23  C17 UNL     1      -2.805  -0.126  -3.238  1.00  0.00     0.045 A   
ATOM     24  C14 UNL     1      -5.172  -1.605  -3.682  1.00  0.00     0.037 A   
ATOM     25  C16 UNL     1      -3.102  -0.674  -4.469  1.00  0.00     0.109 A   
ATOM     26  C15 UNL     1      -4.252  -1.393  -4.685  1.00  0.00     0.108 A   
ATOM     27  O1  UNL     1      -2.328  -0.585  -5.582  1.00  0.00    -0.316 OA  
ATOM     28  O2  UNL     1      -4.348  -1.845  -5.962  1.00  0.00    -0.316 OA  
ATOM     29  C18 UNL     1      -3.134  -1.314  -6.535  1.00  0.00     0.337 C   
ENDBRANCH  20  21
ENDBRANCH  17  20
ENDBRANCH  16  17
BRANCH  16  30
ATOM     30  C19 UNL     1      -1.645  -1.471   2.107  1.00  0.00     0.043 C   
ATOM     31  C20 UNL     1      -0.442  -2.243   1.534  1.00  0.00     0.010 C   
ATOM     32  C24 UNL     1      -1.387  -1.117   3.583  1.00  0.00     0.010 C   
ATOM     33  C21 UNL     1      -0.135  -3.491   2.362  1.00  0.00     0.001 C   
ATOM     34  C23 UNL     1      -1.105  -2.369   4.411  1.00  0.00     0.001 C   
ATOM     35  C22 UNL     1       0.061  -3.170   3.841  1.00  0.00     0.000 C   
ENDBRANCH  16  30
ENDBRANCH   3  16
TORSDOF 9
