REMARK SMILES CC(C)C[C@H]([NH2+]Cc1ccc2c(c1)OCO2)c1cn(Cc2cc(F)ncc2Cl)nn1
REMARK SMILES IDX 17 1 18 2 19 3 29 4 30 5 5 7 4 8 2 9 1 10 3 11 6 12 7 15
REMARK SMILES IDX 8 16 9 17 13 18 10 19 12 20 11 21 14 22 16 23 15 24 20 25
REMARK SMILES IDX 21 26 22 27 27 28 23 29 26 30 25 31 28 32 24 33
REMARK H PARENT 18 6 6 13 6 14
ROOT
ATOM     1   C14 UNL     1      -0.296  -2.089  -0.030  1.00  0.00     0.127 A   
ATOM     2   C15 UNL     1      -1.543  -1.608   0.300  1.00  0.00     0.046 A   
ATOM     3   N2  UNL     1      -1.396  -1.174   1.588  1.00  0.00    -0.208 N   
ATOM     4   N4  UNL     1      -0.136  -1.381   2.026  1.00  0.00    -0.076 NA  
ATOM     5   N5  UNL     1       0.548  -1.943   1.042  1.00  0.00    -0.132 NA  
ATOM     6   H20 UNL     1      -2.479  -1.532  -0.238  1.00  0.00     0.083 HD  
ENDROOT
BRANCH   1   7
ATOM     7   C5  UNL     1       0.234  -2.663  -1.304  1.00  0.00     0.114 C   
BRANCH   7   8
ATOM     8   C4  UNL     1       0.238  -4.206  -1.254  1.00  0.00     0.064 C   
BRANCH   8   9
ATOM     9   C2  UNL     1       0.166  -4.891  -2.638  1.00  0.00    -0.012 C   
ATOM     10  C1  UNL     1      -0.213  -6.370  -2.468  1.00  0.00     0.007 C   
ATOM     11  C3  UNL     1       1.469  -4.790  -3.435  1.00  0.00     0.007 C   
ENDBRANCH   8   9
ENDBRANCH   7   8
BRANCH   7  12
ATOM     12  N1  UNL     1       1.640  -2.159  -1.521  1.00  0.00     0.249 N   
ATOM     13  H11 UNL     1       2.268  -2.918  -1.802  1.00  0.00     0.199 HD  
ATOM     14  H12 UNL     1       1.983  -1.863  -0.590  1.00  0.00     0.199 HD  
BRANCH  12  15
ATOM     15  C6  UNL     1       1.788  -1.009  -2.456  1.00  0.00     0.164 C   
BRANCH  15  16
ATOM     16  C7  UNL     1       1.164   0.262  -1.953  1.00  0.00    -0.002 A   
ATOM     17  C8  UNL     1      -0.086   0.702  -2.450  1.00  0.00     0.012 A   
ATOM     18  C12 UNL     1       1.816   1.016  -0.960  1.00  0.00     0.045 A   
ATOM     19  C9  UNL     1      -0.684   1.870  -1.964  1.00  0.00     0.037 A   
ATOM     20  C11 UNL     1       1.203   2.167  -0.511  1.00  0.00     0.109 A   
ATOM     21  C10 UNL     1      -0.014   2.581  -0.994  1.00  0.00     0.108 A   
ATOM     22  O1  UNL     1       1.706   3.014   0.423  1.00  0.00    -0.316 OA  
ATOM     23  O2  UNL     1      -0.433   3.737  -0.416  1.00  0.00    -0.316 OA  
ATOM     24  C13 UNL     1       0.690   4.044   0.439  1.00  0.00     0.337 C   
ENDBRANCH  15  16
ENDBRANCH  12  15
ENDBRANCH   7  12
ENDBRANCH   1   7
BRANCH   3  25
ATOM     25  C16 UNL     1      -2.406  -0.621   2.476  1.00  0.00     0.171 C   
BRANCH  25  26
ATOM     26  C17 UNL     1      -2.288   0.878   2.586  1.00  0.00    -0.004 A   
ATOM     27  C18 UNL     1      -1.513   1.431   3.619  1.00  0.00     0.067 A   
ATOM     28  C21 UNL     1      -2.906   1.763   1.694  1.00  0.00     0.064 A   
ATOM     29  C19 UNL     1      -1.407   2.810   3.729  1.00  0.00     0.213 A   
ATOM     30  C20 UNL     1      -2.740   3.133   1.889  1.00  0.00     0.135 A   
ATOM     31  N3  UNL     1      -2.002   3.676   2.885  1.00  0.00    -0.227 NA  
ATOM     32  CL1 UNL     1      -3.859   1.222   0.369  1.00  0.00    -0.082 Cl  
ATOM     33  F1  UNL     1      -0.660   3.316   4.726  1.00  0.00    -0.185 F   
ENDBRANCH  25  26
ENDBRANCH   3  25
TORSDOF 8
