REMARK SMILES CC(C)(C)[C@H]([NH2+]Cc1ccc2c(c1)OCO2)c1cn(CCc2cc(F)ccn2)nn1
REMARK SMILES IDX 17 1 18 2 19 3 29 4 30 5 5 7 2 8 1 9 3 10 4 11 6 12 7 15
REMARK SMILES IDX 8 16 9 17 13 18 10 19 12 20 11 21 14 22 16 23 15 24 20 25
REMARK SMILES IDX 21 26 22 27 23 28 28 29 24 30 27 31 26 32 25 33
REMARK H PARENT 18 6 6 13 6 14
ROOT
ATOM     1   C14 UNL     1       0.741   2.436   0.081  1.00  0.00     0.127 A   
ATOM     2   C15 UNL     1       0.498   3.333   1.096  1.00  0.00     0.045 A   
ATOM     3   N2  UNL     1      -0.772   3.771   0.849  1.00  0.00    -0.212 N   
ATOM     4   N4  UNL     1      -1.280   3.186  -0.252  1.00  0.00    -0.076 NA  
ATOM     5   N5  UNL     1      -0.364   2.360  -0.728  1.00  0.00    -0.132 NA  
ATOM     6   H20 UNL     1       1.063   3.659   1.958  1.00  0.00     0.083 HD  
ENDROOT
BRANCH   1   7
ATOM     7   C5  UNL     1       1.899   1.518  -0.163  1.00  0.00     0.120 C   
BRANCH   7   8
ATOM     8   C2  UNL     1       2.916   2.033  -1.239  1.00  0.00     0.010 C   
ATOM     9   C1  UNL     1       3.437   3.435  -0.847  1.00  0.00     0.017 C   
ATOM     10  C3  UNL     1       2.301   2.123  -2.651  1.00  0.00     0.017 C   
ATOM     11  C4  UNL     1       4.146   1.098  -1.307  1.00  0.00     0.017 C   
ENDBRANCH   7   8
BRANCH   7  12
ATOM     12  N1  UNL     1       1.361   0.160  -0.547  1.00  0.00     0.250 N   
ATOM     13  H11 UNL     1       2.076  -0.436  -0.969  1.00  0.00     0.199 HD  
ATOM     14  H12 UNL     1       0.648   0.316  -1.277  1.00  0.00     0.199 HD  
BRANCH  12  15
ATOM     15  C6  UNL     1       0.699  -0.595   0.556  1.00  0.00     0.164 C   
BRANCH  15  16
ATOM     16  C7  UNL     1       0.198  -1.920   0.057  1.00  0.00    -0.002 A   
ATOM     17  C8  UNL     1      -1.097  -2.026  -0.505  1.00  0.00     0.012 A   
ATOM     18  C12 UNL     1       1.032  -3.050   0.095  1.00  0.00     0.045 A   
ATOM     19  C9  UNL     1      -1.559  -3.244  -1.017  1.00  0.00     0.037 A   
ATOM     20  C11 UNL     1       0.544  -4.234  -0.416  1.00  0.00     0.109 A   
ATOM     21  C10 UNL     1      -0.714  -4.328  -0.958  1.00  0.00     0.108 A   
ATOM     22  O1  UNL     1       1.216  -5.414  -0.452  1.00  0.00    -0.316 OA  
ATOM     23  O2  UNL     1      -0.992  -5.581  -1.405  1.00  0.00    -0.316 OA  
ATOM     24  C13 UNL     1       0.224  -6.276  -1.055  1.00  0.00     0.337 C   
ENDBRANCH  15  16
ENDBRANCH  12  15
ENDBRANCH   7  12
ENDBRANCH   1   7
BRANCH   3  25
ATOM     25  C16 UNL     1      -1.592   4.640   1.669  1.00  0.00     0.140 C   
BRANCH  25  26
ATOM     26  C17 UNL     1      -2.817   3.928   2.240  1.00  0.00     0.077 C   
BRANCH  26  27
ATOM     27  C18 UNL     1      -2.447   2.711   3.053  1.00  0.00     0.045 A   
ATOM     28  C19 UNL     1      -3.037   1.482   2.795  1.00  0.00     0.063 A   
ATOM     29  N3  UNL     1      -1.522   2.878   4.031  1.00  0.00    -0.261 NA  
ATOM     30  C20 UNL     1      -2.662   0.405   3.582  1.00  0.00     0.126 A   
ATOM     31  C22 UNL     1      -1.210   1.808   4.798  1.00  0.00     0.114 A   
ATOM     32  C21 UNL     1      -1.745   0.551   4.607  1.00  0.00     0.059 A   
ATOM     33  F1  UNL     1      -3.191  -0.801   3.339  1.00  0.00    -0.207 F   
ENDBRANCH  26  27
ENDBRANCH  25  26
ENDBRANCH   3  25
TORSDOF 8
