REMARK SMILES Cc1csc([C@H](CO)n2cc([C@@H]([NH2+]Cc3ccc4c(c3)OCO4)C(C)(C)C)nn2)c1
REMARK SMILES IDX 9 1 10 2 11 3 28 4 29 5 6 7 5 8 2 9 3 10 30 11 4 12 1 13
REMARK SMILES IDX 7 14 8 15 12 17 13 18 14 21 15 22 16 23 20 24 17 25 19 26
REMARK SMILES IDX 18 27 21 28 23 29 22 30 24 31 25 32 26 33 27 34
REMARK H PARENT 10 6 8 16 13 19 13 20
ROOT
ATOM     1   N1  UNL     1      -2.163  -0.074  -0.756  1.00  0.00    -0.202 N   
ATOM     2   C7  UNL     1      -1.012   0.622  -0.497  1.00  0.00     0.046 A   
ATOM     3   C8  UNL     1      -0.213  -0.277   0.171  1.00  0.00     0.127 A   
ATOM     4   N3  UNL     1      -0.906  -1.449   0.342  1.00  0.00    -0.132 NA  
ATOM     5   N4  UNL     1      -2.103  -1.305  -0.203  1.00  0.00    -0.075 NA  
ATOM     6   H9  UNL     1      -0.876   1.646  -0.816  1.00  0.00     0.083 HD  
ENDROOT
BRANCH   1   7
ATOM     7   C5  UNL     1      -3.359   0.346  -1.484  1.00  0.00     0.162 C   
BRANCH   7   8
ATOM     8   C4  UNL     1      -2.991   0.933  -2.833  1.00  0.00     0.014 A   
ATOM     9   C2  UNL     1      -2.436   2.399  -4.590  1.00  0.00    -0.044 A   
ATOM     10  C3  UNL     1      -2.463   1.178  -5.234  1.00  0.00     0.049 A   
ATOM     11  C22 UNL     1      -2.744   2.245  -3.198  1.00  0.00     0.017 A   
ATOM     12  S1  UNL     1      -2.828  -0.116  -4.184  1.00  0.00    -0.100 S   
ATOM     13  C1  UNL     1      -2.151   3.705  -5.253  1.00  0.00     0.045 C   
ENDBRANCH   7   8
BRANCH   7  14
ATOM     14  C6  UNL     1      -4.263   1.252  -0.629  1.00  0.00     0.186 C   
BRANCH  14  15
ATOM     15  O1  UNL     1      -3.596   2.424  -0.150  1.00  0.00    -0.394 OA  
ATOM     16  H8  UNL     1      -4.280   2.994   0.253  1.00  0.00     0.210 HD  
ENDBRANCH  14  15
ENDBRANCH   7  14
ENDBRANCH   1   7
BRANCH   3  17
ATOM     17  C9  UNL     1       1.160  -0.140   0.758  1.00  0.00     0.120 C   
BRANCH  17  18
ATOM     18  N2  UNL     1       1.262  -1.060   1.952  1.00  0.00     0.250 N   
ATOM     19  H11 UNL     1       2.228  -1.282   2.204  1.00  0.00     0.199 HD  
ATOM     20  H12 UNL     1       0.829  -1.952   1.666  1.00  0.00     0.199 HD  
BRANCH  18  21
ATOM     21  C10 UNL     1       0.541  -0.602   3.172  1.00  0.00     0.164 C   
BRANCH  21  22
ATOM     22  C11 UNL     1       0.561  -1.677   4.221  1.00  0.00    -0.002 A   
ATOM     23  C12 UNL     1      -0.429  -2.690   4.215  1.00  0.00     0.012 A   
ATOM     24  C16 UNL     1       1.595  -1.725   5.172  1.00  0.00     0.045 A   
ATOM     25  C13 UNL     1      -0.399  -3.730   5.151  1.00  0.00     0.037 A   
ATOM     26  C15 UNL     1       1.597  -2.767   6.076  1.00  0.00     0.109 A   
ATOM     27  C14 UNL     1       0.629  -3.741   6.067  1.00  0.00     0.108 A   
ATOM     28  O2  UNL     1       2.524  -2.966   7.050  1.00  0.00    -0.316 OA  
ATOM     29  O3  UNL     1       0.823  -4.674   7.035  1.00  0.00    -0.316 OA  
ATOM     30  C17 UNL     1       2.030  -4.183   7.657  1.00  0.00     0.337 C   
ENDBRANCH  21  22
ENDBRANCH  18  21
ENDBRANCH  17  18
BRANCH  17  31
ATOM     31  C18 UNL     1       2.327  -0.429  -0.251  1.00  0.00     0.010 C   
ATOM     32  C19 UNL     1       2.216   0.500  -1.483  1.00  0.00     0.017 C   
ATOM     33  C20 UNL     1       2.334  -1.889  -0.747  1.00  0.00     0.017 C   
ATOM     34  C21 UNL     1       3.694  -0.130   0.411  1.00  0.00     0.017 C   
ENDBRANCH  17  31
ENDBRANCH   3  17
TORSDOF 9
