REMARK SMILES Cc1csc([C@@H](CO)n2cc([C@@H]([NH2+]Cc3ccc4c(c3)OCO4)C(C)(C)C)nn2)c1
REMARK SMILES IDX 9 1 10 2 11 3 28 4 29 5 6 7 5 8 2 9 3 10 30 11 4 12 1 13
REMARK SMILES IDX 7 14 8 15 12 17 13 18 14 21 15 22 16 23 20 24 17 25 19 26
REMARK SMILES IDX 18 27 21 28 23 29 22 30 24 31 25 32 26 33 27 34
REMARK H PARENT 10 6 8 16 13 19 13 20
ROOT
ATOM     1   N1  UNL     1       1.512   0.677  -2.257  1.00  0.00    -0.202 N   
ATOM     2   C7  UNL     1       0.573   0.892  -1.283  1.00  0.00     0.046 A   
ATOM     3   C8  UNL     1       1.058   1.966  -0.574  1.00  0.00     0.127 A   
ATOM     4   N3  UNL     1       2.259   2.353  -1.110  1.00  0.00    -0.132 NA  
ATOM     5   N4  UNL     1       2.522   1.569  -2.144  1.00  0.00    -0.075 NA  
ATOM     6   H9  UNL     1      -0.312   0.277  -1.192  1.00  0.00     0.083 HD  
ENDROOT
BRANCH   1   7
ATOM     7   C5  UNL     1       1.555  -0.362  -3.285  1.00  0.00     0.162 C   
BRANCH   7   8
ATOM     8   C4  UNL     1       1.516  -1.736  -2.638  1.00  0.00     0.014 A   
ATOM     9   C2  UNL     1       0.818  -3.770  -1.682  1.00  0.00    -0.044 A   
ATOM     10  C3  UNL     1       2.191  -3.854  -1.556  1.00  0.00     0.049 A   
ATOM     11  C22 UNL     1       0.438  -2.539  -2.312  1.00  0.00     0.017 A   
ATOM     12  S1  UNL     1       2.995  -2.485  -2.177  1.00  0.00    -0.100 S   
ATOM     13  C1  UNL     1      -0.139  -4.819  -1.224  1.00  0.00     0.045 C   
ENDBRANCH   7   8
BRANCH   7  14
ATOM     14  C6  UNL     1       0.491  -0.135  -4.377  1.00  0.00     0.186 C   
BRANCH  14  15
ATOM     15  O1  UNL     1      -0.843  -0.104  -3.864  1.00  0.00    -0.394 OA  
ATOM     16  H8  UNL     1      -1.442   0.051  -4.617  1.00  0.00     0.210 HD  
ENDBRANCH  14  15
ENDBRANCH   7  14
ENDBRANCH   1   7
BRANCH   3  17
ATOM     17  C9  UNL     1       0.546   2.632   0.665  1.00  0.00     0.120 C   
BRANCH  17  18
ATOM     18  N2  UNL     1       1.715   2.871   1.601  1.00  0.00     0.250 N   
ATOM     19  H11 UNL     1       2.448   3.318   1.029  1.00  0.00     0.199 HD  
ATOM     20  H12 UNL     1       1.469   3.525   2.347  1.00  0.00     0.199 HD  
BRANCH  18  21
ATOM     21  C10 UNL     1       2.330   1.651   2.209  1.00  0.00     0.164 C   
BRANCH  21  22
ATOM     22  C11 UNL     1       1.418   0.965   3.187  1.00  0.00    -0.002 A   
ATOM     23  C12 UNL     1       1.186   1.525   4.466  1.00  0.00     0.012 A   
ATOM     24  C16 UNL     1       0.758  -0.224   2.821  1.00  0.00     0.045 A   
ATOM     25  C13 UNL     1       0.302   0.919   5.364  1.00  0.00     0.037 A   
ATOM     26  C15 UNL     1      -0.109  -0.794   3.728  1.00  0.00     0.109 A   
ATOM     27  C14 UNL     1      -0.332  -0.239   4.963  1.00  0.00     0.108 A   
ATOM     28  O2  UNL     1      -0.831  -1.928   3.529  1.00  0.00    -0.316 OA  
ATOM     29  O3  UNL     1      -1.221  -0.955   5.700  1.00  0.00    -0.316 OA  
ATOM     30  C17 UNL     1      -1.512  -2.046   4.800  1.00  0.00     0.337 C   
ENDBRANCH  21  22
ENDBRANCH  18  21
ENDBRANCH  17  18
BRANCH  17  31
ATOM     31  C18 UNL     1      -0.233   3.970   0.402  1.00  0.00     0.010 C   
ATOM     32  C19 UNL     1      -1.388   3.719  -0.597  1.00  0.00     0.017 C   
ATOM     33  C20 UNL     1      -0.879   4.482   1.712  1.00  0.00     0.017 C   
ATOM     34  C21 UNL     1       0.665   5.091  -0.160  1.00  0.00     0.017 C   
ENDBRANCH  17  31
ENDBRANCH   3  17
TORSDOF 9
