REMARK SMILES CC(C)[C@H]([NH2+]Cc1ccc2c(c1)OCO2)c1cn(Cc2ccc(O)cc2F)nn1
REMARK SMILES IDX 16 1 17 2 18 3 28 4 29 5 4 7 2 8 1 9 3 10 5 11 6 14 7 15
REMARK SMILES IDX 8 16 12 17 9 18 11 19 10 20 13 21 15 22 14 23 19 24 20 25
REMARK SMILES IDX 21 26 26 27 22 28 25 29 23 30 27 31 24 32
REMARK H PARENT 17 6 5 12 5 13 24 33
ROOT
ATOM     1   C13 UNL     1       0.644  -0.646   0.997  1.00  0.00     0.127 A   
ATOM     2   C14 UNL     1       1.582   0.100   0.320  1.00  0.00     0.046 A   
ATOM     3   N2  UNL     1       1.359  -0.205  -0.996  1.00  0.00    -0.208 N   
ATOM     4   N3  UNL     1       0.363  -1.105  -1.119  1.00  0.00    -0.076 NA  
ATOM     5   N4  UNL     1      -0.085  -1.379   0.094  1.00  0.00    -0.132 NA  
ATOM     6   H18 UNL     1       2.338   0.808   0.628  1.00  0.00     0.083 HD  
ENDROOT
BRANCH   1   7
ATOM     7   C4  UNL     1       0.302  -0.728   2.450  1.00  0.00     0.117 C   
BRANCH   7   8
ATOM     8   C2  UNL     1       1.205  -1.733   3.212  1.00  0.00     0.037 C   
ATOM     9   C1  UNL     1       1.030  -3.194   2.777  1.00  0.00     0.014 C   
ATOM     10  C3  UNL     1       1.017  -1.616   4.729  1.00  0.00     0.014 C   
ENDBRANCH   7   8
BRANCH   7  11
ATOM     11  N1  UNL     1      -1.157  -1.096   2.603  1.00  0.00     0.249 N   
ATOM     12  H9  UNL     1      -1.427  -1.536   1.708  1.00  0.00     0.199 HD  
ATOM     13  H10 UNL     1      -1.286  -1.821   3.313  1.00  0.00     0.199 HD  
BRANCH  11  14
ATOM     14  C5  UNL     1      -2.099   0.026   2.873  1.00  0.00     0.164 C   
BRANCH  14  15
ATOM     15  C6  UNL     1      -2.120   1.087   1.809  1.00  0.00    -0.002 A   
ATOM     16  C7  UNL     1      -2.660   0.816   0.529  1.00  0.00     0.012 A   
ATOM     17  C11 UNL     1      -1.581   2.360   2.071  1.00  0.00     0.045 A   
ATOM     18  C8  UNL     1      -2.659   1.788  -0.477  1.00  0.00     0.037 A   
ATOM     19  C10 UNL     1      -1.596   3.296   1.058  1.00  0.00     0.109 A   
ATOM     20  C9  UNL     1      -2.118   3.019  -0.181  1.00  0.00     0.108 A   
ATOM     21  O1  UNL     1      -1.118   4.564   1.151  1.00  0.00    -0.316 OA  
ATOM     22  O2  UNL     1      -2.033   4.079  -1.027  1.00  0.00    -0.316 OA  
ATOM     23  C12 UNL     1      -1.426   5.069  -0.168  1.00  0.00     0.337 C   
ENDBRANCH  14  15
ENDBRANCH  11  14
ENDBRANCH   7  11
ENDBRANCH   1   7
BRANCH   3  24
ATOM     24  C15 UNL     1       2.064   0.286  -2.167  1.00  0.00     0.172 C   
BRANCH  24  25
ATOM     25  C16 UNL     1       1.629   1.682  -2.513  1.00  0.00     0.007 A   
ATOM     26  C17 UNL     1       0.541   1.917  -3.366  1.00  0.00     0.011 A   
ATOM     27  C21 UNL     1       2.297   2.780  -1.960  1.00  0.00     0.130 A   
ATOM     28  C18 UNL     1       0.149   3.224  -3.664  1.00  0.00     0.034 A   
ATOM     29  C20 UNL     1       1.922   4.083  -2.255  1.00  0.00     0.072 A   
ATOM     30  C19 UNL     1       0.849   4.295  -3.109  1.00  0.00     0.074 A   
ATOM     31  F1  UNL     1       3.324   2.572  -1.125  1.00  0.00    -0.207 F   
BRANCH  30  32
ATOM     32  O3  UNL     1       0.493   5.583  -3.379  1.00  0.00    -0.361 OA  
ATOM     33  H23 UNL     1      -0.124   5.583  -4.131  1.00  0.00     0.218 HD  
ENDBRANCH  30  32
ENDBRANCH  24  25
ENDBRANCH   3  24
TORSDOF 8
