REMARK SMILES Cc1c(N([O-])[O-])cccc1-n1cc([C@@H]([NH2+]Cc2ccc3c(c2)OCO3)C(C)(C)C)nn1
REMARK SMILES IDX 11 1 12 2 13 3 30 4 31 5 10 6 2 7 3 8 9 9 7 10 8 11 1 12
REMARK SMILES IDX 4 13 5 14 6 15 14 16 15 17 16 20 17 21 18 22 22 23 19 24
REMARK SMILES IDX 21 25 20 26 23 27 25 28 24 29 26 30 27 31 28 32 29 33
REMARK H PARENT 15 18 15 19
ROOT
ATOM     1   N1  UNL     1       0.517   2.009  -1.713  1.00  0.00    -0.180 N   
ATOM     2   C4  UNL     1      -0.314   0.966  -2.097  1.00  0.00     0.135 A   
ATOM     3   C5  UNL     1      -0.718   0.366  -0.924  1.00  0.00     0.128 A   
ATOM     4   N3  UNL     1      -0.121   1.004   0.123  1.00  0.00    -0.131 NA  
ATOM     5   N4  UNL     1       0.627   1.977  -0.362  1.00  0.00    -0.071 NA  
ENDROOT
BRANCH   1   6
ATOM     6   C3  UNL     1       1.153   2.994  -2.531  1.00  0.00     0.063 A   
ATOM     7   C2  UNL     1       2.140   3.890  -2.033  1.00  0.00     0.001 A   
ATOM     8   C22 UNL     1       2.613   4.888  -2.923  1.00  0.00     0.122 A   
ATOM     9   C19 UNL     1       0.752   3.086  -3.884  1.00  0.00     0.026 A   
ATOM     10  C21 UNL     1       2.202   4.972  -4.259  1.00  0.00     0.031 A   
ATOM     11  C20 UNL     1       1.278   4.058  -4.739  1.00  0.00     0.004 A   
ATOM     12  C1  UNL     1       2.705   3.805  -0.634  1.00  0.00     0.049 C   
BRANCH   8  13
ATOM     13  N5  UNL     1       3.554   5.907  -2.479  1.00  0.00     0.092 N   
ATOM     14  O3  UNL     1       4.661   5.925  -3.033  1.00  0.00    -0.138 OA  
ATOM     15  O4  UNL     1       3.169   6.679  -1.592  1.00  0.00    -0.138 OA  
ENDBRANCH   8  13
ENDBRANCH   1   6
BRANCH   3  16
ATOM     16  C6  UNL     1      -1.587  -0.831  -0.658  1.00  0.00     0.120 C   
BRANCH  16  17
ATOM     17  N2  UNL     1      -1.094  -1.518   0.595  1.00  0.00     0.250 N   
ATOM     18  H6  UNL     1      -0.915  -0.777   1.290  1.00  0.00     0.199 HD  
ATOM     19  H7  UNL     1      -1.799  -2.131   1.014  1.00  0.00     0.199 HD  
BRANCH  17  20
ATOM     20  C7  UNL     1       0.171  -2.292   0.448  1.00  0.00     0.164 C   
BRANCH  20  21
ATOM     21  C8  UNL     1       0.613  -2.829   1.779  1.00  0.00    -0.002 A   
ATOM     22  C9  UNL     1       1.394  -2.025   2.644  1.00  0.00     0.012 A   
ATOM     23  C13 UNL     1       0.207  -4.107   2.198  1.00  0.00     0.045 A   
ATOM     24  C10 UNL     1       1.778  -2.492   3.906  1.00  0.00     0.037 A   
ATOM     25  C12 UNL     1       0.604  -4.536   3.448  1.00  0.00     0.109 A   
ATOM     26  C11 UNL     1       1.367  -3.752   4.277  1.00  0.00     0.108 A   
ATOM     27  O1  UNL     1       0.301  -5.739   4.003  1.00  0.00    -0.316 OA  
ATOM     28  O2  UNL     1       1.644  -4.364   5.458  1.00  0.00    -0.316 OA  
ATOM     29  C14 UNL     1       0.987  -5.636   5.271  1.00  0.00     0.337 C   
ENDBRANCH  20  21
ENDBRANCH  17  20
ENDBRANCH  16  17
BRANCH  16  30
ATOM     30  C15 UNL     1      -3.115  -0.499  -0.529  1.00  0.00     0.010 C   
ATOM     31  C16 UNL     1      -3.619   0.217  -1.804  1.00  0.00     0.017 C   
ATOM     32  C17 UNL     1      -3.940  -1.802  -0.395  1.00  0.00     0.017 C   
ATOM     33  C18 UNL     1      -3.427   0.399   0.685  1.00  0.00     0.017 C   
ENDBRANCH  16  30
ENDBRANCH   3  16
TORSDOF 7
