REMARK SMILES CC(C)[C@H]([NH2+]Cc1ccc2c(c1)OCO2)c1cn(CCc2cc[nH]n2)nn1
REMARK SMILES IDX 16 1 17 2 18 3 26 4 27 5 4 7 2 8 1 9 3 10 5 11 6 14 7 15
REMARK SMILES IDX 8 16 12 17 9 18 11 19 10 20 13 21 15 22 14 23 19 24 20 25
REMARK SMILES IDX 21 26 22 27 25 28 23 29 24 30
REMARK H PARENT 17 6 5 12 5 13 24 31
ROOT
ATOM     1   C13 UNL     1       1.438   1.426   1.016  1.00  0.00     0.127 A   
ATOM     2   C14 UNL     1       2.720   1.924   1.056  1.00  0.00     0.045 A   
ATOM     3   N2  UNL     1       3.446   0.913   1.617  1.00  0.00    -0.212 N   
ATOM     4   N5  UNL     1       2.654  -0.124   1.951  1.00  0.00    -0.076 NA  
ATOM     5   N6  UNL     1       1.420   0.178   1.586  1.00  0.00    -0.132 NA  
ATOM     6   H18 UNL     1       3.179   2.839   0.709  1.00  0.00     0.083 HD  
ENDROOT
BRANCH   1   7
ATOM     7   C4  UNL     1       0.180   1.982   0.431  1.00  0.00     0.117 C   
BRANCH   7   8
ATOM     8   C2  UNL     1      -0.537   2.957   1.400  1.00  0.00     0.037 C   
ATOM     9   C1  UNL     1      -1.125   2.279   2.643  1.00  0.00     0.014 C   
ATOM     10  C3  UNL     1      -1.630   3.762   0.686  1.00  0.00     0.014 C   
ENDBRANCH   7   8
BRANCH   7  11
ATOM     11  N1  UNL     1      -0.742   0.859   0.039  1.00  0.00     0.249 N   
ATOM     12  H9  UNL     1      -1.715   1.162  -0.053  1.00  0.00     0.199 HD  
ATOM     13  H10 UNL     1      -0.720   0.183   0.818  1.00  0.00     0.199 HD  
BRANCH  11  14
ATOM     14  C5  UNL     1      -0.343   0.112  -1.187  1.00  0.00     0.164 C   
BRANCH  14  15
ATOM     15  C6  UNL     1      -1.208  -1.105  -1.355  1.00  0.00    -0.002 A   
ATOM     16  C7  UNL     1      -0.856  -2.314  -0.708  1.00  0.00     0.012 A   
ATOM     17  C11 UNL     1      -2.401  -1.035  -2.094  1.00  0.00     0.045 A   
ATOM     18  C8  UNL     1      -1.673  -3.445  -0.805  1.00  0.00     0.037 A   
ATOM     19  C10 UNL     1      -3.186  -2.167  -2.165  1.00  0.00     0.109 A   
ATOM     20  C9  UNL     1      -2.832  -3.338  -1.541  1.00  0.00     0.108 A   
ATOM     21  O1  UNL     1      -4.370  -2.268  -2.826  1.00  0.00    -0.316 OA  
ATOM     22  O2  UNL     1      -3.745  -4.325  -1.734  1.00  0.00    -0.316 OA  
ATOM     23  C12 UNL     1      -4.713  -3.648  -2.564  1.00  0.00     0.337 C   
ENDBRANCH  14  15
ENDBRANCH  11  14
ENDBRANCH   7  11
ENDBRANCH   1   7
BRANCH   3  24
ATOM     24  C15 UNL     1       4.869   0.865   1.886  1.00  0.00     0.140 C   
BRANCH  24  25
ATOM     25  C16 UNL     1       5.646   0.105   0.816  1.00  0.00     0.079 C   
BRANCH  25  26
ATOM     26  C17 UNL     1       5.944   0.935  -0.391  1.00  0.00     0.061 A   
ATOM     27  C18 UNL     1       7.206   1.424  -0.801  1.00  0.00     0.042 A   
ATOM     28  N4  UNL     1       4.972   1.296  -1.242  1.00  0.00    -0.189 NA  
ATOM     29  C19 UNL     1       6.963   2.093  -1.974  1.00  0.00     0.094 A   
ATOM     30  N3  UNL     1       5.627   1.971  -2.209  1.00  0.00    -0.246 N   
ATOM     31  H25 UNL     1       5.101   2.318  -3.005  1.00  0.00     0.175 HD  
ENDBRANCH  25  26
ENDBRANCH  24  25
ENDBRANCH   3  24
TORSDOF 8
