REMARK SMILES CC(C)C[C@H]([NH2+]Cc1ccc2c(c1)OCO2)c1cn(Cc2cc(Cl)ccn2)nn1
REMARK SMILES IDX 17 1 18 2 19 3 28 4 29 5 5 7 4 8 2 9 1 10 3 11 6 12 7 15
REMARK SMILES IDX 8 16 9 17 13 18 10 19 12 20 11 21 14 22 16 23 15 24 20 25
REMARK SMILES IDX 21 26 22 27 27 28 23 29 26 30 25 31 24 32
REMARK H PARENT 18 6 6 13 6 14
ROOT
ATOM     1   C14 UNL     1      -1.315  -0.260  -0.069  1.00  0.00     0.127 A   
ATOM     2   C15 UNL     1      -2.457   0.500  -0.194  1.00  0.00     0.046 A   
ATOM     3   N2  UNL     1      -2.917   0.620   1.091  1.00  0.00    -0.206 N   
ATOM     4   N4  UNL     1      -2.111  -0.031   1.952  1.00  0.00    -0.076 NA  
ATOM     5   N5  UNL     1      -1.131  -0.581   1.253  1.00  0.00    -0.132 NA  
ATOM     6   H20 UNL     1      -2.964   0.961  -1.031  1.00  0.00     0.083 HD  
ENDROOT
BRANCH   1   7
ATOM     7   C5  UNL     1      -0.324  -0.723  -1.089  1.00  0.00     0.114 C   
BRANCH   7   8
ATOM     8   C4  UNL     1      -0.809  -2.017  -1.772  1.00  0.00     0.064 C   
BRANCH   8   9
ATOM     9   C2  UNL     1       0.064  -2.552  -2.927  1.00  0.00    -0.012 C   
ATOM     10  C1  UNL     1      -0.563  -3.831  -3.493  1.00  0.00     0.007 C   
ATOM     11  C3  UNL     1       0.246  -1.526  -4.048  1.00  0.00     0.007 C   
ENDBRANCH   8   9
ENDBRANCH   7   8
BRANCH   7  12
ATOM     12  N1  UNL     1       1.009  -0.980  -0.439  1.00  0.00     0.249 N   
ATOM     13  H11 UNL     1       1.619  -1.565  -1.017  1.00  0.00     0.199 HD  
ATOM     14  H12 UNL     1       0.819  -1.518   0.419  1.00  0.00     0.199 HD  
BRANCH  12  15
ATOM     15  C6  UNL     1       1.768   0.238  -0.037  1.00  0.00     0.164 C   
BRANCH  15  16
ATOM     16  C7  UNL     1       3.026  -0.149   0.690  1.00  0.00    -0.002 A   
ATOM     17  C8  UNL     1       4.258  -0.231   0.000  1.00  0.00     0.012 A   
ATOM     18  C12 UNL     1       2.970  -0.484   2.055  1.00  0.00     0.045 A   
ATOM     19  C9  UNL     1       5.423  -0.638   0.660  1.00  0.00     0.037 A   
ATOM     20  C11 UNL     1       4.137  -0.878   2.676  1.00  0.00     0.109 A   
ATOM     21  C10 UNL     1       5.329  -0.956   1.998  1.00  0.00     0.108 A   
ATOM     22  O1  UNL     1       4.259  -1.226   3.982  1.00  0.00    -0.316 OA  
ATOM     23  O2  UNL     1       6.351  -1.363   2.793  1.00  0.00    -0.316 OA  
ATOM     24  C13 UNL     1       5.671  -1.526   4.056  1.00  0.00     0.337 C   
ENDBRANCH  15  16
ENDBRANCH  12  15
ENDBRANCH   7  12
ENDBRANCH   1   7
BRANCH   3  25
ATOM     25  C16 UNL     1      -4.100   1.315   1.560  1.00  0.00     0.190 C   
BRANCH  25  26
ATOM     26  C17 UNL     1      -3.848   2.797   1.603  1.00  0.00     0.061 A   
ATOM     27  C18 UNL     1      -3.310   3.402   2.733  1.00  0.00     0.046 A   
ATOM     28  N3  UNL     1      -4.145   3.499   0.477  1.00  0.00    -0.259 NA  
ATOM     29  C19 UNL     1      -3.098   4.776   2.704  1.00  0.00     0.044 A   
ATOM     30  C21 UNL     1      -3.939   4.836   0.493  1.00  0.00     0.113 A   
ATOM     31  C20 UNL     1      -3.419   5.516   1.575  1.00  0.00     0.040 A   
ATOM     32  CL1 UNL     1      -2.430   5.566   4.078  1.00  0.00    -0.084 Cl  
ENDBRANCH  25  26
ENDBRANCH   3  25
TORSDOF 8
