REMARK SMILES CC(C)(C)[C@H]([NH2+]Cc1ccc2c(c1)OCO2)c1cn(C(=O)c2cncc(O)c2)nn1
REMARK SMILES IDX 17 1 18 2 19 3 29 4 30 5 5 6 2 7 1 8 3 9 4 10 6 11 7 14 8 15
REMARK SMILES IDX 9 16 13 17 10 18 12 19 11 20 14 21 16 22 15 23 20 24 21 25
REMARK SMILES IDX 22 26 23 27 28 28 24 29 26 30 25 31 27 32
REMARK H PARENT 6 12 6 13 27 33
ROOT
ATOM     1   C14 UNL     1      -0.420  -1.556  -0.680  1.00  0.00     0.128 A   
ATOM     2   C15 UNL     1      -0.869  -0.324  -1.095  1.00  0.00     0.139 A   
ATOM     3   N2  UNL     1      -1.025   0.409   0.068  1.00  0.00    -0.143 N   
ATOM     4   N4  UNL     1      -0.757  -0.388   1.132  1.00  0.00    -0.068 NA  
ATOM     5   N5  UNL     1      -0.378  -1.576   0.688  1.00  0.00    -0.131 NA  
ENDROOT
BRANCH   1   6
ATOM     6   C5  UNL     1       0.127  -2.718  -1.458  1.00  0.00     0.120 C   
BRANCH   6   7
ATOM     7   C2  UNL     1      -0.871  -3.918  -1.607  1.00  0.00     0.010 C   
ATOM     8   C1  UNL     1      -1.199  -4.599  -0.264  1.00  0.00     0.017 C   
ATOM     9   C3  UNL     1      -0.283  -4.983  -2.563  1.00  0.00     0.017 C   
ATOM     10  C4  UNL     1      -2.194  -3.430  -2.240  1.00  0.00     0.017 C   
ENDBRANCH   6   7
BRANCH   6  11
ATOM     11  N1  UNL     1       1.420  -3.172  -0.798  1.00  0.00     0.250 N   
ATOM     12  H11 UNL     1       1.542  -4.185  -0.878  1.00  0.00     0.199 HD  
ATOM     13  H12 UNL     1       1.306  -2.985   0.211  1.00  0.00     0.199 HD  
BRANCH  11  14
ATOM     14  C6  UNL     1       2.680  -2.507  -1.257  1.00  0.00     0.164 C   
BRANCH  14  15
ATOM     15  C7  UNL     1       2.711  -1.025  -1.007  1.00  0.00    -0.002 A   
ATOM     16  C8  UNL     1       2.864  -0.522   0.308  1.00  0.00     0.012 A   
ATOM     17  C12 UNL     1       2.506  -0.126  -2.069  1.00  0.00     0.045 A   
ATOM     18  C9  UNL     1       2.771   0.850   0.570  1.00  0.00     0.037 A   
ATOM     19  C11 UNL     1       2.410   1.218  -1.774  1.00  0.00     0.109 A   
ATOM     20  C10 UNL     1       2.528   1.692  -0.491  1.00  0.00     0.108 A   
ATOM     21  O1  UNL     1       2.155   2.205  -2.671  1.00  0.00    -0.316 OA  
ATOM     22  O2  UNL     1       2.354   3.037  -0.417  1.00  0.00    -0.316 OA  
ATOM     23  C13 UNL     1       2.136   3.365  -1.808  1.00  0.00     0.337 C   
ENDBRANCH  14  15
ENDBRANCH  11  14
ENDBRANCH   6  11
ENDBRANCH   1   6
BRANCH   3  24
ATOM     24  C16 UNL     1      -1.297   1.779   0.201  1.00  0.00     0.272 C   
ATOM     25  O3  UNL     1      -1.367   2.419  -0.848  1.00  0.00    -0.269 OA  
BRANCH  24  26
ATOM     26  C17 UNL     1      -1.458   2.502   1.481  1.00  0.00     0.060 A   
ATOM     27  C18 UNL     1      -1.071   3.837   1.538  1.00  0.00     0.124 A   
ATOM     28  C21 UNL     1      -2.008   1.930   2.628  1.00  0.00     0.050 A   
ATOM     29  N3  UNL     1      -1.169   4.607   2.650  1.00  0.00    -0.261 NA  
ATOM     30  C20 UNL     1      -2.125   2.704   3.776  1.00  0.00     0.090 A   
ATOM     31  C19 UNL     1      -1.697   4.023   3.748  1.00  0.00     0.144 A   
BRANCH  30  32
ATOM     32  O4  UNL     1      -2.666   2.124   4.883  1.00  0.00    -0.359 OA  
ATOM     33  H23 UNL     1      -2.722   2.780   5.600  1.00  0.00     0.218 HD  
ENDBRANCH  30  32
ENDBRANCH  24  26
ENDBRANCH   3  24
TORSDOF 8
