REMARK SMILES CN(C)c1ccc(Cn2cc([C@@H]([NH2+]Cc3ccc4c(c3)OCO4)C3CCCC3)nn2)cc1
REMARK SMILES IDX 9 1 10 2 11 3 29 4 30 5 8 7 7 8 4 9 5 10 32 11 6 12 31 13
REMARK SMILES IDX 2 14 1 15 3 16 12 17 13 18 14 21 15 22 16 23 20 24 17 25
REMARK SMILES IDX 19 26 18 27 21 28 23 29 22 30 24 31 25 32 28 33 26 34 27 35
REMARK H PARENT 10 6 13 19 13 20
ROOT
ATOM     1   N2  UNL     1      -0.719   0.068  -3.014  1.00  0.00    -0.208 N   
ATOM     2   C8  UNL     1      -0.869   1.107  -2.135  1.00  0.00     0.046 A   
ATOM     3   C9  UNL     1       0.192   0.961  -1.269  1.00  0.00     0.127 A   
ATOM     4   N4  UNL     1       0.947  -0.117  -1.656  1.00  0.00    -0.132 NA  
ATOM     5   N5  UNL     1       0.382  -0.654  -2.724  1.00  0.00    -0.076 NA  
ATOM     6   H11 UNL     1      -1.703   1.792  -2.186  1.00  0.00     0.083 HD  
ENDROOT
BRANCH   1   7
ATOM     7   C7  UNL     1      -1.609  -0.333  -4.091  1.00  0.00     0.169 C   
BRANCH   7   8
ATOM     8   C6  UNL     1      -2.784  -1.098  -3.541  1.00  0.00    -0.028 A   
ATOM     9   C3  UNL     1      -4.982  -2.539  -2.396  1.00  0.00     0.028 A   
ATOM     10  C4  UNL     1      -5.093  -1.193  -2.788  1.00  0.00     0.024 A   
ATOM     11  C25 UNL     1      -3.724  -3.131  -2.593  1.00  0.00     0.024 A   
ATOM     12  C5  UNL     1      -4.023  -0.482  -3.352  1.00  0.00     0.007 A   
ATOM     13  C24 UNL     1      -2.647  -2.434  -3.158  1.00  0.00     0.007 A   
BRANCH   9  14
ATOM     14  N1  UNL     1      -6.052  -3.220  -1.802  1.00  0.00    -0.337 N   
ATOM     15  C1  UNL     1      -5.905  -4.638  -1.472  1.00  0.00     0.129 C   
ATOM     16  C2  UNL     1      -7.410  -2.812  -2.173  1.00  0.00     0.129 C   
ENDBRANCH   9  14
ENDBRANCH   7   8
ENDBRANCH   1   7
BRANCH   3  17
ATOM     17  C10 UNL     1       0.557   1.693  -0.019  1.00  0.00     0.117 C   
BRANCH  17  18
ATOM     18  N3  UNL     1       1.001   0.694   1.021  1.00  0.00     0.249 N   
ATOM     19  H13 UNL     1       1.661   0.053   0.552  1.00  0.00     0.199 HD  
ATOM     20  H14 UNL     1       1.522   1.134   1.784  1.00  0.00     0.199 HD  
BRANCH  18  21
ATOM     21  C11 UNL     1      -0.090  -0.140   1.603  1.00  0.00     0.164 C   
BRANCH  21  22
ATOM     22  C12 UNL     1       0.477  -1.162   2.546  1.00  0.00    -0.002 A   
ATOM     23  C13 UNL     1       0.832  -2.448   2.069  1.00  0.00     0.012 A   
ATOM     24  C17 UNL     1       0.705  -0.835   3.893  1.00  0.00     0.045 A   
ATOM     25  C14 UNL     1       1.398  -3.400   2.924  1.00  0.00     0.037 A   
ATOM     26  C16 UNL     1       1.269  -1.796   4.707  1.00  0.00     0.109 A   
ATOM     27  C15 UNL     1       1.605  -3.042   4.238  1.00  0.00     0.108 A   
ATOM     28  O1  UNL     1       1.559  -1.642   6.026  1.00  0.00    -0.316 OA  
ATOM     29  O2  UNL     1       2.143  -3.832   5.202  1.00  0.00    -0.316 OA  
ATOM     30  C18 UNL     1       2.103  -2.945   6.341  1.00  0.00     0.337 C   
ENDBRANCH  21  22
ENDBRANCH  18  21
ENDBRANCH  17  18
BRANCH  17  31
ATOM     31  C19 UNL     1       1.695   2.705  -0.251  1.00  0.00     0.043 C   
ATOM     32  C20 UNL     1       1.315   3.829  -1.220  1.00  0.00     0.010 C   
ATOM     33  C23 UNL     1       2.108   3.489   1.002  1.00  0.00     0.010 C   
ATOM     34  C21 UNL     1       2.397   4.874  -0.993  1.00  0.00     0.001 C   
ATOM     35  C22 UNL     1       2.735   4.786   0.491  1.00  0.00     0.001 C   
ENDBRANCH  17  31
ENDBRANCH   3  17
TORSDOF 8
