REMARK SMILES CC(C)(C)[C@H]([NH2+]Cc1ccc2c(c1)OCO2)c1cn(C(=O)c2c[nH]c3ccccc23)nn1
REMARK SMILES IDX 17 1 18 2 19 3 31 4 32 5 5 6 2 7 1 8 3 9 4 10 6 11 7 14 8 15
REMARK SMILES IDX 9 16 13 17 10 18 12 19 11 20 14 21 16 22 15 23 20 24 21 25
REMARK SMILES IDX 22 26 23 27 30 28 24 29 25 30 29 31 26 32 28 33 27 34
REMARK H PARENT 6 12 6 13 24 35
ROOT
ATOM     1   C14 UNL     1       0.056  -0.225  -0.635  1.00  0.00     0.128 A   
ATOM     2   C15 UNL     1       0.718  -1.423  -0.507  1.00  0.00     0.139 A   
ATOM     3   N2  UNL     1       2.043  -1.143  -0.809  1.00  0.00    -0.143 N   
ATOM     4   N4  UNL     1       2.155   0.185  -1.069  1.00  0.00    -0.068 NA  
ATOM     5   N5  UNL     1       0.963   0.748  -0.957  1.00  0.00    -0.131 NA  
ENDROOT
BRANCH   1   6
ATOM     6   C5  UNL     1      -1.387   0.139  -0.434  1.00  0.00     0.120 C   
BRANCH   6   7
ATOM     7   C2  UNL     1      -2.264   0.031  -1.733  1.00  0.00     0.010 C   
ATOM     8   C1  UNL     1      -1.843   1.038  -2.821  1.00  0.00     0.017 C   
ATOM     9   C3  UNL     1      -2.169  -1.393  -2.327  1.00  0.00     0.017 C   
ATOM     10  C4  UNL     1      -3.755   0.275  -1.395  1.00  0.00     0.017 C   
ENDBRANCH   6   7
BRANCH   6  11
ATOM     11  N1  UNL     1      -1.463   1.545   0.132  1.00  0.00     0.250 N   
ATOM     12  H11 UNL     1      -2.395   1.945   0.009  1.00  0.00     0.199 HD  
ATOM     13  H12 UNL     1      -0.817   2.119  -0.430  1.00  0.00     0.199 HD  
BRANCH  11  14
ATOM     14  C6  UNL     1      -1.068   1.703   1.564  1.00  0.00     0.164 C   
BRANCH  14  15
ATOM     15  C7  UNL     1      -2.046   1.063   2.510  1.00  0.00    -0.002 A   
ATOM     16  C8  UNL     1      -1.684  -0.099   3.233  1.00  0.00     0.012 A   
ATOM     17  C12 UNL     1      -3.338   1.597   2.663  1.00  0.00     0.045 A   
ATOM     18  C9  UNL     1      -2.596  -0.726   4.089  1.00  0.00     0.037 A   
ATOM     19  C11 UNL     1      -4.212   0.953   3.513  1.00  0.00     0.109 A   
ATOM     20  C10 UNL     1      -3.853  -0.176   4.205  1.00  0.00     0.108 A   
ATOM     21  O1  UNL     1      -5.492   1.332   3.765  1.00  0.00    -0.316 OA  
ATOM     22  O2  UNL     1      -4.861  -0.650   4.983  1.00  0.00    -0.316 OA  
ATOM     23  C13 UNL     1      -5.893   0.326   4.724  1.00  0.00     0.337 C   
ENDBRANCH  14  15
ENDBRANCH  11  14
ENDBRANCH   6  11
ENDBRANCH   1   6
BRANCH   3  24
ATOM     24  C16 UNL     1       3.123  -2.041  -0.904  1.00  0.00     0.272 C   
ATOM     25  O3  UNL     1       2.822  -3.228  -0.775  1.00  0.00    -0.269 OA  
BRANCH  24  26
ATOM     26  C17 UNL     1       4.503  -1.644  -1.175  1.00  0.00     0.062 A   
ATOM     27  C18 UNL     1       5.358  -2.397  -1.965  1.00  0.00     0.086 A   
ATOM     28  C24 UNL     1       5.268  -0.526  -0.696  1.00  0.00     0.010 A   
ATOM     29  N3  UNL     1       6.566  -1.763  -2.031  1.00  0.00    -0.320 N   
ATOM     30  C19 UNL     1       6.543  -0.625  -1.261  1.00  0.00     0.038 A   
ATOM     31  C23 UNL     1       5.026   0.548   0.190  1.00  0.00     0.011 A   
ATOM     32  C20 UNL     1       7.561   0.305  -1.019  1.00  0.00     0.024 A   
ATOM     33  C22 UNL     1       6.034   1.487   0.444  1.00  0.00     0.001 A   
ATOM     34  C21 UNL     1       7.282   1.367  -0.157  1.00  0.00     0.002 A   
ATOM     35  H22 UNL     1       7.374  -2.092  -2.544  1.00  0.00     0.152 HD  
ENDBRANCH  24  26
ENDBRANCH   3  24
TORSDOF 7
