REMARK SMILES CC(C)[C@H]([NH2+]Cc1ccc2c(c1)OCO2)c1cn(Cc2cc(F)ccn2)nn1
REMARK SMILES IDX 16 1 17 2 18 3 27 4 28 5 4 7 2 8 1 9 3 10 5 11 6 14 7 15
REMARK SMILES IDX 8 16 12 17 9 18 11 19 10 20 13 21 15 22 14 23 19 24 20 25
REMARK SMILES IDX 21 26 26 27 22 28 25 29 24 30 23 31
REMARK H PARENT 17 6 5 12 5 13
ROOT
ATOM     1   C13 UNL     1       0.738   0.307   0.622  1.00  0.00     0.127 A   
ATOM     2   C14 UNL     1       1.640   1.332   0.452  1.00  0.00     0.046 A   
ATOM     3   N2  UNL     1       2.724   0.730  -0.128  1.00  0.00    -0.206 N   
ATOM     4   N4  UNL     1       2.501  -0.586  -0.310  1.00  0.00    -0.076 NA  
ATOM     5   N5  UNL     1       1.292  -0.859   0.154  1.00  0.00    -0.132 NA  
ATOM     6   H18 UNL     1       1.620   2.393   0.662  1.00  0.00     0.083 HD  
ENDROOT
BRANCH   1   7
ATOM     7   C4  UNL     1      -0.666   0.298   1.135  1.00  0.00     0.117 C   
BRANCH   7   8
ATOM     8   C2  UNL     1      -0.784   0.139   2.673  1.00  0.00     0.037 C   
ATOM     9   C1  UNL     1      -0.203   1.348   3.413  1.00  0.00     0.014 C   
ATOM     10  C3  UNL     1      -0.166  -1.152   3.220  1.00  0.00     0.014 C   
ENDBRANCH   7   8
BRANCH   7  11
ATOM     11  N1  UNL     1      -1.443  -0.821   0.482  1.00  0.00     0.249 N   
ATOM     12  H9  UNL     1      -2.288  -1.059   1.011  1.00  0.00     0.199 HD  
ATOM     13  H10 UNL     1      -0.838  -1.657   0.510  1.00  0.00     0.199 HD  
BRANCH  11  14
ATOM     14  C5  UNL     1      -1.806  -0.597  -0.946  1.00  0.00     0.164 C   
BRANCH  14  15
ATOM     15  C6  UNL     1      -2.453  -1.827  -1.518  1.00  0.00    -0.002 A   
ATOM     16  C7  UNL     1      -1.651  -2.902  -1.972  1.00  0.00     0.012 A   
ATOM     17  C11 UNL     1      -3.853  -1.945  -1.553  1.00  0.00     0.045 A   
ATOM     18  C8  UNL     1      -2.235  -4.078  -2.458  1.00  0.00     0.037 A   
ATOM     19  C10 UNL     1      -4.395  -3.117  -2.041  1.00  0.00     0.109 A   
ATOM     20  C9  UNL     1      -3.609  -4.154  -2.478  1.00  0.00     0.108 A   
ATOM     21  O1  UNL     1      -5.722  -3.394  -2.141  1.00  0.00    -0.316 OA  
ATOM     22  O2  UNL     1      -4.341  -5.217  -2.906  1.00  0.00    -0.316 OA  
ATOM     23  C12 UNL     1      -5.684  -4.720  -2.721  1.00  0.00     0.337 C   
ENDBRANCH  14  15
ENDBRANCH  11  14
ENDBRANCH   7  11
ENDBRANCH   1   7
BRANCH   3  24
ATOM     24  C15 UNL     1       3.979   1.335  -0.533  1.00  0.00     0.190 C   
BRANCH  24  25
ATOM     25  C16 UNL     1       3.801   2.076  -1.830  1.00  0.00     0.063 A   
ATOM     26  C17 UNL     1       3.959   1.427  -3.049  1.00  0.00     0.064 A   
ATOM     27  N3  UNL     1       3.448   3.388  -1.748  1.00  0.00    -0.259 NA  
ATOM     28  C18 UNL     1       3.772   2.166  -4.207  1.00  0.00     0.126 A   
ATOM     29  C20 UNL     1       3.292   4.075  -2.905  1.00  0.00     0.114 A   
ATOM     30  C19 UNL     1       3.442   3.510  -4.154  1.00  0.00     0.059 A   
ATOM     31  F1  UNL     1       3.908   1.567  -5.397  1.00  0.00    -0.207 F   
ENDBRANCH  24  25
ENDBRANCH   3  24
TORSDOF 7
