REMARK SMILES FC(F)(F)c1n[nH]cc1Cn1cc([C@@H]([NH2+]Cc2ccc3c(c2)OCO3)C2CCCCC2)nn1
REMARK SMILES IDX 11 1 12 2 13 3 32 4 33 5 10 7 9 8 5 9 6 10 7 11 8 12 2 14
REMARK SMILES IDX 1 15 3 16 4 17 14 18 15 19 16 22 17 23 18 24 22 25 19 26
REMARK SMILES IDX 21 27 20 28 23 29 25 30 24 31 26 32 27 33 31 34 28 35 30 36
REMARK SMILES IDX 29 37
REMARK H PARENT 12 6 7 13 15 20 15 21
ROOT
ATOM     1   N3  UNL     1      -1.234   1.282   2.660  1.00  0.00    -0.208 N   
ATOM     2   C6  UNL     1      -1.286   0.546   1.507  1.00  0.00     0.046 A   
ATOM     3   C7  UNL     1      -0.297  -0.399   1.669  1.00  0.00     0.127 A   
ATOM     4   N5  UNL     1       0.286  -0.231   2.898  1.00  0.00    -0.132 NA  
ATOM     5   N6  UNL     1      -0.293   0.798   3.492  1.00  0.00    -0.076 NA  
ATOM     6   H5  UNL     1      -1.967   0.778   0.699  1.00  0.00     0.083 HD  
ENDROOT
BRANCH   1   7
ATOM     7   C5  UNL     1      -1.979   2.481   3.016  1.00  0.00     0.173 C   
BRANCH   7   8
ATOM     8   C4  UNL     1      -1.902   3.518   1.942  1.00  0.00     0.019 A   
ATOM     9   C2  UNL     1      -0.734   4.150   1.393  1.00  0.00     0.168 A   
ATOM     10  N1  UNL     1      -1.076   5.004   0.409  1.00  0.00    -0.179 NA  
ATOM     11  N2  UNL     1      -2.416   4.991   0.388  1.00  0.00    -0.245 N   
ATOM     12  C3  UNL     1      -2.957   4.101   1.267  1.00  0.00     0.099 A   
ATOM     13  H1  UNL     1      -2.896   5.610  -0.261  1.00  0.00     0.175 HD  
BRANCH   9  14
ATOM     14  C1  UNL     1       0.708   3.905   1.776  1.00  0.00     0.435 C   
ATOM     15  F1  UNL     1       1.551   4.911   1.436  1.00  0.00    -0.164 F   
ATOM     16  F2  UNL     1       0.842   3.715   3.116  1.00  0.00    -0.164 F   
ATOM     17  F3  UNL     1       1.189   2.773   1.181  1.00  0.00    -0.164 F   
ENDBRANCH   9  14
ENDBRANCH   7   8
ENDBRANCH   1   7
BRANCH   3  18
ATOM     18  C8  UNL     1       0.247  -1.434   0.739  1.00  0.00     0.117 C   
BRANCH  18  19
ATOM     19  N4  UNL     1       1.738  -1.585   0.958  1.00  0.00     0.249 N   
ATOM     20  H7  UNL     1       1.870  -1.666   1.976  1.00  0.00     0.199 HD  
ATOM     21  H8  UNL     1       2.079  -2.451   0.532  1.00  0.00     0.199 HD  
BRANCH  19  22
ATOM     22  C9  UNL     1       2.591  -0.444   0.505  1.00  0.00     0.164 C   
BRANCH  22  23
ATOM     23  C10 UNL     1       2.705  -0.364  -0.992  1.00  0.00    -0.002 A   
ATOM     24  C11 UNL     1       3.526  -1.278  -1.696  1.00  0.00     0.012 A   
ATOM     25  C15 UNL     1       1.974   0.602  -1.706  1.00  0.00     0.045 A   
ATOM     26  C12 UNL     1       3.619  -1.233  -3.091  1.00  0.00     0.037 A   
ATOM     27  C14 UNL     1       2.086   0.616  -3.081  1.00  0.00     0.109 A   
ATOM     28  C13 UNL     1       2.886  -0.274  -3.753  1.00  0.00     0.108 A   
ATOM     29  O1  UNL     1       1.444   1.472  -3.919  1.00  0.00    -0.316 OA  
ATOM     30  O2  UNL     1       2.856  -0.086  -5.098  1.00  0.00    -0.316 OA  
ATOM     31  C16 UNL     1       1.971   1.051  -5.198  1.00  0.00     0.337 C   
ENDBRANCH  22  23
ENDBRANCH  19  22
ENDBRANCH  18  19
BRANCH  18  32
ATOM     32  C17 UNL     1      -0.413  -2.833   0.881  1.00  0.00     0.043 C   
ATOM     33  C18 UNL     1      -0.263  -3.468   2.277  1.00  0.00     0.010 C   
ATOM     34  C22 UNL     1      -1.898  -2.801   0.468  1.00  0.00     0.010 C   
ATOM     35  C19 UNL     1      -0.907  -4.853   2.339  1.00  0.00     0.001 C   
ATOM     36  C21 UNL     1      -2.534  -4.188   0.531  1.00  0.00     0.001 C   
ATOM     37  C20 UNL     1      -2.369  -4.819   1.909  1.00  0.00     0.000 C   
ENDBRANCH  18  32
ENDBRANCH   3  18
TORSDOF 8
