REMARK SMILES CC(C)[C@H]([NH2+]Cc1ccc2c(c1)OCO2)c1cn(Cc2ccc([S+]([O-])[O-])cc2)nn1
REMARK SMILES IDX 16 1 17 2 18 3 29 4 30 5 4 7 2 8 1 9 3 10 5 11 6 14 7 15
REMARK SMILES IDX 8 16 12 17 9 18 11 19 10 20 13 21 15 22 14 23 19 24 20 25
REMARK SMILES IDX 21 26 28 27 22 28 27 29 23 30 24 31 25 32 26 33
REMARK H PARENT 17 6 5 12 5 13
ROOT
ATOM     1   C13 UNL     1       1.731   0.212  -1.478  1.00  0.00     0.127 A   
ATOM     2   C14 UNL     1       2.816  -0.614  -1.686  1.00  0.00     0.046 A   
ATOM     3   N2  UNL     1       2.366  -1.529  -2.614  1.00  0.00    -0.208 N   
ATOM     4   N3  UNL     1       1.197  -1.114  -3.143  1.00  0.00    -0.076 NA  
ATOM     5   N4  UNL     1       0.789  -0.066  -2.441  1.00  0.00    -0.132 NA  
ATOM     6   H18 UNL     1       3.744  -0.756  -1.155  1.00  0.00     0.083 HD  
ENDROOT
BRANCH   1   7
ATOM     7   C4  UNL     1       1.434   1.224  -0.405  1.00  0.00     0.117 C   
BRANCH   7   8
ATOM     8   C2  UNL     1       2.659   2.090   0.005  1.00  0.00     0.037 C   
ATOM     9   C1  UNL     1       3.591   1.451   1.040  1.00  0.00     0.014 C   
ATOM     10  C3  UNL     1       2.206   3.462   0.528  1.00  0.00     0.014 C   
ENDBRANCH   7   8
BRANCH   7  11
ATOM     11  N1  UNL     1       0.763   0.652   0.802  1.00  0.00     0.249 N   
ATOM     12  H9  UNL     1       0.748   1.299   1.591  1.00  0.00     0.199 HD  
ATOM     13  H10 UNL     1       1.323  -0.130   1.224  1.00  0.00     0.199 HD  
BRANCH  11  14
ATOM     14  C5  UNL     1      -0.609   0.098   0.648  1.00  0.00     0.164 C   
BRANCH  14  15
ATOM     15  C6  UNL     1      -1.617   1.133   0.211  1.00  0.00    -0.002 A   
ATOM     16  C7  UNL     1      -2.148   1.108  -1.100  1.00  0.00     0.012 A   
ATOM     17  C11 UNL     1      -2.014   2.149   1.100  1.00  0.00     0.045 A   
ATOM     18  C8  UNL     1      -3.057   2.082  -1.527  1.00  0.00     0.037 A   
ATOM     19  C10 UNL     1      -2.910   3.094   0.647  1.00  0.00     0.109 A   
ATOM     20  C9  UNL     1      -3.417   3.062  -0.629  1.00  0.00     0.108 A   
ATOM     21  O1  UNL     1      -3.390   4.140   1.370  1.00  0.00    -0.316 OA  
ATOM     22  O2  UNL     1      -4.281   4.083  -0.870  1.00  0.00    -0.316 OA  
ATOM     23  C12 UNL     1      -4.283   4.746   0.412  1.00  0.00     0.337 C   
ENDBRANCH  14  15
ENDBRANCH  11  14
ENDBRANCH   7  11
ENDBRANCH   1   7
BRANCH   3  24
ATOM     24  C15 UNL     1       2.750  -2.946  -2.680  1.00  0.00     0.169 C   
BRANCH  24  25
ATOM     25  C16 UNL     1       2.459  -3.537  -1.310  1.00  0.00    -0.028 A   
ATOM     26  C17 UNL     1       1.114  -3.701  -0.935  1.00  0.00     0.010 A   
ATOM     27  C21 UNL     1       3.459  -3.497  -0.325  1.00  0.00     0.010 A   
ATOM     28  C18 UNL     1       0.754  -3.521   0.395  1.00  0.00     0.063 A   
ATOM     29  C20 UNL     1       3.091  -3.308   1.004  1.00  0.00     0.063 A   
ATOM     30  C19 UNL     1       1.738  -3.206   1.333  1.00  0.00     0.167 A   
BRANCH  30  31
ATOM     31  S1  UNL     1       1.285  -2.262   2.828  1.00  0.00     0.041 S   
ATOM     32  O3  UNL     1      -0.224  -2.249   2.889  1.00  0.00    -0.672 OA  
ATOM     33  O4  UNL     1       1.844  -0.876   2.558  1.00  0.00    -0.672 OA  
ENDBRANCH  30  31
ENDBRANCH  24  25
ENDBRANCH   3  24
TORSDOF 8
