REMARK SMILES Cc1cc(Cn2cc([C@H](CC(C)C)[NH2+]Cc3ccc4c(c3)OCO4)nn2)no1
REMARK SMILES IDX 6 1 7 2 8 3 25 4 26 5 5 7 4 8 2 9 3 10 28 11 27 12 1 13 9 14
REMARK SMILES IDX 10 15 11 16 12 17 13 18 14 19 15 22 16 23 17 24 21 25 18 26
REMARK SMILES IDX 20 27 19 28 22 29 24 30 23 31
REMARK H PARENT 7 6 14 20 14 21
ROOT
ATOM     1   N1  UNL     1       1.524  -3.645  -0.279  1.00  0.00    -0.206 N   
ATOM     2   C6  UNL     1       1.040  -2.890   0.756  1.00  0.00     0.046 A   
ATOM     3   C7  UNL     1       0.182  -2.002   0.147  1.00  0.00     0.127 A   
ATOM     4   N3  UNL     1       0.149  -2.259  -1.200  1.00  0.00    -0.132 NA  
ATOM     5   N4  UNL     1       0.974  -3.264  -1.449  1.00  0.00    -0.076 NA  
ATOM     6   H7  UNL     1       1.371  -3.031   1.776  1.00  0.00     0.083 HD  
ENDROOT
BRANCH   1   7
ATOM     7   C5  UNL     1       2.504  -4.716  -0.227  1.00  0.00     0.192 C   
BRANCH   7   8
ATOM     8   C4  UNL     1       3.878  -4.155  -0.284  1.00  0.00     0.090 A   
ATOM     9   C2  UNL     1       5.923  -3.578  -0.859  1.00  0.00     0.084 A   
ATOM     10  C3  UNL     1       4.828  -4.259  -1.327  1.00  0.00     0.059 A   
ATOM     11  O3  UNL     1       5.652  -3.091   0.381  1.00  0.00    -0.218 OA  
ATOM     12  N5  UNL     1       4.368  -3.454   0.749  1.00  0.00    -0.132 NA  
ATOM     13  C1  UNL     1       7.263  -3.286  -1.398  1.00  0.00     0.075 C   
ENDBRANCH   7   8
ENDBRANCH   1   7
BRANCH   3  14
ATOM     14  C8  UNL     1      -0.601  -0.857   0.701  1.00  0.00     0.114 C   
BRANCH  14  15
ATOM     15  C9  UNL     1      -2.049  -1.286   1.012  1.00  0.00     0.064 C   
BRANCH  15  16
ATOM     16  C10 UNL     1      -2.964  -0.218   1.647  1.00  0.00    -0.012 C   
ATOM     17  C11 UNL     1      -2.389   0.351   2.945  1.00  0.00     0.007 C   
ATOM     18  C12 UNL     1      -4.347  -0.821   1.915  1.00  0.00     0.007 C   
ENDBRANCH  15  16
ENDBRANCH  14  15
BRANCH  14  19
ATOM     19  N2  UNL     1      -0.620   0.280  -0.284  1.00  0.00     0.249 N   
ATOM     20  H18 UNL     1      -1.326   0.982  -0.046  1.00  0.00     0.199 HD  
ATOM     21  H19 UNL     1      -0.897  -0.117  -1.195  1.00  0.00     0.199 HD  
BRANCH  19  22
ATOM     22  C13 UNL     1       0.686   0.973  -0.480  1.00  0.00     0.164 C   
BRANCH  22  23
ATOM     23  C14 UNL     1       0.539   2.088  -1.476  1.00  0.00    -0.002 A   
ATOM     24  C15 UNL     1       0.272   3.408  -1.043  1.00  0.00     0.012 A   
ATOM     25  C19 UNL     1       0.612   1.811  -2.853  1.00  0.00     0.045 A   
ATOM     26  C16 UNL     1       0.089   4.443  -1.966  1.00  0.00     0.037 A   
ATOM     27  C18 UNL     1       0.425   2.855  -3.736  1.00  0.00     0.109 A   
ATOM     28  C17 UNL     1       0.171   4.133  -3.305  1.00  0.00     0.108 A   
ATOM     29  O1  UNL     1       0.462   2.760  -5.091  1.00  0.00    -0.316 OA  
ATOM     30  O2  UNL     1       0.018   5.006  -4.335  1.00  0.00    -0.316 OA  
ATOM     31  C20 UNL     1       0.224   4.136  -5.468  1.00  0.00     0.337 C   
ENDBRANCH  22  23
ENDBRANCH  19  22
ENDBRANCH  14  19
ENDBRANCH   3  14
TORSDOF 8
