REMARK SMILES COc1cc(F)cc(F)c1Cn1cc([C@H](CC(C)C)[NH2+]Cc2ccc3c(c2)OCO3)nn1
REMARK SMILES IDX 12 1 13 2 14 3 31 4 32 5 11 7 10 8 3 9 4 10 5 11 8 12 7 13
REMARK SMILES IDX 6 14 9 15 2 16 1 17 15 18 16 19 17 20 18 21 19 22 20 23
REMARK SMILES IDX 21 26 22 27 23 28 27 29 24 30 26 31 25 32 28 33 30 34 29 35
REMARK H PARENT 13 6 20 24 20 25
ROOT
ATOM     1   N1  UNL     1      -1.046   0.368  -2.167  1.00  0.00    -0.208 N   
ATOM     2   C9  UNL     1      -1.517   0.077  -0.914  1.00  0.00     0.046 A   
ATOM     3   C10 UNL     1      -1.136   1.160  -0.155  1.00  0.00     0.127 A   
ATOM     4   N3  UNL     1      -0.476   2.060  -0.952  1.00  0.00    -0.132 NA  
ATOM     5   N4  UNL     1      -0.433   1.569  -2.179  1.00  0.00    -0.076 NA  
ATOM     6   H8  UNL     1      -2.046  -0.840  -0.692  1.00  0.00     0.083 HD  
ENDROOT
BRANCH   1   7
ATOM     7   C8  UNL     1      -1.218  -0.393  -3.393  1.00  0.00     0.175 C   
BRANCH   7   8
ATOM     8   C7  UNL     1      -0.444  -1.685  -3.362  1.00  0.00     0.038 A   
ATOM     9   C2  UNL     1       0.897  -1.759  -3.781  1.00  0.00     0.085 A   
ATOM     10  C3  UNL     1       1.567  -2.984  -3.731  1.00  0.00     0.073 A   
ATOM     11  C4  UNL     1       0.909  -4.118  -3.262  1.00  0.00     0.128 A   
ATOM     12  C6  UNL     1      -1.069  -2.846  -2.889  1.00  0.00     0.133 A   
ATOM     13  C5  UNL     1      -0.407  -4.063  -2.837  1.00  0.00     0.079 A   
ATOM     14  F1  UNL     1       1.570  -5.281  -3.198  1.00  0.00    -0.207 F   
ATOM     15  F2  UNL     1      -2.338  -2.784  -2.459  1.00  0.00    -0.206 F   
BRANCH   9  16
ATOM     16  O1  UNL     1       1.451  -0.584  -4.208  1.00  0.00    -0.349 OA  
ATOM     17  C1  UNL     1       2.767  -0.637  -4.751  1.00  0.00     0.203 C   
ENDBRANCH   9  16
ENDBRANCH   7   8
ENDBRANCH   1   7
BRANCH   3  18
ATOM     18  C11 UNL     1      -1.273   1.451   1.301  1.00  0.00     0.114 C   
BRANCH  18  19
ATOM     19  C12 UNL     1      -2.472   2.367   1.612  1.00  0.00     0.064 C   
BRANCH  19  20
ATOM     20  C13 UNL     1      -3.858   1.775   1.278  1.00  0.00    -0.012 C   
ATOM     21  C14 UNL     1      -4.146   0.488   2.054  1.00  0.00     0.007 C   
ATOM     22  C15 UNL     1      -4.947   2.810   1.576  1.00  0.00     0.007 C   
ENDBRANCH  19  20
ENDBRANCH  18  19
BRANCH  18  23
ATOM     23  N2  UNL     1      -0.022   2.176   1.770  1.00  0.00     0.249 N   
ATOM     24  H19 UNL     1      -0.265   2.954   2.391  1.00  0.00     0.199 HD  
ATOM     25  H20 UNL     1       0.380   2.613   0.924  1.00  0.00     0.199 HD  
BRANCH  23  26
ATOM     26  C16 UNL     1       1.026   1.342   2.418  1.00  0.00     0.164 C   
BRANCH  26  27
ATOM     27  C17 UNL     1       1.560   0.224   1.566  1.00  0.00    -0.002 A   
ATOM     28  C18 UNL     1       2.295   0.501   0.388  1.00  0.00     0.012 A   
ATOM     29  C22 UNL     1       1.330  -1.113   1.935  1.00  0.00     0.045 A   
ATOM     30  C19 UNL     1       2.788  -0.535  -0.414  1.00  0.00     0.037 A   
ATOM     31  C21 UNL     1       1.838  -2.109   1.127  1.00  0.00     0.109 A   
ATOM     32  C20 UNL     1       2.548  -1.829  -0.014  1.00  0.00     0.108 A   
ATOM     33  O2  UNL     1       1.712  -3.444   1.346  1.00  0.00    -0.316 OA  
ATOM     34  O3  UNL     1       2.964  -2.953  -0.653  1.00  0.00    -0.316 OA  
ATOM     35  C23 UNL     1       2.476  -3.976   0.240  1.00  0.00     0.337 C   
ENDBRANCH  26  27
ENDBRANCH  23  26
ENDBRANCH  18  23
ENDBRANCH   3  18
TORSDOF 9
