REMARK SMILES CC(C)[C@H]([NH2+]Cc1ccc2c(c1)OCO2)c1cn(Cc2ncccc2F)nn1
REMARK SMILES IDX 16 1 17 2 18 3 27 4 28 5 4 7 2 8 1 9 3 10 5 11 6 14 7 15
REMARK SMILES IDX 8 16 12 17 9 18 11 19 10 20 13 21 15 22 14 23 19 24 20 25
REMARK SMILES IDX 21 26 25 27 22 28 24 29 23 30 26 31
REMARK H PARENT 17 6 5 12 5 13
ROOT
ATOM     1   C13 UNL     1      -1.072  -0.972   0.146  1.00  0.00     0.127 A   
ATOM     2   C14 UNL     1      -2.279  -1.372   0.672  1.00  0.00     0.046 A   
ATOM     3   N2  UNL     1      -2.922  -0.197   0.960  1.00  0.00    -0.206 N   
ATOM     4   N4  UNL     1      -2.180   0.859   0.574  1.00  0.00    -0.076 NA  
ATOM     5   N5  UNL     1      -1.037   0.399   0.094  1.00  0.00    -0.132 NA  
ATOM     6   H18 UNL     1      -2.720  -2.336   0.892  1.00  0.00     0.083 HD  
ENDROOT
BRANCH   1   7
ATOM     7   C4  UNL     1       0.099  -1.759  -0.352  1.00  0.00     0.117 C   
BRANCH   7   8
ATOM     8   C2  UNL     1       0.970  -2.308   0.810  1.00  0.00     0.037 C   
ATOM     9   C1  UNL     1       1.710  -1.221   1.598  1.00  0.00     0.014 C   
ATOM     10  C3  UNL     1       1.968  -3.363   0.320  1.00  0.00     0.014 C   
ENDBRANCH   7   8
BRANCH   7  11
ATOM     11  N1  UNL     1       0.937  -0.920  -1.280  1.00  0.00     0.249 N   
ATOM     12  H9  UNL     1       1.897  -1.267  -1.361  1.00  0.00     0.199 HD  
ATOM     13  H10 UNL     1       1.004   0.015  -0.849  1.00  0.00     0.199 HD  
BRANCH  11  14
ATOM     14  C5  UNL     1       0.374  -0.729  -2.645  1.00  0.00     0.164 C   
BRANCH  14  15
ATOM     15  C6  UNL     1       1.251   0.188  -3.450  1.00  0.00    -0.002 A   
ATOM     16  C7  UNL     1       2.253  -0.338  -4.299  1.00  0.00     0.012 A   
ATOM     17  C11 UNL     1       1.114   1.581  -3.318  1.00  0.00     0.045 A   
ATOM     18  C8  UNL     1       3.102   0.511  -5.019  1.00  0.00     0.037 A   
ATOM     19  C10 UNL     1       1.967   2.389  -4.041  1.00  0.00     0.109 A   
ATOM     20  C9  UNL     1       2.933   1.869  -4.867  1.00  0.00     0.108 A   
ATOM     21  O1  UNL     1       1.970   3.747  -4.029  1.00  0.00    -0.316 OA  
ATOM     22  O2  UNL     1       3.664   2.835  -5.482  1.00  0.00    -0.316 OA  
ATOM     23  C12 UNL     1       3.036   4.028  -4.965  1.00  0.00     0.337 C   
ENDBRANCH  14  15
ENDBRANCH  11  14
ENDBRANCH   7  11
ENDBRANCH   1   7
BRANCH   3  24
ATOM     24  C15 UNL     1      -4.241  -0.013   1.536  1.00  0.00     0.193 C   
BRANCH  24  25
ATOM     25  C16 UNL     1      -4.220  -0.332   3.002  1.00  0.00     0.095 A   
ATOM     26  N3  UNL     1      -4.407  -1.633   3.363  1.00  0.00    -0.256 NA  
ATOM     27  C20 UNL     1      -3.994   0.673   3.935  1.00  0.00     0.146 A   
ATOM     28  C17 UNL     1      -4.390  -1.912   4.689  1.00  0.00     0.111 A   
ATOM     29  C19 UNL     1      -3.973   0.359   5.287  1.00  0.00     0.043 A   
ATOM     30  C18 UNL     1      -4.178  -0.961   5.675  1.00  0.00     0.023 A   
ATOM     31  F1  UNL     1      -3.801   1.940   3.545  1.00  0.00    -0.205 F   
ENDBRANCH  24  25
ENDBRANCH   3  24
TORSDOF 7
