REMARK SMILES Cc1cc(-n2cc([C@@H]([NH2+]Cc3ccc4c(c3)OCO4)C3CCCCC3)nn2)ccc1O
REMARK SMILES IDX 5 1 6 2 7 3 26 4 27 5 4 6 2 7 3 8 30 9 29 10 28 11 1 12
REMARK SMILES IDX 31 13 8 15 9 16 10 19 11 20 12 21 16 22 13 23 15 24 14 25
REMARK SMILES IDX 17 26 19 27 18 28 20 29 21 30 25 31 22 32 24 33 23 34
REMARK H PARENT 31 14 9 17 9 18
ROOT
ATOM     1   N1  UNL     1       0.464  -0.582   1.368  1.00  0.00    -0.181 N   
ATOM     2   C5  UNL     1      -0.911  -0.478   1.270  1.00  0.00     0.135 A   
ATOM     3   C6  UNL     1      -1.227  -1.072   0.070  1.00  0.00     0.127 A   
ATOM     4   N3  UNL     1      -0.084  -1.543  -0.512  1.00  0.00    -0.131 NA  
ATOM     5   N4  UNL     1       0.930  -1.238   0.274  1.00  0.00    -0.071 NA  
ENDROOT
BRANCH   1   6
ATOM     6   C4  UNL     1       1.329  -0.096   2.378  1.00  0.00     0.058 A   
ATOM     7   C2  UNL     1       1.694   1.045   4.500  1.00  0.00    -0.019 A   
ATOM     8   C3  UNL     1       0.822   0.557   3.514  1.00  0.00     0.032 A   
ATOM     9   C24 UNL     1       3.075   0.873   4.330  1.00  0.00     0.074 A   
ATOM     10  C23 UNL     1       3.590   0.224   3.209  1.00  0.00     0.035 A   
ATOM     11  C22 UNL     1       2.718  -0.264   2.233  1.00  0.00     0.028 A   
ATOM     12  C1  UNL     1       1.152   1.725   5.730  1.00  0.00     0.047 C   
BRANCH   9  13
ATOM     13  O3  UNL     1       3.913   1.352   5.294  1.00  0.00    -0.361 OA  
ATOM     14  H29 UNL     1       4.833   1.233   5.004  1.00  0.00     0.218 HD  
ENDBRANCH   9  13
ENDBRANCH   1   6
BRANCH   3  15
ATOM     15  C7  UNL     1      -2.524  -1.198  -0.665  1.00  0.00     0.117 C   
BRANCH  15  16
ATOM     16  N2  UNL     1      -2.265  -1.185  -2.155  1.00  0.00     0.249 N   
ATOM     17  H7  UNL     1      -1.294  -1.519  -2.273  1.00  0.00     0.199 HD  
ATOM     18  H8  UNL     1      -2.851  -1.869  -2.642  1.00  0.00     0.199 HD  
BRANCH  16  19
ATOM     19  C8  UNL     1      -2.384   0.134  -2.844  1.00  0.00     0.164 C   
BRANCH  19  20
ATOM     20  C9  UNL     1      -1.449   1.185  -2.315  1.00  0.00    -0.002 A   
ATOM     21  C10 UNL     1      -0.063   1.114  -2.597  1.00  0.00     0.012 A   
ATOM     22  C14 UNL     1      -1.930   2.215  -1.492  1.00  0.00     0.045 A   
ATOM     23  C11 UNL     1       0.832   2.045  -2.062  1.00  0.00     0.037 A   
ATOM     24  C13 UNL     1      -1.022   3.115  -0.978  1.00  0.00     0.109 A   
ATOM     25  C12 UNL     1       0.320   3.032  -1.256  1.00  0.00     0.108 A   
ATOM     26  O1  UNL     1      -1.319   4.151  -0.151  1.00  0.00    -0.316 OA  
ATOM     27  O2  UNL     1       1.037   4.008  -0.645  1.00  0.00    -0.316 OA  
ATOM     28  C15 UNL     1      -0.012   4.742   0.030  1.00  0.00     0.337 C   
ENDBRANCH  19  20
ENDBRANCH  16  19
ENDBRANCH  15  16
BRANCH  15  29
ATOM     29  C16 UNL     1      -3.314  -2.468  -0.256  1.00  0.00     0.043 C   
ATOM     30  C17 UNL     1      -4.763  -2.417  -0.784  1.00  0.00     0.010 C   
ATOM     31  C21 UNL     1      -2.636  -3.791  -0.666  1.00  0.00     0.010 C   
ATOM     32  C18 UNL     1      -5.570  -3.642  -0.359  1.00  0.00     0.001 C   
ATOM     33  C20 UNL     1      -3.457  -5.005  -0.234  1.00  0.00     0.001 C   
ATOM     34  C19 UNL     1      -4.884  -4.939  -0.767  1.00  0.00     0.000 C   
ENDBRANCH  15  29
ENDBRANCH   3  15
TORSDOF 7
