REMARK SMILES Cc1cc(C(=O)n2cc([C@@H]([NH2+]Cc3ccc4c(c3)OCO4)C(C)(C)C)nn2)nc(Cl)n1
REMARK SMILES IDX 7 1 8 2 9 3 26 4 27 5 5 6 6 7 4 8 2 9 3 10 31 11 29 12 28 13
REMARK SMILES IDX 1 14 30 15 10 16 11 17 12 20 13 21 14 22 18 23 15 24 17 25
REMARK SMILES IDX 16 26 19 27 21 28 20 29 22 30 23 31 24 32 25 33
REMARK H PARENT 11 18 11 19
ROOT
ATOM     1   N1  UNL     1      -1.076   0.538   1.028  1.00  0.00    -0.142 N   
ATOM     2   C6  UNL     1      -0.078  -0.209   1.635  1.00  0.00     0.139 A   
ATOM     3   C7  UNL     1       1.045   0.582   1.572  1.00  0.00     0.128 A   
ATOM     4   N3  UNL     1       0.707   1.791   1.032  1.00  0.00    -0.131 NA  
ATOM     5   N4  UNL     1      -0.579   1.761   0.724  1.00  0.00    -0.068 NA  
ENDROOT
BRANCH   1   6
ATOM     6   C5  UNL     1      -2.392   0.143   0.739  1.00  0.00     0.289 C   
ATOM     7   O1  UNL     1      -2.730  -0.955   1.183  1.00  0.00    -0.268 OA  
BRANCH   6   8
ATOM     8   C4  UNL     1      -3.373   0.929  -0.059  1.00  0.00     0.133 A   
ATOM     9   C2  UNL     1      -5.544   1.258  -0.896  1.00  0.00     0.043 A   
ATOM     10  C3  UNL     1      -4.690   0.503  -0.117  1.00  0.00     0.057 A   
ATOM     11  N6  UNL     1      -5.120   2.343  -1.575  1.00  0.00    -0.223 NA  
ATOM     12  C21 UNL     1      -3.827   2.661  -1.443  1.00  0.00     0.223 A   
ATOM     13  N5  UNL     1      -2.912   2.003  -0.728  1.00  0.00    -0.213 NA  
ATOM     14  C1  UNL     1      -6.986   0.868  -1.041  1.00  0.00     0.067 C   
ATOM     15  CL1 UNL     1      -3.270   4.007  -2.326  1.00  0.00    -0.041 Cl  
ENDBRANCH   6   8
ENDBRANCH   1   6
BRANCH   3  16
ATOM     16  C8  UNL     1       2.486   0.281   1.855  1.00  0.00     0.120 C   
BRANCH  16  17
ATOM     17  N2  UNL     1       3.325   0.863   0.729  1.00  0.00     0.250 N   
ATOM     18  H7  UNL     1       2.829   1.713   0.413  1.00  0.00     0.199 HD  
ATOM     19  H8  UNL     1       4.234   1.186   1.067  1.00  0.00     0.199 HD  
BRANCH  17  20
ATOM     20  C9  UNL     1       3.549  -0.016  -0.462  1.00  0.00     0.164 C   
BRANCH  20  21
ATOM     21  C10 UNL     1       2.301  -0.311  -1.247  1.00  0.00    -0.002 A   
ATOM     22  C11 UNL     1       1.661  -1.570  -1.140  1.00  0.00     0.012 A   
ATOM     23  C15 UNL     1       1.727   0.685  -2.055  1.00  0.00     0.045 A   
ATOM     24  C12 UNL     1       0.452  -1.822  -1.798  1.00  0.00     0.037 A   
ATOM     25  C14 UNL     1       0.539   0.401  -2.695  1.00  0.00     0.109 A   
ATOM     26  C13 UNL     1      -0.089  -0.810  -2.560  1.00  0.00     0.108 A   
ATOM     27  O2  UNL     1      -0.149   1.258  -3.494  1.00  0.00    -0.316 OA  
ATOM     28  O3  UNL     1      -1.258  -0.868  -3.249  1.00  0.00    -0.316 OA  
ATOM     29  C16 UNL     1      -1.271   0.434  -3.877  1.00  0.00     0.337 C   
ENDBRANCH  20  21
ENDBRANCH  17  20
ENDBRANCH  16  17
BRANCH  16  30
ATOM     30  C17 UNL     1       2.991   0.797   3.247  1.00  0.00     0.010 C   
ATOM     31  C18 UNL     1       2.957   2.334   3.366  1.00  0.00     0.017 C   
ATOM     32  C19 UNL     1       2.119   0.203   4.379  1.00  0.00     0.017 C   
ATOM     33  C20 UNL     1       4.441   0.321   3.501  1.00  0.00     0.017 C   
ENDBRANCH  16  30
ENDBRANCH   3  16
TORSDOF 7
