REMARK SMILES Fc1ccc2c(c1)C[C@@H](Cn1cc([C@@H]([NH2+]Cc3ccc4c(c3)OCO4)C3CCCC3)nn1)O2
REMARK SMILES IDX 11 1 12 2 13 3 31 4 32 5 10 7 9 8 2 9 3 10 7 11 4 12 6 13
REMARK SMILES IDX 5 14 8 15 33 16 1 17 14 18 15 19 16 22 17 23 18 24 22 25
REMARK SMILES IDX 19 26 21 27 20 28 23 29 25 30 24 31 26 32 27 33 30 34 28 35
REMARK SMILES IDX 29 36
REMARK H PARENT 12 6 15 20 15 21
ROOT
ATOM     1   N1  UNL     1      -1.104   0.850   1.303  1.00  0.00    -0.210 N   
ATOM     2   C10 UNL     1      -0.566  -0.237   0.677  1.00  0.00     0.045 A   
ATOM     3   C11 UNL     1       0.672  -0.376   1.265  1.00  0.00     0.127 A   
ATOM     4   N3  UNL     1       0.826   0.590   2.226  1.00  0.00    -0.132 NA  
ATOM     5   N4  UNL     1      -0.266   1.338   2.234  1.00  0.00    -0.076 NA  
ATOM     6   H9  UNL     1      -1.071  -0.753  -0.128  1.00  0.00     0.083 HD  
ENDROOT
BRANCH   1   7
ATOM     7   C9  UNL     1      -2.347   1.532   0.996  1.00  0.00     0.166 C   
BRANCH   7   8
ATOM     8   C8  UNL     1      -2.107   2.691   0.035  1.00  0.00     0.149 C   
ATOM     9   C1  UNL     1      -3.566   4.714  -3.815  1.00  0.00     0.123 A   
ATOM     10  C2  UNL     1      -2.571   3.883  -4.345  1.00  0.00     0.042 A   
ATOM     11  C6  UNL     1      -3.902   4.681  -2.463  1.00  0.00     0.045 A   
ATOM     12  C3  UNL     1      -1.885   2.996  -3.513  1.00  0.00     0.037 A   
ATOM     13  C5  UNL     1      -3.208   3.804  -1.650  1.00  0.00    -0.012 A   
ATOM     14  C4  UNL     1      -2.220   2.983  -2.173  1.00  0.00     0.079 A   
ATOM     15  C7  UNL     1      -3.385   3.509  -0.211  1.00  0.00     0.072 C   
ATOM     16  O3  UNL     1      -1.642   2.162  -1.243  1.00  0.00    -0.341 OA  
ATOM     17  F1  UNL     1      -4.217   5.554  -4.630  1.00  0.00    -0.207 F   
ENDBRANCH   7   8
ENDBRANCH   1   7
BRANCH   3  18
ATOM     18  C12 UNL     1       1.804  -1.295   0.948  1.00  0.00     0.117 C   
BRANCH  18  19
ATOM     19  N2  UNL     1       3.103  -0.517   0.886  1.00  0.00     0.249 N   
ATOM     20  H11 UNL     1       3.889  -1.155   0.748  1.00  0.00     0.199 HD  
ATOM     21  H12 UNL     1       3.221  -0.074   1.807  1.00  0.00     0.199 HD  
BRANCH  19  22
ATOM     22  C13 UNL     1       3.184   0.569  -0.140  1.00  0.00     0.164 C   
BRANCH  22  23
ATOM     23  C14 UNL     1       3.001   0.075  -1.548  1.00  0.00    -0.002 A   
ATOM     24  C15 UNL     1       3.990  -0.731  -2.162  1.00  0.00     0.012 A   
ATOM     25  C19 UNL     1       1.827   0.390  -2.257  1.00  0.00     0.045 A   
ATOM     26  C16 UNL     1       3.809  -1.227  -3.457  1.00  0.00     0.037 A   
ATOM     27  C18 UNL     1       1.681  -0.116  -3.532  1.00  0.00     0.109 A   
ATOM     28  C17 UNL     1       2.642  -0.903  -4.114  1.00  0.00     0.108 A   
ATOM     29  O1  UNL     1       0.611   0.085  -4.345  1.00  0.00    -0.316 OA  
ATOM     30  O2  UNL     1       2.299  -1.299  -5.367  1.00  0.00    -0.316 OA  
ATOM     31  C20 UNL     1       1.024  -0.641  -5.526  1.00  0.00     0.337 C   
ENDBRANCH  22  23
ENDBRANCH  19  22
ENDBRANCH  18  19
BRANCH  18  32
ATOM     32  C21 UNL     1       1.952  -2.408   2.005  1.00  0.00     0.043 C   
ATOM     33  C22 UNL     1       3.087  -3.398   1.730  1.00  0.00     0.010 C   
ATOM     34  C25 UNL     1       0.736  -3.340   2.073  1.00  0.00     0.010 C   
ATOM     35  C23 UNL     1       2.763  -4.581   2.633  1.00  0.00     0.001 C   
ATOM     36  C24 UNL     1       1.241  -4.612   2.745  1.00  0.00     0.001 C   
ENDBRANCH  18  32
ENDBRANCH   3  18
TORSDOF 7
