REMARK SMILES Fc1ccc2c(c1)C[C@H](Cn1cc([C@@H]([NH2+]Cc3ccc4c(c3)OCO4)C3CCCC3)nn1)O2
REMARK SMILES IDX 11 1 12 2 13 3 31 4 32 5 10 7 9 8 2 9 3 10 7 11 4 12 6 13
REMARK SMILES IDX 5 14 8 15 33 16 1 17 14 18 15 19 16 22 17 23 18 24 22 25
REMARK SMILES IDX 19 26 21 27 20 28 23 29 25 30 24 31 26 32 27 33 30 34 28 35
REMARK SMILES IDX 29 36
REMARK H PARENT 12 6 15 20 15 21
ROOT
ATOM     1   N1  UNL     1       1.938   2.476   0.483  1.00  0.00    -0.210 N   
ATOM     2   C10 UNL     1       2.418   1.331   1.055  1.00  0.00     0.045 A   
ATOM     3   C11 UNL     1       2.050   0.342   0.171  1.00  0.00     0.127 A   
ATOM     4   N3  UNL     1       1.414   0.912  -0.903  1.00  0.00    -0.132 NA  
ATOM     5   N4  UNL     1       1.362   2.218  -0.705  1.00  0.00    -0.076 NA  
ATOM     6   H9  UNL     1       2.909   1.328   2.020  1.00  0.00     0.083 HD  
ENDROOT
BRANCH   1   7
ATOM     7   C9  UNL     1       1.955   3.823   1.016  1.00  0.00     0.166 C   
BRANCH   7   8
ATOM     8   C8  UNL     1       0.757   4.158   1.917  1.00  0.00     0.149 C   
ATOM     9   C1  UNL     1      -2.366   0.837   2.529  1.00  0.00     0.123 A   
ATOM     10  C2  UNL     1      -1.528   0.578   3.620  1.00  0.00     0.042 A   
ATOM     11  C6  UNL     1      -2.151   1.923   1.681  1.00  0.00     0.045 A   
ATOM     12  C3  UNL     1      -0.437   1.411   3.875  1.00  0.00     0.037 A   
ATOM     13  C5  UNL     1      -1.063   2.735   1.943  1.00  0.00    -0.012 A   
ATOM     14  C4  UNL     1      -0.225   2.474   3.017  1.00  0.00     0.079 A   
ATOM     15  C7  UNL     1      -0.625   3.977   1.265  1.00  0.00     0.072 C   
ATOM     16  O3  UNL     1       0.821   3.352   3.130  1.00  0.00    -0.341 OA  
ATOM     17  F1  UNL     1      -3.384   0.004   2.281  1.00  0.00    -0.207 F   
ENDBRANCH   7   8
ENDBRANCH   1   7
BRANCH   3  18
ATOM     18  C12 UNL     1       2.162  -1.146   0.248  1.00  0.00     0.117 C   
BRANCH  18  19
ATOM     19  N2  UNL     1       0.947  -1.773  -0.380  1.00  0.00     0.249 N   
ATOM     20  H11 UNL     1       1.103  -2.744  -0.664  1.00  0.00     0.199 HD  
ATOM     21  H12 UNL     1       0.760  -1.246  -1.247  1.00  0.00     0.199 HD  
BRANCH  19  22
ATOM     22  C13 UNL     1      -0.292  -1.697   0.444  1.00  0.00     0.164 C   
BRANCH  22  23
ATOM     23  C14 UNL     1      -1.477  -2.192  -0.333  1.00  0.00    -0.002 A   
ATOM     24  C15 UNL     1      -1.825  -3.563  -0.321  1.00  0.00     0.012 A   
ATOM     25  C19 UNL     1      -2.222  -1.294  -1.117  1.00  0.00     0.045 A   
ATOM     26  C16 UNL     1      -2.909  -4.034  -1.070  1.00  0.00     0.037 A   
ATOM     27  C18 UNL     1      -3.286  -1.790  -1.839  1.00  0.00     0.109 A   
ATOM     28  C17 UNL     1      -3.619  -3.121  -1.817  1.00  0.00     0.108 A   
ATOM     29  O1  UNL     1      -4.110  -1.061  -2.636  1.00  0.00    -0.316 OA  
ATOM     30  O2  UNL     1      -4.696  -3.398  -2.598  1.00  0.00    -0.316 OA  
ATOM     31  C20 UNL     1      -5.025  -2.083  -3.091  1.00  0.00     0.337 C   
ENDBRANCH  22  23
ENDBRANCH  19  22
ENDBRANCH  18  19
BRANCH  18  32
ATOM     32  C21 UNL     1       3.455  -1.657  -0.411  1.00  0.00     0.043 C   
ATOM     33  C22 UNL     1       3.548  -1.526  -1.936  1.00  0.00     0.010 C   
ATOM     34  C25 UNL     1       3.745  -3.142  -0.186  1.00  0.00     0.010 C   
ATOM     35  C23 UNL     1       4.623  -2.529  -2.361  1.00  0.00     0.001 C   
ATOM     36  C24 UNL     1       4.898  -3.410  -1.143  1.00  0.00     0.001 C   
ENDBRANCH  18  32
ENDBRANCH   3  18
TORSDOF 7
