REMARK SMILES CC(C)(C)[C@H]([NH2+]Cc1ccc2c(c1)OCO2)c1cn(-c2ccccc2CCO)nn1
REMARK SMILES IDX 20 1 21 2 22 3 23 4 24 5 25 6 19 7 17 8 18 9 30 10 29 11
REMARK SMILES IDX 5 12 2 13 1 14 3 15 4 16 6 17 7 20 8 21 9 22 13 23 10 24
REMARK SMILES IDX 12 25 11 26 14 27 16 28 15 29 26 30 27 31 28 32
REMARK H PARENT 6 18 6 19 28 33
ROOT
ATOM     1   C16 UNL     1       0.819   2.053   2.865  1.00  0.00     0.061 A   
ATOM     2   C17 UNL     1       0.085   3.029   3.571  1.00  0.00     0.026 A   
ATOM     3   C18 UNL     1       0.708   3.875   4.490  1.00  0.00     0.002 A   
ATOM     4   C19 UNL     1       2.072   3.765   4.715  1.00  0.00     0.000 A   
ATOM     5   C20 UNL     1       2.816   2.820   4.011  1.00  0.00     0.006 A   
ATOM     6   C21 UNL     1       2.216   1.952   3.072  1.00  0.00    -0.022 A   
ENDROOT
BRANCH   1   7
ATOM     7   N2  UNL     1       0.102   1.199   1.981  1.00  0.00    -0.180 N   
ATOM     8   C14 UNL     1      -1.397   0.283   0.663  1.00  0.00     0.128 A   
ATOM     9   C15 UNL     1      -1.138   1.418   1.397  1.00  0.00     0.135 A   
ATOM     10  N4  UNL     1      -0.368  -0.597   0.826  1.00  0.00    -0.131 NA  
ATOM     11  N3  UNL     1       0.525  -0.037   1.621  1.00  0.00    -0.071 NA  
BRANCH   8  12
ATOM     12  C5  UNL     1      -2.494  -0.053  -0.302  1.00  0.00     0.120 C   
BRANCH  12  13
ATOM     13  C2  UNL     1      -3.684  -0.855   0.328  1.00  0.00     0.010 C   
ATOM     14  C1  UNL     1      -4.821  -1.028  -0.706  1.00  0.00     0.017 C   
ATOM     15  C3  UNL     1      -4.279  -0.073   1.521  1.00  0.00     0.017 C   
ATOM     16  C4  UNL     1      -3.265  -2.254   0.824  1.00  0.00     0.017 C   
ENDBRANCH  12  13
BRANCH  12  17
ATOM     17  N1  UNL     1      -1.883  -0.823  -1.450  1.00  0.00     0.250 N   
ATOM     18  H11 UNL     1      -2.570  -1.366  -1.980  1.00  0.00     0.199 HD  
ATOM     19  H12 UNL     1      -1.241  -1.513  -1.025  1.00  0.00     0.199 HD  
BRANCH  17  20
ATOM     20  C6  UNL     1      -1.069  -0.010  -2.398  1.00  0.00     0.164 C   
BRANCH  20  21
ATOM     21  C7  UNL     1      -0.319  -0.902  -3.344  1.00  0.00    -0.002 A   
ATOM     22  C8  UNL     1       0.977  -1.359  -3.003  1.00  0.00     0.012 A   
ATOM     23  C12 UNL     1      -0.915  -1.334  -4.541  1.00  0.00     0.045 A   
ATOM     24  C9  UNL     1       1.679  -2.223  -3.848  1.00  0.00     0.037 A   
ATOM     25  C11 UNL     1      -0.197  -2.189  -5.351  1.00  0.00     0.109 A   
ATOM     26  C10 UNL     1       1.065  -2.618  -5.016  1.00  0.00     0.108 A   
ATOM     27  O1  UNL     1      -0.624  -2.704  -6.533  1.00  0.00    -0.316 OA  
ATOM     28  O2  UNL     1       1.593  -3.451  -5.949  1.00  0.00    -0.316 OA  
ATOM     29  C13 UNL     1       0.521  -3.500  -6.916  1.00  0.00     0.337 C   
ENDBRANCH  20  21
ENDBRANCH  17  20
ENDBRANCH  12  17
ENDBRANCH   8  12
ENDBRANCH   1   7
BRANCH   6  30
ATOM     30  C22 UNL     1       3.167   1.070   2.281  1.00  0.00     0.065 C   
BRANCH  30  31
ATOM     31  C23 UNL     1       3.609   1.722   0.967  1.00  0.00     0.161 C   
BRANCH  31  32
ATOM     32  O3  UNL     1       2.542   1.802   0.018  1.00  0.00    -0.396 OA  
ATOM     33  H29 UNL     1       2.910   2.284  -0.744  1.00  0.00     0.210 HD  
ENDBRANCH  31  32
ENDBRANCH  30  31
ENDBRANCH   6  30
TORSDOF 9
