REMARK SMILES c1cc(Cn2cc([C@@H]([NH2+]Cc3ccc4c(c3)OCO4)C3CCCC3)nn2)c2[nH]ncc2c1
REMARK SMILES IDX 5 1 6 2 7 3 25 4 26 5 4 7 3 8 1 9 2 10 32 11 31 12 27 13
REMARK SMILES IDX 30 14 28 15 29 16 8 18 9 19 10 22 11 23 12 24 16 25 13 26
REMARK SMILES IDX 15 27 14 28 17 29 19 30 18 31 20 32 21 33 24 34 22 35 23 36
REMARK H PARENT 6 6 28 17 9 20 9 21
ROOT
ATOM     1   N1  UNL     1      -2.902  -0.266  -2.938  1.00  0.00    -0.208 N   
ATOM     2   C5  UNL     1      -1.600   0.079  -2.679  1.00  0.00     0.046 A   
ATOM     3   C6  UNL     1      -1.033  -1.089  -2.219  1.00  0.00     0.127 A   
ATOM     4   N3  UNL     1      -1.963  -2.098  -2.283  1.00  0.00    -0.132 NA  
ATOM     5   N4  UNL     1      -3.099  -1.585  -2.725  1.00  0.00    -0.076 NA  
ATOM     6   H5  UNL     1      -1.248   1.102  -2.747  1.00  0.00     0.083 HD  
ENDROOT
BRANCH   1   7
ATOM     7   C4  UNL     1      -4.045   0.627  -3.077  1.00  0.00     0.171 C   
BRANCH   7   8
ATOM     8   C3  UNL     1      -4.351   1.309  -1.760  1.00  0.00    -0.005 A   
ATOM     9   C1  UNL     1      -4.943   3.357  -0.540  1.00  0.00     0.001 A   
ATOM     10  C2  UNL     1      -4.691   2.677  -1.735  1.00  0.00     0.007 A   
ATOM     11  C24 UNL     1      -4.856   2.704   0.694  1.00  0.00     0.012 A   
ATOM     12  C23 UNL     1      -4.532   1.338   0.707  1.00  0.00     0.017 A   
ATOM     13  C21 UNL     1      -4.330   0.673  -0.499  1.00  0.00     0.061 A   
ATOM     14  C22 UNL     1      -4.313   0.353   1.700  1.00  0.00     0.141 A   
ATOM     15  N5  UNL     1      -4.133  -0.641  -0.140  1.00  0.00    -0.238 N   
ATOM     16  N6  UNL     1      -3.973  -0.833   1.182  1.00  0.00    -0.192 NA  
ATOM     17  H25 UNL     1      -4.021  -1.440  -0.764  1.00  0.00     0.176 HD  
ENDBRANCH   7   8
ENDBRANCH   1   7
BRANCH   3  18
ATOM     18  C7  UNL     1       0.297  -1.357  -1.585  1.00  0.00     0.117 C   
BRANCH  18  19
ATOM     19  N2  UNL     1       0.123  -2.341  -0.453  1.00  0.00     0.249 N   
ATOM     20  H7  UNL     1      -0.506  -3.078  -0.805  1.00  0.00     0.199 HD  
ATOM     21  H8  UNL     1       1.007  -2.796  -0.211  1.00  0.00     0.199 HD  
BRANCH  19  22
ATOM     22  C8  UNL     1      -0.501  -1.792   0.792  1.00  0.00     0.164 C   
BRANCH  22  23
ATOM     23  C9  UNL     1       0.480  -1.015   1.624  1.00  0.00    -0.002 A   
ATOM     24  C10 UNL     1       1.503  -1.688   2.338  1.00  0.00     0.012 A   
ATOM     25  C14 UNL     1       0.398   0.387   1.691  1.00  0.00     0.045 A   
ATOM     26  C11 UNL     1       2.440  -0.977   3.095  1.00  0.00     0.037 A   
ATOM     27  C13 UNL     1       1.337   1.059   2.448  1.00  0.00     0.109 A   
ATOM     28  C12 UNL     1       2.330   0.396   3.127  1.00  0.00     0.108 A   
ATOM     29  O1  UNL     1       1.403   2.407   2.615  1.00  0.00    -0.316 OA  
ATOM     30  O2  UNL     1       3.147   1.242   3.805  1.00  0.00    -0.316 OA  
ATOM     31  C15 UNL     1       2.543   2.518   3.498  1.00  0.00     0.337 C   
ENDBRANCH  22  23
ENDBRANCH  19  22
ENDBRANCH  18  19
BRANCH  18  32
ATOM     32  C16 UNL     1       1.328  -1.869  -2.608  1.00  0.00     0.043 C   
ATOM     33  C17 UNL     1       2.772  -1.893  -2.090  1.00  0.00     0.010 C   
ATOM     34  C20 UNL     1       1.130  -3.295  -3.127  1.00  0.00     0.010 C   
ATOM     35  C18 UNL     1       3.516  -2.867  -3.004  1.00  0.00     0.001 C   
ATOM     36  C19 UNL     1       2.452  -3.590  -3.826  1.00  0.00     0.001 C   
ENDBRANCH  18  32
ENDBRANCH   3  18
TORSDOF 7
