REMARK SMILES CC(C)[C@H]([NH2+]Cc1ccc2c(c1)OCO2)c1cn(Cc2cccnc2N(C)C)nn1
REMARK SMILES IDX 16 1 17 2 18 3 29 4 30 5 4 7 2 8 1 9 3 10 5 11 6 14 7 15
REMARK SMILES IDX 8 16 12 17 9 18 11 19 10 20 13 21 15 22 14 23 19 24 20 25
REMARK SMILES IDX 21 26 25 27 22 28 24 29 23 30 26 31 27 32 28 33
REMARK H PARENT 17 6 5 12 5 13
ROOT
ATOM     1   C13 UNL     1       2.363  -0.551  -0.165  1.00  0.00     0.127 A   
ATOM     2   C14 UNL     1       1.511  -0.966  -1.163  1.00  0.00     0.046 A   
ATOM     3   N2  UNL     1       1.539  -2.330  -1.076  1.00  0.00    -0.208 N   
ATOM     4   N5  UNL     1       2.399  -2.732  -0.118  1.00  0.00    -0.076 NA  
ATOM     5   N6  UNL     1       2.911  -1.650   0.446  1.00  0.00    -0.132 NA  
ATOM     6   H18 UNL     1       0.870  -0.447  -1.861  1.00  0.00     0.083 HD  
ENDROOT
BRANCH   1   7
ATOM     7   C4  UNL     1       2.662   0.817   0.349  1.00  0.00     0.117 C   
BRANCH   7   8
ATOM     8   C2  UNL     1       3.889   1.458  -0.353  1.00  0.00     0.037 C   
ATOM     9   C1  UNL     1       3.981   2.963  -0.069  1.00  0.00     0.014 C   
ATOM     10  C3  UNL     1       5.228   0.791  -0.018  1.00  0.00     0.014 C   
ENDBRANCH   7   8
BRANCH   7  11
ATOM     11  N1  UNL     1       2.864   0.797   1.848  1.00  0.00     0.249 N   
ATOM     12  H9  UNL     1       3.605   0.108   2.033  1.00  0.00     0.199 HD  
ATOM     13  H10 UNL     1       3.195   1.706   2.177  1.00  0.00     0.199 HD  
BRANCH  11  14
ATOM     14  C5  UNL     1       1.684   0.382   2.670  1.00  0.00     0.164 C   
BRANCH  14  15
ATOM     15  C6  UNL     1       0.483   1.268   2.487  1.00  0.00    -0.002 A   
ATOM     16  C7  UNL     1      -0.667   0.776   1.821  1.00  0.00     0.012 A   
ATOM     17  C11 UNL     1       0.501   2.595   2.949  1.00  0.00     0.045 A   
ATOM     18  C8  UNL     1      -1.781   1.596   1.611  1.00  0.00     0.037 A   
ATOM     19  C10 UNL     1      -0.613   3.377   2.721  1.00  0.00     0.109 A   
ATOM     20  C9  UNL     1      -1.721   2.893   2.068  1.00  0.00     0.108 A   
ATOM     21  O1  UNL     1      -0.754   4.677   3.090  1.00  0.00    -0.316 OA  
ATOM     22  O2  UNL     1      -2.699   3.828   1.945  1.00  0.00    -0.316 OA  
ATOM     23  C12 UNL     1      -2.097   4.949   2.628  1.00  0.00     0.337 C   
ENDBRANCH  14  15
ENDBRANCH  11  14
ENDBRANCH   7  11
ENDBRANCH   1   7
BRANCH   3  24
ATOM     24  C15 UNL     1       0.745  -3.296  -1.817  1.00  0.00     0.173 C   
BRANCH  24  25
ATOM     25  C16 UNL     1      -0.596  -3.485  -1.159  1.00  0.00     0.012 A   
ATOM     26  C17 UNL     1      -0.749  -4.466  -0.167  1.00  0.00     0.010 A   
ATOM     27  C20 UNL     1      -1.687  -2.647  -1.441  1.00  0.00     0.124 A   
ATOM     28  C18 UNL     1      -1.958  -4.593   0.503  1.00  0.00     0.021 A   
ATOM     29  N3  UNL     1      -2.852  -2.751  -0.764  1.00  0.00    -0.241 NA  
ATOM     30  C19 UNL     1      -2.971  -3.716   0.173  1.00  0.00     0.113 A   
BRANCH  27  31
ATOM     31  N4  UNL     1      -1.570  -1.671  -2.467  1.00  0.00    -0.322 N   
ATOM     32  C21 UNL     1      -2.368  -0.477  -2.146  1.00  0.00     0.131 C   
ATOM     33  C22 UNL     1      -2.012  -2.287  -3.732  1.00  0.00     0.131 C   
ENDBRANCH  27  31
ENDBRANCH  24  25
ENDBRANCH   3  24
TORSDOF 8
