REMARK SMILES COc1ncccc1CCn1cc([C@@H]([NH2+]Cc2ccc3c(c2)OCO3)C(C)(C)C)nn1
REMARK SMILES IDX 11 1 12 2 13 3 30 4 31 5 10 7 9 8 8 9 3 10 4 11 5 12 7 13
REMARK SMILES IDX 6 14 2 15 1 16 14 17 15 18 16 21 17 22 18 23 22 24 19 25
REMARK SMILES IDX 21 26 20 27 23 28 25 29 24 30 26 31 27 32 28 33 29 34
REMARK H PARENT 12 6 15 19 15 20
ROOT
ATOM     1   N2  UNL     1      -2.685   0.807  -0.416  1.00  0.00    -0.212 N   
ATOM     2   C9  UNL     1      -2.638  -0.144   0.567  1.00  0.00     0.045 A   
ATOM     3   C10 UNL     1      -1.698   0.341   1.449  1.00  0.00     0.127 A   
ATOM     4   N4  UNL     1      -1.258   1.566   1.008  1.00  0.00    -0.132 NA  
ATOM     5   N5  UNL     1      -1.876   1.842  -0.129  1.00  0.00    -0.076 NA  
ATOM     6   H11 UNL     1      -3.196  -1.069   0.508  1.00  0.00     0.083 HD  
ENDROOT
BRANCH   1   7
ATOM     7   C8  UNL     1      -3.392   0.749  -1.679  1.00  0.00     0.139 C   
BRANCH   7   8
ATOM     8   C7  UNL     1      -2.510   0.271  -2.841  1.00  0.00     0.061 C   
BRANCH   8   9
ATOM     9   C6  UNL     1      -1.996  -1.135  -2.651  1.00  0.00     0.003 A   
ATOM     10  C2  UNL     1      -0.691  -1.404  -2.238  1.00  0.00     0.169 A   
ATOM     11  N1  UNL     1      -0.226  -2.639  -1.944  1.00  0.00    -0.233 NA  
ATOM     12  C3  UNL     1      -1.077  -3.670  -2.148  1.00  0.00     0.114 A   
ATOM     13  C5  UNL     1      -2.843  -2.231  -2.841  1.00  0.00     0.010 A   
ATOM     14  C4  UNL     1      -2.377  -3.519  -2.595  1.00  0.00     0.021 A   
BRANCH  10  15
ATOM     15  O1  UNL     1       0.151  -0.341  -1.997  1.00  0.00    -0.332 OA  
ATOM     16  C1  UNL     1       1.463  -0.614  -2.500  1.00  0.00     0.205 C   
ENDBRANCH  10  15
ENDBRANCH   8   9
ENDBRANCH   7   8
ENDBRANCH   1   7
BRANCH   3  17
ATOM     17  C11 UNL     1      -1.033  -0.299   2.631  1.00  0.00     0.120 C   
BRANCH  17  18
ATOM     18  N3  UNL     1       0.447  -0.007   2.550  1.00  0.00     0.250 N   
ATOM     19  H13 UNL     1       0.525   0.997   2.317  1.00  0.00     0.199 HD  
ATOM     20  H14 UNL     1       0.934  -0.134   3.440  1.00  0.00     0.199 HD  
BRANCH  18  21
ATOM     21  C12 UNL     1       1.176  -0.759   1.484  1.00  0.00     0.164 C   
BRANCH  21  22
ATOM     22  C13 UNL     1       2.576  -0.232   1.324  1.00  0.00    -0.002 A   
ATOM     23  C14 UNL     1       3.682  -0.933   1.861  1.00  0.00     0.012 A   
ATOM     24  C18 UNL     1       2.787   0.987   0.651  1.00  0.00     0.045 A   
ATOM     25  C15 UNL     1       4.985  -0.438   1.712  1.00  0.00     0.037 A   
ATOM     26  C17 UNL     1       4.083   1.449   0.528  1.00  0.00     0.109 A   
ATOM     27  C16 UNL     1       5.152   0.753   1.038  1.00  0.00     0.108 A   
ATOM     28  O2  UNL     1       4.458   2.601  -0.090  1.00  0.00    -0.316 OA  
ATOM     29  O3  UNL     1       6.338   1.370   0.791  1.00  0.00    -0.316 OA  
ATOM     30  C19 UNL     1       5.894   2.549   0.082  1.00  0.00     0.337 C   
ENDBRANCH  21  22
ENDBRANCH  18  21
ENDBRANCH  17  18
BRANCH  17  31
ATOM     31  C20 UNL     1      -1.612   0.144   4.019  1.00  0.00     0.010 C   
ATOM     32  C21 UNL     1      -1.399   1.647   4.306  1.00  0.00     0.017 C   
ATOM     33  C22 UNL     1      -3.127  -0.155   4.074  1.00  0.00     0.017 C   
ATOM     34  C23 UNL     1      -0.950  -0.664   5.160  1.00  0.00     0.017 C   
ENDBRANCH  17  31
ENDBRANCH   3  17
TORSDOF 9
