REMARK SMILES CC(C)(C)[C@H]([NH2+]Cc1ccc2c(c1)OCO2)c1cn(Cc2ccc(Cl)cc2O)nn1
REMARK SMILES IDX 17 1 18 2 19 3 29 4 30 5 5 7 2 8 1 9 3 10 4 11 6 12 7 15
REMARK SMILES IDX 8 16 9 17 13 18 10 19 12 20 11 21 14 22 16 23 15 24 20 25
REMARK SMILES IDX 21 26 22 27 27 28 23 29 26 30 24 31 25 32 28 33
REMARK H PARENT 18 6 6 13 6 14 28 34
ROOT
ATOM     1   C14 UNL     1       0.300  -0.141  -1.950  1.00  0.00     0.127 A   
ATOM     2   C15 UNL     1       1.193  -1.040  -1.410  1.00  0.00     0.046 A   
ATOM     3   N2  UNL     1       2.378  -0.360  -1.392  1.00  0.00    -0.208 N   
ATOM     4   N3  UNL     1       2.237   0.861  -1.948  1.00  0.00    -0.076 NA  
ATOM     5   N4  UNL     1       0.967   1.007  -2.289  1.00  0.00    -0.132 NA  
ATOM     6   H20 UNL     1       1.091  -2.031  -0.990  1.00  0.00     0.083 HD  
ENDROOT
BRANCH   1   7
ATOM     7   C5  UNL     1      -1.189  -0.214  -2.075  1.00  0.00     0.120 C   
BRANCH   7   8
ATOM     8   C2  UNL     1      -1.694  -0.624  -3.506  1.00  0.00     0.010 C   
ATOM     9   C1  UNL     1      -1.323   0.403  -4.594  1.00  0.00     0.017 C   
ATOM     10  C3  UNL     1      -1.091  -1.990  -3.904  1.00  0.00     0.017 C   
ATOM     11  C4  UNL     1      -3.231  -0.791  -3.507  1.00  0.00     0.017 C   
ENDBRANCH   7   8
BRANCH   7  12
ATOM     12  N1  UNL     1      -1.815   1.103  -1.650  1.00  0.00     0.250 N   
ATOM     13  H11 UNL     1      -1.453   1.821  -2.291  1.00  0.00     0.199 HD  
ATOM     14  H12 UNL     1      -2.829   1.069  -1.762  1.00  0.00     0.199 HD  
BRANCH  12  15
ATOM     15  C6  UNL     1      -1.508   1.590  -0.266  1.00  0.00     0.164 C   
BRANCH  15  16
ATOM     16  C7  UNL     1      -1.807   0.593   0.820  1.00  0.00    -0.002 A   
ATOM     17  C8  UNL     1      -3.138   0.228   1.126  1.00  0.00     0.012 A   
ATOM     18  C12 UNL     1      -0.747  -0.005   1.526  1.00  0.00     0.045 A   
ATOM     19  C9  UNL     1      -3.410  -0.728   2.112  1.00  0.00     0.037 A   
ATOM     20  C11 UNL     1      -1.046  -0.948   2.487  1.00  0.00     0.109 A   
ATOM     21  C10 UNL     1      -2.342  -1.299   2.771  1.00  0.00     0.108 A   
ATOM     22  O1  UNL     1      -0.142  -1.634   3.239  1.00  0.00    -0.316 OA  
ATOM     23  O2  UNL     1      -2.422  -2.242   3.745  1.00  0.00    -0.316 OA  
ATOM     24  C13 UNL     1      -1.030  -2.419   4.074  1.00  0.00     0.337 C   
ENDBRANCH  15  16
ENDBRANCH  12  15
ENDBRANCH   7  12
ENDBRANCH   1   7
BRANCH   3  25
ATOM     25  C16 UNL     1       3.645  -0.783  -0.819  1.00  0.00     0.172 C   
BRANCH  25  26
ATOM     26  C17 UNL     1       3.836  -0.202   0.561  1.00  0.00     0.002 A   
ATOM     27  C18 UNL     1       4.694   0.894   0.748  1.00  0.00     0.010 A   
ATOM     28  C22 UNL     1       3.148  -0.708   1.672  1.00  0.00     0.078 A   
ATOM     29  C19 UNL     1       4.860   1.458   2.016  1.00  0.00     0.021 A   
ATOM     30  C21 UNL     1       3.307  -0.151   2.940  1.00  0.00     0.054 A   
ATOM     31  C20 UNL     1       4.167   0.933   3.104  1.00  0.00     0.043 A   
ATOM     32  CL1 UNL     1       4.361   1.636   4.661  1.00  0.00    -0.084 Cl  
BRANCH  28  33
ATOM     33  O3  UNL     1       2.292  -1.759   1.490  1.00  0.00    -0.361 OA  
ATOM     34  H26 UNL     1       1.824  -1.934   2.330  1.00  0.00     0.218 HD  
ENDBRANCH  28  33
ENDBRANCH  25  26
ENDBRANCH   3  25
TORSDOF 8
