REMARK SMILES CC(C)C[C@H]([NH2+]Cc1ccc2c(c1)OCO2)c1cn([C@@H](CO)c2ccc(F)nc2)nn1
REMARK SMILES IDX 17 1 18 2 19 3 30 4 31 5 5 7 4 8 2 9 1 10 3 11 6 12 7 15
REMARK SMILES IDX 8 16 9 17 13 18 10 19 12 20 11 21 14 22 16 23 15 24 20 25
REMARK SMILES IDX 21 26 22 27 23 29 24 30 29 31 25 32 28 33 26 34 27 35
REMARK H PARENT 18 6 6 13 6 14 22 28
ROOT
ATOM     1   C14 UNL     1      -0.357  -0.436   1.424  1.00  0.00     0.127 A   
ATOM     2   C15 UNL     1      -0.819  -1.101   0.312  1.00  0.00     0.046 A   
ATOM     3   N2  UNL     1      -1.861  -1.856   0.780  1.00  0.00    -0.202 N   
ATOM     4   N4  UNL     1      -2.058  -1.626   2.095  1.00  0.00    -0.075 NA  
ATOM     5   N5  UNL     1      -1.135  -0.768   2.502  1.00  0.00    -0.132 NA  
ATOM     6   H20 UNL     1      -0.514  -1.111  -0.726  1.00  0.00     0.083 HD  
ENDROOT
BRANCH   1   7
ATOM     7   C5  UNL     1       0.745   0.557   1.580  1.00  0.00     0.114 C   
BRANCH   7   8
ATOM     8   C4  UNL     1       2.014  -0.062   2.199  1.00  0.00     0.064 C   
BRANCH   8   9
ATOM     9   C2  UNL     1       2.681  -1.172   1.357  1.00  0.00    -0.012 C   
ATOM     10  C1  UNL     1       3.132  -0.672  -0.016  1.00  0.00     0.007 C   
ATOM     11  C3  UNL     1       3.882  -1.742   2.117  1.00  0.00     0.007 C   
ENDBRANCH   8   9
ENDBRANCH   7   8
BRANCH   7  12
ATOM     12  N1  UNL     1       0.311   1.679   2.502  1.00  0.00     0.249 N   
ATOM     13  H11 UNL     1      -0.006   1.232   3.374  1.00  0.00     0.199 HD  
ATOM     14  H12 UNL     1       1.116   2.268   2.735  1.00  0.00     0.199 HD  
BRANCH  12  15
ATOM     15  C6  UNL     1      -0.805   2.544   2.014  1.00  0.00     0.164 C   
BRANCH  15  16
ATOM     16  C7  UNL     1      -0.451   3.318   0.775  1.00  0.00    -0.002 A   
ATOM     17  C8  UNL     1      -0.992   2.943  -0.479  1.00  0.00     0.012 A   
ATOM     18  C12 UNL     1       0.446   4.398   0.846  1.00  0.00     0.045 A   
ATOM     19  C9  UNL     1      -0.642   3.628  -1.647  1.00  0.00     0.037 A   
ATOM     20  C11 UNL     1       0.770   5.051  -0.325  1.00  0.00     0.109 A   
ATOM     21  C10 UNL     1       0.243   4.678  -1.536  1.00  0.00     0.108 A   
ATOM     22  O1  UNL     1       1.621   6.105  -0.431  1.00  0.00    -0.316 OA  
ATOM     23  O2  UNL     1       0.694   5.450  -2.558  1.00  0.00    -0.316 OA  
ATOM     24  C13 UNL     1       1.549   6.373  -1.851  1.00  0.00     0.337 C   
ENDBRANCH  15  16
ENDBRANCH  12  15
ENDBRANCH   7  12
ENDBRANCH   1   7
BRANCH   3  25
ATOM     25  C16 UNL     1      -2.717  -2.800   0.061  1.00  0.00     0.157 C   
BRANCH  25  26
ATOM     26  C17 UNL     1      -3.823  -2.067  -0.725  1.00  0.00     0.186 C   
BRANCH  26  27
ATOM     27  O3  UNL     1      -3.306  -1.110  -1.651  1.00  0.00    -0.394 OA  
ATOM     28  H24 UNL     1      -4.064  -0.780  -2.170  1.00  0.00     0.210 HD  
ENDBRANCH  26  27
ENDBRANCH  25  26
BRANCH  25  29
ATOM     29  C18 UNL     1      -1.877  -3.802  -0.712  1.00  0.00    -0.005 A   
ATOM     30  C19 UNL     1      -1.351  -4.929  -0.059  1.00  0.00     0.012 A   
ATOM     31  C22 UNL     1      -1.549  -3.648  -2.057  1.00  0.00     0.120 A   
ATOM     32  C20 UNL     1      -0.555  -5.832  -0.759  1.00  0.00     0.061 A   
ATOM     33  N3  UNL     1      -0.769  -4.504  -2.754  1.00  0.00    -0.228 NA  
ATOM     34  C21 UNL     1      -0.296  -5.578  -2.092  1.00  0.00     0.212 A   
ATOM     35  F1  UNL     1       0.478  -6.435  -2.770  1.00  0.00    -0.185 F   
ENDBRANCH  25  29
ENDBRANCH   3  25
TORSDOF 10
