REMARK SMILES CC(C)C[C@H]([NH2+]Cc1ccc2c(c1)OCO2)c1cn([C@H](CO)c2ccc(F)nc2)nn1
REMARK SMILES IDX 17 1 18 2 19 3 30 4 31 5 5 7 4 8 2 9 1 10 3 11 6 12 7 15
REMARK SMILES IDX 8 16 9 17 13 18 10 19 12 20 11 21 14 22 16 23 15 24 20 25
REMARK SMILES IDX 21 26 22 27 23 29 24 30 29 31 25 32 28 33 26 34 27 35
REMARK H PARENT 18 6 6 13 6 14 22 28
ROOT
ATOM     1   C14 UNL     1      -0.223   1.935   0.555  1.00  0.00     0.127 A   
ATOM     2   C15 UNL     1      -0.594   1.896  -0.769  1.00  0.00     0.046 A   
ATOM     3   N2  UNL     1      -0.117   3.071  -1.287  1.00  0.00    -0.202 N   
ATOM     4   N4  UNL     1       0.529   3.779  -0.337  1.00  0.00    -0.075 NA  
ATOM     5   N5  UNL     1       0.466   3.095   0.794  1.00  0.00    -0.132 NA  
ATOM     6   H20 UNL     1      -1.128   1.176  -1.374  1.00  0.00     0.083 HD  
ENDROOT
BRANCH   1   7
ATOM     7   C5  UNL     1      -0.396   0.935   1.654  1.00  0.00     0.114 C   
BRANCH   7   8
ATOM     8   C4  UNL     1      -1.556   1.298   2.599  1.00  0.00     0.064 C   
BRANCH   8   9
ATOM     9   C2  UNL     1      -2.954   1.310   1.941  1.00  0.00    -0.012 C   
ATOM     10  C1  UNL     1      -3.341  -0.059   1.377  1.00  0.00     0.007 C   
ATOM     11  C3  UNL     1      -4.001   1.759   2.964  1.00  0.00     0.007 C   
ENDBRANCH   8   9
ENDBRANCH   7   8
BRANCH   7  12
ATOM     12  N1  UNL     1       0.898   0.899   2.439  1.00  0.00     0.249 N   
ATOM     13  H11 UNL     1       1.655   0.822   1.748  1.00  0.00     0.199 HD  
ATOM     14  H12 UNL     1       1.034   1.834   2.849  1.00  0.00     0.199 HD  
BRANCH  12  15
ATOM     15  C6  UNL     1       1.091  -0.158   3.465  1.00  0.00     0.164 C   
BRANCH  15  16
ATOM     16  C7  UNL     1       0.985  -1.550   2.907  1.00  0.00    -0.002 A   
ATOM     17  C8  UNL     1      -0.148  -2.350   3.191  1.00  0.00     0.012 A   
ATOM     18  C12 UNL     1       1.995  -2.054   2.070  1.00  0.00     0.045 A   
ATOM     19  C9  UNL     1      -0.279  -3.631   2.643  1.00  0.00     0.037 A   
ATOM     20  C11 UNL     1       1.834  -3.320   1.546  1.00  0.00     0.109 A   
ATOM     21  C10 UNL     1       0.730  -4.086   1.823  1.00  0.00     0.108 A   
ATOM     22  O1  UNL     1       2.709  -3.950   0.719  1.00  0.00    -0.316 OA  
ATOM     23  O2  UNL     1       0.768  -5.295   1.205  1.00  0.00    -0.316 OA  
ATOM     24  C13 UNL     1       2.038  -5.215   0.522  1.00  0.00     0.337 C   
ENDBRANCH  15  16
ENDBRANCH  12  15
ENDBRANCH   7  12
ENDBRANCH   1   7
BRANCH   3  25
ATOM     25  C16 UNL     1      -0.138   3.543  -2.672  1.00  0.00     0.157 C   
BRANCH  25  26
ATOM     26  C17 UNL     1      -1.562   3.945  -3.107  1.00  0.00     0.186 C   
BRANCH  26  27
ATOM     27  O3  UNL     1      -2.491   2.864  -3.036  1.00  0.00    -0.394 OA  
ATOM     28  H24 UNL     1      -3.350   3.203  -3.356  1.00  0.00     0.210 HD  
ENDBRANCH  26  27
ENDBRANCH  25  26
BRANCH  25  29
ATOM     29  C18 UNL     1       0.626   2.574  -3.559  1.00  0.00    -0.005 A   
ATOM     30  C19 UNL     1       0.033   1.737  -4.511  1.00  0.00     0.012 A   
ATOM     31  C22 UNL     1       2.013   2.471  -3.413  1.00  0.00     0.120 A   
ATOM     32  C20 UNL     1       0.823   0.860  -5.252  1.00  0.00     0.061 A   
ATOM     33  N3  UNL     1       2.798   1.619  -4.106  1.00  0.00    -0.228 NA  
ATOM     34  C21 UNL     1       2.184   0.837  -5.015  1.00  0.00     0.212 A   
ATOM     35  F1  UNL     1       2.943  -0.018  -5.713  1.00  0.00    -0.185 F   
ENDBRANCH  25  29
ENDBRANCH   3  25
TORSDOF 10
