REMARK SMILES Cc1cnccc1[C@@H](CO)n1cc([C@@H]([NH2+]Cc2ccc3c(c2)OCO3)C2CCCC2)nn1
REMARK SMILES IDX 11 1 12 2 13 3 31 4 32 5 8 7 7 8 2 9 3 10 4 11 6 12 5 13
REMARK SMILES IDX 1 14 9 15 10 16 14 18 15 19 16 22 17 23 18 24 22 25 19 26
REMARK SMILES IDX 21 27 20 28 23 29 25 30 24 31 26 32 27 33 30 34 28 35 29 36
REMARK H PARENT 12 6 10 17 15 20 15 21
ROOT
ATOM     1   N2  UNL     1      -2.363  -0.749  -1.489  1.00  0.00    -0.202 N   
ATOM     2   C9  UNL     1      -1.364   0.018  -0.957  1.00  0.00     0.046 A   
ATOM     3   C10 UNL     1      -0.418  -0.892  -0.542  1.00  0.00     0.127 A   
ATOM     4   N4  UNL     1      -0.871  -2.161  -0.814  1.00  0.00    -0.132 NA  
ATOM     5   N5  UNL     1      -2.059  -2.062  -1.389  1.00  0.00    -0.075 NA  
ATOM     6   H11 UNL     1      -1.416   1.100  -0.939  1.00  0.00     0.083 HD  
ENDROOT
BRANCH   1   7
ATOM     7   C7  UNL     1      -3.627  -0.324  -2.097  1.00  0.00     0.155 C   
BRANCH   7   8
ATOM     8   C6  UNL     1      -4.362   0.656  -1.180  1.00  0.00    -0.017 A   
ATOM     9   C2  UNL     1      -5.048   0.210  -0.025  1.00  0.00    -0.028 A   
ATOM     10  C3  UNL     1      -5.652   1.168   0.791  1.00  0.00     0.114 A   
ATOM     11  N1  UNL     1      -5.629   2.494   0.555  1.00  0.00    -0.264 NA  
ATOM     12  C5  UNL     1      -4.351   2.037  -1.434  1.00  0.00     0.026 A   
ATOM     13  C4  UNL     1      -4.989   2.900  -0.556  1.00  0.00     0.111 A   
ATOM     14  C1  UNL     1      -5.158  -1.237   0.365  1.00  0.00     0.046 C   
ENDBRANCH   7   8
BRANCH   7  15
ATOM     15  C8  UNL     1      -3.400   0.097  -3.567  1.00  0.00     0.185 C   
BRANCH  15  16
ATOM     16  O1  UNL     1      -2.430   1.137  -3.711  1.00  0.00    -0.394 OA  
ATOM     17  H10 UNL     1      -2.336   1.300  -4.668  1.00  0.00     0.210 HD  
ENDBRANCH  15  16
ENDBRANCH   7  15
ENDBRANCH   1   7
BRANCH   3  18
ATOM     18  C11 UNL     1       0.893  -0.698   0.147  1.00  0.00     0.117 C   
BRANCH  18  19
ATOM     19  N3  UNL     1       1.192  -1.869   1.062  1.00  0.00     0.249 N   
ATOM     20  H13 UNL     1       2.148  -1.791   1.415  1.00  0.00     0.199 HD  
ATOM     21  H14 UNL     1       1.141  -2.717   0.486  1.00  0.00     0.199 HD  
BRANCH  19  22
ATOM     22  C12 UNL     1       0.266  -2.057   2.217  1.00  0.00     0.164 C   
BRANCH  22  23
ATOM     23  C13 UNL     1       0.431  -1.002   3.272  1.00  0.00    -0.002 A   
ATOM     24  C14 UNL     1      -0.529   0.031   3.412  1.00  0.00     0.012 A   
ATOM     25  C18 UNL     1       1.560  -1.013   4.108  1.00  0.00     0.045 A   
ATOM     26  C15 UNL     1      -0.364   1.043   4.365  1.00  0.00     0.037 A   
ATOM     27  C17 UNL     1       1.695   0.002   5.036  1.00  0.00     0.109 A   
ATOM     28  C16 UNL     1       0.761   1.001   5.160  1.00  0.00     0.108 A   
ATOM     29  O2  UNL     1       2.734   0.147   5.902  1.00  0.00    -0.316 OA  
ATOM     30  O3  UNL     1       1.097   1.905   6.120  1.00  0.00    -0.316 OA  
ATOM     31  C19 UNL     1       2.312   1.319   6.637  1.00  0.00     0.337 C   
ENDBRANCH  22  23
ENDBRANCH  19  22
ENDBRANCH  18  19
BRANCH  18  32
ATOM     32  C20 UNL     1       2.096  -0.531  -0.815  1.00  0.00     0.043 C   
ATOM     33  C21 UNL     1       2.274  -1.652  -1.855  1.00  0.00     0.010 C   
ATOM     34  C24 UNL     1       2.043   0.780  -1.625  1.00  0.00     0.010 C   
ATOM     35  C22 UNL     1       1.859  -1.033  -3.183  1.00  0.00     0.001 C   
ATOM     36  C23 UNL     1       2.353   0.399  -3.068  1.00  0.00     0.001 C   
ENDBRANCH  18  32
ENDBRANCH   3  18
TORSDOF 9
