REMARK SMILES Cc1cnccc1[C@H](CO)n1cc([C@@H]([NH2+]Cc2ccc3c(c2)OCO3)C2CCCC2)nn1
REMARK SMILES IDX 11 1 12 2 13 3 31 4 32 5 8 7 7 8 2 9 3 10 4 11 6 12 5 13
REMARK SMILES IDX 1 14 9 15 10 16 14 18 15 19 16 22 17 23 18 24 22 25 19 26
REMARK SMILES IDX 21 27 20 28 23 29 25 30 24 31 26 32 27 33 30 34 28 35 29 36
REMARK H PARENT 12 6 10 17 15 20 15 21
ROOT
ATOM     1   N2  UNL     1      -0.755   0.430  -0.451  1.00  0.00    -0.202 N   
ATOM     2   C9  UNL     1      -0.266  -0.187   0.670  1.00  0.00     0.046 A   
ATOM     3   C10 UNL     1       0.810  -0.911   0.215  1.00  0.00     0.127 A   
ATOM     4   N4  UNL     1       0.913  -0.757  -1.147  1.00  0.00    -0.132 NA  
ATOM     5   N5  UNL     1      -0.047   0.061  -1.542  1.00  0.00    -0.075 NA  
ATOM     6   H11 UNL     1      -0.718  -0.060   1.647  1.00  0.00     0.083 HD  
ENDROOT
BRANCH   1   7
ATOM     7   C7  UNL     1      -1.864   1.380  -0.585  1.00  0.00     0.155 C   
BRANCH   7   8
ATOM     8   C6  UNL     1      -1.905   2.351   0.596  1.00  0.00    -0.017 A   
ATOM     9   C2  UNL     1      -1.012   3.442   0.679  1.00  0.00    -0.028 A   
ATOM     10  C3  UNL     1      -1.075   4.254   1.811  1.00  0.00     0.114 A   
ATOM     11  N1  UNL     1      -1.923   4.063   2.841  1.00  0.00    -0.264 NA  
ATOM     12  C5  UNL     1      -2.803   2.166   1.659  1.00  0.00     0.026 A   
ATOM     13  C4  UNL     1      -2.776   3.031   2.737  1.00  0.00     0.111 A   
ATOM     14  C1  UNL     1      -0.014   3.772  -0.393  1.00  0.00     0.046 C   
ENDBRANCH   7   8
BRANCH   7  15
ATOM     15  C8  UNL     1      -3.167   0.634  -0.942  1.00  0.00     0.185 C   
BRANCH  15  16
ATOM     16  O1  UNL     1      -3.522  -0.359   0.022  1.00  0.00    -0.394 OA  
ATOM     17  H10 UNL     1      -4.168  -0.953  -0.404  1.00  0.00     0.210 HD  
ENDBRANCH  15  16
ENDBRANCH   7  15
ENDBRANCH   1   7
BRANCH   3  18
ATOM     18  C11 UNL     1       1.755  -1.824   0.925  1.00  0.00     0.117 C   
BRANCH  18  19
ATOM     19  N3  UNL     1       2.077  -3.004   0.026  1.00  0.00     0.249 N   
ATOM     20  H13 UNL     1       3.075  -3.233   0.067  1.00  0.00     0.199 HD  
ATOM     21  H14 UNL     1       1.904  -2.672  -0.938  1.00  0.00     0.199 HD  
BRANCH  19  22
ATOM     22  C12 UNL     1       1.279  -4.242   0.247  1.00  0.00     0.164 C   
BRANCH  22  23
ATOM     23  C13 UNL     1      -0.204  -4.061   0.081  1.00  0.00    -0.002 A   
ATOM     24  C14 UNL     1      -0.768  -3.865  -1.203  1.00  0.00     0.012 A   
ATOM     25  C18 UNL     1      -1.042  -4.048   1.211  1.00  0.00     0.045 A   
ATOM     26  C15 UNL     1      -2.142  -3.648  -1.360  1.00  0.00     0.037 A   
ATOM     27  C17 UNL     1      -2.390  -3.827   1.022  1.00  0.00     0.109 A   
ATOM     28  C16 UNL     1      -2.925  -3.631  -0.227  1.00  0.00     0.108 A   
ATOM     29  O2  UNL     1      -3.325  -3.763   2.008  1.00  0.00    -0.316 OA  
ATOM     30  O3  UNL     1      -4.266  -3.407  -0.186  1.00  0.00    -0.316 OA  
ATOM     31  C19 UNL     1      -4.522  -3.533   1.232  1.00  0.00     0.337 C   
ENDBRANCH  22  23
ENDBRANCH  19  22
ENDBRANCH  18  19
BRANCH  18  32
ATOM     32  C20 UNL     1       3.084  -1.165   1.351  1.00  0.00     0.043 C   
ATOM     33  C21 UNL     1       2.931   0.025   2.302  1.00  0.00     0.010 C   
ATOM     34  C24 UNL     1       3.955  -0.584   0.232  1.00  0.00     0.010 C   
ATOM     35  C22 UNL     1       4.324   0.635   2.325  1.00  0.00     0.001 C   
ATOM     36  C23 UNL     1       4.894   0.403   0.926  1.00  0.00     0.001 C   
ENDBRANCH  18  32
ENDBRANCH   3  18
TORSDOF 9
