REMARK SMILES Cc1c(F)cccc1[C@@H](CO)n1cc([C@@H]([NH2+]Cc2ccc3c(c2)OCO3)C(C)C)nn1
REMARK SMILES IDX 12 1 13 2 14 3 30 4 31 5 9 7 8 8 2 9 3 10 5 11 7 12 6 13
REMARK SMILES IDX 1 14 4 15 10 16 11 17 15 19 16 20 17 23 18 24 19 25 23 26
REMARK SMILES IDX 20 27 22 28 21 29 24 30 26 31 25 32 27 33 28 34 29 35
REMARK H PARENT 13 6 11 18 16 21 16 22
ROOT
ATOM     1   N1  UNL     1      -1.116   2.040   1.468  1.00  0.00    -0.202 N   
ATOM     2   C10 UNL     1       0.098   1.411   1.575  1.00  0.00     0.046 A   
ATOM     3   C11 UNL     1       0.111   0.521   0.525  1.00  0.00     0.127 A   
ATOM     4   N3  UNL     1      -1.088   0.596  -0.139  1.00  0.00    -0.132 NA  
ATOM     5   N4  UNL     1      -1.833   1.514   0.452  1.00  0.00    -0.075 NA  
ATOM     6   H11 UNL     1       0.819   1.680   2.335  1.00  0.00     0.083 HD  
ENDROOT
BRANCH   1   7
ATOM     7   C8  UNL     1      -1.619   3.149   2.282  1.00  0.00     0.155 C   
BRANCH   7   8
ATOM     8   C7  UNL     1      -1.008   4.466   1.795  1.00  0.00    -0.017 A   
ATOM     9   C2  UNL     1      -0.234   5.294   2.643  1.00  0.00    -0.010 A   
ATOM     10  C3  UNL     1       0.320   6.472   2.119  1.00  0.00     0.126 A   
ATOM     11  C4  UNL     1       0.111   6.857   0.800  1.00  0.00     0.039 A   
ATOM     12  C6  UNL     1      -1.217   4.878   0.459  1.00  0.00     0.006 A   
ATOM     13  C5  UNL     1      -0.663   6.061  -0.033  1.00  0.00     0.003 A   
ATOM     14  C1  UNL     1       0.023   4.959   4.087  1.00  0.00     0.048 C   
ATOM     15  F1  UNL     1       1.082   7.256   2.895  1.00  0.00    -0.207 F   
ENDBRANCH   7   8
BRANCH   7  16
ATOM     16  C9  UNL     1      -3.157   3.197   2.360  1.00  0.00     0.185 C   
BRANCH  16  17
ATOM     17  O1  UNL     1      -3.565   3.962   3.495  1.00  0.00    -0.394 OA  
ATOM     18  H10 UNL     1      -4.532   4.069   3.444  1.00  0.00     0.210 HD  
ENDBRANCH  16  17
ENDBRANCH   7  16
ENDBRANCH   1   7
BRANCH   3  19
ATOM     19  C12 UNL     1       1.149  -0.452   0.063  1.00  0.00     0.117 C   
BRANCH  19  20
ATOM     20  N2  UNL     1       0.495  -1.589  -0.684  1.00  0.00     0.249 N   
ATOM     21  H13 UNL     1      -0.201  -1.169  -1.319  1.00  0.00     0.199 HD  
ATOM     22  H14 UNL     1       1.168  -2.083  -1.280  1.00  0.00     0.199 HD  
BRANCH  20  23
ATOM     23  C13 UNL     1      -0.227  -2.582   0.159  1.00  0.00     0.164 C   
BRANCH  23  24
ATOM     24  C14 UNL     1      -0.898  -3.608  -0.711  1.00  0.00    -0.002 A   
ATOM     25  C15 UNL     1      -2.210  -3.381  -1.192  1.00  0.00     0.012 A   
ATOM     26  C19 UNL     1      -0.206  -4.765  -1.105  1.00  0.00     0.045 A   
ATOM     27  C16 UNL     1      -2.830  -4.298  -2.048  1.00  0.00     0.037 A   
ATOM     28  C18 UNL     1      -0.846  -5.648  -1.950  1.00  0.00     0.109 A   
ATOM     29  C17 UNL     1      -2.121  -5.422  -2.409  1.00  0.00     0.108 A   
ATOM     30  O2  UNL     1      -0.320  -6.806  -2.428  1.00  0.00    -0.316 OA  
ATOM     31  O3  UNL     1      -2.558  -6.409  -3.234  1.00  0.00    -0.316 OA  
ATOM     32  C20 UNL     1      -1.420  -7.298  -3.229  1.00  0.00     0.337 C   
ENDBRANCH  23  24
ENDBRANCH  20  23
ENDBRANCH  19  20
BRANCH  19  33
ATOM     33  C21 UNL     1       2.234   0.166  -0.857  1.00  0.00     0.037 C   
ATOM     34  C22 UNL     1       1.679   0.812  -2.133  1.00  0.00     0.014 C   
ATOM     35  C23 UNL     1       3.114   1.175  -0.108  1.00  0.00     0.014 C   
ENDBRANCH  19  33
ENDBRANCH   3  19
TORSDOF 9
