REMARK SMILES Cc1c(F)cccc1[C@H](CO)n1cc([C@@H]([NH2+]Cc2ccc3c(c2)OCO3)C(C)C)nn1
REMARK SMILES IDX 12 1 13 2 14 3 30 4 31 5 9 7 8 8 2 9 3 10 5 11 7 12 6 13
REMARK SMILES IDX 1 14 4 15 10 16 11 17 15 19 16 20 17 23 18 24 19 25 23 26
REMARK SMILES IDX 20 27 22 28 21 29 24 30 26 31 25 32 27 33 28 34 29 35
REMARK H PARENT 13 6 11 18 16 21 16 22
ROOT
ATOM     1   N1  UNL     1      -1.578  -0.517  -0.628  1.00  0.00    -0.202 N   
ATOM     2   C10 UNL     1      -1.390   0.733  -0.099  1.00  0.00     0.046 A   
ATOM     3   C11 UNL     1      -0.217   0.625   0.614  1.00  0.00     0.127 A   
ATOM     4   N3  UNL     1       0.229  -0.669   0.548  1.00  0.00    -0.132 NA  
ATOM     5   N4  UNL     1      -0.622  -1.364  -0.189  1.00  0.00    -0.075 NA  
ATOM     6   H11 UNL     1      -2.065   1.552  -0.305  1.00  0.00     0.083 HD  
ENDROOT
BRANCH   1   7
ATOM     7   C8  UNL     1      -2.599  -0.979  -1.569  1.00  0.00     0.155 C   
BRANCH   7   8
ATOM     8   C7  UNL     1      -2.657  -0.060  -2.794  1.00  0.00    -0.017 A   
ATOM     9   C2  UNL     1      -1.701  -0.170  -3.838  1.00  0.00    -0.010 A   
ATOM     10  C3  UNL     1      -1.769   0.718  -4.923  1.00  0.00     0.126 A   
ATOM     11  C4  UNL     1      -2.743   1.703  -5.005  1.00  0.00     0.039 A   
ATOM     12  C6  UNL     1      -3.639   0.949  -2.897  1.00  0.00     0.006 A   
ATOM     13  C5  UNL     1      -3.682   1.819  -3.989  1.00  0.00     0.003 A   
ATOM     14  C1  UNL     1      -0.609  -1.208  -3.833  1.00  0.00     0.048 C   
ATOM     15  F1  UNL     1      -0.870   0.632  -5.915  1.00  0.00    -0.207 F   
ENDBRANCH   7   8
BRANCH   7  16
ATOM     16  C9  UNL     1      -3.927  -1.284  -0.840  1.00  0.00     0.185 C   
BRANCH  16  17
ATOM     17  O1  UNL     1      -4.423  -0.182  -0.077  1.00  0.00    -0.394 OA  
ATOM     18  H10 UNL     1      -5.293  -0.452   0.273  1.00  0.00     0.210 HD  
ENDBRANCH  16  17
ENDBRANCH   7  16
ENDBRANCH   1   7
BRANCH   3  19
ATOM     19  C12 UNL     1       0.558   1.637   1.393  1.00  0.00     0.117 C   
BRANCH  19  20
ATOM     20  N2  UNL     1       1.432   0.948   2.414  1.00  0.00     0.249 N   
ATOM     21  H13 UNL     1       1.875   0.150   1.934  1.00  0.00     0.199 HD  
ATOM     22  H14 UNL     1       2.195   1.556   2.728  1.00  0.00     0.199 HD  
BRANCH  20  23
ATOM     23  C13 UNL     1       0.723   0.398   3.602  1.00  0.00     0.164 C   
BRANCH  23  24
ATOM     24  C14 UNL     1       1.708  -0.244   4.538  1.00  0.00    -0.002 A   
ATOM     25  C15 UNL     1       2.264   0.492   5.610  1.00  0.00     0.012 A   
ATOM     26  C19 UNL     1       2.135  -1.564   4.305  1.00  0.00     0.045 A   
ATOM     27  C16 UNL     1       3.225  -0.082   6.450  1.00  0.00     0.037 A   
ATOM     28  C18 UNL     1       3.088  -2.097   5.149  1.00  0.00     0.109 A   
ATOM     29  C17 UNL     1       3.618  -1.376   6.191  1.00  0.00     0.108 A   
ATOM     30  O2  UNL     1       3.612  -3.347   5.065  1.00  0.00    -0.316 OA  
ATOM     31  O3  UNL     1       4.541  -2.081   6.894  1.00  0.00    -0.316 OA  
ATOM     32  C20 UNL     1       4.546  -3.329   6.168  1.00  0.00     0.337 C   
ENDBRANCH  23  24
ENDBRANCH  20  23
ENDBRANCH  19  20
BRANCH  19  33
ATOM     33  C21 UNL     1       1.465   2.549   0.522  1.00  0.00     0.037 C   
ATOM     34  C22 UNL     1       0.646   3.482  -0.378  1.00  0.00     0.014 C   
ATOM     35  C23 UNL     1       2.491   1.784  -0.325  1.00  0.00     0.014 C   
ENDBRANCH  19  33
ENDBRANCH   3  19
TORSDOF 9
