REMARK SMILES CC(C)C[C@H]([NH2+]Cc1ccc2c(c1)OCO2)c1cn([C@H](CO)c2cccc(F)c2O)nn1
REMARK SMILES IDX 17 1 18 2 19 3 31 4 32 5 5 7 4 8 2 9 1 10 3 11 6 12 7 15
REMARK SMILES IDX 8 16 9 17 13 18 10 19 12 20 11 21 14 22 16 23 15 24 20 25
REMARK SMILES IDX 21 26 22 27 23 29 24 30 29 31 25 32 27 33 26 34 28 35 30 36
REMARK H PARENT 18 6 6 13 6 14 22 28 30 37
ROOT
ATOM     1   C14 UNL     1      -1.130  -1.212   0.056  1.00  0.00     0.127 A   
ATOM     2   C15 UNL     1      -1.167   0.126   0.370  1.00  0.00     0.046 A   
ATOM     3   N2  UNL     1      -0.464   0.216   1.543  1.00  0.00    -0.202 N   
ATOM     4   N3  UNL     1      -0.025  -1.004   1.924  1.00  0.00    -0.075 NA  
ATOM     5   N4  UNL     1      -0.420  -1.883   1.017  1.00  0.00    -0.132 NA  
ATOM     6   H20 UNL     1      -1.621   0.989  -0.098  1.00  0.00     0.083 HD  
ENDROOT
BRANCH   1   7
ATOM     7   C5  UNL     1      -1.687  -1.965  -1.102  1.00  0.00     0.114 C   
BRANCH   7   8
ATOM     8   C4  UNL     1      -3.041  -2.627  -0.776  1.00  0.00     0.064 C   
BRANCH   8   9
ATOM     9   C2  UNL     1      -4.189  -1.653  -0.433  1.00  0.00    -0.012 C   
ATOM     10  C1  UNL     1      -4.501  -0.692  -1.581  1.00  0.00     0.007 C   
ATOM     11  C3  UNL     1      -5.447  -2.447  -0.070  1.00  0.00     0.007 C   
ENDBRANCH   8   9
ENDBRANCH   7   8
BRANCH   7  12
ATOM     12  N1  UNL     1      -0.730  -3.078  -1.491  1.00  0.00     0.249 N   
ATOM     13  H11 UNL     1      -0.203  -3.308  -0.632  1.00  0.00     0.199 HD  
ATOM     14  H12 UNL     1      -1.247  -3.927  -1.738  1.00  0.00     0.199 HD  
BRANCH  12  15
ATOM     15  C6  UNL     1       0.242  -2.765  -2.574  1.00  0.00     0.164 C   
BRANCH  15  16
ATOM     16  C7  UNL     1       1.317  -1.799  -2.167  1.00  0.00    -0.002 A   
ATOM     17  C8  UNL     1       1.274  -0.449  -2.591  1.00  0.00     0.012 A   
ATOM     18  C12 UNL     1       2.364  -2.227  -1.332  1.00  0.00     0.045 A   
ATOM     19  C9  UNL     1       2.253   0.464  -2.184  1.00  0.00     0.037 A   
ATOM     20  C11 UNL     1       3.314  -1.303  -0.952  1.00  0.00     0.109 A   
ATOM     21  C10 UNL     1       3.258   0.006  -1.362  1.00  0.00     0.108 A   
ATOM     22  O1  UNL     1       4.382  -1.553  -0.151  1.00  0.00    -0.316 OA  
ATOM     23  O2  UNL     1       4.271   0.754  -0.848  1.00  0.00    -0.316 OA  
ATOM     24  C13 UNL     1       5.000  -0.250  -0.103  1.00  0.00     0.337 C   
ENDBRANCH  15  16
ENDBRANCH  12  15
ENDBRANCH   7  12
ENDBRANCH   1   7
BRANCH   3  25
ATOM     25  C16 UNL     1      -0.227   1.387   2.393  1.00  0.00     0.158 C   
BRANCH  25  26
ATOM     26  C17 UNL     1      -1.339   1.506   3.457  1.00  0.00     0.186 C   
BRANCH  26  27
ATOM     27  O3  UNL     1      -2.648   1.609   2.889  1.00  0.00    -0.394 OA  
ATOM     28  H24 UNL     1      -3.276   1.643   3.635  1.00  0.00     0.210 HD  
ENDBRANCH  26  27
ENDBRANCH  25  26
BRANCH  25  29
ATOM     29  C18 UNL     1       0.071   2.630   1.560  1.00  0.00     0.010 A   
ATOM     30  C19 UNL     1      -0.868   3.656   1.344  1.00  0.00     0.009 A   
ATOM     31  C23 UNL     1       1.323   2.767   0.944  1.00  0.00     0.112 A   
ATOM     32  C20 UNL     1      -0.561   4.767   0.546  1.00  0.00     0.004 A   
ATOM     33  C22 UNL     1       1.622   3.870   0.145  1.00  0.00     0.153 A   
ATOM     34  C21 UNL     1       0.689   4.874  -0.058  1.00  0.00     0.042 A   
ATOM     35  F1  UNL     1       2.826   3.950  -0.440  1.00  0.00    -0.204 F   
BRANCH  31  36
ATOM     36  O4  UNL     1       2.267   1.796   1.130  1.00  0.00    -0.358 OA  
ATOM     37  H28 UNL     1       3.037   2.028   0.570  1.00  0.00     0.218 HD  
ENDBRANCH  31  36
ENDBRANCH  25  29
ENDBRANCH   3  25
TORSDOF 11
