REMARK SMILES CC(C)C[C@H]([NH2+]Cc1ccc2c(c1)OCO2)c1cn([C@@H](CO)c2cccc(F)c2O)nn1
REMARK SMILES IDX 17 1 18 2 19 3 31 4 32 5 5 7 4 8 2 9 1 10 3 11 6 12 7 15
REMARK SMILES IDX 8 16 9 17 13 18 10 19 12 20 11 21 14 22 16 23 15 24 20 25
REMARK SMILES IDX 21 26 22 27 23 29 24 30 29 31 25 32 27 33 26 34 28 35 30 36
REMARK H PARENT 18 6 6 13 6 14 22 28 30 37
ROOT
ATOM     1   C14 UNL     1      -0.941   0.997   0.507  1.00  0.00     0.127 A   
ATOM     2   C15 UNL     1       0.057   1.696  -0.131  1.00  0.00     0.046 A   
ATOM     3   N2  UNL     1       0.861   2.135   0.887  1.00  0.00    -0.202 N   
ATOM     4   N3  UNL     1       0.393   1.707   2.081  1.00  0.00    -0.075 NA  
ATOM     5   N4  UNL     1      -0.717   1.023   1.860  1.00  0.00    -0.132 NA  
ATOM     6   H20 UNL     1       0.273   1.916  -1.168  1.00  0.00     0.083 HD  
ENDROOT
BRANCH   1   7
ATOM     7   C5  UNL     1      -2.106   0.238  -0.035  1.00  0.00     0.114 C   
BRANCH   7   8
ATOM     8   C4  UNL     1      -3.363   1.131  -0.083  1.00  0.00     0.064 C   
BRANCH   8   9
ATOM     9   C2  UNL     1      -4.639   0.493  -0.671  1.00  0.00    -0.012 C   
ATOM     10  C1  UNL     1      -4.428  -0.052  -2.084  1.00  0.00     0.007 C   
ATOM     11  C3  UNL     1      -5.772   1.525  -0.680  1.00  0.00     0.007 C   
ENDBRANCH   8   9
ENDBRANCH   7   8
BRANCH   7  12
ATOM     12  N1  UNL     1      -2.390  -0.970   0.826  1.00  0.00     0.249 N   
ATOM     13  H11 UNL     1      -3.285  -1.394   0.572  1.00  0.00     0.199 HD  
ATOM     14  H12 UNL     1      -2.474  -0.621   1.791  1.00  0.00     0.199 HD  
BRANCH  12  15
ATOM     15  C6  UNL     1      -1.342  -2.036   0.831  1.00  0.00     0.164 C   
BRANCH  15  16
ATOM     16  C7  UNL     1      -1.196  -2.716  -0.502  1.00  0.00    -0.002 A   
ATOM     17  C8  UNL     1      -0.060  -2.465  -1.309  1.00  0.00     0.012 A   
ATOM     18  C12 UNL     1      -2.202  -3.579  -0.972  1.00  0.00     0.045 A   
ATOM     19  C9  UNL     1       0.071  -3.058  -2.570  1.00  0.00     0.037 A   
ATOM     20  C11 UNL     1      -2.043  -4.144  -2.220  1.00  0.00     0.109 A   
ATOM     21  C10 UNL     1      -0.940  -3.890  -2.997  1.00  0.00     0.108 A   
ATOM     22  O1  UNL     1      -2.922  -4.986  -2.824  1.00  0.00    -0.316 OA  
ATOM     23  O2  UNL     1      -0.983  -4.543  -4.188  1.00  0.00    -0.316 OA  
ATOM     24  C13 UNL     1      -2.233  -5.256  -4.066  1.00  0.00     0.337 C   
ENDBRANCH  15  16
ENDBRANCH  12  15
ENDBRANCH   7  12
ENDBRANCH   1   7
BRANCH   3  25
ATOM     25  C16 UNL     1       2.087   2.928   0.781  1.00  0.00     0.158 C   
BRANCH  25  26
ATOM     26  C17 UNL     1       1.964   4.251   1.559  1.00  0.00     0.186 C   
BRANCH  26  27
ATOM     27  O3  UNL     1       1.054   5.132   0.895  1.00  0.00    -0.394 OA  
ATOM     28  H24 UNL     1       1.041   5.965   1.401  1.00  0.00     0.210 HD  
ENDBRANCH  26  27
ENDBRANCH  25  26
BRANCH  25  29
ATOM     29  C18 UNL     1       3.287   2.067   1.147  1.00  0.00     0.010 A   
ATOM     30  C19 UNL     1       3.807   2.019   2.455  1.00  0.00     0.009 A   
ATOM     31  C23 UNL     1       3.896   1.258   0.179  1.00  0.00     0.112 A   
ATOM     32  C20 UNL     1       4.912   1.216   2.767  1.00  0.00     0.004 A   
ATOM     33  C22 UNL     1       4.996   0.460   0.495  1.00  0.00     0.153 A   
ATOM     34  C21 UNL     1       5.512   0.435   1.782  1.00  0.00     0.042 A   
ATOM     35  F1  UNL     1       5.549  -0.297  -0.463  1.00  0.00    -0.204 F   
BRANCH  31  36
ATOM     36  O4  UNL     1       3.401   1.242  -1.099  1.00  0.00    -0.358 OA  
ATOM     37  H28 UNL     1       4.040   0.730  -1.637  1.00  0.00     0.218 HD  
ENDBRANCH  31  36
ENDBRANCH  25  29
ENDBRANCH   3  25
TORSDOF 11
