REMARK SMILES Cn1ccc(Cn2cc([C@@H]([NH2+]Cc3ccc4c(c3)OCO4)C(C)(C)C)nn2)n1
REMARK SMILES IDX 7 1 8 2 9 3 26 4 27 5 6 7 5 8 2 9 3 10 28 11 4 12 1 13 10 14
REMARK SMILES IDX 11 15 12 18 13 19 14 20 18 21 15 22 17 23 16 24 19 25 21 26
REMARK SMILES IDX 20 27 22 28 23 29 24 30 25 31
REMARK H PARENT 8 6 11 16 11 17
ROOT
ATOM     1   N2  UNL     1      -0.017   2.774  -1.802  1.00  0.00    -0.206 N   
ATOM     2   C6  UNL     1      -0.092   2.126  -0.599  1.00  0.00     0.046 A   
ATOM     3   C7  UNL     1       1.109   1.459  -0.505  1.00  0.00     0.127 A   
ATOM     4   N4  UNL     1       1.875   1.752  -1.605  1.00  0.00    -0.132 NA  
ATOM     5   N5  UNL     1       1.179   2.562  -2.387  1.00  0.00    -0.076 NA  
ATOM     6   H8  UNL     1      -0.986   2.147   0.010  1.00  0.00     0.083 HD  
ENDROOT
BRANCH   1   7
ATOM     7   C5  UNL     1      -1.048   3.554  -2.461  1.00  0.00     0.191 C   
BRANCH   7   8
ATOM     8   C4  UNL     1      -1.974   2.651  -3.204  1.00  0.00     0.079 A   
ATOM     9   N1  UNL     1      -3.538   1.256  -3.540  1.00  0.00    -0.236 N   
ATOM     10  C2  UNL     1      -3.108   1.595  -4.787  1.00  0.00     0.097 A   
ATOM     11  N6  UNL     1      -2.838   1.853  -2.553  1.00  0.00    -0.185 NA  
ATOM     12  C3  UNL     1      -2.096   2.506  -4.607  1.00  0.00     0.044 A   
ATOM     13  C1  UNL     1      -4.620   0.360  -3.209  1.00  0.00     0.159 C   
ENDBRANCH   7   8
ENDBRANCH   1   7
BRANCH   3  14
ATOM     14  C8  UNL     1       1.576   0.436   0.481  1.00  0.00     0.120 C   
BRANCH  14  15
ATOM     15  N3  UNL     1       2.190  -0.733  -0.267  1.00  0.00     0.250 N   
ATOM     16  H10 UNL     1       2.601  -1.404   0.384  1.00  0.00     0.199 HD  
ATOM     17  H11 UNL     1       2.951  -0.346  -0.840  1.00  0.00     0.199 HD  
BRANCH  15  18
ATOM     18  C9  UNL     1       1.286  -1.474  -1.205  1.00  0.00     0.164 C   
BRANCH  18  19
ATOM     19  C10 UNL     1       0.092  -2.086  -0.527  1.00  0.00    -0.002 A   
ATOM     20  C11 UNL     1      -1.198  -1.538  -0.730  1.00  0.00     0.012 A   
ATOM     21  C15 UNL     1       0.250  -3.181   0.339  1.00  0.00     0.045 A   
ATOM     22  C12 UNL     1      -2.315  -2.066  -0.075  1.00  0.00     0.037 A   
ATOM     23  C14 UNL     1      -0.872  -3.678   0.968  1.00  0.00     0.109 A   
ATOM     24  C13 UNL     1      -2.118  -3.137   0.769  1.00  0.00     0.108 A   
ATOM     25  O1  UNL     1      -0.892  -4.722   1.837  1.00  0.00    -0.316 OA  
ATOM     26  O2  UNL     1      -3.081  -3.773   1.486  1.00  0.00    -0.316 OA  
ATOM     27  C16 UNL     1      -2.304  -4.796   2.144  1.00  0.00     0.337 C   
ENDBRANCH  18  19
ENDBRANCH  15  18
ENDBRANCH  14  15
BRANCH  14  28
ATOM     28  C17 UNL     1       2.575   0.986   1.559  1.00  0.00     0.010 C   
ATOM     29  C18 UNL     1       1.929   2.167   2.319  1.00  0.00     0.017 C   
ATOM     30  C19 UNL     1       3.909   1.471   0.958  1.00  0.00     0.017 C   
ATOM     31  C20 UNL     1       2.889  -0.107   2.607  1.00  0.00     0.017 C   
ENDBRANCH  14  28
ENDBRANCH   3  14
TORSDOF 7
