REMARK SMILES CC(C)(C)[C@H]([NH2+]Cc1ccc2c(c1)OCO2)c1cn(Cc2ccc(O)c(Cl)c2)nn1
REMARK SMILES IDX 17 1 18 2 19 3 29 4 30 5 5 7 2 8 1 9 3 10 4 11 6 12 7 15
REMARK SMILES IDX 8 16 9 17 13 18 10 19 12 20 11 21 14 22 16 23 15 24 20 25
REMARK SMILES IDX 21 26 22 27 28 28 23 29 26 30 24 31 27 32 25 33
REMARK H PARENT 18 6 6 13 6 14 25 34
ROOT
ATOM     1   C14 UNL     1       1.083   0.850  -1.721  1.00  0.00     0.127 A   
ATOM     2   C15 UNL     1       1.406  -0.378  -1.186  1.00  0.00     0.046 A   
ATOM     3   N2  UNL     1       2.688  -0.216  -0.736  1.00  0.00    -0.208 N   
ATOM     4   N3  UNL     1       3.137   1.024  -1.006  1.00  0.00    -0.076 NA  
ATOM     5   N4  UNL     1       2.166   1.684  -1.615  1.00  0.00    -0.132 NA  
ATOM     6   H20 UNL     1       0.849  -1.293  -1.039  1.00  0.00     0.083 HD  
ENDROOT
BRANCH   1   7
ATOM     7   C5  UNL     1      -0.221   1.374  -2.236  1.00  0.00     0.120 C   
BRANCH   7   8
ATOM     8   C2  UNL     1      -0.351   1.348  -3.801  1.00  0.00     0.010 C   
ATOM     9   C1  UNL     1      -0.151  -0.094  -4.321  1.00  0.00     0.017 C   
ATOM     10  C3  UNL     1      -1.769   1.790  -4.231  1.00  0.00     0.017 C   
ATOM     11  C4  UNL     1       0.670   2.261  -4.507  1.00  0.00     0.017 C   
ENDBRANCH   7   8
BRANCH   7  12
ATOM     12  N1  UNL     1      -0.461   2.778  -1.708  1.00  0.00     0.250 N   
ATOM     13  H11 UNL     1       0.311   3.362  -2.053  1.00  0.00     0.199 HD  
ATOM     14  H12 UNL     1      -1.331   3.158  -2.087  1.00  0.00     0.199 HD  
BRANCH  12  15
ATOM     15  C6  UNL     1      -0.483   2.949  -0.218  1.00  0.00     0.164 C   
BRANCH  15  16
ATOM     16  C7  UNL     1      -1.458   2.049   0.488  1.00  0.00    -0.002 A   
ATOM     17  C8  UNL     1      -0.985   1.049   1.373  1.00  0.00     0.012 A   
ATOM     18  C12 UNL     1      -2.841   2.179   0.270  1.00  0.00     0.045 A   
ATOM     19  C9  UNL     1      -1.869   0.180   2.019  1.00  0.00     0.037 A   
ATOM     20  C11 UNL     1      -3.685   1.304   0.921  1.00  0.00     0.109 A   
ATOM     21  C10 UNL     1      -3.214   0.332   1.770  1.00  0.00     0.108 A   
ATOM     22  O1  UNL     1      -5.039   1.287   0.813  1.00  0.00    -0.316 OA  
ATOM     23  O2  UNL     1      -4.213  -0.418   2.303  1.00  0.00    -0.316 OA  
ATOM     24  C13 UNL     1      -5.374   0.214   1.722  1.00  0.00     0.337 C   
ENDBRANCH  15  16
ENDBRANCH  12  15
ENDBRANCH   7  12
ENDBRANCH   1   7
BRANCH   3  25
ATOM     25  C16 UNL     1       3.480  -1.141   0.058  1.00  0.00     0.169 C   
BRANCH  25  26
ATOM     26  C17 UNL     1       2.956  -1.188   1.474  1.00  0.00    -0.027 A   
ATOM     27  C18 UNL     1       3.262  -0.155   2.376  1.00  0.00     0.008 A   
ATOM     28  C22 UNL     1       2.112  -2.230   1.893  1.00  0.00     0.028 A   
ATOM     29  C19 UNL     1       2.729  -0.158   3.667  1.00  0.00     0.035 A   
ATOM     30  C21 UNL     1       1.580  -2.228   3.184  1.00  0.00     0.071 A   
ATOM     31  C20 UNL     1       1.888  -1.190   4.064  1.00  0.00     0.090 A   
ATOM     32  CL1 UNL     1       0.521  -3.498   3.664  1.00  0.00    -0.081 Cl  
BRANCH  31  33
ATOM     33  O3  UNL     1       1.382  -1.134   5.332  1.00  0.00    -0.359 OA  
ATOM     34  H25 UNL     1       0.890  -1.961   5.494  1.00  0.00     0.218 HD  
ENDBRANCH  31  33
ENDBRANCH  25  26
ENDBRANCH   3  25
TORSDOF 8
