REMARK SMILES CC(C)C[C@H]([NH2+]Cc1ccc2c(c1)OCO2)c1cn(Cc2ncoc2C2CCC2)nn1
REMARK SMILES IDX 17 1 18 2 19 3 30 4 31 5 5 7 4 8 2 9 1 10 3 11 6 12 7 15
REMARK SMILES IDX 8 16 9 17 13 18 10 19 12 20 11 21 14 22 16 23 15 24 20 25
REMARK SMILES IDX 21 26 22 27 25 28 23 29 24 30 26 31 27 32 29 33 28 34
REMARK H PARENT 18 6 6 13 6 14
ROOT
ATOM     1   C14 UNL     1       1.477  -0.602  -0.336  1.00  0.00     0.127 A   
ATOM     2   C15 UNL     1       0.973  -1.404  -1.334  1.00  0.00     0.046 A   
ATOM     3   N2  UNL     1       1.199  -2.676  -0.883  1.00  0.00    -0.206 N   
ATOM     4   N4  UNL     1       1.819  -2.658   0.314  1.00  0.00    -0.076 NA  
ATOM     5   N5  UNL     1       1.999  -1.393   0.657  1.00  0.00    -0.132 NA  
ATOM     6   H20 UNL     1       0.463  -1.206  -2.268  1.00  0.00     0.083 HD  
ENDROOT
BRANCH   1   7
ATOM     7   C5  UNL     1       1.468   0.882  -0.174  1.00  0.00     0.114 C   
BRANCH   7   8
ATOM     8   C4  UNL     1       2.823   1.483  -0.603  1.00  0.00     0.064 C   
BRANCH   8   9
ATOM     9   C2  UNL     1       2.943   3.021  -0.544  1.00  0.00    -0.012 C   
ATOM     10  C1  UNL     1       1.867   3.727  -1.370  1.00  0.00     0.007 C   
ATOM     11  C3  UNL     1       4.332   3.445  -1.034  1.00  0.00     0.007 C   
ENDBRANCH   8   9
ENDBRANCH   7   8
BRANCH   7  12
ATOM     12  N1  UNL     1       1.197   1.254   1.265  1.00  0.00     0.249 N   
ATOM     13  H11 UNL     1       1.901   0.758   1.829  1.00  0.00     0.199 HD  
ATOM     14  H12 UNL     1       1.336   2.256   1.409  1.00  0.00     0.199 HD  
BRANCH  12  15
ATOM     15  C6  UNL     1      -0.147   0.880   1.802  1.00  0.00     0.164 C   
BRANCH  15  16
ATOM     16  C7  UNL     1      -1.272   1.612   1.124  1.00  0.00    -0.002 A   
ATOM     17  C8  UNL     1      -1.496   2.985   1.387  1.00  0.00     0.012 A   
ATOM     18  C12 UNL     1      -2.086   0.943   0.193  1.00  0.00     0.045 A   
ATOM     19  C9  UNL     1      -2.512   3.685   0.728  1.00  0.00     0.037 A   
ATOM     20  C11 UNL     1      -3.078   1.663  -0.439  1.00  0.00     0.109 A   
ATOM     21  C10 UNL     1      -3.284   2.996  -0.181  1.00  0.00     0.108 A   
ATOM     22  O1  UNL     1      -3.942   1.173  -1.367  1.00  0.00    -0.316 OA  
ATOM     23  O2  UNL     1      -4.306   3.513  -0.911  1.00  0.00    -0.316 OA  
ATOM     24  C13 UNL     1      -4.740   2.347  -1.645  1.00  0.00     0.337 C   
ENDBRANCH  15  16
ENDBRANCH  12  15
ENDBRANCH   7  12
ENDBRANCH   1   7
BRANCH   3  25
ATOM     25  C16 UNL     1       0.834  -3.930  -1.517  1.00  0.00     0.192 C   
BRANCH  25  26
ATOM     26  C17 UNL     1      -0.601  -4.211  -1.268  1.00  0.00     0.089 A   
ATOM     27  N3  UNL     1      -1.582  -3.606  -2.031  1.00  0.00    -0.232 NA  
ATOM     28  C19 UNL     1      -1.195  -5.031  -0.328  1.00  0.00     0.087 A   
ATOM     29  C18 UNL     1      -2.702  -4.091  -1.543  1.00  0.00     0.247 A   
ATOM     30  O3  UNL     1      -2.548  -4.948  -0.500  1.00  0.00    -0.301 OA  
BRANCH  28  31
ATOM     31  C20 UNL     1      -0.479  -5.891   0.744  1.00  0.00     0.045 C   
ATOM     32  C21 UNL     1      -1.401  -6.796   1.602  1.00  0.00     0.010 C   
ATOM     33  C23 UNL     1       0.156  -7.200   0.210  1.00  0.00     0.010 C   
ATOM     34  C22 UNL     1      -0.291  -7.865   1.529  1.00  0.00     0.001 C   
ENDBRANCH  28  31
ENDBRANCH  25  26
ENDBRANCH   3  25
TORSDOF 9
