REMARK SMILES Cc1ccc(CCn2cc([C@@H]([NH2+]Cc3ccc4c(c3)OCO4)C(C)(C)C)nn2)cc1O
REMARK SMILES IDX 8 1 9 2 10 3 27 4 28 5 7 7 6 8 5 9 2 10 3 11 30 12 4 13
REMARK SMILES IDX 29 14 1 15 31 16 11 18 12 19 13 22 14 23 15 24 19 25 16 26
REMARK SMILES IDX 18 27 17 28 20 29 22 30 21 31 23 32 24 33 25 34 26 35
REMARK H PARENT 9 6 31 17 12 20 12 21
ROOT
ATOM     1   N1  UNL     1      -2.744  -0.952   0.436  1.00  0.00    -0.212 N   
ATOM     2   C8  UNL     1      -2.203  -0.533  -0.747  1.00  0.00     0.045 A   
ATOM     3   C9  UNL     1      -0.856  -0.779  -0.599  1.00  0.00     0.127 A   
ATOM     4   N3  UNL     1      -0.635  -1.355   0.626  1.00  0.00    -0.132 NA  
ATOM     5   N4  UNL     1      -1.799  -1.461   1.247  1.00  0.00    -0.076 NA  
ATOM     6   H10 UNL     1      -2.794  -0.063  -1.520  1.00  0.00     0.083 HD  
ENDROOT
BRANCH   1   7
ATOM     7   C7  UNL     1      -4.106  -0.779   0.901  1.00  0.00     0.139 C   
BRANCH   7   8
ATOM     8   C6  UNL     1      -4.248   0.356   1.920  1.00  0.00     0.057 C   
BRANCH   8   9
ATOM     9   C5  UNL     1      -3.845   1.701   1.357  1.00  0.00    -0.044 A   
ATOM     10  C2  UNL     1      -3.038   4.156   0.212  1.00  0.00    -0.021 A   
ATOM     11  C3  UNL     1      -4.354   3.694   0.069  1.00  0.00     0.006 A   
ATOM     12  C24 UNL     1      -2.142   3.378   0.949  1.00  0.00     0.074 A   
ATOM     13  C4  UNL     1      -4.753   2.475   0.628  1.00  0.00     0.004 A   
ATOM     14  C23 UNL     1      -2.535   2.170   1.520  1.00  0.00     0.037 A   
ATOM     15  C1  UNL     1      -2.641   5.464  -0.408  1.00  0.00     0.047 C   
BRANCH  12  16
ATOM     16  O3  UNL     1      -0.838   3.748   1.131  1.00  0.00    -0.361 OA  
ATOM     17  H31 UNL     1      -0.824   4.722   1.185  1.00  0.00     0.218 HD  
ENDBRANCH  12  16
ENDBRANCH   8   9
ENDBRANCH   7   8
ENDBRANCH   1   7
BRANCH   3  18
ATOM     18  C10 UNL     1       0.309  -0.415  -1.468  1.00  0.00     0.120 C   
BRANCH  18  19
ATOM     19  N2  UNL     1       1.425   0.111  -0.595  1.00  0.00     0.250 N   
ATOM     20  H12 UNL     1       1.551  -0.566   0.172  1.00  0.00     0.199 HD  
ATOM     21  H13 UNL     1       2.317   0.158  -1.092  1.00  0.00     0.199 HD  
BRANCH  19  22
ATOM     22  C11 UNL     1       1.162   1.436   0.041  1.00  0.00     0.164 C   
BRANCH  22  23
ATOM     23  C12 UNL     1       2.349   1.875   0.851  1.00  0.00    -0.002 A   
ATOM     24  C13 UNL     1       2.408   1.588   2.235  1.00  0.00     0.012 A   
ATOM     25  C17 UNL     1       3.426   2.533   0.233  1.00  0.00     0.045 A   
ATOM     26  C14 UNL     1       3.517   1.963   3.000  1.00  0.00     0.037 A   
ATOM     27  C16 UNL     1       4.506   2.887   1.016  1.00  0.00     0.109 A   
ATOM     28  C15 UNL     1       4.550   2.611   2.361  1.00  0.00     0.108 A   
ATOM     29  O1  UNL     1       5.620   3.530   0.583  1.00  0.00    -0.316 OA  
ATOM     30  O2  UNL     1       5.697   3.046   2.943  1.00  0.00    -0.316 OA  
ATOM     31  C18 UNL     1       6.372   3.638   1.812  1.00  0.00     0.337 C   
ENDBRANCH  22  23
ENDBRANCH  19  22
ENDBRANCH  18  19
BRANCH  18  32
ATOM     32  C19 UNL     1       0.826  -1.585  -2.376  1.00  0.00     0.010 C   
ATOM     33  C20 UNL     1      -0.334  -2.146  -3.231  1.00  0.00     0.017 C   
ATOM     34  C21 UNL     1       1.437  -2.746  -1.567  1.00  0.00     0.017 C   
ATOM     35  C22 UNL     1       1.901  -1.065  -3.360  1.00  0.00     0.017 C   
ENDBRANCH  18  32
ENDBRANCH   3  18
TORSDOF 9
