REMARK SMILES c1cc2c(cc1C[NH2+][C@H](c1cn(CCc3[nH]nc4c3COCC4)nn1)C1CCCCC1)OCO2
REMARK SMILES IDX 10 1 11 2 12 3 24 4 25 5 9 7 8 8 7 11 6 12 1 13 2 14 3 15
REMARK SMILES IDX 5 16 4 17 34 18 32 19 33 20 26 21 27 22 31 23 28 24 30 25
REMARK SMILES IDX 29 26 13 27 14 28 15 29 16 30 19 31 17 32 18 33 20 34 23 35
REMARK SMILES IDX 21 36 22 37
REMARK H PARENT 11 6 8 9 8 10 16 38
ROOT
ATOM     1   C9  UNL     1       1.363   0.318   1.573  1.00  0.00     0.127 A   
ATOM     2   C10 UNL     1       0.801  -0.194   2.725  1.00  0.00     0.045 A   
ATOM     3   N2  UNL     1       1.359  -1.441   2.843  1.00  0.00    -0.212 N   
ATOM     4   N5  UNL     1       2.289  -1.642   1.890  1.00  0.00    -0.076 NA  
ATOM     5   N6  UNL     1       2.302  -0.572   1.109  1.00  0.00    -0.132 NA  
ATOM     6   H9  UNL     1      -0.009   0.132   3.362  1.00  0.00     0.083 HD  
ENDROOT
BRANCH   1   7
ATOM     7   C8  UNL     1       0.985   1.495   0.719  1.00  0.00     0.117 C   
BRANCH   7   8
ATOM     8   N1  UNL     1       0.217   0.971  -0.478  1.00  0.00     0.249 N   
ATOM     9   H6  UNL     1      -0.642   1.486  -0.668  1.00  0.00     0.199 HD  
ATOM     10  H7  UNL     1      -0.163   0.024  -0.251  1.00  0.00     0.199 HD  
BRANCH   8  11
ATOM     11  C7  UNL     1       1.023   0.840  -1.719  1.00  0.00     0.164 C   
BRANCH  11  12
ATOM     12  C6  UNL     1       0.296   0.059  -2.778  1.00  0.00    -0.002 A   
ATOM     13  C1  UNL     1      -0.771   0.640  -3.503  1.00  0.00     0.012 A   
ATOM     14  C2  UNL     1      -1.472  -0.099  -4.463  1.00  0.00     0.037 A   
ATOM     15  C3  UNL     1      -1.087  -1.403  -4.679  1.00  0.00     0.108 A   
ATOM     16  C5  UNL     1       0.654  -1.279  -3.025  1.00  0.00     0.045 A   
ATOM     17  C4  UNL     1      -0.054  -1.977  -3.979  1.00  0.00     0.109 A   
ATOM     18  O3  UNL     1      -1.647  -2.260  -5.573  1.00  0.00    -0.316 OA  
ATOM     19  O2  UNL     1       0.168  -3.268  -4.343  1.00  0.00    -0.316 OA  
ATOM     20  C25 UNL     1      -0.818  -3.428  -5.388  1.00  0.00     0.337 C   
ENDBRANCH  11  12
ENDBRANCH   8  11
ENDBRANCH   7   8
BRANCH   7  21
ATOM     21  C19 UNL     1       0.152   2.603   1.430  1.00  0.00     0.043 C   
ATOM     22  C20 UNL     1      -0.226   3.782   0.502  1.00  0.00     0.010 C   
ATOM     23  C24 UNL     1       0.874   3.197   2.663  1.00  0.00     0.010 C   
ATOM     24  C21 UNL     1       0.977   4.636   0.102  1.00  0.00     0.001 C   
ATOM     25  C23 UNL     1       2.093   4.040   2.294  1.00  0.00     0.001 C   
ATOM     26  C22 UNL     1       1.730   5.157   1.321  1.00  0.00     0.000 C   
ENDBRANCH   7  21
ENDBRANCH   1   7
BRANCH   3  27
ATOM     27  C11 UNL     1       0.800  -2.565   3.575  1.00  0.00     0.140 C   
BRANCH  27  28
ATOM     28  C12 UNL     1      -0.054  -3.491   2.683  1.00  0.00     0.075 C   
BRANCH  28  29
ATOM     29  C13 UNL     1      -0.956  -2.713   1.775  1.00  0.00     0.034 A   
ATOM     30  N3  UNL     1      -0.578  -2.408   0.487  1.00  0.00    -0.242 N   
ATOM     31  C15 UNL     1      -2.161  -2.074   1.959  1.00  0.00     0.020 A   
ATOM     32  N4  UNL     1      -1.279  -1.366  -0.031  1.00  0.00    -0.189 NA  
ATOM     33  C14 UNL     1      -2.325  -1.283   0.800  1.00  0.00     0.068 A   
ATOM     34  C16 UNL     1      -3.132  -2.020   3.084  1.00  0.00     0.199 C   
ATOM     35  C18 UNL     1      -3.470  -0.346   0.642  1.00  0.00     0.087 C   
ATOM     36  O1  UNL     1      -3.944  -0.830   3.004  1.00  0.00    -0.376 OA  
ATOM     37  C17 UNL     1      -4.540  -0.671   1.701  1.00  0.00     0.167 C   
ATOM     38  H14 UNL     1       0.237  -2.755  -0.016  1.00  0.00     0.175 HD  
ENDBRANCH  28  29
ENDBRANCH  27  28
ENDBRANCH   3  27
TORSDOF 8
