REMARK SMILES COc1c(C)cnc(Cn2cc([C@@H]([NH2+]Cc3ccc4c(c3)OCO4)C(C)(C)C)nn2)c1C
REMARK SMILES IDX 10 1 11 2 12 3 29 4 30 5 9 7 8 8 3 9 4 10 31 11 6 12 7 13
REMARK SMILES IDX 5 14 32 15 2 16 1 17 13 18 14 19 15 22 16 23 17 24 21 25
REMARK SMILES IDX 18 26 20 27 19 28 22 29 24 30 23 31 25 32 26 33 27 34 28 35
REMARK H PARENT 11 6 14 20 14 21
ROOT
ATOM     1   N2  UNL     1       0.625   1.528  -2.055  1.00  0.00    -0.206 N   
ATOM     2   C8  UNL     1      -0.024   2.094  -0.991  1.00  0.00     0.046 A   
ATOM     3   C9  UNL     1       0.942   2.171  -0.014  1.00  0.00     0.127 A   
ATOM     4   N4  UNL     1       2.130   1.704  -0.516  1.00  0.00    -0.132 NA  
ATOM     5   N5  UNL     1       1.926   1.320  -1.766  1.00  0.00    -0.076 NA  
ATOM     6   H10 UNL     1      -1.084   2.318  -1.018  1.00  0.00     0.083 HD  
ENDROOT
BRANCH   1   7
ATOM     7   C7  UNL     1       0.062   1.115  -3.328  1.00  0.00     0.190 C   
BRANCH   7   8
ATOM     8   C6  UNL     1      -0.807  -0.103  -3.133  1.00  0.00     0.065 A   
ATOM     9   C2  UNL     1      -1.257  -2.451  -3.103  1.00  0.00     0.084 A   
ATOM     10  C3  UNL     1      -2.554  -2.197  -2.647  1.00  0.00    -0.002 A   
ATOM     11  C23 UNL     1      -0.337  -1.411  -3.310  1.00  0.00     0.003 A   
ATOM     12  C5  UNL     1      -2.909  -0.870  -2.488  1.00  0.00     0.117 A   
ATOM     13  N1  UNL     1      -2.076   0.168  -2.719  1.00  0.00    -0.259 NA  
ATOM     14  C4  UNL     1      -3.532  -3.291  -2.352  1.00  0.00     0.049 C   
ATOM     15  C24 UNL     1       1.071  -1.706  -3.749  1.00  0.00     0.049 C   
BRANCH   9  16
ATOM     16  O1  UNL     1      -0.860  -3.756  -3.269  1.00  0.00    -0.349 OA  
ATOM     17  C1  UNL     1      -1.065  -4.172  -4.621  1.00  0.00     0.203 C   
ENDBRANCH   9  16
ENDBRANCH   7   8
ENDBRANCH   1   7
BRANCH   3  18
ATOM     18  C10 UNL     1       0.833   2.542   1.431  1.00  0.00     0.120 C   
BRANCH  18  19
ATOM     19  N3  UNL     1       1.625   1.545   2.259  1.00  0.00     0.250 N   
ATOM     20  H12 UNL     1       2.577   1.542   1.870  1.00  0.00     0.199 HD  
ATOM     21  H13 UNL     1       1.687   1.848   3.233  1.00  0.00     0.199 HD  
BRANCH  19  22
ATOM     22  C11 UNL     1       1.146   0.125   2.230  1.00  0.00     0.164 C   
BRANCH  22  23
ATOM     23  C12 UNL     1      -0.239  -0.048   2.791  1.00  0.00    -0.002 A   
ATOM     24  C13 UNL     1      -0.472   0.088   4.181  1.00  0.00     0.012 A   
ATOM     25  C17 UNL     1      -1.319  -0.317   1.929  1.00  0.00     0.045 A   
ATOM     26  C14 UNL     1      -1.763  -0.034   4.708  1.00  0.00     0.037 A   
ATOM     27  C16 UNL     1      -2.579  -0.435   2.482  1.00  0.00     0.109 A   
ATOM     28  C15 UNL     1      -2.794  -0.296   3.831  1.00  0.00     0.108 A   
ATOM     29  O2  UNL     1      -3.725  -0.688   1.796  1.00  0.00    -0.316 OA  
ATOM     30  O3  UNL     1      -4.103  -0.447   4.164  1.00  0.00    -0.316 OA  
ATOM     31  C18 UNL     1      -4.681  -0.764   2.878  1.00  0.00     0.337 C   
ENDBRANCH  22  23
ENDBRANCH  19  22
ENDBRANCH  18  19
BRANCH  18  32
ATOM     32  C19 UNL     1       1.285   4.010   1.756  1.00  0.00     0.010 C   
ATOM     33  C20 UNL     1       2.789   4.247   1.515  1.00  0.00     0.017 C   
ATOM     34  C21 UNL     1       0.975   4.353   3.232  1.00  0.00     0.017 C   
ATOM     35  C22 UNL     1       0.491   5.010   0.886  1.00  0.00     0.017 C   
ENDBRANCH  18  32
ENDBRANCH   3  18
TORSDOF 8
