REMARK SMILES CC(C)C[C@H]([NH2+]Cc1ccc2c(c1)OCO2)c1cn(CCc2c(Cl)ncn2C)nn1
REMARK SMILES IDX 17 1 18 2 19 3 29 4 30 5 5 7 4 8 2 9 1 10 3 11 6 12 7 15
REMARK SMILES IDX 8 16 9 17 13 18 10 19 12 20 11 21 14 22 16 23 15 24 20 25
REMARK SMILES IDX 21 26 22 27 23 28 27 29 25 30 26 31 24 32 28 33
REMARK H PARENT 18 6 6 13 6 14
ROOT
ATOM     1   C14 UNL     1      -0.540   0.453   0.450  1.00  0.00     0.127 A   
ATOM     2   C15 UNL     1      -0.509   1.740  -0.049  1.00  0.00     0.045 A   
ATOM     3   N2  UNL     1       0.187   2.433   0.905  1.00  0.00    -0.212 N   
ATOM     4   N5  UNL     1       0.372   1.677   2.006  1.00  0.00    -0.076 NA  
ATOM     5   N6  UNL     1      -0.044   0.452   1.727  1.00  0.00    -0.132 NA  
ATOM     6   H20 UNL     1      -0.750   2.165  -1.013  1.00  0.00     0.083 HD  
ENDROOT
BRANCH   1   7
ATOM     7   C5  UNL     1      -0.832  -0.848  -0.226  1.00  0.00     0.114 C   
BRANCH   7   8
ATOM     8   C4  UNL     1      -1.962  -1.646   0.452  1.00  0.00     0.064 C   
BRANCH   8   9
ATOM     9   C2  UNL     1      -3.389  -1.050   0.403  1.00  0.00    -0.012 C   
ATOM     10  C1  UNL     1      -3.606   0.100   1.386  1.00  0.00     0.007 C   
ATOM     11  C3  UNL     1      -3.818  -0.648  -1.008  1.00  0.00     0.007 C   
ENDBRANCH   8   9
ENDBRANCH   7   8
BRANCH   7  12
ATOM     12  N1  UNL     1       0.454  -1.653  -0.167  1.00  0.00     0.249 N   
ATOM     13  H11 UNL     1       0.694  -1.770   0.825  1.00  0.00     0.199 HD  
ATOM     14  H12 UNL     1       1.226  -1.054  -0.519  1.00  0.00     0.199 HD  
BRANCH  12  15
ATOM     15  C6  UNL     1       0.558  -2.947  -0.880  1.00  0.00     0.164 C   
BRANCH  15  16
ATOM     16  C7  UNL     1       0.400  -2.832  -2.368  1.00  0.00    -0.002 A   
ATOM     17  C8  UNL     1       1.499  -2.442  -3.171  1.00  0.00     0.012 A   
ATOM     18  C12 UNL     1      -0.843  -3.081  -2.976  1.00  0.00     0.045 A   
ATOM     19  C9  UNL     1       1.367  -2.300  -4.556  1.00  0.00     0.037 A   
ATOM     20  C11 UNL     1      -0.941  -2.924  -4.343  1.00  0.00     0.109 A   
ATOM     21  C10 UNL     1       0.132  -2.546  -5.112  1.00  0.00     0.108 A   
ATOM     22  O1  UNL     1      -2.068  -3.112  -5.079  1.00  0.00    -0.316 OA  
ATOM     23  O2  UNL     1      -0.182  -2.454  -6.430  1.00  0.00    -0.316 OA  
ATOM     24  C13 UNL     1      -1.581  -2.814  -6.407  1.00  0.00     0.337 C   
ENDBRANCH  15  16
ENDBRANCH  12  15
ENDBRANCH   7  12
ENDBRANCH   1   7
BRANCH   3  25
ATOM     25  C16 UNL     1       0.993   3.626   0.718  1.00  0.00     0.140 C   
BRANCH  25  26
ATOM     26  C17 UNL     1       2.170   3.448  -0.268  1.00  0.00     0.076 C   
BRANCH  26  27
ATOM     27  C18 UNL     1       2.731   2.056  -0.299  1.00  0.00     0.050 A   
ATOM     28  C19 UNL     1       2.547   1.035  -1.214  1.00  0.00     0.147 A   
ATOM     29  N4  UNL     1       3.481   1.482   0.700  1.00  0.00    -0.296 N   
ATOM     30  N3  UNL     1       2.933  -0.174  -0.678  1.00  0.00    -0.227 NA  
ATOM     31  C20 UNL     1       3.571   0.143   0.430  1.00  0.00     0.190 A   
ATOM     32  CL1 UNL     1       1.746   1.127  -2.712  1.00  0.00    -0.061 Cl  
ATOM     33  C21 UNL     1       4.045   2.132   1.860  1.00  0.00     0.137 C   
ENDBRANCH  26  27
ENDBRANCH  25  26
ENDBRANCH   3  25
TORSDOF 9
