REMARK SMILES CC(C)C[C@H]([NH2+]Cc1ccc2c(c1)OCO2)c1cn(CCc2ccc(O)c(Cl)c2)nn1
REMARK SMILES IDX 17 1 18 2 19 3 30 4 31 5 5 7 4 8 2 9 1 10 3 11 6 12 7 15
REMARK SMILES IDX 8 16 9 17 13 18 10 19 12 20 11 21 14 22 16 23 15 24 20 25
REMARK SMILES IDX 21 26 22 27 23 28 29 29 24 30 27 31 25 32 28 33 26 34
REMARK H PARENT 18 6 6 13 6 14 26 35
ROOT
ATOM     1   C14 UNL     1      -0.611   1.712  -1.956  1.00  0.00     0.127 A   
ATOM     2   C15 UNL     1       0.711   1.997  -2.222  1.00  0.00     0.045 A   
ATOM     3   N2  UNL     1       0.955   1.364  -3.409  1.00  0.00    -0.212 N   
ATOM     4   N3  UNL     1      -0.158   0.773  -3.875  1.00  0.00    -0.076 NA  
ATOM     5   N4  UNL     1      -1.120   0.965  -2.985  1.00  0.00    -0.132 NA  
ATOM     6   H20 UNL     1       1.490   2.505  -1.669  1.00  0.00     0.083 HD  
ENDROOT
BRANCH   1   7
ATOM     7   C5  UNL     1      -1.449   1.937  -0.738  1.00  0.00     0.114 C   
BRANCH   7   8
ATOM     8   C4  UNL     1      -1.001   3.123   0.135  1.00  0.00     0.064 C   
BRANCH   8   9
ATOM     9   C2  UNL     1      -1.100   4.506  -0.548  1.00  0.00    -0.012 C   
ATOM     10  C1  UNL     1      -2.536   4.859  -0.940  1.00  0.00     0.007 C   
ATOM     11  C3  UNL     1      -0.541   5.582   0.387  1.00  0.00     0.007 C   
ENDBRANCH   8   9
ENDBRANCH   7   8
BRANCH   7  12
ATOM     12  N1  UNL     1      -1.395   0.667   0.079  1.00  0.00     0.249 N   
ATOM     13  H11 UNL     1      -0.460   0.544   0.487  1.00  0.00     0.199 HD  
ATOM     14  H12 UNL     1      -1.485  -0.115  -0.590  1.00  0.00     0.199 HD  
BRANCH  12  15
ATOM     15  C6  UNL     1      -2.443   0.486   1.114  1.00  0.00     0.164 C   
BRANCH  15  16
ATOM     16  C7  UNL     1      -2.325  -0.864   1.763  1.00  0.00    -0.002 A   
ATOM     17  C8  UNL     1      -1.401  -1.071   2.816  1.00  0.00     0.012 A   
ATOM     18  C12 UNL     1      -3.096  -1.942   1.298  1.00  0.00     0.045 A   
ATOM     19  C9  UNL     1      -1.251  -2.332   3.404  1.00  0.00     0.037 A   
ATOM     20  C11 UNL     1      -2.923  -3.172   1.899  1.00  0.00     0.109 A   
ATOM     21  C10 UNL     1      -2.025  -3.363   2.920  1.00  0.00     0.108 A   
ATOM     22  O1  UNL     1      -3.581  -4.313   1.566  1.00  0.00    -0.316 OA  
ATOM     23  O2  UNL     1      -2.002  -4.648   3.357  1.00  0.00    -0.316 OA  
ATOM     24  C13 UNL     1      -3.006  -5.246   2.507  1.00  0.00     0.337 C   
ENDBRANCH  15  16
ENDBRANCH  12  15
ENDBRANCH   7  12
ENDBRANCH   1   7
BRANCH   3  25
ATOM     25  C16 UNL     1       2.246   1.109  -4.017  1.00  0.00     0.139 C   
BRANCH  25  26
ATOM     26  C17 UNL     1       2.724  -0.340  -3.830  1.00  0.00     0.057 C   
BRANCH  26  27
ATOM     27  C18 UNL     1       2.553  -0.843  -2.411  1.00  0.00    -0.045 A   
ATOM     28  C19 UNL     1       3.329  -0.329  -1.362  1.00  0.00     0.006 A   
ATOM     29  C23 UNL     1       1.536  -1.768  -2.122  1.00  0.00     0.027 A   
ATOM     30  C20 UNL     1       3.057  -0.691  -0.041  1.00  0.00     0.035 A   
ATOM     31  C22 UNL     1       1.275  -2.135  -0.804  1.00  0.00     0.071 A   
ATOM     32  C21 UNL     1       2.024  -1.581   0.233  1.00  0.00     0.090 A   
ATOM     33  CL1 UNL     1      -0.025  -3.211  -0.469  1.00  0.00    -0.081 Cl  
BRANCH  32  34
ATOM     34  O3  UNL     1       1.761  -1.861   1.544  1.00  0.00    -0.359 OA  
ATOM     35  H27 UNL     1       1.231  -2.683   1.570  1.00  0.00     0.218 HD  
ENDBRANCH  32  34
ENDBRANCH  26  27
ENDBRANCH  25  26
ENDBRANCH   3  25
TORSDOF 10
