REMARK SMILES c1ncc(CCn2cc([C@@H]([NH2+]Cc3ccc4c(c3)OCO4)C3CCCCC3)nn2)[nH]1
REMARK SMILES IDX 7 1 8 2 9 3 28 4 29 5 6 7 5 8 4 9 1 10 2 11 30 12 3 13 10 15
REMARK SMILES IDX 11 16 12 19 13 20 14 21 18 22 15 23 17 24 16 25 19 26 21 27
REMARK SMILES IDX 20 28 22 29 23 30 27 31 24 32 26 33 25 34
REMARK H PARENT 8 6 30 14 11 17 11 18
ROOT
ATOM     1   N2  UNL     1       0.163   1.663   2.107  1.00  0.00    -0.212 N   
ATOM     2   C6  UNL     1      -0.682   1.232   1.116  1.00  0.00     0.045 A   
ATOM     3   C7  UNL     1       0.171   0.929   0.074  1.00  0.00     0.127 A   
ATOM     4   N4  UNL     1       1.432   1.359   0.395  1.00  0.00    -0.132 NA  
ATOM     5   N5  UNL     1       1.408   1.834   1.632  1.00  0.00    -0.076 NA  
ATOM     6   H7  UNL     1      -1.729   1.037   1.302  1.00  0.00     0.083 HD  
ENDROOT
BRANCH   1   7
ATOM     7   C5  UNL     1      -0.074   1.534   3.535  1.00  0.00     0.140 C   
BRANCH   7   8
ATOM     8   C4  UNL     1       0.627   0.311   4.160  1.00  0.00     0.074 C   
BRANCH   8   9
ATOM     9   C3  UNL     1       0.648  -0.884   3.255  1.00  0.00     0.028 A   
ATOM     10  C1  UNL     1       1.482  -2.299   1.779  1.00  0.00     0.185 A   
ATOM     11  N1  UNL     1       0.175  -2.402   1.641  1.00  0.00    -0.248 NA  
ATOM     12  N6  UNL     1       1.818  -1.380   2.732  1.00  0.00    -0.308 N   
ATOM     13  C2  UNL     1      -0.344  -1.639   2.665  1.00  0.00     0.131 A   
ATOM     14  H29 UNL     1       2.758  -1.066   2.948  1.00  0.00     0.153 HD  
ENDBRANCH   8   9
ENDBRANCH   7   8
ENDBRANCH   1   7
BRANCH   3  15
ATOM     15  C8  UNL     1      -0.062   0.126  -1.172  1.00  0.00     0.117 C   
BRANCH  15  16
ATOM     16  N3  UNL     1      -0.723  -1.186  -0.809  1.00  0.00     0.249 N   
ATOM     17  H9  UNL     1      -0.181  -1.603  -0.023  1.00  0.00     0.199 HD  
ATOM     18  H10 UNL     1      -1.637  -1.008  -0.385  1.00  0.00     0.199 HD  
BRANCH  16  19
ATOM     19  C9  UNL     1      -0.857  -2.243  -1.846  1.00  0.00     0.164 C   
BRANCH  19  20
ATOM     20  C10 UNL     1       0.452  -2.724  -2.403  1.00  0.00    -0.002 A   
ATOM     21  C11 UNL     1       0.898  -2.295  -3.675  1.00  0.00     0.012 A   
ATOM     22  C15 UNL     1       1.261  -3.591  -1.646  1.00  0.00     0.045 A   
ATOM     23  C12 UNL     1       2.135  -2.710  -4.183  1.00  0.00     0.037 A   
ATOM     24  C14 UNL     1       2.477  -3.974  -2.170  1.00  0.00     0.109 A   
ATOM     25  C13 UNL     1       2.902  -3.546  -3.403  1.00  0.00     0.108 A   
ATOM     26  O1  UNL     1       3.383  -4.781  -1.558  1.00  0.00    -0.316 OA  
ATOM     27  O2  UNL     1       4.126  -4.037  -3.728  1.00  0.00    -0.316 OA  
ATOM     28  C16 UNL     1       4.421  -4.837  -2.563  1.00  0.00     0.337 C   
ENDBRANCH  19  20
ENDBRANCH  16  19
ENDBRANCH  15  16
BRANCH  15  29
ATOM     29  C17 UNL     1      -0.852   0.874  -2.278  1.00  0.00     0.043 C   
ATOM     30  C18 UNL     1      -2.311   1.214  -1.919  1.00  0.00     0.010 C   
ATOM     31  C22 UNL     1      -0.106   2.145  -2.735  1.00  0.00     0.010 C   
ATOM     32  C19 UNL     1      -3.026   1.910  -3.079  1.00  0.00     0.001 C   
ATOM     33  C21 UNL     1      -0.826   2.838  -3.890  1.00  0.00     0.001 C   
ATOM     34  C20 UNL     1      -2.276   3.155  -3.538  1.00  0.00     0.000 C   
ENDBRANCH  15  29
ENDBRANCH   3  15
TORSDOF 8
