REMARK SMILES CC(C)(C)[C@H]([NH2+]Cc1ccc2c(c1)OCO2)c1cn(C(=O)c2ccc(Cl)cc2)nn1
REMARK SMILES IDX 17 1 18 2 19 3 29 4 30 5 5 6 2 7 1 8 3 9 4 10 6 11 7 14 8 15
REMARK SMILES IDX 9 16 13 17 10 18 12 19 11 20 14 21 16 22 15 23 20 24 21 25
REMARK SMILES IDX 22 26 23 27 28 28 24 29 27 30 25 31 26 32
REMARK H PARENT 6 12 6 13
ROOT
ATOM     1   C14 UNL     1       1.273   1.292   0.396  1.00  0.00     0.128 A   
ATOM     2   C15 UNL     1       1.415   2.658   0.452  1.00  0.00     0.139 A   
ATOM     3   N2  UNL     1       0.395   3.161  -0.338  1.00  0.00    -0.143 N   
ATOM     4   N3  UNL     1      -0.355   2.128  -0.794  1.00  0.00    -0.068 NA  
ATOM     5   N4  UNL     1       0.175   0.993  -0.367  1.00  0.00    -0.131 NA  
ENDROOT
BRANCH   1   6
ATOM     6   C5  UNL     1       2.045   0.187   1.060  1.00  0.00     0.120 C   
BRANCH   6   7
ATOM     7   C2  UNL     1       3.223  -0.383   0.193  1.00  0.00     0.010 C   
ATOM     8   C1  UNL     1       2.732  -1.081  -1.091  1.00  0.00     0.017 C   
ATOM     9   C3  UNL     1       4.050  -1.401   1.013  1.00  0.00     0.017 C   
ATOM     10  C4  UNL     1       4.189   0.755  -0.212  1.00  0.00     0.017 C   
ENDBRANCH   6   7
BRANCH   6  11
ATOM     11  N1  UNL     1       1.088  -0.920   1.437  1.00  0.00     0.250 N   
ATOM     12  H11 UNL     1       1.567  -1.808   1.609  1.00  0.00     0.199 HD  
ATOM     13  H12 UNL     1       0.477  -1.083   0.622  1.00  0.00     0.199 HD  
BRANCH  11  14
ATOM     14  C6  UNL     1       0.203  -0.634   2.602  1.00  0.00     0.164 C   
BRANCH  14  15
ATOM     15  C7  UNL     1      -0.740  -1.780   2.835  1.00  0.00    -0.002 A   
ATOM     16  C8  UNL     1      -0.412  -2.805   3.754  1.00  0.00     0.012 A   
ATOM     17  C12 UNL     1      -1.933  -1.867   2.096  1.00  0.00     0.045 A   
ATOM     18  C9  UNL     1      -1.265  -3.898   3.944  1.00  0.00     0.037 A   
ATOM     19  C11 UNL     1      -2.750  -2.958   2.307  1.00  0.00     0.109 A   
ATOM     20  C10 UNL     1      -2.426  -3.945   3.205  1.00  0.00     0.108 A   
ATOM     21  O1  UNL     1      -3.931  -3.195   1.679  1.00  0.00    -0.316 OA  
ATOM     22  O2  UNL     1      -3.363  -4.926   3.257  1.00  0.00    -0.316 OA  
ATOM     23  C13 UNL     1      -4.330  -4.436   2.304  1.00  0.00     0.337 C   
ENDBRANCH  14  15
ENDBRANCH  11  14
ENDBRANCH   6  11
ENDBRANCH   1   6
BRANCH   3  24
ATOM     24  C16 UNL     1       0.085   4.504  -0.605  1.00  0.00     0.271 C   
ATOM     25  O3  UNL     1       0.773   5.335  -0.013  1.00  0.00    -0.269 OA  
BRANCH  24  26
ATOM     26  C17 UNL     1      -0.998   4.987  -1.505  1.00  0.00     0.040 A   
ATOM     27  C18 UNL     1      -1.585   6.231  -1.221  1.00  0.00     0.015 A   
ATOM     28  C22 UNL     1      -1.417   4.274  -2.636  1.00  0.00     0.015 A   
ATOM     29  C19 UNL     1      -2.598   6.740  -2.038  1.00  0.00     0.021 A   
ATOM     30  C21 UNL     1      -2.433   4.787  -3.452  1.00  0.00     0.021 A   
ATOM     31  C20 UNL     1      -3.021   6.013  -3.149  1.00  0.00     0.041 A   
ATOM     32  CL1 UNL     1      -4.268   6.635  -4.155  1.00  0.00    -0.084 Cl  
ENDBRANCH  24  26
ENDBRANCH   3  24
TORSDOF 7
