REMARK SMILES CCOc1nccc(-n2cc([C@@H]([NH2+]Cc3ccc4c(c3)OCO4)C3CCCC3)nn2)c1F
REMARK SMILES IDX 9 1 10 2 11 3 29 4 30 5 8 6 4 7 5 8 31 9 6 10 7 11 32 12
REMARK SMILES IDX 3 13 2 14 1 15 12 16 13 17 14 20 15 21 16 22 20 23 17 24
REMARK SMILES IDX 19 25 18 26 21 27 23 28 22 29 24 30 25 31 28 32 26 33 27 34
REMARK H PARENT 13 18 13 19
ROOT
ATOM     1   N2  UNL     1      -1.276   0.915  -0.987  1.00  0.00    -0.177 N   
ATOM     2   C7  UNL     1      -0.117   1.379  -0.392  1.00  0.00     0.135 A   
ATOM     3   C8  UNL     1       0.724   0.290  -0.333  1.00  0.00     0.127 A   
ATOM     4   N4  UNL     1       0.083  -0.794  -0.859  1.00  0.00    -0.131 NA  
ATOM     5   N5  UNL     1      -1.123  -0.413  -1.246  1.00  0.00    -0.071 NA  
ENDROOT
BRANCH   1   6
ATOM     6   C6  UNL     1      -2.476   1.590  -1.305  1.00  0.00     0.099 A   
ATOM     7   C3  UNL     1      -3.869   3.535  -1.333  1.00  0.00     0.205 A   
ATOM     8   N1  UNL     1      -4.883   2.880  -1.943  1.00  0.00    -0.230 NA  
ATOM     9   C23 UNL     1      -2.657   2.937  -1.004  1.00  0.00     0.196 A   
ATOM     10  C4  UNL     1      -4.687   1.577  -2.231  1.00  0.00     0.116 A   
ATOM     11  C5  UNL     1      -3.517   0.893  -1.935  1.00  0.00     0.049 A   
ATOM     12  F1  UNL     1      -1.708   3.661  -0.392  1.00  0.00    -0.200 F   
BRANCH   7  13
ATOM     13  O1  UNL     1      -4.011   4.871  -1.004  1.00  0.00    -0.327 OA  
BRANCH  13  14
ATOM     14  C2  UNL     1      -5.309   5.395  -1.286  1.00  0.00     0.166 C   
ATOM     15  C1  UNL     1      -5.332   6.840  -0.816  1.00  0.00     0.035 C   
ENDBRANCH  13  14
ENDBRANCH   7  13
ENDBRANCH   1   6
BRANCH   3  16
ATOM     16  C9  UNL     1       2.112   0.144   0.206  1.00  0.00     0.117 C   
BRANCH  16  17
ATOM     17  N3  UNL     1       2.346  -1.270   0.663  1.00  0.00     0.249 N   
ATOM     18  H10 UNL     1       1.975  -1.892  -0.070  1.00  0.00     0.199 HD  
ATOM     19  H11 UNL     1       3.343  -1.491   0.742  1.00  0.00     0.199 HD  
BRANCH  17  20
ATOM     20  C10 UNL     1       1.672  -1.652   1.937  1.00  0.00     0.164 C   
BRANCH  20  21
ATOM     21  C11 UNL     1       2.022  -3.066   2.307  1.00  0.00    -0.002 A   
ATOM     22  C12 UNL     1       3.063  -3.328   3.233  1.00  0.00     0.012 A   
ATOM     23  C16 UNL     1       1.352  -4.139   1.692  1.00  0.00     0.045 A   
ATOM     24  C13 UNL     1       3.429  -4.641   3.546  1.00  0.00     0.037 A   
ATOM     25  C15 UNL     1       1.738  -5.421   2.025  1.00  0.00     0.109 A   
ATOM     26  C14 UNL     1       2.749  -5.666   2.922  1.00  0.00     0.108 A   
ATOM     27  O2  UNL     1       1.197  -6.563   1.531  1.00  0.00    -0.316 OA  
ATOM     28  O3  UNL     1       2.975  -6.992   3.104  1.00  0.00    -0.316 OA  
ATOM     29  C17 UNL     1       1.970  -7.562   2.236  1.00  0.00     0.337 C   
ENDBRANCH  20  21
ENDBRANCH  17  20
ENDBRANCH  16  17
BRANCH  16  30
ATOM     30  C18 UNL     1       3.170   0.570  -0.831  1.00  0.00     0.043 C   
ATOM     31  C19 UNL     1       3.291  -0.310  -2.086  1.00  0.00     0.010 C   
ATOM     32  C22 UNL     1       4.604   0.647  -0.298  1.00  0.00     0.010 C   
ATOM     33  C20 UNL     1       4.751  -0.202  -2.540  1.00  0.00     0.001 C   
ATOM     34  C21 UNL     1       5.428   0.760  -1.572  1.00  0.00     0.001 C   
ENDBRANCH  16  30
ENDBRANCH   3  16
TORSDOF 8
