REMARK SMILES CC(C)[C@H]([NH2+]Cc1ccc2c(c1)OCO2)c1cn(CCc2ccccc2N(C)C)nn1
REMARK SMILES IDX 16 1 17 2 18 3 30 4 31 5 4 7 2 8 1 9 3 10 5 11 6 14 7 15
REMARK SMILES IDX 8 16 12 17 9 18 11 19 10 20 13 21 15 22 14 23 19 24 20 25
REMARK SMILES IDX 21 26 22 27 26 28 23 29 25 30 24 31 27 32 28 33 29 34
REMARK H PARENT 17 6 5 12 5 13
ROOT
ATOM     1   C13 UNL     1      -1.571   1.416   0.062  1.00  0.00     0.127 A   
ATOM     2   C14 UNL     1      -1.316   0.746  -1.112  1.00  0.00     0.045 A   
ATOM     3   N2  UNL     1      -0.835   1.715  -1.946  1.00  0.00    -0.212 N   
ATOM     4   N4  UNL     1      -0.811   2.912  -1.331  1.00  0.00    -0.076 NA  
ATOM     5   N5  UNL     1      -1.265   2.744  -0.101  1.00  0.00    -0.132 NA  
ATOM     6   H18 UNL     1      -1.389  -0.289  -1.413  1.00  0.00     0.083 HD  
ENDROOT
BRANCH   1   7
ATOM     7   C4  UNL     1      -2.026   0.920   1.395  1.00  0.00     0.117 C   
BRANCH   7   8
ATOM     8   C2  UNL     1      -3.573   0.861   1.501  1.00  0.00     0.037 C   
ATOM     9   C1  UNL     1      -4.256   2.233   1.510  1.00  0.00     0.014 C   
ATOM     10  C3  UNL     1      -4.024   0.053   2.725  1.00  0.00     0.014 C   
ENDBRANCH   7   8
BRANCH   7  11
ATOM     11  N1  UNL     1      -1.456   1.783   2.496  1.00  0.00     0.249 N   
ATOM     12  H9  UNL     1      -1.635   2.755   2.209  1.00  0.00     0.199 HD  
ATOM     13  H10 UNL     1      -1.947   1.628   3.379  1.00  0.00     0.199 HD  
BRANCH  11  14
ATOM     14  C5  UNL     1       0.014   1.665   2.725  1.00  0.00     0.164 C   
BRANCH  14  15
ATOM     15  C6  UNL     1       0.400   0.370   3.384  1.00  0.00    -0.002 A   
ATOM     16  C7  UNL     1       0.198   0.185   4.772  1.00  0.00     0.012 A   
ATOM     17  C11 UNL     1       0.941  -0.676   2.617  1.00  0.00     0.045 A   
ATOM     18  C8  UNL     1       0.535  -1.023   5.390  1.00  0.00     0.037 A   
ATOM     19  C10 UNL     1       1.264  -1.853   3.257  1.00  0.00     0.109 A   
ATOM     20  C9  UNL     1       1.067  -2.021   4.605  1.00  0.00     0.108 A   
ATOM     21  O1  UNL     1       1.794  -2.954   2.668  1.00  0.00    -0.316 OA  
ATOM     22  O2  UNL     1       1.450  -3.250   5.034  1.00  0.00    -0.316 OA  
ATOM     23  C12 UNL     1       1.938  -3.832   3.808  1.00  0.00     0.337 C   
ENDBRANCH  14  15
ENDBRANCH  11  14
ENDBRANCH   7  11
ENDBRANCH   1   7
BRANCH   3  24
ATOM     24  C15 UNL     1      -0.357   1.564  -3.304  1.00  0.00     0.139 C   
BRANCH  24  25
ATOM     25  C16 UNL     1       1.164   1.427  -3.385  1.00  0.00     0.059 C   
BRANCH  25  26
ATOM     26  C17 UNL     1       1.728   0.252  -2.609  1.00  0.00    -0.025 A   
ATOM     27  C18 UNL     1       2.557   0.516  -1.503  1.00  0.00     0.006 A   
ATOM     28  C22 UNL     1       1.425  -1.086  -2.954  1.00  0.00     0.031 A   
ATOM     29  C19 UNL     1       3.073  -0.525  -0.734  1.00  0.00     0.000 A   
ATOM     30  C21 UNL     1       1.953  -2.118  -2.159  1.00  0.00     0.024 A   
ATOM     31  C20 UNL     1       2.764  -1.842  -1.057  1.00  0.00     0.002 A   
BRANCH  28  32
ATOM     32  N3  UNL     1       0.638  -1.345  -4.100  1.00  0.00    -0.337 N   
ATOM     33  C23 UNL     1      -0.348  -2.421  -3.952  1.00  0.00     0.129 C   
ATOM     34  C24 UNL     1       1.503  -1.527  -5.279  1.00  0.00     0.129 C   
ENDBRANCH  28  32
ENDBRANCH  25  26
ENDBRANCH  24  25
ENDBRANCH   3  24
TORSDOF 9
