REMARK SMILES Cc1cncc(CCn2cc([C@@H]([NH2+]Cc3ccc4c(c3)OCO4)C(C)(C)C)nn2)n1
REMARK SMILES IDX 9 1 10 2 11 3 28 4 29 5 8 7 7 8 6 9 2 10 3 11 30 12 4 13
REMARK SMILES IDX 5 14 1 15 12 16 13 17 14 20 15 21 16 22 20 23 17 24 19 25
REMARK SMILES IDX 18 26 21 27 23 28 22 29 24 30 25 31 26 32 27 33
REMARK H PARENT 10 6 13 18 13 19
ROOT
ATOM     1   N2  UNL     1      -0.965   0.988   3.717  1.00  0.00    -0.212 N   
ATOM     2   C8  UNL     1       0.232   1.218   3.099  1.00  0.00     0.045 A   
ATOM     3   C9  UNL     1      -0.120   1.779   1.891  1.00  0.00     0.127 A   
ATOM     4   N4  UNL     1      -1.486   1.888   1.829  1.00  0.00    -0.132 NA  
ATOM     5   N5  UNL     1      -1.991   1.399   2.950  1.00  0.00    -0.076 NA  
ATOM     6   H10 UNL     1       1.175   0.916   3.534  1.00  0.00     0.083 HD  
ENDROOT
BRANCH   1   7
ATOM     7   C7  UNL     1      -1.208   0.206   4.915  1.00  0.00     0.140 C   
BRANCH   7   8
ATOM     8   C6  UNL     1      -1.819  -1.161   4.604  1.00  0.00     0.079 C   
BRANCH   8   9
ATOM     9   C5  UNL     1      -0.964  -1.935   3.637  1.00  0.00     0.061 A   
ATOM     10  C2  UNL     1       0.997  -3.065   3.193  1.00  0.00     0.056 A   
ATOM     11  C3  UNL     1       0.626  -3.162   1.856  1.00  0.00     0.134 A   
ATOM     12  N6  UNL     1       0.218  -2.413   4.093  1.00  0.00    -0.255 NA  
ATOM     13  N1  UNL     1      -0.519  -2.626   1.370  1.00  0.00    -0.261 NA  
ATOM     14  C4  UNL     1      -1.322  -2.054   2.298  1.00  0.00     0.134 A   
ATOM     15  C1  UNL     1       2.273  -3.676   3.679  1.00  0.00     0.068 C   
ENDBRANCH   8   9
ENDBRANCH   7   8
ENDBRANCH   1   7
BRANCH   3  16
ATOM     16  C10 UNL     1       0.711   2.132   0.695  1.00  0.00     0.120 C   
BRANCH  16  17
ATOM     17  N3  UNL     1      -0.021   1.709  -0.556  1.00  0.00     0.250 N   
ATOM     18  H12 UNL     1       0.385   2.119  -1.400  1.00  0.00     0.199 HD  
ATOM     19  H13 UNL     1      -0.981   2.077  -0.485  1.00  0.00     0.199 HD  
BRANCH  17  20
ATOM     20  C11 UNL     1      -0.141   0.233  -0.761  1.00  0.00     0.164 C   
BRANCH  20  21
ATOM     21  C12 UNL     1      -0.823  -0.054  -2.069  1.00  0.00    -0.002 A   
ATOM     22  C13 UNL     1      -2.232  -0.173  -2.124  1.00  0.00     0.012 A   
ATOM     23  C17 UNL     1      -0.072  -0.147  -3.253  1.00  0.00     0.045 A   
ATOM     24  C14 UNL     1      -2.887  -0.394  -3.341  1.00  0.00     0.037 A   
ATOM     25  C16 UNL     1      -0.749  -0.363  -4.435  1.00  0.00     0.109 A   
ATOM     26  C15 UNL     1      -2.116  -0.483  -4.479  1.00  0.00     0.108 A   
ATOM     27  O1  UNL     1      -0.178  -0.475  -5.663  1.00  0.00    -0.316 OA  
ATOM     28  O2  UNL     1      -2.578  -0.689  -5.739  1.00  0.00    -0.316 OA  
ATOM     29  C18 UNL     1      -1.343  -0.709  -6.487  1.00  0.00     0.337 C   
ENDBRANCH  20  21
ENDBRANCH  17  20
ENDBRANCH  16  17
BRANCH  16  30
ATOM     30  C19 UNL     1       1.106   3.648   0.613  1.00  0.00     0.010 C   
ATOM     31  C20 UNL     1      -0.111   4.574   0.419  1.00  0.00     0.017 C   
ATOM     32  C21 UNL     1       1.841   4.076   1.904  1.00  0.00     0.017 C   
ATOM     33  C22 UNL     1       2.085   3.885  -0.561  1.00  0.00     0.017 C   
ENDBRANCH  16  30
ENDBRANCH   3  16
TORSDOF 8
