REMARK SMILES Cc1ccc2c(n1)OCC[C@@H]2n1cc([C@@H]([NH2+]Cc2ccc3c(c2)OCO3)C(C)C)nn1
REMARK SMILES IDX 15 1 14 2 12 3 13 4 31 5 30 6 11 8 2 9 3 10 7 11 4 12 6 13
REMARK SMILES IDX 5 14 8 15 9 16 10 17 1 18 16 19 17 22 18 23 19 24 23 25
REMARK SMILES IDX 20 26 22 27 21 28 24 29 26 30 25 31 27 32 28 33 29 34
REMARK H PARENT 13 7 16 20 16 21
ROOT
ATOM     1   C12 UNL     1      -2.645   1.054  -0.191  1.00  0.00     0.117 C   
ENDROOT
BRANCH   1   2
ATOM     2   C11 UNL     1      -1.689  -0.057   0.102  1.00  0.00     0.127 A   
ATOM     3   N2  UNL     1      -0.030  -1.372   0.574  1.00  0.00    -0.204 N   
ATOM     4   C10 UNL     1      -0.385  -0.048   0.543  1.00  0.00     0.046 A   
ATOM     5   N5  UNL     1      -1.051  -2.143   0.145  1.00  0.00    -0.075 NA  
ATOM     6   N4  UNL     1      -2.071  -1.352  -0.142  1.00  0.00    -0.132 NA  
ATOM     7   H11 UNL     1       0.293   0.747   0.824  1.00  0.00     0.083 HD  
BRANCH   3   8
ATOM     8   C9  UNL     1       1.236  -2.000   0.959  1.00  0.00     0.136 C   
ATOM     9   C2  UNL     1       3.215   0.225   3.991  1.00  0.00     0.040 A   
ATOM     10  C3  UNL     1       2.105  -0.526   4.353  1.00  0.00     0.024 A   
ATOM     11  N1  UNL     1       3.681   0.265   2.722  1.00  0.00    -0.229 NA  
ATOM     12  C4  UNL     1       1.449  -1.261   3.372  1.00  0.00     0.012 A   
ATOM     13  C6  UNL     1       3.044  -0.461   1.784  1.00  0.00     0.172 A   
ATOM     14  C5  UNL     1       1.922  -1.234   2.054  1.00  0.00     0.024 A   
ATOM     15  O1  UNL     1       3.630  -0.387   0.553  1.00  0.00    -0.329 OA  
ATOM     16  C7  UNL     1       2.861  -0.866  -0.545  1.00  0.00     0.172 C   
ATOM     17  C8  UNL     1       2.164  -2.179  -0.241  1.00  0.00     0.059 C   
ATOM     18  C1  UNL     1       3.960   1.019   5.023  1.00  0.00     0.067 C   
ENDBRANCH   3   8
ENDBRANCH   1   2
BRANCH   1  19
ATOM     19  N3  UNL     1      -3.490   0.682  -1.396  1.00  0.00     0.249 N   
ATOM     20  H13 UNL     1      -3.505  -0.350  -1.423  1.00  0.00     0.199 HD  
ATOM     21  H14 UNL     1      -4.463   0.973  -1.258  1.00  0.00     0.199 HD  
BRANCH  19  22
ATOM     22  C13 UNL     1      -3.023   1.187  -2.719  1.00  0.00     0.164 C   
BRANCH  22  23
ATOM     23  C14 UNL     1      -1.635   0.751  -3.099  1.00  0.00    -0.002 A   
ATOM     24  C15 UNL     1      -1.365  -0.603  -3.412  1.00  0.00     0.012 A   
ATOM     25  C19 UNL     1      -0.586   1.685  -3.124  1.00  0.00     0.045 A   
ATOM     26  C16 UNL     1      -0.069  -1.024  -3.731  1.00  0.00     0.037 A   
ATOM     27  C18 UNL     1       0.678   1.238  -3.447  1.00  0.00     0.109 A   
ATOM     28  C17 UNL     1       0.931  -0.079  -3.739  1.00  0.00     0.108 A   
ATOM     29  O2  UNL     1       1.797   2.007  -3.503  1.00  0.00    -0.316 OA  
ATOM     30  O3  UNL     1       2.243  -0.305  -4.011  1.00  0.00    -0.316 OA  
ATOM     31  C20 UNL     1       2.778   1.034  -3.926  1.00  0.00     0.337 C   
ENDBRANCH  22  23
ENDBRANCH  19  22
ENDBRANCH   1  19
BRANCH   1  32
ATOM     32  C21 UNL     1      -3.590   1.398   0.990  1.00  0.00     0.037 C   
ATOM     33  C22 UNL     1      -4.454   0.225   1.470  1.00  0.00     0.014 C   
ATOM     34  C23 UNL     1      -2.816   1.988   2.175  1.00  0.00     0.014 C   
ENDBRANCH   1  32
TORSDOF 6
