REMARK SMILES Cc1ccc2c(n1)OCC[C@H]2n1cc([C@@H]([NH2+]Cc2ccc3c(c2)OCO3)C(C)C)nn1
REMARK SMILES IDX 15 1 14 2 12 3 13 4 31 5 30 6 11 8 2 9 3 10 7 11 4 12 6 13
REMARK SMILES IDX 5 14 8 15 9 16 10 17 1 18 16 19 17 22 18 23 19 24 23 25
REMARK SMILES IDX 20 26 22 27 21 28 24 29 26 30 25 31 27 32 28 33 29 34
REMARK H PARENT 13 7 16 20 16 21
ROOT
ATOM     1   C12 UNL     1       2.172  -0.385  -1.817  1.00  0.00     0.117 C   
ENDROOT
BRANCH   1   2
ATOM     2   C11 UNL     1       1.720  -0.614  -0.410  1.00  0.00     0.127 A   
ATOM     3   N2  UNL     1       0.739  -1.097   1.459  1.00  0.00    -0.204 N   
ATOM     4   C10 UNL     1       0.583  -1.196   0.101  1.00  0.00     0.046 A   
ATOM     5   N5  UNL     1       1.895  -0.475   1.762  1.00  0.00    -0.075 NA  
ATOM     6   N4  UNL     1       2.502  -0.169   0.627  1.00  0.00    -0.132 NA  
ATOM     7   H11 UNL     1      -0.286  -1.655  -0.351  1.00  0.00     0.083 HD  
BRANCH   3   8
ATOM     8   C9  UNL     1      -0.136  -1.595   2.521  1.00  0.00     0.136 C   
ATOM     9   C2  UNL     1      -4.115  -0.134   2.102  1.00  0.00     0.040 A   
ATOM     10  C3  UNL     1      -3.092   0.794   2.253  1.00  0.00     0.024 A   
ATOM     11  N1  UNL     1      -3.888  -1.466   2.110  1.00  0.00    -0.229 NA  
ATOM     12  C4  UNL     1      -1.784   0.336   2.383  1.00  0.00     0.012 A   
ATOM     13  C6  UNL     1      -2.622  -1.890   2.280  1.00  0.00     0.172 A   
ATOM     14  C5  UNL     1      -1.529  -1.039   2.381  1.00  0.00     0.024 A   
ATOM     15  O1  UNL     1      -2.489  -3.251   2.341  1.00  0.00    -0.329 OA  
ATOM     16  C7  UNL     1      -1.391  -3.651   3.159  1.00  0.00     0.172 C   
ATOM     17  C8  UNL     1      -0.102  -3.128   2.560  1.00  0.00     0.059 C   
ATOM     18  C1  UNL     1      -5.536   0.320   1.964  1.00  0.00     0.067 C   
ENDBRANCH   3   8
ENDBRANCH   1   2
BRANCH   1  19
ATOM     19  N3  UNL     1       3.063   0.836  -1.871  1.00  0.00     0.249 N   
ATOM     20  H13 UNL     1       3.914   0.654  -2.409  1.00  0.00     0.199 HD  
ATOM     21  H14 UNL     1       3.381   0.994  -0.901  1.00  0.00     0.199 HD  
BRANCH  19  22
ATOM     22  C13 UNL     1       2.438   2.092  -2.371  1.00  0.00     0.164 C   
BRANCH  22  23
ATOM     23  C14 UNL     1       1.235   2.543  -1.589  1.00  0.00    -0.002 A   
ATOM     24  C15 UNL     1       1.371   3.017  -0.262  1.00  0.00     0.012 A   
ATOM     25  C19 UNL     1      -0.043   2.483  -2.171  1.00  0.00     0.045 A   
ATOM     26  C16 UNL     1       0.253   3.422   0.476  1.00  0.00     0.037 A   
ATOM     27  C18 UNL     1      -1.124   2.890  -1.417  1.00  0.00     0.109 A   
ATOM     28  C17 UNL     1      -0.981   3.347  -0.130  1.00  0.00     0.108 A   
ATOM     29  O2  UNL     1      -2.417   2.895  -1.831  1.00  0.00    -0.316 OA  
ATOM     30  O3  UNL     1      -2.168   3.697   0.429  1.00  0.00    -0.316 OA  
ATOM     31  C20 UNL     1      -3.074   3.444  -0.668  1.00  0.00     0.337 C   
ENDBRANCH  22  23
ENDBRANCH  19  22
ENDBRANCH   1  19
BRANCH   1  32
ATOM     32  C21 UNL     1       2.901  -1.620  -2.410  1.00  0.00     0.037 C   
ATOM     33  C22 UNL     1       4.223  -1.966  -1.710  1.00  0.00     0.014 C   
ATOM     34  C23 UNL     1       3.137  -1.464  -3.917  1.00  0.00     0.014 C   
ENDBRANCH   1  32
TORSDOF 6
