REMARK SMILES O=C(Cn1cc([C@@H]([NH2+]Cc2ccc3c(c2)OCO3)C2CCCCC2)nn1)c1ccccc1
REMARK SMILES IDX 4 1 5 2 6 3 25 4 26 5 3 7 2 8 1 9 27 10 28 11 32 12 29 13
REMARK SMILES IDX 31 14 30 15 7 16 8 17 9 20 10 21 11 22 15 23 12 24 14 25
REMARK SMILES IDX 13 26 16 27 18 28 17 29 19 30 20 31 24 32 21 33 23 34 22 35
REMARK H PARENT 5 6 8 18 8 19
ROOT
ATOM     1   N1  UNL     1       2.447   0.941   0.144  1.00  0.00    -0.204 N   
ATOM     2   C3  UNL     1       1.603   1.492  -0.783  1.00  0.00     0.046 A   
ATOM     3   C4  UNL     1       0.347   1.239  -0.281  1.00  0.00     0.127 A   
ATOM     4   N3  UNL     1       0.470   0.617   0.939  1.00  0.00    -0.132 NA  
ATOM     5   N4  UNL     1       1.758   0.459   1.194  1.00  0.00    -0.076 NA  
ATOM     6   H3  UNL     1       1.967   1.965  -1.687  1.00  0.00     0.083 HD  
ENDROOT
BRANCH   1   7
ATOM     7   C2  UNL     1       3.895   0.964   0.160  1.00  0.00     0.214 C   
BRANCH   7   8
ATOM     8   C1  UNL     1       4.452   0.065  -0.915  1.00  0.00     0.182 C   
ATOM     9   O1  UNL     1       4.181   0.280  -2.100  1.00  0.00    -0.292 OA  
BRANCH   8  10
ATOM     10  C20 UNL     1       5.308  -1.109  -0.566  1.00  0.00     0.019 A   
ATOM     11  C21 UNL     1       5.897  -1.297   0.690  1.00  0.00     0.012 A   
ATOM     12  C25 UNL     1       5.548  -2.054  -1.578  1.00  0.00     0.012 A   
ATOM     13  C22 UNL     1       6.693  -2.425   0.930  1.00  0.00     0.001 A   
ATOM     14  C24 UNL     1       6.336  -3.183  -1.331  1.00  0.00     0.001 A   
ATOM     15  C23 UNL     1       6.912  -3.362  -0.077  1.00  0.00     0.000 A   
ENDBRANCH   8  10
ENDBRANCH   7   8
ENDBRANCH   1   7
BRANCH   3  16
ATOM     16  C5  UNL     1      -1.018   1.496  -0.838  1.00  0.00     0.117 C   
BRANCH  16  17
ATOM     17  N2  UNL     1      -2.006   0.551  -0.207  1.00  0.00     0.249 N   
ATOM     18  H5  UNL     1      -2.957   0.930  -0.187  1.00  0.00     0.199 HD  
ATOM     19  H6  UNL     1      -1.718   0.452   0.781  1.00  0.00     0.199 HD  
BRANCH  17  20
ATOM     20  C6  UNL     1      -2.038  -0.823  -0.783  1.00  0.00     0.164 C   
BRANCH  20  21
ATOM     21  C7  UNL     1      -2.886  -1.720   0.074  1.00  0.00    -0.002 A   
ATOM     22  C8  UNL     1      -4.290  -1.754  -0.098  1.00  0.00     0.012 A   
ATOM     23  C12 UNL     1      -2.287  -2.481   1.095  1.00  0.00     0.045 A   
ATOM     24  C9  UNL     1      -5.092  -2.526   0.747  1.00  0.00     0.037 A   
ATOM     25  C11 UNL     1      -3.105  -3.242   1.901  1.00  0.00     0.109 A   
ATOM     26  C10 UNL     1      -4.468  -3.261   1.734  1.00  0.00     0.108 A   
ATOM     27  O2  UNL     1      -2.697  -4.027   2.930  1.00  0.00    -0.316 OA  
ATOM     28  O3  UNL     1      -5.088  -4.067   2.634  1.00  0.00    -0.316 OA  
ATOM     29  C13 UNL     1      -3.960  -4.568   3.379  1.00  0.00     0.337 C   
ENDBRANCH  20  21
ENDBRANCH  17  20
ENDBRANCH  16  17
BRANCH  16  30
ATOM     30  C14 UNL     1      -1.474   2.966  -0.638  1.00  0.00     0.043 C   
ATOM     31  C15 UNL     1      -1.711   3.349   0.837  1.00  0.00     0.010 C   
ATOM     32  C19 UNL     1      -2.723   3.292  -1.485  1.00  0.00     0.010 C   
ATOM     33  C16 UNL     1      -2.145   4.806   0.981  1.00  0.00     0.001 C   
ATOM     34  C18 UNL     1      -3.152   4.750  -1.327  1.00  0.00     0.001 C   
ATOM     35  C17 UNL     1      -3.378   5.111   0.137  1.00  0.00     0.000 C   
ENDBRANCH  16  30
ENDBRANCH   3  16
TORSDOF 8
