REMARK SMILES COc1ccc(Cn2cc([C@@H]([NH2+]Cc3ccc4c(c3)OCO4)C3CCCC3)nn2)cc1
REMARK SMILES IDX 8 1 9 2 10 3 28 4 29 5 7 7 6 8 3 9 4 10 31 11 5 12 30 13
REMARK SMILES IDX 2 14 1 15 11 16 12 17 13 20 14 21 15 22 19 23 16 24 18 25
REMARK SMILES IDX 17 26 20 27 22 28 21 29 23 30 24 31 27 32 25 33 26 34
REMARK H PARENT 9 6 12 18 12 19
ROOT
ATOM     1   N1  UNL     1      -0.773   1.641   0.736  1.00  0.00    -0.208 N   
ATOM     2   C7  UNL     1      -0.582   0.286   0.785  1.00  0.00     0.046 A   
ATOM     3   C8  UNL     1      -0.241  -0.049  -0.507  1.00  0.00     0.127 A   
ATOM     4   N3  UNL     1      -0.296   1.075  -1.292  1.00  0.00    -0.132 NA  
ATOM     5   N4  UNL     1      -0.642   2.096  -0.525  1.00  0.00    -0.076 NA  
ATOM     6   H8  UNL     1      -0.663  -0.276   1.705  1.00  0.00     0.083 HD  
ENDROOT
BRANCH   1   7
ATOM     7   C6  UNL     1      -1.104   2.548   1.824  1.00  0.00     0.169 C   
BRANCH   7   8
ATOM     8   C5  UNL     1      -0.014   2.571   2.865  1.00  0.00    -0.028 A   
ATOM     9   C2  UNL     1       2.045   2.583   4.789  1.00  0.00     0.075 A   
ATOM     10  C3  UNL     1       0.824   1.961   5.058  1.00  0.00     0.034 A   
ATOM     11  C24 UNL     1       2.236   3.203   3.555  1.00  0.00     0.034 A   
ATOM     12  C4  UNL     1      -0.200   1.955   4.109  1.00  0.00     0.008 A   
ATOM     13  C23 UNL     1       1.214   3.197   2.599  1.00  0.00     0.008 A   
BRANCH   9  14
ATOM     14  O1  UNL     1       2.957   2.510   5.804  1.00  0.00    -0.349 OA  
ATOM     15  C1  UNL     1       4.183   3.210   5.623  1.00  0.00     0.203 C   
ENDBRANCH   9  14
ENDBRANCH   7   8
ENDBRANCH   1   7
BRANCH   3  16
ATOM     16  C9  UNL     1       0.117  -1.361  -1.127  1.00  0.00     0.117 C   
BRANCH  16  17
ATOM     17  N2  UNL     1      -0.390  -1.399  -2.548  1.00  0.00     0.249 N   
ATOM     18  H10 UNL     1      -0.103  -0.512  -2.989  1.00  0.00     0.199 HD  
ATOM     19  H11 UNL     1       0.050  -2.146  -3.093  1.00  0.00     0.199 HD  
BRANCH  17  20
ATOM     20  C10 UNL     1      -1.867  -1.512  -2.696  1.00  0.00     0.164 C   
BRANCH  20  21
ATOM     21  C11 UNL     1      -2.251  -1.490  -4.148  1.00  0.00    -0.002 A   
ATOM     22  C12 UNL     1      -2.482  -0.255  -4.802  1.00  0.00     0.012 A   
ATOM     23  C16 UNL     1      -2.325  -2.686  -4.880  1.00  0.00     0.045 A   
ATOM     24  C13 UNL     1      -2.798  -0.212  -6.164  1.00  0.00     0.037 A   
ATOM     25  C15 UNL     1      -2.638  -2.608  -6.222  1.00  0.00     0.109 A   
ATOM     26  C14 UNL     1      -2.868  -1.407  -6.846  1.00  0.00     0.108 A   
ATOM     27  O2  UNL     1      -2.751  -3.664  -7.069  1.00  0.00    -0.316 OA  
ATOM     28  O3  UNL     1      -3.157  -1.555  -8.165  1.00  0.00    -0.316 OA  
ATOM     29  C17 UNL     1      -3.107  -2.992  -8.299  1.00  0.00     0.337 C   
ENDBRANCH  20  21
ENDBRANCH  17  20
ENDBRANCH  16  17
BRANCH  16  30
ATOM     30  C18 UNL     1       1.642  -1.589  -1.145  1.00  0.00     0.043 C   
ATOM     31  C19 UNL     1       2.075  -2.930  -1.746  1.00  0.00     0.010 C   
ATOM     32  C22 UNL     1       2.262  -1.668   0.255  1.00  0.00     0.010 C   
ATOM     33  C20 UNL     1       3.504  -3.128  -1.252  1.00  0.00     0.001 C   
ATOM     34  C21 UNL     1       3.623  -2.318   0.037  1.00  0.00     0.001 C   
ENDBRANCH  16  30
ENDBRANCH   3  16
TORSDOF 8
