REMARK SMILES CC(C)[C@H]([NH2+]Cc1ccc2c(c1)OCO2)c1cn(CCc2ccc(F)cn2)nn1
REMARK SMILES IDX 16 1 17 2 18 3 28 4 29 5 4 7 2 8 1 9 3 10 5 11 6 14 7 15
REMARK SMILES IDX 8 16 12 17 9 18 11 19 10 20 13 21 15 22 14 23 19 24 20 25
REMARK SMILES IDX 21 26 22 27 27 28 23 29 26 30 24 31 25 32
REMARK H PARENT 17 6 5 12 5 13
ROOT
ATOM     1   C13 UNL     1       0.520  -1.424  -0.918  1.00  0.00     0.127 A   
ATOM     2   C14 UNL     1       1.687  -1.098  -0.264  1.00  0.00     0.045 A   
ATOM     3   N2  UNL     1       2.361  -0.323  -1.164  1.00  0.00    -0.212 N   
ATOM     4   N4  UNL     1       1.663  -0.194  -2.308  1.00  0.00    -0.076 NA  
ATOM     5   N5  UNL     1       0.531  -0.862  -2.169  1.00  0.00    -0.132 NA  
ATOM     6   H18 UNL     1       2.070  -1.300   0.727  1.00  0.00     0.083 HD  
ENDROOT
BRANCH   1   7
ATOM     7   C4  UNL     1      -0.691  -2.163  -0.456  1.00  0.00     0.117 C   
BRANCH   7   8
ATOM     8   C2  UNL     1      -0.709  -3.664  -0.851  1.00  0.00     0.037 C   
ATOM     9   C1  UNL     1       0.419  -4.441  -0.161  1.00  0.00     0.014 C   
ATOM     10  C3  UNL     1      -0.665  -3.926  -2.361  1.00  0.00     0.014 C   
ENDBRANCH   7   8
BRANCH   7  11
ATOM     11  N1  UNL     1      -1.941  -1.508  -1.009  1.00  0.00     0.249 N   
ATOM     12  H9  UNL     1      -2.752  -2.117  -0.872  1.00  0.00     0.199 HD  
ATOM     13  H10 UNL     1      -1.789  -1.412  -2.023  1.00  0.00     0.199 HD  
BRANCH  11  14
ATOM     14  C5  UNL     1      -2.250  -0.139  -0.494  1.00  0.00     0.164 C   
BRANCH  14  15
ATOM     15  C6  UNL     1      -2.577  -0.121   0.974  1.00  0.00    -0.002 A   
ATOM     16  C7  UNL     1      -3.818  -0.615   1.442  1.00  0.00     0.012 A   
ATOM     17  C11 UNL     1      -1.631   0.361   1.896  1.00  0.00     0.045 A   
ATOM     18  C8  UNL     1      -4.112  -0.636   2.811  1.00  0.00     0.037 A   
ATOM     19  C10 UNL     1      -1.951   0.323   3.238  1.00  0.00     0.109 A   
ATOM     20  C9  UNL     1      -3.156  -0.162   3.683  1.00  0.00     0.108 A   
ATOM     21  O1  UNL     1      -1.152   0.740   4.255  1.00  0.00    -0.316 OA  
ATOM     22  O2  UNL     1      -3.270  -0.108   5.035  1.00  0.00    -0.316 OA  
ATOM     23  C12 UNL     1      -2.007   0.491   5.395  1.00  0.00     0.337 C   
ENDBRANCH  14  15
ENDBRANCH  11  14
ENDBRANCH   7  11
ENDBRANCH   1   7
BRANCH   3  24
ATOM     24  C15 UNL     1       3.659   0.302  -1.027  1.00  0.00     0.140 C   
BRANCH  24  25
ATOM     25  C16 UNL     1       3.573   1.790  -0.693  1.00  0.00     0.077 C   
BRANCH  25  26
ATOM     26  C17 UNL     1       3.429   2.025   0.793  1.00  0.00     0.042 A   
ATOM     27  C18 UNL     1       4.483   2.589   1.515  1.00  0.00     0.027 A   
ATOM     28  N3  UNL     1       2.259   1.650   1.376  1.00  0.00    -0.258 NA  
ATOM     29  C19 UNL     1       4.339   2.783   2.888  1.00  0.00     0.043 A   
ATOM     30  C21 UNL     1       2.151   1.859   2.715  1.00  0.00     0.150 A   
ATOM     31  C20 UNL     1       3.150   2.413   3.494  1.00  0.00     0.141 A   
ATOM     32  F1  UNL     1       2.978   2.581   4.809  1.00  0.00    -0.205 F   
ENDBRANCH  25  26
ENDBRANCH  24  25
ENDBRANCH   3  24
TORSDOF 8
