REMARK SMILES COc1c(F)cc(F)cc1Cn1cc([C@H](CC(C)C)[NH2+]Cc2ccc3c(c2)OCO3)nn1
REMARK SMILES IDX 12 1 13 2 14 3 31 4 32 5 11 7 10 8 3 9 4 10 6 11 9 12 7 13
REMARK SMILES IDX 5 14 8 15 2 16 1 17 15 18 16 19 17 20 18 21 19 22 20 23
REMARK SMILES IDX 21 26 22 27 23 28 27 29 24 30 26 31 25 32 28 33 30 34 29 35
REMARK H PARENT 13 6 20 24 20 25
ROOT
ATOM     1   N1  UNL     1       2.825   0.848   2.044  1.00  0.00    -0.208 N   
ATOM     2   C9  UNL     1       2.014   0.050   1.282  1.00  0.00     0.046 A   
ATOM     3   C10 UNL     1       2.404   0.307  -0.013  1.00  0.00     0.127 A   
ATOM     4   N3  UNL     1       3.390   1.258  -0.005  1.00  0.00    -0.132 NA  
ATOM     5   N4  UNL     1       3.634   1.584   1.253  1.00  0.00    -0.076 NA  
ATOM     6   H8  UNL     1       1.266  -0.602   1.710  1.00  0.00     0.083 HD  
ENDROOT
BRANCH   1   7
ATOM     7   C8  UNL     1       2.903   1.021   3.490  1.00  0.00     0.172 C   
BRANCH   7   8
ATOM     8   C7  UNL     1       2.269  -0.103   4.276  1.00  0.00     0.008 A   
ATOM     9   C2  UNL     1       0.906  -0.066   4.637  1.00  0.00     0.115 A   
ATOM     10  C3  UNL     1       0.363  -1.137   5.363  1.00  0.00     0.156 A   
ATOM     11  C4  UNL     1       1.142  -2.228   5.734  1.00  0.00     0.081 A   
ATOM     12  C6  UNL     1       3.048  -1.213   4.649  1.00  0.00     0.047 A   
ATOM     13  C5  UNL     1       2.478  -2.256   5.371  1.00  0.00     0.126 A   
ATOM     14  F1  UNL     1      -0.933  -1.161   5.704  1.00  0.00    -0.204 F   
ATOM     15  F2  UNL     1       3.234  -3.308   5.710  1.00  0.00    -0.207 F   
BRANCH   9  16
ATOM     16  O1  UNL     1       0.215   1.034   4.195  1.00  0.00    -0.346 OA  
ATOM     17  C1  UNL     1      -1.050   1.291   4.803  1.00  0.00     0.203 C   
ENDBRANCH   9  16
ENDBRANCH   7   8
ENDBRANCH   1   7
BRANCH   3  18
ATOM     18  C11 UNL     1       1.897  -0.208  -1.317  1.00  0.00     0.114 C   
BRANCH  18  19
ATOM     19  C12 UNL     1       2.810  -1.292  -1.922  1.00  0.00     0.064 C   
BRANCH  19  20
ATOM     20  C13 UNL     1       2.960  -2.575  -1.076  1.00  0.00    -0.012 C   
ATOM     21  C14 UNL     1       3.925  -3.539  -1.772  1.00  0.00     0.007 C   
ATOM     22  C15 UNL     1       1.623  -3.275  -0.834  1.00  0.00     0.007 C   
ENDBRANCH  19  20
ENDBRANCH  18  19
BRANCH  18  23
ATOM     23  N2  UNL     1       1.847   0.928  -2.320  1.00  0.00     0.249 N   
ATOM     24  H19 UNL     1       1.787   0.563  -3.275  1.00  0.00     0.199 HD  
ATOM     25  H20 UNL     1       2.752   1.415  -2.237  1.00  0.00     0.199 HD  
BRANCH  23  26
ATOM     26  C16 UNL     1       0.773   1.941  -2.110  1.00  0.00     0.164 C   
BRANCH  26  27
ATOM     27  C17 UNL     1      -0.581   1.433  -2.522  1.00  0.00    -0.002 A   
ATOM     28  C18 UNL     1      -0.924   1.350  -3.894  1.00  0.00     0.012 A   
ATOM     29  C22 UNL     1      -1.503   1.001  -1.554  1.00  0.00     0.045 A   
ATOM     30  C19 UNL     1      -2.167   0.849  -4.297  1.00  0.00     0.037 A   
ATOM     31  C21 UNL     1      -2.718   0.510  -1.985  1.00  0.00     0.109 A   
ATOM     32  C20 UNL     1      -3.041   0.437  -3.318  1.00  0.00     0.108 A   
ATOM     33  O2  UNL     1      -3.711   0.043  -1.184  1.00  0.00    -0.316 OA  
ATOM     34  O3  UNL     1      -4.281  -0.077  -3.524  1.00  0.00    -0.316 OA  
ATOM     35  C23 UNL     1      -4.716  -0.299  -2.164  1.00  0.00     0.337 C   
ENDBRANCH  26  27
ENDBRANCH  23  26
ENDBRANCH  18  23
ENDBRANCH   3  18
TORSDOF 9
