REMARK SMILES COc1ccc(OC)c(Cn2cc([C@@H]([NH2+]Cc3ccc4c(c3)OCO4)C(C)C)nn2)c1
REMARK SMILES IDX 11 1 12 2 13 3 29 4 30 5 10 7 9 8 3 9 4 10 31 11 5 12 6 13
REMARK SMILES IDX 2 14 1 15 7 16 8 17 14 18 15 19 16 22 17 23 18 24 22 25
REMARK SMILES IDX 19 26 21 27 20 28 23 29 25 30 24 31 26 32 27 33 28 34
REMARK H PARENT 12 6 15 20 15 21
ROOT
ATOM     1   N1  UNL     1       0.400   1.526   3.252  1.00  0.00    -0.208 N   
ATOM     2   C9  UNL     1       0.684   0.270   2.792  1.00  0.00     0.046 A   
ATOM     3   C10 UNL     1       1.866   0.428   2.104  1.00  0.00     0.127 A   
ATOM     4   N3  UNL     1       2.284   1.728   2.217  1.00  0.00    -0.132 NA  
ATOM     5   N4  UNL     1       1.380   2.390   2.920  1.00  0.00    -0.076 NA  
ATOM     6   H11 UNL     1       0.008  -0.563   2.934  1.00  0.00     0.083 HD  
ENDROOT
BRANCH   1   7
ATOM     7   C8  UNL     1      -0.807   1.986   3.918  1.00  0.00     0.172 C   
BRANCH   7   8
ATOM     8   C7  UNL     1      -1.926   2.152   2.917  1.00  0.00     0.004 A   
ATOM     9   C2  UNL     1      -3.030   3.552   1.245  1.00  0.00     0.075 A   
ATOM     10  C3  UNL     1      -3.939   2.528   1.002  1.00  0.00     0.036 A   
ATOM     11  C23 UNL     1      -2.026   3.356   2.196  1.00  0.00     0.041 A   
ATOM     12  C4  UNL     1      -3.845   1.318   1.702  1.00  0.00     0.036 A   
ATOM     13  C5  UNL     1      -2.844   1.120   2.659  1.00  0.00     0.080 A   
BRANCH   9  14
ATOM     14  O1  UNL     1      -3.000   4.764   0.617  1.00  0.00    -0.349 OA  
ATOM     15  C1  UNL     1      -4.123   5.099  -0.192  1.00  0.00     0.203 C   
ENDBRANCH   9  14
BRANCH  13  16
ATOM     16  O2  UNL     1      -2.661  -0.037   3.369  1.00  0.00    -0.349 OA  
ATOM     17  C6  UNL     1      -3.675  -1.032   3.258  1.00  0.00     0.203 C   
ENDBRANCH  13  16
ENDBRANCH   7   8
ENDBRANCH   1   7
BRANCH   3  18
ATOM     18  C11 UNL     1       2.613  -0.521   1.228  1.00  0.00     0.117 C   
BRANCH  18  19
ATOM     19  N2  UNL     1       3.137   0.188  -0.002  1.00  0.00     0.249 N   
ATOM     20  H13 UNL     1       3.718   0.966   0.338  1.00  0.00     0.199 HD  
ATOM     21  H14 UNL     1       3.736  -0.434  -0.546  1.00  0.00     0.199 HD  
BRANCH  19  22
ATOM     22  C12 UNL     1       2.111   0.796  -0.909  1.00  0.00     0.164 C   
BRANCH  22  23
ATOM     23  C13 UNL     1       1.129  -0.201  -1.459  1.00  0.00    -0.002 A   
ATOM     24  C14 UNL     1       1.530  -1.142  -2.438  1.00  0.00     0.012 A   
ATOM     25  C18 UNL     1      -0.193  -0.227  -0.973  1.00  0.00     0.045 A   
ATOM     26  C15 UNL     1       0.633  -2.101  -2.922  1.00  0.00     0.037 A   
ATOM     27  C17 UNL     1      -1.050  -1.189  -1.468  1.00  0.00     0.109 A   
ATOM     28  C16 UNL     1      -0.648  -2.100  -2.414  1.00  0.00     0.108 A   
ATOM     29  O3  UNL     1      -2.347  -1.363  -1.096  1.00  0.00    -0.316 OA  
ATOM     30  O4  UNL     1      -1.641  -2.961  -2.760  1.00  0.00    -0.316 OA  
ATOM     31  C19 UNL     1      -2.725  -2.476  -1.939  1.00  0.00     0.337 C   
ENDBRANCH  22  23
ENDBRANCH  19  22
ENDBRANCH  18  19
BRANCH  18  32
ATOM     32  C20 UNL     1       3.767  -1.241   1.975  1.00  0.00     0.037 C   
ATOM     33  C21 UNL     1       4.937  -0.330   2.363  1.00  0.00     0.014 C   
ATOM     34  C22 UNL     1       4.295  -2.439   1.175  1.00  0.00     0.014 C   
ENDBRANCH  18  32
ENDBRANCH   3  18
TORSDOF 9
