REMARK SMILES Cc1ccc([C@H](O)Cn2cc([C@@H]([NH2+]Cc3ccc4c(c3)OCO4)C(C)C)nn2)cc1C
REMARK SMILES IDX 9 1 10 2 11 3 27 4 28 5 8 7 6 8 5 9 2 10 3 11 30 12 4 13
REMARK SMILES IDX 29 14 1 15 31 16 7 17 12 19 13 20 14 23 15 24 16 25 20 26
REMARK SMILES IDX 17 27 19 28 18 29 21 30 23 31 22 32 24 33 25 34 26 35
REMARK H PARENT 10 6 7 18 13 21 13 22
ROOT
ATOM     1   N1  UNL     1      -0.804  -1.872   1.672  1.00  0.00    -0.209 N   
ATOM     2   C8  UNL     1      -0.343  -1.031   0.699  1.00  0.00     0.045 A   
ATOM     3   C9  UNL     1      -1.269  -1.155  -0.311  1.00  0.00     0.127 A   
ATOM     4   N3  UNL     1      -2.199  -2.098   0.046  1.00  0.00    -0.132 NA  
ATOM     5   N4  UNL     1      -1.894  -2.541   1.255  1.00  0.00    -0.076 NA  
ATOM     6   H10 UNL     1       0.532  -0.409   0.836  1.00  0.00     0.083 HD  
ENDROOT
BRANCH   1   7
ATOM     7   C7  UNL     1      -0.299  -2.039   3.015  1.00  0.00     0.170 C   
BRANCH   7   8
ATOM     8   C6  UNL     1      -1.186  -1.369   4.070  1.00  0.00     0.164 C   
BRANCH   8   9
ATOM     9   C5  UNL     1      -1.375   0.117   3.830  1.00  0.00    -0.018 A   
ATOM     10  C2  UNL     1      -1.726   2.868   3.300  1.00  0.00    -0.048 A   
ATOM     11  C3  UNL     1      -2.786   1.965   3.138  1.00  0.00     0.004 A   
ATOM     12  C23 UNL     1      -0.474   2.391   3.734  1.00  0.00    -0.048 A   
ATOM     13  C4  UNL     1      -2.613   0.605   3.396  1.00  0.00     0.007 A   
ATOM     14  C22 UNL     1      -0.314   1.020   3.998  1.00  0.00     0.010 A   
ATOM     15  C1  UNL     1      -1.954   4.329   3.019  1.00  0.00     0.044 C   
ATOM     16  C24 UNL     1       0.689   3.322   3.947  1.00  0.00     0.044 C   
ENDBRANCH   8   9
BRANCH   8  17
ATOM     17  O1  UNL     1      -0.598  -1.568   5.358  1.00  0.00    -0.387 OA  
ATOM     18  H7  UNL     1      -1.020  -0.937   5.970  1.00  0.00     0.211 HD  
ENDBRANCH   8  17
ENDBRANCH   7   8
ENDBRANCH   1   7
BRANCH   3  19
ATOM     19  C10 UNL     1      -1.373  -0.478  -1.638  1.00  0.00     0.117 C   
BRANCH  19  20
ATOM     20  N2  UNL     1      -2.046  -1.393  -2.642  1.00  0.00     0.249 N   
ATOM     21  H12 UNL     1      -2.341  -0.861  -3.465  1.00  0.00     0.199 HD  
ATOM     22  H13 UNL     1      -2.895  -1.750  -2.181  1.00  0.00     0.199 HD  
BRANCH  20  23
ATOM     23  C11 UNL     1      -1.260  -2.585  -3.081  1.00  0.00     0.164 C   
BRANCH  23  24
ATOM     24  C12 UNL     1      -0.040  -2.222  -3.881  1.00  0.00    -0.002 A   
ATOM     25  C13 UNL     1      -0.166  -1.754  -5.212  1.00  0.00     0.012 A   
ATOM     26  C17 UNL     1       1.235  -2.313  -3.297  1.00  0.00     0.045 A   
ATOM     27  C14 UNL     1       0.962  -1.377  -5.950  1.00  0.00     0.037 A   
ATOM     28  C16 UNL     1       2.325  -1.933  -4.052  1.00  0.00     0.109 A   
ATOM     29  C15 UNL     1       2.193  -1.477  -5.340  1.00  0.00     0.108 A   
ATOM     30  O2  UNL     1       3.619  -1.951  -3.637  1.00  0.00    -0.316 OA  
ATOM     31  O3  UNL     1       3.387  -1.154  -5.901  1.00  0.00    -0.316 OA  
ATOM     32  C18 UNL     1       4.296  -1.497  -4.832  1.00  0.00     0.337 C   
ENDBRANCH  23  24
ENDBRANCH  20  23
ENDBRANCH  19  20
BRANCH  19  33
ATOM     33  C19 UNL     1      -2.158   0.862  -1.601  1.00  0.00     0.037 C   
ATOM     34  C20 UNL     1      -3.593   0.737  -1.076  1.00  0.00     0.014 C   
ATOM     35  C21 UNL     1      -1.407   1.935  -0.805  1.00  0.00     0.014 C   
ENDBRANCH  19  33
ENDBRANCH   3  19
TORSDOF 9
