REMARK SMILES Cc1ccc([C@@H](O)Cn2cc([C@@H]([NH2+]Cc3ccc4c(c3)OCO4)C(C)C)nn2)cc1C
REMARK SMILES IDX 9 1 10 2 11 3 27 4 28 5 8 7 6 8 5 9 2 10 3 11 30 12 4 13
REMARK SMILES IDX 29 14 1 15 31 16 7 17 12 19 13 20 14 23 15 24 16 25 20 26
REMARK SMILES IDX 17 27 19 28 18 29 21 30 23 31 22 32 24 33 25 34 26 35
REMARK H PARENT 10 6 7 18 13 21 13 22
ROOT
ATOM     1   N1  UNL     1       1.455   2.093   2.422  1.00  0.00    -0.209 N   
ATOM     2   C8  UNL     1       1.703   2.377   1.108  1.00  0.00     0.045 A   
ATOM     3   C9  UNL     1       0.479   2.213   0.500  1.00  0.00     0.127 A   
ATOM     4   N3  UNL     1      -0.454   1.875   1.448  1.00  0.00    -0.132 NA  
ATOM     5   N4  UNL     1       0.154   1.817   2.621  1.00  0.00    -0.076 NA  
ATOM     6   H10 UNL     1       2.695   2.598   0.740  1.00  0.00     0.083 HD  
ENDROOT
BRANCH   1   7
ATOM     7   C7  UNL     1       2.416   1.935   3.489  1.00  0.00     0.170 C   
BRANCH   7   8
ATOM     8   C6  UNL     1       2.543   0.484   3.971  1.00  0.00     0.164 C   
BRANCH   8   9
ATOM     9   C5  UNL     1       2.806  -0.514   2.857  1.00  0.00    -0.018 A   
ATOM     10  C2  UNL     1       3.258  -2.376   0.779  1.00  0.00    -0.048 A   
ATOM     11  C3  UNL     1       4.201  -1.379   1.070  1.00  0.00     0.004 A   
ATOM     12  C23 UNL     1       2.073  -2.443   1.537  1.00  0.00    -0.048 A   
ATOM     13  C4  UNL     1       3.981  -0.462   2.099  1.00  0.00     0.007 A   
ATOM     14  C22 UNL     1       1.861  -1.510   2.567  1.00  0.00     0.010 A   
ATOM     15  C1  UNL     1       3.553  -3.372  -0.310  1.00  0.00     0.044 C   
ATOM     16  C24 UNL     1       1.060  -3.535   1.313  1.00  0.00     0.044 C   
ENDBRANCH   8   9
BRANCH   8  17
ATOM     17  O1  UNL     1       3.612   0.410   4.918  1.00  0.00    -0.387 OA  
ATOM     18  H7  UNL     1       3.836  -0.531   5.032  1.00  0.00     0.211 HD  
ENDBRANCH   8  17
ENDBRANCH   7   8
ENDBRANCH   1   7
BRANCH   3  19
ATOM     19  C10 UNL     1       0.096   2.206  -0.943  1.00  0.00     0.117 C   
BRANCH  19  20
ATOM     20  N2  UNL     1      -0.824   1.040  -1.205  1.00  0.00     0.249 N   
ATOM     21  H12 UNL     1      -1.536   1.055  -0.459  1.00  0.00     0.199 HD  
ATOM     22  H13 UNL     1      -1.327   1.143  -2.091  1.00  0.00     0.199 HD  
BRANCH  20  23
ATOM     23  C11 UNL     1      -0.168  -0.299  -1.156  1.00  0.00     0.164 C   
BRANCH  23  24
ATOM     24  C12 UNL     1      -1.192  -1.393  -1.252  1.00  0.00    -0.002 A   
ATOM     25  C13 UNL     1      -1.464  -2.021  -2.489  1.00  0.00     0.012 A   
ATOM     26  C17 UNL     1      -1.916  -1.772  -0.107  1.00  0.00     0.045 A   
ATOM     27  C14 UNL     1      -2.436  -3.023  -2.586  1.00  0.00     0.037 A   
ATOM     28  C16 UNL     1      -2.865  -2.764  -0.236  1.00  0.00     0.109 A   
ATOM     29  C15 UNL     1      -3.118  -3.373  -1.441  1.00  0.00     0.108 A   
ATOM     30  O2  UNL     1      -3.642  -3.252   0.765  1.00  0.00    -0.316 OA  
ATOM     31  O3  UNL     1      -4.087  -4.320  -1.349  1.00  0.00    -0.316 OA  
ATOM     32  C18 UNL     1      -4.411  -4.249   0.056  1.00  0.00     0.337 C   
ENDBRANCH  23  24
ENDBRANCH  20  23
ENDBRANCH  19  20
BRANCH  19  33
ATOM     33  C19 UNL     1      -0.587   3.505  -1.436  1.00  0.00     0.037 C   
ATOM     34  C20 UNL     1      -1.897   3.848  -0.716  1.00  0.00     0.014 C   
ATOM     35  C21 UNL     1       0.370   4.701  -1.364  1.00  0.00     0.014 C   
ENDBRANCH  19  33
ENDBRANCH   3  19
TORSDOF 9
