REMARK SMILES CC(C)[C@H]([NH2+]Cc1ccc2c(c1)OCO2)c1cn(CCc2cnn(C(C)(C)C)c2)nn1
REMARK SMILES IDX 16 1 17 2 18 3 30 4 31 5 4 7 2 8 1 9 3 10 5 11 6 14 7 15
REMARK SMILES IDX 8 16 12 17 9 18 11 19 10 20 13 21 15 22 14 23 19 24 20 25
REMARK SMILES IDX 21 26 22 27 29 28 23 29 24 30 25 31 26 32 27 33 28 34
REMARK H PARENT 17 6 5 12 5 13
ROOT
ATOM     1   C13 UNL     1      -0.035  -0.502   2.075  1.00  0.00     0.127 A   
ATOM     2   C14 UNL     1      -0.571   0.474   2.888  1.00  0.00     0.045 A   
ATOM     3   N2  UNL     1       0.455   0.767   3.752  1.00  0.00    -0.212 N   
ATOM     4   N5  UNL     1       1.460  -0.118   3.621  1.00  0.00    -0.076 NA  
ATOM     5   N6  UNL     1       1.185  -0.882   2.576  1.00  0.00    -0.132 NA  
ATOM     6   H18 UNL     1      -1.458   1.088   2.819  1.00  0.00     0.083 HD  
ENDROOT
BRANCH   1   7
ATOM     7   C4  UNL     1      -0.470  -0.989   0.726  1.00  0.00     0.117 C   
BRANCH   7   8
ATOM     8   C2  UNL     1      -0.956  -2.461   0.717  1.00  0.00     0.037 C   
ATOM     9   C1  UNL     1      -2.157  -2.657   1.651  1.00  0.00     0.014 C   
ATOM     10  C3  UNL     1       0.124  -3.497   1.044  1.00  0.00     0.014 C   
ENDBRANCH   7   8
BRANCH   7  11
ATOM     11  N1  UNL     1       0.681  -0.757  -0.215  1.00  0.00     0.249 N   
ATOM     12  H9  UNL     1       1.511  -1.221   0.179  1.00  0.00     0.199 HD  
ATOM     13  H10 UNL     1       0.920   0.254  -0.157  1.00  0.00     0.199 HD  
BRANCH  11  14
ATOM     14  C5  UNL     1       0.543  -1.073  -1.651  1.00  0.00     0.164 C   
BRANCH  14  15
ATOM     15  C6  UNL     1       1.885  -1.052  -2.333  1.00  0.00    -0.002 A   
ATOM     16  C7  UNL     1       2.491   0.172  -2.700  1.00  0.00     0.012 A   
ATOM     17  C11 UNL     1       2.576  -2.256  -2.558  1.00  0.00     0.045 A   
ATOM     18  C8  UNL     1       3.758   0.201  -3.292  1.00  0.00     0.037 A   
ATOM     19  C10 UNL     1       3.824  -2.193  -3.143  1.00  0.00     0.109 A   
ATOM     20  C9  UNL     1       4.399  -0.999  -3.500  1.00  0.00     0.108 A   
ATOM     21  O1  UNL     1       4.619  -3.257  -3.424  1.00  0.00    -0.316 OA  
ATOM     22  O2  UNL     1       5.629  -1.161  -4.053  1.00  0.00    -0.316 OA  
ATOM     23  C12 UNL     1       5.762  -2.598  -4.014  1.00  0.00     0.337 C   
ENDBRANCH  14  15
ENDBRANCH  11  14
ENDBRANCH   7  11
ENDBRANCH   1   7
BRANCH   3  24
ATOM     24  C15 UNL     1       0.694   2.049   4.394  1.00  0.00     0.139 C   
BRANCH  24  25
ATOM     25  C16 UNL     1       1.659   2.939   3.583  1.00  0.00     0.060 C   
BRANCH  25  26
ATOM     26  C17 UNL     1       1.317   2.978   2.125  1.00  0.00    -0.011 A   
ATOM     27  C18 UNL     1       1.881   2.183   1.102  1.00  0.00     0.136 A   
ATOM     28  C23 UNL     1       0.328   3.689   1.484  1.00  0.00     0.101 A   
ATOM     29  N3  UNL     1       1.156   2.212  -0.026  1.00  0.00    -0.189 NA  
ATOM     30  N4  UNL     1       0.322   3.274   0.174  1.00  0.00    -0.227 N   
BRANCH  30  31
ATOM     31  C19 UNL     1      -0.557   3.784  -0.897  1.00  0.00     0.047 C   
ATOM     32  C20 UNL     1      -2.008   3.367  -0.598  1.00  0.00     0.034 C   
ATOM     33  C21 UNL     1      -0.164   3.222  -2.280  1.00  0.00     0.034 C   
ATOM     34  C22 UNL     1      -0.461   5.320  -0.972  1.00  0.00     0.034 C   
ENDBRANCH  30  31
ENDBRANCH  25  26
ENDBRANCH  24  25
ENDBRANCH   3  24
TORSDOF 9
