REMARK SMILES CCn1nc(C)c(Cn2cc([C@@H]([NH2+]Cc3ccc4c(c3)OCO4)C3CCCCC3)nn2)c1C
REMARK SMILES IDX 9 1 10 2 11 3 30 4 31 5 8 7 7 8 3 9 4 10 32 11 5 12 33 13
REMARK SMILES IDX 6 14 2 15 1 16 12 17 13 18 14 21 15 22 16 23 20 24 17 25
REMARK SMILES IDX 19 26 18 27 21 28 23 29 22 30 24 31 25 32 29 33 26 34 28 35
REMARK SMILES IDX 27 36
REMARK H PARENT 10 6 13 19 13 20
ROOT
ATOM     1   N3  UNL     1       1.580  -0.442   2.029  1.00  0.00    -0.208 N   
ATOM     2   C7  UNL     1       0.570  -1.131   1.407  1.00  0.00     0.046 A   
ATOM     3   C8  UNL     1       1.113  -1.488   0.195  1.00  0.00     0.127 A   
ATOM     4   N5  UNL     1       2.419  -1.072   0.147  1.00  0.00    -0.132 NA  
ATOM     5   N6  UNL     1       2.702  -0.460   1.284  1.00  0.00    -0.076 NA  
ATOM     6   H11 UNL     1      -0.423  -1.204   1.829  1.00  0.00     0.083 HD  
ENDROOT
BRANCH   1   7
ATOM     7   C6  UNL     1       1.486   0.401   3.211  1.00  0.00     0.173 C   
BRANCH   7   8
ATOM     8   C5  UNL     1       0.823   1.690   2.845  1.00  0.00     0.013 A   
ATOM     9   N1  UNL     1      -0.611   3.335   2.535  1.00  0.00    -0.230 N   
ATOM     10  N2  UNL     1       0.500   3.737   1.895  1.00  0.00    -0.186 NA  
ATOM     11  C24 UNL     1      -0.483   2.092   3.103  1.00  0.00     0.032 A   
ATOM     12  C3  UNL     1       1.392   2.770   2.118  1.00  0.00     0.062 A   
ATOM     13  C25 UNL     1      -1.579   1.412   3.843  1.00  0.00     0.064 C   
ATOM     14  C4  UNL     1       2.774   2.907   1.586  1.00  0.00     0.069 C   
BRANCH   9  15
ATOM     15  C2  UNL     1      -1.765   4.216   2.537  1.00  0.00     0.129 C   
ATOM     16  C1  UNL     1      -1.872   5.023   3.819  1.00  0.00     0.027 C   
ENDBRANCH   9  15
ENDBRANCH   7   8
ENDBRANCH   1   7
BRANCH   3  17
ATOM     17  C9  UNL     1       0.480  -2.045  -1.037  1.00  0.00     0.117 C   
BRANCH  17  18
ATOM     18  N4  UNL     1       0.916  -1.195  -2.216  1.00  0.00     0.249 N   
ATOM     19  H13 UNL     1       1.568  -1.715  -2.814  1.00  0.00     0.199 HD  
ATOM     20  H14 UNL     1       1.491  -0.429  -1.823  1.00  0.00     0.199 HD  
BRANCH  18  21
ATOM     21  C10 UNL     1      -0.167  -0.593  -3.037  1.00  0.00     0.164 C   
BRANCH  21  22
ATOM     22  C11 UNL     1      -1.018   0.387  -2.275  1.00  0.00    -0.002 A   
ATOM     23  C12 UNL     1      -0.496   1.644  -1.888  1.00  0.00     0.012 A   
ATOM     24  C16 UNL     1      -2.334   0.048  -1.913  1.00  0.00     0.045 A   
ATOM     25  C13 UNL     1      -1.271   2.553  -1.157  1.00  0.00     0.037 A   
ATOM     26  C15 UNL     1      -3.070   0.963  -1.189  1.00  0.00     0.109 A   
ATOM     27  C14 UNL     1      -2.555   2.181  -0.825  1.00  0.00     0.108 A   
ATOM     28  O1  UNL     1      -4.342   0.782  -0.749  1.00  0.00    -0.316 OA  
ATOM     29  O2  UNL     1      -3.449   2.935  -0.136  1.00  0.00    -0.316 OA  
ATOM     30  C17 UNL     1      -4.593   2.054  -0.114  1.00  0.00     0.337 C   
ENDBRANCH  21  22
ENDBRANCH  18  21
ENDBRANCH  17  18
BRANCH  17  31
ATOM     31  C18 UNL     1       0.779  -3.534  -1.334  1.00  0.00     0.043 C   
ATOM     32  C19 UNL     1       2.274  -3.903  -1.370  1.00  0.00     0.010 C   
ATOM     33  C23 UNL     1       0.040  -4.452  -0.339  1.00  0.00     0.010 C   
ATOM     34  C20 UNL     1       2.477  -5.379  -1.710  1.00  0.00     0.001 C   
ATOM     35  C22 UNL     1       0.241  -5.928  -0.679  1.00  0.00     0.001 C   
ATOM     36  C21 UNL     1       1.720  -6.291  -0.750  1.00  0.00     0.000 C   
ENDBRANCH  17  31
ENDBRANCH   3  17
TORSDOF 8
