REMARK SMILES Cc1cn(C)nc1CCn1cc([C@@H]([NH2+]Cc2ccc3c(c2)OCO3)C2CCCC2)nn1
REMARK SMILES IDX 10 1 11 2 12 3 30 4 31 5 9 7 8 8 7 9 2 10 3 11 4 12 6 13
REMARK SMILES IDX 1 14 5 15 13 16 14 17 15 20 16 21 17 22 21 23 18 24 20 25
REMARK SMILES IDX 19 26 22 27 24 28 23 29 25 30 26 31 29 32 27 33 28 34
REMARK H PARENT 11 6 14 18 14 19
ROOT
ATOM     1   N3  UNL     1      -1.649   0.800  -2.099  1.00  0.00    -0.212 N   
ATOM     2   C8  UNL     1      -0.796   1.812  -1.756  1.00  0.00     0.045 A   
ATOM     3   C9  UNL     1       0.449   1.238  -1.875  1.00  0.00     0.127 A   
ATOM     4   N5  UNL     1       0.317  -0.038  -2.359  1.00  0.00    -0.132 NA  
ATOM     5   N6  UNL     1      -0.972  -0.288  -2.506  1.00  0.00    -0.076 NA  
ATOM     6   H12 UNL     1      -1.146   2.764  -1.382  1.00  0.00     0.083 HD  
ENDROOT
BRANCH   1   7
ATOM     7   C7  UNL     1      -3.090   0.769  -1.982  1.00  0.00     0.140 C   
BRANCH   7   8
ATOM     8   C6  UNL     1      -3.578   0.901  -0.543  1.00  0.00     0.079 C   
BRANCH   8   9
ATOM     9   C5  UNL     1      -3.099  -0.186   0.366  1.00  0.00     0.065 A   
ATOM     10  C2  UNL     1      -3.561  -1.530   0.443  1.00  0.00    -0.012 A   
ATOM     11  C3  UNL     1      -2.849  -2.075   1.490  1.00  0.00     0.100 A   
ATOM     12  N1  UNL     1      -2.066  -1.078   1.984  1.00  0.00    -0.235 N   
ATOM     13  N2  UNL     1      -2.133   0.063   1.266  1.00  0.00    -0.187 NA  
ATOM     14  C1  UNL     1      -4.593  -2.199  -0.384  1.00  0.00     0.048 C   
ATOM     15  C4  UNL     1      -1.252  -1.139   3.174  1.00  0.00     0.159 C   
ENDBRANCH   8   9
ENDBRANCH   7   8
ENDBRANCH   1   7
BRANCH   3  16
ATOM     16  C10 UNL     1       1.790   1.701  -1.412  1.00  0.00     0.117 C   
BRANCH  16  17
ATOM     17  N4  UNL     1       2.416   0.593  -0.609  1.00  0.00     0.249 N   
ATOM     18  H14 UNL     1       3.428   0.695  -0.506  1.00  0.00     0.199 HD  
ATOM     19  H15 UNL     1       2.264  -0.271  -1.153  1.00  0.00     0.199 HD  
BRANCH  17  20
ATOM     20  C11 UNL     1       1.794   0.369   0.728  1.00  0.00     0.164 C   
BRANCH  20  21
ATOM     21  C12 UNL     1       2.304  -0.903   1.342  1.00  0.00    -0.002 A   
ATOM     22  C13 UNL     1       3.389  -0.882   2.249  1.00  0.00     0.012 A   
ATOM     23  C17 UNL     1       1.725  -2.132   0.978  1.00  0.00     0.045 A   
ATOM     24  C14 UNL     1       3.888  -2.070   2.795  1.00  0.00     0.037 A   
ATOM     25  C16 UNL     1       2.240  -3.283   1.536  1.00  0.00     0.109 A   
ATOM     26  C15 UNL     1       3.292  -3.253   2.418  1.00  0.00     0.108 A   
ATOM     27  O1  UNL     1       1.800  -4.545   1.297  1.00  0.00    -0.316 OA  
ATOM     28  O2  UNL     1       3.647  -4.493   2.844  1.00  0.00    -0.316 OA  
ATOM     29  C18 UNL     1       2.697  -5.313   2.131  1.00  0.00     0.337 C   
ENDBRANCH  20  21
ENDBRANCH  17  20
ENDBRANCH  16  17
BRANCH  16  30
ATOM     30  C19 UNL     1       2.698   2.133  -2.576  1.00  0.00     0.043 C   
ATOM     31  C20 UNL     1       3.995   2.821  -2.143  1.00  0.00     0.010 C   
ATOM     32  C23 UNL     1       3.219   1.025  -3.496  1.00  0.00     0.010 C   
ATOM     33  C21 UNL     1       4.830   2.862  -3.418  1.00  0.00     0.001 C   
ATOM     34  C22 UNL     1       4.361   1.682  -4.269  1.00  0.00     0.001 C   
ENDBRANCH  16  30
ENDBRANCH   3  16
TORSDOF 8
