REMARK SMILES Oc1cccc(Cl)c1Cn1cc([C@@H]([NH2+]Cc2ccc3c(c2)OCO3)C2CCCCC2)nn1
REMARK SMILES IDX 10 1 11 2 12 3 31 4 32 5 9 7 8 8 2 9 3 10 4 11 6 12 5 13
REMARK SMILES IDX 7 14 1 15 13 17 14 18 15 21 16 22 17 23 21 24 18 25 20 26
REMARK SMILES IDX 19 27 22 28 24 29 23 30 25 31 26 32 30 33 27 34 29 35 28 36
REMARK H PARENT 11 6 1 16 14 19 14 20
ROOT
ATOM     1   N1  UNL     1       3.219  -0.557  -0.981  1.00  0.00    -0.208 N   
ATOM     2   C8  UNL     1       2.133  -0.043  -0.325  1.00  0.00     0.046 A   
ATOM     3   C9  UNL     1       1.115  -0.123  -1.248  1.00  0.00     0.127 A   
ATOM     4   N3  UNL     1       1.613  -0.624  -2.423  1.00  0.00    -0.132 NA  
ATOM     5   N4  UNL     1       2.903  -0.856  -2.258  1.00  0.00    -0.076 NA  
ATOM     6   H7  UNL     1       2.186   0.293   0.702  1.00  0.00     0.083 HD  
ENDROOT
BRANCH   1   7
ATOM     7   C7  UNL     1       4.578  -0.728  -0.494  1.00  0.00     0.173 C   
BRANCH   7   8
ATOM     8   C6  UNL     1       4.637  -1.659   0.692  1.00  0.00     0.020 A   
ATOM     9   C1  UNL     1       4.692  -1.139   1.994  1.00  0.00     0.078 A   
ATOM     10  C2  UNL     1       4.753  -1.969   3.114  1.00  0.00     0.033 A   
ATOM     11  C3  UNL     1       4.750  -3.351   2.947  1.00  0.00     0.004 A   
ATOM     12  C5  UNL     1       4.624  -3.056   0.547  1.00  0.00     0.048 A   
ATOM     13  C4  UNL     1       4.683  -3.894   1.666  1.00  0.00     0.021 A   
ATOM     14  CL1 UNL     1       4.529  -3.813  -1.003  1.00  0.00    -0.084 Cl  
BRANCH   9  15
ATOM     15  O1  UNL     1       4.672   0.219   2.162  1.00  0.00    -0.361 OA  
ATOM     16  H1  UNL     1       4.889   0.423   3.090  1.00  0.00     0.218 HD  
ENDBRANCH   9  15
ENDBRANCH   7   8
ENDBRANCH   1   7
BRANCH   3  17
ATOM     17  C10 UNL     1      -0.332   0.246  -1.161  1.00  0.00     0.117 C   
BRANCH  17  18
ATOM     18  N2  UNL     1      -0.909   0.404  -2.549  1.00  0.00     0.249 N   
ATOM     19  H9  UNL     1      -1.922   0.269  -2.552  1.00  0.00     0.199 HD  
ATOM     20  H10 UNL     1      -0.501  -0.359  -3.110  1.00  0.00     0.199 HD  
BRANCH  18  21
ATOM     21  C11 UNL     1      -0.581   1.681  -3.248  1.00  0.00     0.164 C   
BRANCH  21  22
ATOM     22  C12 UNL     1      -1.304   2.862  -2.660  1.00  0.00    -0.002 A   
ATOM     23  C13 UNL     1      -0.591   3.847  -1.935  1.00  0.00     0.012 A   
ATOM     24  C17 UNL     1      -2.698   2.983  -2.803  1.00  0.00     0.045 A   
ATOM     25  C14 UNL     1      -1.255   4.932  -1.351  1.00  0.00     0.037 A   
ATOM     26  C16 UNL     1      -3.321   4.063  -2.212  1.00  0.00     0.109 A   
ATOM     27  C15 UNL     1      -2.621   5.009  -1.506  1.00  0.00     0.108 A   
ATOM     28  O2  UNL     1      -4.654   4.321  -2.247  1.00  0.00    -0.316 OA  
ATOM     29  O3  UNL     1      -3.425   5.983  -1.007  1.00  0.00    -0.316 OA  
ATOM     30  C18 UNL     1      -4.713   5.559  -1.503  1.00  0.00     0.337 C   
ENDBRANCH  21  22
ENDBRANCH  18  21
ENDBRANCH  17  18
BRANCH  17  31
ATOM     31  C19 UNL     1      -1.152  -0.795  -0.351  1.00  0.00     0.043 C   
ATOM     32  C20 UNL     1      -2.547  -0.254   0.021  1.00  0.00     0.010 C   
ATOM     33  C24 UNL     1      -1.278  -2.168  -1.041  1.00  0.00     0.010 C   
ATOM     34  C21 UNL     1      -3.327  -1.250   0.878  1.00  0.00     0.001 C   
ATOM     35  C23 UNL     1      -2.063  -3.158  -0.181  1.00  0.00     0.001 C   
ATOM     36  C22 UNL     1      -3.435  -2.611   0.199  1.00  0.00     0.000 C   
ENDBRANCH  17  31
ENDBRANCH   3  17
TORSDOF 8
