REMARK SMILES COc1cc(O)ccc1CCn1cc([C@@H]([NH2+]Cc2ccc3c(c2)OCO3)C(C)C)nn1
REMARK SMILES IDX 12 1 13 2 14 3 30 4 31 5 11 7 10 8 9 9 3 10 4 11 5 12 8 13
REMARK SMILES IDX 7 14 2 15 1 16 6 17 15 19 16 20 17 23 18 24 19 25 23 26
REMARK SMILES IDX 20 27 22 28 21 29 24 30 26 31 25 32 27 33 28 34 29 35
REMARK H PARENT 13 6 6 18 16 21 16 22
ROOT
ATOM     1   N1  UNL     1      -1.061   2.801   2.701  1.00  0.00    -0.212 N   
ATOM     2   C10 UNL     1      -0.181   1.773   2.510  1.00  0.00     0.045 A   
ATOM     3   C11 UNL     1       0.829   2.337   1.763  1.00  0.00     0.127 A   
ATOM     4   N3  UNL     1       0.538   3.659   1.536  1.00  0.00    -0.132 NA  
ATOM     5   N4  UNL     1      -0.617   3.932   2.122  1.00  0.00    -0.076 NA  
ATOM     6   H12 UNL     1      -0.374   0.773   2.872  1.00  0.00     0.083 HD  
ENDROOT
BRANCH   1   7
ATOM     7   C9  UNL     1      -2.365   2.744   3.324  1.00  0.00     0.139 C   
BRANCH   7   8
ATOM     8   C8  UNL     1      -3.514   2.806   2.317  1.00  0.00     0.059 C   
BRANCH   8   9
ATOM     9   C7  UNL     1      -3.416   1.772   1.213  1.00  0.00    -0.016 A   
ATOM     10  C2  UNL     1      -3.594   0.399   1.470  1.00  0.00     0.080 A   
ATOM     11  C3  UNL     1      -3.444  -0.527   0.434  1.00  0.00     0.066 A   
ATOM     12  C4  UNL     1      -3.140  -0.082  -0.850  1.00  0.00     0.074 A   
ATOM     13  C6  UNL     1      -3.119   2.195  -0.093  1.00  0.00     0.009 A   
ATOM     14  C5  UNL     1      -2.984   1.269  -1.123  1.00  0.00     0.033 A   
BRANCH  10  15
ATOM     15  O1  UNL     1      -3.873   0.066   2.769  1.00  0.00    -0.349 OA  
ATOM     16  C1  UNL     1      -4.456  -1.212   2.989  1.00  0.00     0.203 C   
ENDBRANCH  10  15
BRANCH  12  17
ATOM     17  O2  UNL     1      -2.960  -0.952  -1.884  1.00  0.00    -0.361 OA  
ATOM     18  H5  UNL     1      -3.208  -1.850  -1.598  1.00  0.00     0.218 HD  
ENDBRANCH  12  17
ENDBRANCH   8   9
ENDBRANCH   7   8
ENDBRANCH   1   7
BRANCH   3  19
ATOM     19  C12 UNL     1       2.035   1.729   1.132  1.00  0.00     0.117 C   
BRANCH  19  20
ATOM     20  N2  UNL     1       2.218   2.291  -0.261  1.00  0.00     0.249 N   
ATOM     21  H14 UNL     1       3.172   2.125  -0.593  1.00  0.00     0.199 HD  
ATOM     22  H15 UNL     1       2.094   3.311  -0.172  1.00  0.00     0.199 HD  
BRANCH  20  23
ATOM     23  C13 UNL     1       1.243   1.818  -1.289  1.00  0.00     0.164 C   
BRANCH  23  24
ATOM     24  C14 UNL     1       1.477   0.390  -1.694  1.00  0.00    -0.002 A   
ATOM     25  C15 UNL     1       2.554   0.053  -2.546  1.00  0.00     0.012 A   
ATOM     26  C19 UNL     1       0.638  -0.626  -1.208  1.00  0.00     0.045 A   
ATOM     27  C16 UNL     1       2.789  -1.274  -2.914  1.00  0.00     0.037 A   
ATOM     28  C18 UNL     1       0.894  -1.924  -1.593  1.00  0.00     0.109 A   
ATOM     29  C17 UNL     1       1.940  -2.239  -2.421  1.00  0.00     0.108 A   
ATOM     30  O3  UNL     1       0.175  -3.016  -1.223  1.00  0.00    -0.316 OA  
ATOM     31  O4  UNL     1       2.012  -3.569  -2.677  1.00  0.00    -0.316 OA  
ATOM     32  C20 UNL     1       0.860  -4.053  -1.958  1.00  0.00     0.337 C   
ENDBRANCH  23  24
ENDBRANCH  20  23
ENDBRANCH  19  20
BRANCH  19  33
ATOM     33  C21 UNL     1       3.348   1.940   1.928  1.00  0.00     0.037 C   
ATOM     34  C22 UNL     1       3.297   1.236   3.288  1.00  0.00     0.014 C   
ATOM     35  C23 UNL     1       3.745   3.406   2.123  1.00  0.00     0.014 C   
ENDBRANCH  19  33
ENDBRANCH   3  19
TORSDOF 10
