REMARK SMILES Clc1nc(Cn2cc([C@@H]([NH2+]Cc3ccc4c(c3)OCO4)C3CCCC3)nn2)cs1
REMARK SMILES IDX 6 1 7 2 8 3 26 4 27 5 5 7 4 8 2 9 3 10 29 11 28 12 1 13 9 14
REMARK SMILES IDX 10 15 11 18 12 19 13 20 17 21 14 22 16 23 15 24 18 25 20 26
REMARK SMILES IDX 19 27 21 28 22 29 25 30 23 31 24 32
REMARK H PARENT 7 6 10 16 10 17
ROOT
ATOM     1   N2  UNL     1       2.477   2.678   2.076  1.00  0.00    -0.206 N   
ATOM     2   C4  UNL     1       2.930   2.229   0.864  1.00  0.00     0.046 A   
ATOM     3   C5  UNL     1       1.822   1.651   0.288  1.00  0.00     0.127 A   
ATOM     4   N4  UNL     1       0.753   1.780   1.139  1.00  0.00    -0.132 NA  
ATOM     5   N5  UNL     1       1.166   2.406   2.229  1.00  0.00    -0.076 NA  
ATOM     6   H3  UNL     1       3.962   2.338   0.560  1.00  0.00     0.083 HD  
ENDROOT
BRANCH   1   7
ATOM     7   C3  UNL     1       3.224   3.365   3.115  1.00  0.00     0.190 C   
BRANCH   7   8
ATOM     8   C2  UNL     1       3.945   2.372   3.965  1.00  0.00     0.069 A   
ATOM     9   C1  UNL     1       5.511   0.865   4.326  1.00  0.00     0.167 A   
ATOM     10  N1  UNL     1       5.012   1.667   3.414  1.00  0.00    -0.232 NA  
ATOM     11  S1  UNL     1       4.774   0.870   5.854  1.00  0.00    -0.064 S   
ATOM     12  C20 UNL     1       3.673   2.062   5.288  1.00  0.00     0.074 A   
ATOM     13  CL1 UNL     1       6.834  -0.175   4.005  1.00  0.00    -0.054 Cl  
ENDBRANCH   7   8
ENDBRANCH   1   7
BRANCH   3  14
ATOM     14  C6  UNL     1       1.651   0.924  -1.007  1.00  0.00     0.117 C   
BRANCH  14  15
ATOM     15  N3  UNL     1       0.527  -0.070  -0.893  1.00  0.00     0.249 N   
ATOM     16  H5  UNL     1       0.133  -0.319  -1.805  1.00  0.00     0.199 HD  
ATOM     17  H6  UNL     1      -0.229   0.398  -0.372  1.00  0.00     0.199 HD  
BRANCH  15  18
ATOM     18  C7  UNL     1       0.859  -1.315  -0.146  1.00  0.00     0.164 C   
BRANCH  18  19
ATOM     19  C8  UNL     1      -0.363  -2.178  -0.004  1.00  0.00    -0.002 A   
ATOM     20  C9  UNL     1      -1.254  -1.972   1.077  1.00  0.00     0.012 A   
ATOM     21  C13 UNL     1      -0.659  -3.154  -0.970  1.00  0.00     0.045 A   
ATOM     22  C10 UNL     1      -2.420  -2.734   1.201  1.00  0.00     0.037 A   
ATOM     23  C12 UNL     1      -1.817  -3.888  -0.817  1.00  0.00     0.109 A   
ATOM     24  C11 UNL     1      -2.673  -3.685   0.237  1.00  0.00     0.108 A   
ATOM     25  O1  UNL     1      -2.250  -4.864  -1.657  1.00  0.00    -0.316 OA  
ATOM     26  O2  UNL     1      -3.751  -4.510   0.196  1.00  0.00    -0.316 OA  
ATOM     27  C14 UNL     1      -3.469  -5.274  -0.996  1.00  0.00     0.337 C   
ENDBRANCH  18  19
ENDBRANCH  15  18
ENDBRANCH  14  15
BRANCH  14  28
ATOM     28  C15 UNL     1       1.396   1.892  -2.179  1.00  0.00     0.043 C   
ATOM     29  C16 UNL     1       1.439   1.228  -3.570  1.00  0.00     0.010 C   
ATOM     30  C19 UNL     1       0.063   2.651  -2.149  1.00  0.00     0.010 C   
ATOM     31  C17 UNL     1       0.305   1.856  -4.380  1.00  0.00     0.001 C   
ATOM     32  C18 UNL     1      -0.117   3.087  -3.594  1.00  0.00     0.001 C   
ENDBRANCH  14  28
ENDBRANCH   3  14
TORSDOF 7
