REMARK SMILES CC(C)(C)[C@H]([NH2+]Cc1ccc2c(c1)OCO2)c1cn(-c2ccc3nccnc3c2)nn1
REMARK SMILES IDX 5 1 2 2 1 3 3 4 4 5 6 6 7 9 8 10 9 11 13 12 10 13 12 14
REMARK SMILES IDX 11 15 14 16 16 17 15 18 17 19 18 20 31 21 19 22 30 23 20 24
REMARK SMILES IDX 21 25 29 26 22 27 28 28 23 29 27 30 24 31 26 32 25 33
REMARK H PARENT 6 7 6 8
ROOT
ATOM     1   C5  UNL     1       2.692  -0.695  -1.667  1.00  0.00     0.120 C   
ENDROOT
BRANCH   1   2
ATOM     2   C2  UNL     1       3.160  -0.625  -3.161  1.00  0.00     0.010 C   
ATOM     3   C1  UNL     1       4.684  -0.370  -3.227  1.00  0.00     0.017 C   
ATOM     4   C3  UNL     1       2.847  -1.910  -3.953  1.00  0.00     0.017 C   
ATOM     5   C4  UNL     1       2.473   0.563  -3.873  1.00  0.00     0.017 C   
ENDBRANCH   1   2
BRANCH   1   6
ATOM     6   N1  UNL     1       3.323  -1.882  -0.957  1.00  0.00     0.250 N   
ATOM     7   H11 UNL     1       4.142  -2.227  -1.464  1.00  0.00     0.199 HD  
ATOM     8   H12 UNL     1       2.628  -2.644  -1.007  1.00  0.00     0.199 HD  
BRANCH   6   9
ATOM     9   C6  UNL     1       3.699  -1.683   0.476  1.00  0.00     0.164 C   
BRANCH   9  10
ATOM     10  C7  UNL     1       2.540  -1.348   1.375  1.00  0.00    -0.002 A   
ATOM     11  C8  UNL     1       1.587  -2.339   1.714  1.00  0.00     0.012 A   
ATOM     12  C12 UNL     1       2.357  -0.031   1.832  1.00  0.00     0.045 A   
ATOM     13  C9  UNL     1       0.455  -2.020   2.473  1.00  0.00     0.037 A   
ATOM     14  C11 UNL     1       1.225   0.251   2.570  1.00  0.00     0.109 A   
ATOM     15  C10 UNL     1       0.299  -0.714   2.879  1.00  0.00     0.108 A   
ATOM     16  O1  UNL     1       0.876   1.476   3.042  1.00  0.00    -0.316 OA  
ATOM     17  O2  UNL     1      -0.747  -0.219   3.589  1.00  0.00    -0.316 OA  
ATOM     18  C13 UNL     1      -0.358   1.164   3.732  1.00  0.00     0.337 C   
ENDBRANCH   9  10
ENDBRANCH   6   9
ENDBRANCH   1   6
BRANCH   1  19
ATOM     19  C14 UNL     1       1.205  -0.780  -1.487  1.00  0.00     0.128 A   
ATOM     20  C15 UNL     1       0.293   0.153  -1.046  1.00  0.00     0.135 A   
ATOM     21  N6  UNL     1       0.579  -1.986  -1.630  1.00  0.00    -0.131 NA  
ATOM     22  N2  UNL     1      -0.881  -0.552  -0.872  1.00  0.00    -0.181 N   
ATOM     23  N5  UNL     1      -0.690  -1.831  -1.288  1.00  0.00    -0.071 NA  
BRANCH  22  24
ATOM     24  C16 UNL     1      -2.103  -0.123  -0.300  1.00  0.00     0.060 A   
ATOM     25  C17 UNL     1      -3.187  -1.002  -0.234  1.00  0.00     0.028 A   
ATOM     26  C23 UNL     1      -2.233   1.165   0.234  1.00  0.00     0.056 A   
ATOM     27  C18 UNL     1      -4.381  -0.585   0.361  1.00  0.00     0.032 A   
ATOM     28  C22 UNL     1      -3.415   1.577   0.838  1.00  0.00     0.091 A   
ATOM     29  C19 UNL     1      -4.515   0.687   0.901  1.00  0.00     0.089 A   
ATOM     30  N4  UNL     1      -3.482   2.817   1.357  1.00  0.00    -0.253 NA  
ATOM     31  N3  UNL     1      -5.677   1.051   1.475  1.00  0.00    -0.253 NA  
ATOM     32  C21 UNL     1      -4.659   3.165   1.924  1.00  0.00     0.132 A   
ATOM     33  C20 UNL     1      -5.733   2.301   1.981  1.00  0.00     0.132 A   
ENDBRANCH  22  24
ENDBRANCH   1  19
TORSDOF 6
