REMARK SMILES CC(C)C[C@H]([NH2+]Cc1ccc2c(c1)OCO2)c1cn([C@H](CO)c2ccc(Cl)cc2)nn1
REMARK SMILES IDX 17 1 18 2 19 3 30 4 31 5 5 7 4 8 2 9 1 10 3 11 6 12 7 15
REMARK SMILES IDX 8 16 9 17 13 18 10 19 12 20 11 21 14 22 16 23 15 24 20 25
REMARK SMILES IDX 21 26 22 27 23 29 24 30 29 31 25 32 28 33 26 34 27 35
REMARK H PARENT 18 6 6 13 6 14 22 28
ROOT
ATOM     1   C14 UNL     1       0.822  -0.525  -1.019  1.00  0.00     0.127 A   
ATOM     2   C15 UNL     1       1.619  -1.592  -0.677  1.00  0.00     0.046 A   
ATOM     3   N2  UNL     1       2.807  -1.343  -1.313  1.00  0.00    -0.202 N   
ATOM     4   N3  UNL     1       2.749  -0.168  -1.977  1.00  0.00    -0.075 NA  
ATOM     5   N4  UNL     1       1.537   0.335  -1.812  1.00  0.00    -0.132 NA  
ATOM     6   H20 UNL     1       1.465  -2.478  -0.076  1.00  0.00     0.083 HD  
ENDROOT
BRANCH   1   7
ATOM     7   C5  UNL     1      -0.575  -0.179  -0.630  1.00  0.00     0.114 C   
BRANCH   7   8
ATOM     8   C4  UNL     1      -1.604  -0.560  -1.711  1.00  0.00     0.064 C   
BRANCH   8   9
ATOM     9   C2  UNL     1      -1.717  -2.070  -2.011  1.00  0.00    -0.012 C   
ATOM     10  C1  UNL     1      -2.720  -2.297  -3.147  1.00  0.00     0.007 C   
ATOM     11  C3  UNL     1      -2.139  -2.878  -0.783  1.00  0.00     0.007 C   
ENDBRANCH   8   9
ENDBRANCH   7   8
BRANCH   7  12
ATOM     12  N1  UNL     1      -0.689   1.314  -0.423  1.00  0.00     0.249 N   
ATOM     13  H11 UNL     1      -1.667   1.620  -0.427  1.00  0.00     0.199 HD  
ATOM     14  H12 UNL     1      -0.240   1.760  -1.237  1.00  0.00     0.199 HD  
BRANCH  12  15
ATOM     15  C6  UNL     1      -0.018   1.838   0.799  1.00  0.00     0.164 C   
BRANCH  15  16
ATOM     16  C7  UNL     1      -0.151   3.333   0.870  1.00  0.00    -0.002 A   
ATOM     17  C8  UNL     1      -1.206   3.927   1.604  1.00  0.00     0.012 A   
ATOM     18  C12 UNL     1       0.745   4.151   0.159  1.00  0.00     0.045 A   
ATOM     19  C9  UNL     1      -1.360   5.317   1.640  1.00  0.00     0.037 A   
ATOM     20  C11 UNL     1       0.564   5.517   0.216  1.00  0.00     0.109 A   
ATOM     21  C10 UNL     1      -0.459   6.084   0.936  1.00  0.00     0.108 A   
ATOM     22  O1  UNL     1       1.336   6.444  -0.408  1.00  0.00    -0.316 OA  
ATOM     23  O2  UNL     1      -0.458   7.440   0.857  1.00  0.00    -0.316 OA  
ATOM     24  C13 UNL     1       0.696   7.667   0.020  1.00  0.00     0.337 C   
ENDBRANCH  15  16
ENDBRANCH  12  15
ENDBRANCH   7  12
ENDBRANCH   1   7
BRANCH   3  25
ATOM     25  C16 UNL     1       4.042  -2.126  -1.301  1.00  0.00     0.155 C   
BRANCH  25  26
ATOM     26  C17 UNL     1       3.903  -3.420  -2.131  1.00  0.00     0.185 C   
BRANCH  26  27
ATOM     27  O3  UNL     1       2.841  -4.266  -1.687  1.00  0.00    -0.394 OA  
ATOM     28  H24 UNL     1       2.858  -5.061  -2.254  1.00  0.00     0.210 HD  
ENDBRANCH  26  27
ENDBRANCH  25  26
BRANCH  25  29
ATOM     29  C18 UNL     1       4.568  -2.258   0.126  1.00  0.00    -0.023 A   
ATOM     30  C19 UNL     1       4.366  -3.402   0.914  1.00  0.00     0.007 A   
ATOM     31  C23 UNL     1       5.264  -1.172   0.695  1.00  0.00     0.007 A   
ATOM     32  C20 UNL     1       4.849  -3.462   2.226  1.00  0.00     0.021 A   
ATOM     33  C22 UNL     1       5.746  -1.233   2.005  1.00  0.00     0.021 A   
ATOM     34  C21 UNL     1       5.535  -2.378   2.766  1.00  0.00     0.041 A   
ATOM     35  CL1 UNL     1       6.116  -2.451   4.382  1.00  0.00    -0.084 Cl  
ENDBRANCH  25  29
ENDBRANCH   3  25
TORSDOF 10
