REMARK SMILES CC(C)C[C@H]([NH2+]Cc1ccc2c(c1)OCO2)c1cn([C@@H](CO)c2ccc(Cl)cc2)nn1
REMARK SMILES IDX 17 1 18 2 19 3 30 4 31 5 5 7 4 8 2 9 1 10 3 11 6 12 7 15
REMARK SMILES IDX 8 16 9 17 13 18 10 19 12 20 11 21 14 22 16 23 15 24 20 25
REMARK SMILES IDX 21 26 22 27 23 29 24 30 29 31 25 32 28 33 26 34 27 35
REMARK H PARENT 18 6 6 13 6 14 22 28
ROOT
ATOM     1   C14 UNL     1      -0.821   0.540  -0.496  1.00  0.00     0.127 A   
ATOM     2   C15 UNL     1      -0.822   1.038   0.788  1.00  0.00     0.046 A   
ATOM     3   N2  UNL     1      -2.151   1.132   1.110  1.00  0.00    -0.202 N   
ATOM     4   N3  UNL     1      -2.918   0.727   0.076  1.00  0.00    -0.075 NA  
ATOM     5   N4  UNL     1      -2.115   0.382  -0.918  1.00  0.00    -0.132 NA  
ATOM     6   H20 UNL     1      -0.038   1.276   1.495  1.00  0.00     0.083 HD  
ENDROOT
BRANCH   1   7
ATOM     7   C5  UNL     1       0.311   0.102  -1.361  1.00  0.00     0.114 C   
BRANCH   7   8
ATOM     8   C4  UNL     1       0.657   1.135  -2.451  1.00  0.00     0.064 C   
BRANCH   8   9
ATOM     9   C2  UNL     1       1.147   2.503  -1.930  1.00  0.00    -0.012 C   
ATOM     10  C1  UNL     1       1.390   3.447  -3.112  1.00  0.00     0.007 C   
ATOM     11  C3  UNL     1       2.421   2.388  -1.093  1.00  0.00     0.007 C   
ENDBRANCH   8   9
ENDBRANCH   7   8
BRANCH   7  12
ATOM     12  N1  UNL     1      -0.016  -1.194  -2.079  1.00  0.00     0.249 N   
ATOM     13  H11 UNL     1       0.764  -1.451  -2.691  1.00  0.00     0.199 HD  
ATOM     14  H12 UNL     1      -0.828  -1.001  -2.680  1.00  0.00     0.199 HD  
BRANCH  12  15
ATOM     15  C6  UNL     1      -0.379  -2.370  -1.229  1.00  0.00     0.164 C   
BRANCH  15  16
ATOM     16  C7  UNL     1       0.637  -2.704  -0.172  1.00  0.00    -0.002 A   
ATOM     17  C8  UNL     1       1.907  -3.220  -0.524  1.00  0.00     0.012 A   
ATOM     18  C12 UNL     1       0.328  -2.492   1.183  1.00  0.00     0.045 A   
ATOM     19  C9  UNL     1       2.858  -3.514   0.460  1.00  0.00     0.037 A   
ATOM     20  C11 UNL     1       1.287  -2.792   2.127  1.00  0.00     0.109 A   
ATOM     21  C10 UNL     1       2.517  -3.289   1.776  1.00  0.00     0.108 A   
ATOM     22  O1  UNL     1       1.150  -2.643   3.470  1.00  0.00    -0.316 OA  
ATOM     23  O2  UNL     1       3.309  -3.519   2.856  1.00  0.00    -0.316 OA  
ATOM     24  C13 UNL     1       2.418  -3.157   3.934  1.00  0.00     0.337 C   
ENDBRANCH  15  16
ENDBRANCH  12  15
ENDBRANCH   7  12
ENDBRANCH   1   7
BRANCH   3  25
ATOM     25  C16 UNL     1      -2.717   1.476   2.413  1.00  0.00     0.155 C   
BRANCH  25  26
ATOM     26  C17 UNL     1      -4.163   1.997   2.337  1.00  0.00     0.185 C   
BRANCH  26  27
ATOM     27  O3  UNL     1      -4.488   2.703   3.536  1.00  0.00    -0.394 OA  
ATOM     28  H24 UNL     1      -5.448   2.873   3.524  1.00  0.00     0.210 HD  
ENDBRANCH  26  27
ENDBRANCH  25  26
BRANCH  25  29
ATOM     29  C18 UNL     1      -2.544   0.289   3.357  1.00  0.00    -0.023 A   
ATOM     30  C19 UNL     1      -1.679   0.397   4.460  1.00  0.00     0.007 A   
ATOM     31  C23 UNL     1      -3.198  -0.935   3.132  1.00  0.00     0.007 A   
ATOM     32  C20 UNL     1      -1.461  -0.695   5.305  1.00  0.00     0.021 A   
ATOM     33  C22 UNL     1      -2.979  -2.026   3.980  1.00  0.00     0.021 A   
ATOM     34  C21 UNL     1      -2.106  -1.903   5.058  1.00  0.00     0.041 A   
ATOM     35  CL1 UNL     1      -1.817  -3.253   6.082  1.00  0.00    -0.084 Cl  
ENDBRANCH  25  29
ENDBRANCH   3  25
TORSDOF 10
