REMARK SMILES Fc1ccc(F)c(-n2cc([C@@H]([NH2+]Cc3ccc4c(c3)OCO4)C3CCCCC3)nn2)c1
REMARK SMILES IDX 11 1 10 2 8 3 9 4 30 5 29 6 7 7 2 8 3 9 31 10 4 11 5 12 1 13
REMARK SMILES IDX 6 14 12 15 13 18 14 19 15 20 19 21 16 22 18 23 17 24 20 25
REMARK SMILES IDX 22 26 21 27 23 28 24 29 28 30 25 31 27 32 26 33
REMARK H PARENT 12 16 12 17
ROOT
ATOM     1   C8  UNL     1       0.470   0.065  -0.852  1.00  0.00     0.117 C   
ENDROOT
BRANCH   1   2
ATOM     2   C7  UNL     1      -0.656   1.018  -1.124  1.00  0.00     0.127 A   
ATOM     3   N1  UNL     1      -2.539   2.132  -1.290  1.00  0.00    -0.178 N   
ATOM     4   C6  UNL     1      -1.956   1.044  -0.670  1.00  0.00     0.135 A   
ATOM     5   N4  UNL     1      -1.615   2.703  -2.110  1.00  0.00    -0.071 NA  
ATOM     6   N3  UNL     1      -0.476   2.040  -2.012  1.00  0.00    -0.131 NA  
BRANCH   3   7
ATOM     7   C5  UNL     1      -3.852   2.648  -1.189  1.00  0.00     0.096 A   
ATOM     8   C1  UNL     1      -5.504   4.282  -1.864  1.00  0.00     0.125 A   
ATOM     9   C2  UNL     1      -6.451   3.703  -1.029  1.00  0.00     0.042 A   
ATOM     10  C23 UNL     1      -4.211   3.771  -1.953  1.00  0.00     0.068 A   
ATOM     11  C3  UNL     1      -6.100   2.592  -0.266  1.00  0.00     0.044 A   
ATOM     12  C4  UNL     1      -4.808   2.069  -0.349  1.00  0.00     0.146 A   
ATOM     13  F1  UNL     1      -5.839   5.348  -2.601  1.00  0.00    -0.207 F   
ATOM     14  F2  UNL     1      -4.526   0.999   0.406  1.00  0.00    -0.205 F   
ENDBRANCH   3   7
ENDBRANCH   1   2
BRANCH   1  15
ATOM     15  N2  UNL     1       1.328  -0.001  -2.098  1.00  0.00     0.249 N   
ATOM     16  H5  UNL     1       0.682  -0.145  -2.886  1.00  0.00     0.199 HD  
ATOM     17  H6  UNL     1       1.705   0.940  -2.273  1.00  0.00     0.199 HD  
BRANCH  15  18
ATOM     18  C9  UNL     1       2.403  -1.023  -2.187  1.00  0.00     0.164 C   
BRANCH  18  19
ATOM     19  C10 UNL     1       1.885  -2.431  -2.103  1.00  0.00    -0.002 A   
ATOM     20  C11 UNL     1       2.108  -3.210  -0.942  1.00  0.00     0.012 A   
ATOM     21  C15 UNL     1       1.143  -2.974  -3.167  1.00  0.00     0.045 A   
ATOM     22  C12 UNL     1       1.594  -4.507  -0.837  1.00  0.00     0.037 A   
ATOM     23  C14 UNL     1       0.651  -4.255  -3.031  1.00  0.00     0.109 A   
ATOM     24  C13 UNL     1       0.867  -5.000  -1.897  1.00  0.00     0.108 A   
ATOM     25  O1  UNL     1      -0.088  -4.920  -3.957  1.00  0.00    -0.316 OA  
ATOM     26  O2  UNL     1       0.291  -6.228  -1.967  1.00  0.00    -0.316 OA  
ATOM     27  C16 UNL     1      -0.285  -6.189  -3.291  1.00  0.00     0.337 C   
ENDBRANCH  18  19
ENDBRANCH  15  18
ENDBRANCH   1  15
BRANCH   1  28
ATOM     28  C17 UNL     1       1.326   0.431   0.391  1.00  0.00     0.043 C   
ATOM     29  C18 UNL     1       0.504   0.340   1.693  1.00  0.00     0.010 C   
ATOM     30  C22 UNL     1       2.024   1.802   0.302  1.00  0.00     0.010 C   
ATOM     31  C19 UNL     1       1.365   0.613   2.924  1.00  0.00     0.001 C   
ATOM     32  C21 UNL     1       2.874   2.084   1.541  1.00  0.00     0.001 C   
ATOM     33  C20 UNL     1       2.063   1.965   2.827  1.00  0.00     0.000 C   
ENDBRANCH   1  28
TORSDOF 6
