REMARK SMILES Cc1cncc([C@H](CO)n2cc([C@@H]([NH2+]Cc3ccc4c(c3)OCO4)C3CCCCC3)nn2)c1
REMARK SMILES IDX 10 1 11 2 12 3 31 4 32 5 7 7 6 8 2 9 3 10 33 11 4 12 5 13
REMARK SMILES IDX 1 14 8 15 9 16 13 18 14 19 15 22 16 23 17 24 21 25 18 26
REMARK SMILES IDX 20 27 19 28 22 29 24 30 23 31 25 32 26 33 30 34 27 35 29 36
REMARK SMILES IDX 28 37
REMARK H PARENT 11 6 9 17 14 20 14 21
ROOT
ATOM     1   N2  UNL     1       1.342   0.230   2.829  1.00  0.00    -0.202 N   
ATOM     2   C8  UNL     1       0.726  -0.724   2.060  1.00  0.00     0.046 A   
ATOM     3   C9  UNL     1      -0.607  -0.382   2.099  1.00  0.00     0.127 A   
ATOM     4   N4  UNL     1      -0.760   0.727   2.886  1.00  0.00    -0.132 NA  
ATOM     5   N5  UNL     1       0.436   1.099   3.319  1.00  0.00    -0.075 NA  
ATOM     6   H10 UNL     1       1.288  -1.494   1.548  1.00  0.00     0.083 HD  
ENDROOT
BRANCH   1   7
ATOM     7   C6  UNL     1       2.775   0.492   2.981  1.00  0.00     0.157 C   
BRANCH   7   8
ATOM     8   C5  UNL     1       3.384   0.744   1.612  1.00  0.00    -0.005 A   
ATOM     9   C2  UNL     1       4.742   0.164  -0.317  1.00  0.00    -0.032 A   
ATOM     10  C3  UNL     1       4.276   1.323  -0.927  1.00  0.00     0.114 A   
ATOM     11  C25 UNL     1       4.262  -0.134   0.961  1.00  0.00     0.012 A   
ATOM     12  N1  UNL     1       3.412   2.188  -0.345  1.00  0.00    -0.264 NA  
ATOM     13  C4  UNL     1       3.014   1.896   0.910  1.00  0.00     0.116 A   
ATOM     14  C1  UNL     1       5.685  -0.757  -1.025  1.00  0.00     0.046 C   
ENDBRANCH   7   8
BRANCH   7  15
ATOM     15  C7  UNL     1       3.443  -0.567   3.880  1.00  0.00     0.186 C   
BRANCH  15  16
ATOM     16  O1  UNL     1       3.305  -1.896   3.372  1.00  0.00    -0.394 OA  
ATOM     17  H9  UNL     1       3.785  -2.484   3.986  1.00  0.00     0.210 HD  
ENDBRANCH  15  16
ENDBRANCH   7  15
ENDBRANCH   1   7
BRANCH   3  18
ATOM     18  C10 UNL     1      -1.775  -0.929   1.339  1.00  0.00     0.117 C   
BRANCH  18  19
ATOM     19  N3  UNL     1      -1.736  -0.401  -0.077  1.00  0.00     0.249 N   
ATOM     20  H12 UNL     1      -2.495  -0.804  -0.633  1.00  0.00     0.199 HD  
ATOM     21  H13 UNL     1      -0.857  -0.687  -0.522  1.00  0.00     0.199 HD  
BRANCH  19  22
ATOM     22  C11 UNL     1      -1.856   1.085  -0.206  1.00  0.00     0.164 C   
BRANCH  22  23
ATOM     23  C12 UNL     1      -1.764   1.496  -1.650  1.00  0.00    -0.002 A   
ATOM     24  C13 UNL     1      -0.590   2.128  -2.135  1.00  0.00     0.012 A   
ATOM     25  C17 UNL     1      -2.826   1.232  -2.534  1.00  0.00     0.045 A   
ATOM     26  C14 UNL     1      -0.473   2.489  -3.481  1.00  0.00     0.037 A   
ATOM     27  C16 UNL     1      -2.675   1.599  -3.856  1.00  0.00     0.109 A   
ATOM     28  C15 UNL     1      -1.532   2.208  -4.317  1.00  0.00     0.108 A   
ATOM     29  O2  UNL     1      -3.598   1.411  -4.837  1.00  0.00    -0.316 OA  
ATOM     30  O3  UNL     1      -1.591   2.479  -5.647  1.00  0.00    -0.316 OA  
ATOM     31  C18 UNL     1      -2.918   2.005  -5.967  1.00  0.00     0.337 C   
ENDBRANCH  22  23
ENDBRANCH  19  22
ENDBRANCH  18  19
BRANCH  18  32
ATOM     32  C19 UNL     1      -1.821  -2.487   1.325  1.00  0.00     0.043 C   
ATOM     33  C20 UNL     1      -1.952  -3.032   2.767  1.00  0.00     0.010 C   
ATOM     34  C24 UNL     1      -2.971  -3.050   0.462  1.00  0.00     0.010 C   
ATOM     35  C21 UNL     1      -2.031  -4.554   2.812  1.00  0.00     0.001 C   
ATOM     36  C23 UNL     1      -3.059  -4.574   0.525  1.00  0.00     0.001 C   
ATOM     37  C22 UNL     1      -3.174  -5.079   1.955  1.00  0.00     0.000 C   
ENDBRANCH  18  32
ENDBRANCH   3  18
TORSDOF 9
