REMARK SMILES Cc1cncc([C@@H](CO)n2cc([C@@H]([NH2+]Cc3ccc4c(c3)OCO4)C3CCCCC3)nn2)c1
REMARK SMILES IDX 10 1 11 2 12 3 31 4 32 5 7 7 6 8 2 9 3 10 33 11 4 12 5 13
REMARK SMILES IDX 1 14 8 15 9 16 13 18 14 19 15 22 16 23 17 24 21 25 18 26
REMARK SMILES IDX 20 27 19 28 22 29 24 30 23 31 25 32 26 33 30 34 27 35 29 36
REMARK SMILES IDX 28 37
REMARK H PARENT 11 6 9 17 14 20 14 21
ROOT
ATOM     1   N2  UNL     1       0.340   0.778   1.911  1.00  0.00    -0.202 N   
ATOM     2   C8  UNL     1       0.658   1.031   0.601  1.00  0.00     0.046 A   
ATOM     3   C9  UNL     1       0.507  -0.188  -0.023  1.00  0.00     0.127 A   
ATOM     4   N4  UNL     1       0.139  -1.127   0.907  1.00  0.00    -0.132 NA  
ATOM     5   N5  UNL     1       0.074  -0.534   2.087  1.00  0.00    -0.075 NA  
ATOM     6   H10 UNL     1       0.954   2.013   0.258  1.00  0.00     0.083 HD  
ENDROOT
BRANCH   1   7
ATOM     7   C6  UNL     1       0.333   1.721   3.033  1.00  0.00     0.157 C   
BRANCH   7   8
ATOM     8   C5  UNL     1      -1.061   1.871   3.603  1.00  0.00    -0.005 A   
ATOM     9   C2  UNL     1      -3.084   3.174   3.939  1.00  0.00    -0.032 A   
ATOM     10  C3  UNL     1      -3.582   2.105   4.672  1.00  0.00     0.114 A   
ATOM     11  C25 UNL     1      -1.796   3.050   3.410  1.00  0.00     0.012 A   
ATOM     12  N1  UNL     1      -2.907   0.955   4.879  1.00  0.00    -0.264 NA  
ATOM     13  C4  UNL     1      -1.674   0.860   4.340  1.00  0.00     0.116 A   
ATOM     14  C1  UNL     1      -3.876   4.433   3.778  1.00  0.00     0.046 C   
ENDBRANCH   7   8
BRANCH   7  15
ATOM     15  C7  UNL     1       1.390   1.348   4.087  1.00  0.00     0.186 C   
BRANCH  15  16
ATOM     16  O1  UNL     1       2.704   1.554   3.559  1.00  0.00    -0.394 OA  
ATOM     17  H9  UNL     1       3.331   1.344   4.276  1.00  0.00     0.210 HD  
ENDBRANCH  15  16
ENDBRANCH   7  15
ENDBRANCH   1   7
BRANCH   3  18
ATOM     18  C10 UNL     1       0.757  -0.624  -1.436  1.00  0.00     0.117 C   
BRANCH  18  19
ATOM     19  N3  UNL     1       1.299  -2.037  -1.389  1.00  0.00     0.249 N   
ATOM     20  H12 UNL     1       1.206  -2.537  -2.275  1.00  0.00     0.199 HD  
ATOM     21  H13 UNL     1       0.704  -2.545  -0.716  1.00  0.00     0.199 HD  
BRANCH  19  22
ATOM     22  C11 UNL     1       2.704  -2.170  -0.913  1.00  0.00     0.164 C   
BRANCH  22  23
ATOM     23  C12 UNL     1       3.026  -3.613  -0.648  1.00  0.00    -0.002 A   
ATOM     24  C13 UNL     1       2.716  -4.184   0.611  1.00  0.00     0.012 A   
ATOM     25  C17 UNL     1       3.572  -4.420  -1.659  1.00  0.00     0.045 A   
ATOM     26  C14 UNL     1       2.957  -5.538   0.865  1.00  0.00     0.037 A   
ATOM     27  C16 UNL     1       3.795  -5.751  -1.376  1.00  0.00     0.109 A   
ATOM     28  C15 UNL     1       3.496  -6.295  -0.150  1.00  0.00     0.108 A   
ATOM     29  O2  UNL     1       4.309  -6.667  -2.238  1.00  0.00    -0.316 OA  
ATOM     30  O3  UNL     1       3.787  -7.620  -0.086  1.00  0.00    -0.316 OA  
ATOM     31  C18 UNL     1       4.312  -7.853  -1.410  1.00  0.00     0.337 C   
ENDBRANCH  22  23
ENDBRANCH  19  22
ENDBRANCH  18  19
BRANCH  18  32
ATOM     32  C19 UNL     1      -0.529  -0.608  -2.317  1.00  0.00     0.043 C   
ATOM     33  C20 UNL     1      -1.251   0.758  -2.317  1.00  0.00     0.010 C   
ATOM     34  C24 UNL     1      -0.272  -0.997  -3.792  1.00  0.00     0.010 C   
ATOM     35  C21 UNL     1      -0.463   1.842  -3.050  1.00  0.00     0.001 C   
ATOM     36  C23 UNL     1       0.522   0.062  -4.556  1.00  0.00     0.001 C   
ATOM     37  C22 UNL     1      -0.149   1.430  -4.485  1.00  0.00     0.000 C   
ENDBRANCH  18  32
ENDBRANCH   3  18
TORSDOF 9
