REMARK SMILES CCc1ccc([C@@H](O)Cn2cc([C@@H]([NH2+]Cc3ccc4c(c3)OCO4)C(C)C)nn2)s1
REMARK SMILES IDX 10 1 11 2 12 3 28 4 29 5 9 7 7 8 6 9 3 10 4 11 30 12 5 13
REMARK SMILES IDX 2 14 1 15 8 16 13 18 14 19 15 22 16 23 17 24 21 25 18 26
REMARK SMILES IDX 20 27 19 28 22 29 24 30 23 31 25 32 26 33 27 34
REMARK H PARENT 11 6 8 17 14 20 14 21
ROOT
ATOM     1   N1  UNL     1       1.101   0.139   3.217  1.00  0.00    -0.209 N   
ATOM     2   C9  UNL     1       2.230  -0.433   2.699  1.00  0.00     0.045 A   
ATOM     3   C10 UNL     1       2.356   0.148   1.459  1.00  0.00     0.127 A   
ATOM     4   N3  UNL     1       1.343   1.053   1.282  1.00  0.00    -0.132 NA  
ATOM     5   N4  UNL     1       0.594   1.051   2.370  1.00  0.00    -0.076 NA  
ATOM     6   H12 UNL     1       2.780  -1.197   3.225  1.00  0.00     0.083 HD  
ENDROOT
BRANCH   1   7
ATOM     7   C8  UNL     1       0.446  -0.130   4.481  1.00  0.00     0.171 C   
BRANCH   7   8
ATOM     8   C7  UNL     1      -0.308  -1.465   4.520  1.00  0.00     0.170 C   
BRANCH   8   9
ATOM     9   C6  UNL     1      -1.232  -1.691   3.353  1.00  0.00     0.020 A   
ATOM     10  C3  UNL     1      -3.140  -1.546   1.781  1.00  0.00    -0.011 A   
ATOM     11  C4  UNL     1      -2.174  -2.433   1.351  1.00  0.00     0.012 A   
ATOM     12  S1  UNL     1      -2.721  -0.843   3.280  1.00  0.00    -0.096 S   
ATOM     13  C5  UNL     1      -1.076  -2.516   2.254  1.00  0.00     0.014 A   
BRANCH  10  14
ATOM     14  C2  UNL     1      -4.429  -1.178   1.109  1.00  0.00     0.039 C   
ATOM     15  C1  UNL     1      -4.223  -0.085   0.069  1.00  0.00     0.009 C   
ENDBRANCH  10  14
ENDBRANCH   8   9
BRANCH   8  16
ATOM     16  O1  UNL     1       0.626  -2.551   4.556  1.00  0.00    -0.386 OA  
ATOM     17  H9  UNL     1       0.110  -3.344   4.795  1.00  0.00     0.211 HD  
ENDBRANCH   8  16
ENDBRANCH   7   8
ENDBRANCH   1   7
BRANCH   3  18
ATOM     18  C11 UNL     1       3.297  -0.107   0.327  1.00  0.00     0.117 C   
BRANCH  18  19
ATOM     19  N2  UNL     1       2.542   0.033  -0.970  1.00  0.00     0.249 N   
ATOM     20  H14 UNL     1       1.893   0.828  -0.838  1.00  0.00     0.199 HD  
ATOM     21  H15 UNL     1       3.143   0.293  -1.756  1.00  0.00     0.199 HD  
BRANCH  19  22
ATOM     22  C12 UNL     1       1.714  -1.148  -1.337  1.00  0.00     0.164 C   
BRANCH  22  23
ATOM     23  C13 UNL     1       0.819  -0.834  -2.501  1.00  0.00    -0.002 A   
ATOM     24  C14 UNL     1       1.305  -0.926  -3.827  1.00  0.00     0.012 A   
ATOM     25  C18 UNL     1      -0.502  -0.408  -2.271  1.00  0.00     0.045 A   
ATOM     26  C15 UNL     1       0.487  -0.598  -4.912  1.00  0.00     0.037 A   
ATOM     27  C17 UNL     1      -1.283  -0.103  -3.366  1.00  0.00     0.109 A   
ATOM     28  C16 UNL     1      -0.801  -0.189  -4.649  1.00  0.00     0.108 A   
ATOM     29  O2  UNL     1      -2.580   0.304  -3.324  1.00  0.00    -0.316 OA  
ATOM     30  O3  UNL     1      -1.728   0.167  -5.577  1.00  0.00    -0.316 OA  
ATOM     31  C19 UNL     1      -2.864   0.462  -4.732  1.00  0.00     0.337 C   
ENDBRANCH  22  23
ENDBRANCH  19  22
ENDBRANCH  18  19
BRANCH  18  32
ATOM     32  C20 UNL     1       4.532   0.828   0.347  1.00  0.00     0.037 C   
ATOM     33  C21 UNL     1       5.610   0.356  -0.636  1.00  0.00     0.014 C   
ATOM     34  C22 UNL     1       4.210   2.303   0.087  1.00  0.00     0.014 C   
ENDBRANCH  18  32
ENDBRANCH   3  18
TORSDOF 10
