REMARK SMILES CCc1ccc([C@H](O)Cn2cc([C@@H]([NH2+]Cc3ccc4c(c3)OCO4)C(C)C)nn2)s1
REMARK SMILES IDX 10 1 11 2 12 3 28 4 29 5 9 7 7 8 6 9 3 10 4 11 30 12 5 13
REMARK SMILES IDX 2 14 1 15 8 16 13 18 14 19 15 22 16 23 17 24 21 25 18 26
REMARK SMILES IDX 20 27 19 28 22 29 24 30 23 31 25 32 26 33 27 34
REMARK H PARENT 11 6 8 17 14 20 14 21
ROOT
ATOM     1   N1  UNL     1      -1.885   0.143   0.305  1.00  0.00    -0.209 N   
ATOM     2   C9  UNL     1      -0.884   0.755  -0.395  1.00  0.00     0.045 A   
ATOM     3   C10 UNL     1       0.219   0.615   0.416  1.00  0.00     0.127 A   
ATOM     4   N3  UNL     1      -0.155  -0.016   1.575  1.00  0.00    -0.132 NA  
ATOM     5   N4  UNL     1      -1.447  -0.280   1.504  1.00  0.00    -0.076 NA  
ATOM     6   H12 UNL     1      -1.042   1.183  -1.373  1.00  0.00     0.083 HD  
ENDROOT
BRANCH   1   7
ATOM     7   C8  UNL     1      -3.260  -0.072  -0.087  1.00  0.00     0.171 C   
BRANCH   7   8
ATOM     8   C7  UNL     1      -3.556  -1.541  -0.390  1.00  0.00     0.170 C   
BRANCH   8   9
ATOM     9   C6  UNL     1      -3.036  -1.962  -1.737  1.00  0.00     0.020 A   
ATOM     10  C3  UNL     1      -1.664  -2.915  -3.564  1.00  0.00    -0.011 A   
ATOM     11  C4  UNL     1      -2.827  -2.334  -4.031  1.00  0.00     0.012 A   
ATOM     12  S1  UNL     1      -1.535  -2.782  -1.864  1.00  0.00    -0.096 S   
ATOM     13  C5  UNL     1      -3.613  -1.781  -2.980  1.00  0.00     0.014 A   
BRANCH  10  14
ATOM     14  C2  UNL     1      -0.603  -3.613  -4.362  1.00  0.00     0.039 C   
ATOM     15  C1  UNL     1       0.329  -2.620  -5.047  1.00  0.00     0.009 C   
ENDBRANCH  10  14
ENDBRANCH   8   9
BRANCH   8  16
ATOM     16  O1  UNL     1      -4.974  -1.722  -0.428  1.00  0.00    -0.386 OA  
ATOM     17  H9  UNL     1      -5.132  -2.680  -0.379  1.00  0.00     0.211 HD  
ENDBRANCH   8  16
ENDBRANCH   7   8
ENDBRANCH   1   7
BRANCH   3  18
ATOM     18  C11 UNL     1       1.643   1.045   0.255  1.00  0.00     0.117 C   
BRANCH  18  19
ATOM     19  N2  UNL     1       2.273   1.192   1.623  1.00  0.00     0.249 N   
ATOM     20  H14 UNL     1       1.900   0.415   2.192  1.00  0.00     0.199 HD  
ATOM     21  H15 UNL     1       3.290   1.070   1.595  1.00  0.00     0.199 HD  
BRANCH  19  22
ATOM     22  C12 UNL     1       1.939   2.451   2.343  1.00  0.00     0.164 C   
BRANCH  22  23
ATOM     23  C13 UNL     1       2.212   2.315   3.815  1.00  0.00    -0.002 A   
ATOM     24  C14 UNL     1       3.507   2.530   4.341  1.00  0.00     0.012 A   
ATOM     25  C18 UNL     1       1.173   1.913   4.676  1.00  0.00     0.045 A   
ATOM     26  C15 UNL     1       3.761   2.382   5.711  1.00  0.00     0.037 A   
ATOM     27  C17 UNL     1       1.453   1.783   6.021  1.00  0.00     0.109 A   
ATOM     28  C16 UNL     1       2.708   2.019   6.527  1.00  0.00     0.108 A   
ATOM     29  O2  UNL     1       0.567   1.418   6.981  1.00  0.00    -0.316 OA  
ATOM     30  O3  UNL     1       2.762   1.851   7.875  1.00  0.00    -0.316 OA  
ATOM     31  C19 UNL     1       1.401   1.461   8.159  1.00  0.00     0.337 C   
ENDBRANCH  22  23
ENDBRANCH  19  22
ENDBRANCH  18  19
BRANCH  18  32
ATOM     32  C20 UNL     1       2.513   0.072  -0.582  1.00  0.00     0.037 C   
ATOM     33  C21 UNL     1       2.616  -1.339   0.011  1.00  0.00     0.014 C   
ATOM     34  C22 UNL     1       2.039  -0.010  -2.037  1.00  0.00     0.014 C   
ENDBRANCH  18  32
ENDBRANCH   3  18
TORSDOF 10
