REMARK SMILES Cc1ccccc1CCn1cc([C@@H]([NH2+]Cc2ccc3c(c2)OCO3)C2CCCCC2)nn1
REMARK SMILES IDX 10 1 11 2 12 3 31 4 32 5 9 7 8 8 7 9 2 10 3 11 4 12 6 13
REMARK SMILES IDX 5 14 1 15 13 16 14 17 15 20 16 21 17 22 21 23 18 24 20 25
REMARK SMILES IDX 19 26 22 27 24 28 23 29 25 30 26 31 30 32 27 33 29 34 28 35
REMARK H PARENT 11 6 14 18 14 19
ROOT
ATOM     1   N1  UNL     1       0.536   1.288  -2.747  1.00  0.00    -0.212 N   
ATOM     2   C10 UNL     1       0.921   1.589  -1.471  1.00  0.00     0.045 A   
ATOM     3   C11 UNL     1       0.905   0.372  -0.828  1.00  0.00     0.127 A   
ATOM     4   N3  UNL     1       0.530  -0.604  -1.716  1.00  0.00    -0.132 NA  
ATOM     5   N4  UNL     1       0.318  -0.032  -2.889  1.00  0.00    -0.076 NA  
ATOM     6   H12 UNL     1       1.125   2.601  -1.150  1.00  0.00     0.083 HD  
ENDROOT
BRANCH   1   7
ATOM     7   C9  UNL     1       0.304   2.200  -3.847  1.00  0.00     0.139 C   
BRANCH   7   8
ATOM     8   C8  UNL     1      -1.174   2.355  -4.209  1.00  0.00     0.057 C   
BRANCH   8   9
ATOM     9   C7  UNL     1      -2.045   2.808  -3.052  1.00  0.00    -0.043 A   
ATOM     10  C2  UNL     1      -2.149   4.157  -2.655  1.00  0.00    -0.048 A   
ATOM     11  C3  UNL     1      -2.963   4.483  -1.557  1.00  0.00     0.004 A   
ATOM     12  C4  UNL     1      -3.674   3.499  -0.868  1.00  0.00     0.000 A   
ATOM     13  C6  UNL     1      -2.772   1.828  -2.347  1.00  0.00     0.004 A   
ATOM     14  C5  UNL     1      -3.582   2.171  -1.266  1.00  0.00     0.000 A   
ATOM     15  C1  UNL     1      -1.445   5.268  -3.385  1.00  0.00     0.044 C   
ENDBRANCH   8   9
ENDBRANCH   7   8
ENDBRANCH   1   7
BRANCH   3  16
ATOM     16  C12 UNL     1       1.144   0.010   0.602  1.00  0.00     0.117 C   
BRANCH  16  17
ATOM     17  N2  UNL     1       0.244  -1.131   0.993  1.00  0.00     0.249 N   
ATOM     18  H14 UNL     1       0.265  -1.802   0.210  1.00  0.00     0.199 HD  
ATOM     19  H15 UNL     1       0.586  -1.638   1.813  1.00  0.00     0.199 HD  
BRANCH  17  20
ATOM     20  C13 UNL     1      -1.181  -0.753   1.207  1.00  0.00     0.164 C   
BRANCH  20  21
ATOM     21  C14 UNL     1      -2.014  -1.968   1.495  1.00  0.00    -0.002 A   
ATOM     22  C15 UNL     1      -2.196  -2.417   2.825  1.00  0.00     0.012 A   
ATOM     23  C19 UNL     1      -2.582  -2.695   0.435  1.00  0.00     0.045 A   
ATOM     24  C16 UNL     1      -2.947  -3.565   3.099  1.00  0.00     0.037 A   
ATOM     25  C18 UNL     1      -3.319  -3.820   0.739  1.00  0.00     0.109 A   
ATOM     26  C17 UNL     1      -3.497  -4.244   2.033  1.00  0.00     0.108 A   
ATOM     27  O1  UNL     1      -3.945  -4.622  -0.162  1.00  0.00    -0.316 OA  
ATOM     28  O2  UNL     1      -4.255  -5.368   2.111  1.00  0.00    -0.316 OA  
ATOM     29  C20 UNL     1      -4.554  -5.596   0.717  1.00  0.00     0.337 C   
ENDBRANCH  20  21
ENDBRANCH  17  20
ENDBRANCH  16  17
BRANCH  16  30
ATOM     30  C21 UNL     1       2.630  -0.340   0.884  1.00  0.00     0.043 C   
ATOM     31  C22 UNL     1       3.109  -1.643   0.214  1.00  0.00     0.010 C   
ATOM     32  C26 UNL     1       2.924  -0.381   2.397  1.00  0.00     0.010 C   
ATOM     33  C23 UNL     1       4.585  -1.914   0.503  1.00  0.00     0.001 C   
ATOM     34  C25 UNL     1       4.400  -0.656   2.679  1.00  0.00     0.001 C   
ATOM     35  C24 UNL     1       4.874  -1.935   2.000  1.00  0.00     0.000 C   
ENDBRANCH  16  30
ENDBRANCH   3  16
TORSDOF 8
