REMARK SMILES Cc1ccsc1[C@@H](CO)n1cc([C@@H]([NH2+]Cc2ccc3c(c2)OCO3)C(C)C)nn1
REMARK SMILES IDX 10 1 11 2 12 3 28 4 29 5 7 7 6 8 2 9 3 10 4 11 5 12 1 13
REMARK SMILES IDX 8 14 9 15 13 17 14 18 15 21 16 22 17 23 21 24 18 25 20 26
REMARK SMILES IDX 19 27 22 28 24 29 23 30 25 31 26 32 27 33
REMARK H PARENT 11 6 9 16 14 19 14 20
ROOT
ATOM     1   N1  UNL     1       0.157  -2.450  -0.826  1.00  0.00    -0.202 N   
ATOM     2   C8  UNL     1       1.335  -1.760  -0.690  1.00  0.00     0.046 A   
ATOM     3   C9  UNL     1       0.964  -0.565  -0.115  1.00  0.00     0.127 A   
ATOM     4   N3  UNL     1      -0.398  -0.556   0.064  1.00  0.00    -0.132 NA  
ATOM     5   N4  UNL     1      -0.880  -1.701  -0.388  1.00  0.00    -0.075 NA  
ATOM     6   H10 UNL     1       2.284  -2.178  -1.004  1.00  0.00     0.083 HD  
ENDROOT
BRANCH   1   7
ATOM     7   C6  UNL     1      -0.035  -3.795  -1.371  1.00  0.00     0.162 C   
BRANCH   7   8
ATOM     8   C5  UNL     1      -0.506  -4.746  -0.284  1.00  0.00     0.017 A   
ATOM     9   C2  UNL     1      -1.776  -5.019   0.219  1.00  0.00    -0.039 A   
ATOM     10  C3  UNL     1      -1.718  -6.005   1.261  1.00  0.00     0.011 A   
ATOM     11  C4  UNL     1      -0.445  -6.454   1.512  1.00  0.00     0.046 A   
ATOM     12  S1  UNL     1       0.701  -5.687   0.516  1.00  0.00    -0.100 S   
ATOM     13  C1  UNL     1      -3.068  -4.407  -0.226  1.00  0.00     0.045 C   
ENDBRANCH   7   8
BRANCH   7  14
ATOM     14  C7  UNL     1      -0.910  -3.786  -2.629  1.00  0.00     0.186 C   
BRANCH  14  15
ATOM     15  O1  UNL     1      -0.179  -3.230  -3.730  1.00  0.00    -0.394 OA  
ATOM     16  H9  UNL     1      -0.705  -3.401  -4.538  1.00  0.00     0.210 HD  
ENDBRANCH  14  15
ENDBRANCH   7  14
ENDBRANCH   1   7
BRANCH   3  17
ATOM     17  C10 UNL     1       1.773   0.622   0.307  1.00  0.00     0.117 C   
BRANCH  17  18
ATOM     18  N2  UNL     1       0.876   1.780   0.656  1.00  0.00     0.249 N   
ATOM     19  H12 UNL     1       0.093   1.383   1.198  1.00  0.00     0.199 HD  
ATOM     20  H13 UNL     1       1.331   2.458   1.275  1.00  0.00     0.199 HD  
BRANCH  18  21
ATOM     21  C11 UNL     1       0.278   2.505  -0.500  1.00  0.00     0.164 C   
BRANCH  21  22
ATOM     22  C12 UNL     1      -0.750   3.490  -0.011  1.00  0.00    -0.002 A   
ATOM     23  C13 UNL     1      -0.398   4.836   0.239  1.00  0.00     0.012 A   
ATOM     24  C17 UNL     1      -2.058   3.050   0.264  1.00  0.00     0.045 A   
ATOM     25  C14 UNL     1      -1.336   5.740   0.752  1.00  0.00     0.037 A   
ATOM     26  C16 UNL     1      -2.957   3.965   0.771  1.00  0.00     0.109 A   
ATOM     27  C15 UNL     1      -2.605   5.271   1.011  1.00  0.00     0.108 A   
ATOM     28  O2  UNL     1      -4.251   3.708   1.100  1.00  0.00    -0.316 OA  
ATOM     29  O3  UNL     1      -3.630   5.998   1.531  1.00  0.00    -0.316 OA  
ATOM     30  C18 UNL     1      -4.688   5.013   1.541  1.00  0.00     0.337 C   
ENDBRANCH  21  22
ENDBRANCH  18  21
ENDBRANCH  17  18
BRANCH  17  31
ATOM     31  C19 UNL     1       2.705   0.294   1.506  1.00  0.00     0.037 C   
ATOM     32  C20 UNL     1       1.954   0.005   2.812  1.00  0.00     0.014 C   
ATOM     33  C21 UNL     1       3.745   1.397   1.738  1.00  0.00     0.014 C   
ENDBRANCH  17  31
ENDBRANCH   3  17
TORSDOF 9
