REMARK SMILES Cc1ccsc1[C@H](CO)n1cc([C@@H]([NH2+]Cc2ccc3c(c2)OCO3)C(C)C)nn1
REMARK SMILES IDX 10 1 11 2 12 3 28 4 29 5 7 7 6 8 2 9 3 10 4 11 5 12 1 13
REMARK SMILES IDX 8 14 9 15 13 17 14 18 15 21 16 22 17 23 21 24 18 25 20 26
REMARK SMILES IDX 19 27 22 28 24 29 23 30 25 31 26 32 27 33
REMARK H PARENT 11 6 9 16 14 19 14 20
ROOT
ATOM     1   N1  UNL     1      -1.338   0.134   2.412  1.00  0.00    -0.202 N   
ATOM     2   C8  UNL     1      -0.745   1.270   1.921  1.00  0.00     0.046 A   
ATOM     3   C9  UNL     1      -0.886   1.163   0.556  1.00  0.00     0.127 A   
ATOM     4   N3  UNL     1      -1.516  -0.019   0.261  1.00  0.00    -0.132 NA  
ATOM     5   N4  UNL     1      -1.781  -0.641   1.398  1.00  0.00    -0.075 NA  
ATOM     6   H10 UNL     1      -0.306   2.015   2.570  1.00  0.00     0.083 HD  
ENDROOT
BRANCH   1   7
ATOM     7   C6  UNL     1      -1.482  -0.256   3.814  1.00  0.00     0.162 C   
BRANCH   7   8
ATOM     8   C5  UNL     1      -0.308  -1.120   4.243  1.00  0.00     0.017 A   
ATOM     9   C2  UNL     1       0.080  -2.403   3.861  1.00  0.00    -0.039 A   
ATOM     10  C3  UNL     1       1.273  -2.808   4.553  1.00  0.00     0.011 A   
ATOM     11  C4  UNL     1       1.744  -1.853   5.421  1.00  0.00     0.046 A   
ATOM     12  S1  UNL     1       0.774  -0.458   5.413  1.00  0.00    -0.100 S   
ATOM     13  C1  UNL     1      -0.599  -3.290   2.866  1.00  0.00     0.045 C   
ENDBRANCH   7   8
BRANCH   7  14
ATOM     14  C7  UNL     1      -2.848  -0.879   4.144  1.00  0.00     0.186 C   
BRANCH  14  15
ATOM     15  O1  UNL     1      -3.854   0.139   4.172  1.00  0.00    -0.394 OA  
ATOM     16  H9  UNL     1      -4.695  -0.297   4.403  1.00  0.00     0.210 HD  
ENDBRANCH  14  15
ENDBRANCH   7  14
ENDBRANCH   1   7
BRANCH   3  17
ATOM     17  C10 UNL     1      -0.430   2.049  -0.558  1.00  0.00     0.117 C   
BRANCH  17  18
ATOM     18  N2  UNL     1      -0.122   1.216  -1.778  1.00  0.00     0.249 N   
ATOM     19  H12 UNL     1      -0.111   1.785  -2.631  1.00  0.00     0.199 HD  
ATOM     20  H13 UNL     1      -0.900   0.548  -1.884  1.00  0.00     0.199 HD  
BRANCH  18  21
ATOM     21  C11 UNL     1       1.133   0.419  -1.703  1.00  0.00     0.164 C   
BRANCH  21  22
ATOM     22  C12 UNL     1       1.277  -0.448  -2.921  1.00  0.00    -0.002 A   
ATOM     23  C13 UNL     1       0.647  -1.715  -2.967  1.00  0.00     0.012 A   
ATOM     24  C17 UNL     1       1.987   0.015  -4.042  1.00  0.00     0.045 A   
ATOM     25  C14 UNL     1       0.732  -2.518  -4.110  1.00  0.00     0.037 A   
ATOM     26  C16 UNL     1       2.050  -0.802  -5.152  1.00  0.00     0.109 A   
ATOM     27  C15 UNL     1       1.441  -2.032  -5.185  1.00  0.00     0.108 A   
ATOM     28  O2  UNL     1       2.692  -0.508  -6.313  1.00  0.00    -0.316 OA  
ATOM     29  O3  UNL     1       1.625  -2.669  -6.371  1.00  0.00    -0.316 OA  
ATOM     30  C18 UNL     1       2.433  -1.705  -7.080  1.00  0.00     0.337 C   
ENDBRANCH  21  22
ENDBRANCH  18  21
ENDBRANCH  17  18
BRANCH  17  31
ATOM     31  C19 UNL     1      -1.452   3.145  -0.959  1.00  0.00     0.037 C   
ATOM     32  C20 UNL     1      -2.813   2.601  -1.410  1.00  0.00     0.014 C   
ATOM     33  C21 UNL     1      -1.650   4.172   0.162  1.00  0.00     0.014 C   
ENDBRANCH  17  31
ENDBRANCH   3  17
TORSDOF 9
