REMARK SMILES OC[C@@H](c1ccc(F)nc1)n1cc([C@@H]([NH2+]Cc2ccc3c(c2)OCO3)C2CCCCC2)nn1
REMARK SMILES IDX 11 1 12 2 13 3 32 4 33 5 3 7 2 8 1 9 4 11 5 12 10 13 6 14
REMARK SMILES IDX 9 15 7 16 8 17 14 18 15 19 16 22 17 23 18 24 22 25 19 26
REMARK SMILES IDX 21 27 20 28 23 29 25 30 24 31 26 32 27 33 31 34 28 35 30 36
REMARK SMILES IDX 29 37
REMARK H PARENT 12 6 1 10 15 20 15 21
ROOT
ATOM     1   N2  UNL     1       0.685   0.310  -2.799  1.00  0.00    -0.202 N   
ATOM     2   C8  UNL     1       0.329   0.651  -1.522  1.00  0.00     0.046 A   
ATOM     3   C9  UNL     1       0.338  -0.542  -0.837  1.00  0.00     0.127 A   
ATOM     4   N4  UNL     1       0.644  -1.556  -1.707  1.00  0.00    -0.132 NA  
ATOM     5   N5  UNL     1       0.854  -1.025  -2.901  1.00  0.00    -0.075 NA  
ATOM     6   H8  UNL     1       0.112   1.671  -1.232  1.00  0.00     0.083 HD  
ENDROOT
BRANCH   1   7
ATOM     7   C2  UNL     1       0.868   1.164  -3.974  1.00  0.00     0.157 C   
BRANCH   7   8
ATOM     8   C1  UNL     1      -0.472   1.400  -4.699  1.00  0.00     0.186 C   
BRANCH   8   9
ATOM     9   O1  UNL     1      -1.462   1.983  -3.849  1.00  0.00    -0.394 OA  
ATOM     10  H1  UNL     1      -2.245   2.162  -4.405  1.00  0.00     0.210 HD  
ENDBRANCH   8   9
ENDBRANCH   7   8
BRANCH   7  11
ATOM     11  C3  UNL     1       1.688   2.394  -3.627  1.00  0.00    -0.005 A   
ATOM     12  C4  UNL     1       3.087   2.305  -3.543  1.00  0.00     0.012 A   
ATOM     13  C7  UNL     1       1.122   3.635  -3.343  1.00  0.00     0.120 A   
ATOM     14  C5  UNL     1       3.838   3.427  -3.203  1.00  0.00     0.061 A   
ATOM     15  N1  UNL     1       1.830   4.734  -3.000  1.00  0.00    -0.228 NA  
ATOM     16  C6  UNL     1       3.169   4.607  -2.945  1.00  0.00     0.212 A   
ATOM     17  F1  UNL     1       3.884   5.689  -2.607  1.00  0.00    -0.185 F   
ENDBRANCH   7  11
ENDBRANCH   1   7
BRANCH   3  18
ATOM     18  C10 UNL     1       0.004  -0.859   0.583  1.00  0.00     0.117 C   
BRANCH  18  19
ATOM     19  N3  UNL     1      -0.756  -2.167   0.657  1.00  0.00     0.249 N   
ATOM     20  H10 UNL     1      -0.777  -2.510   1.622  1.00  0.00     0.199 HD  
ATOM     21  H11 UNL     1      -0.218  -2.845   0.099  1.00  0.00     0.199 HD  
BRANCH  19  22
ATOM     22  C11 UNL     1      -2.144  -2.154   0.108  1.00  0.00     0.164 C   
BRANCH  22  23
ATOM     23  C12 UNL     1      -3.089  -1.320   0.927  1.00  0.00    -0.002 A   
ATOM     24  C13 UNL     1      -3.552  -1.783   2.182  1.00  0.00     0.012 A   
ATOM     25  C17 UNL     1      -3.490  -0.053   0.466  1.00  0.00     0.045 A   
ATOM     26  C14 UNL     1      -4.396  -0.995   2.972  1.00  0.00     0.037 A   
ATOM     27  C16 UNL     1      -4.320   0.699   1.271  1.00  0.00     0.109 A   
ATOM     28  C15 UNL     1      -4.760   0.242   2.489  1.00  0.00     0.108 A   
ATOM     29  O2  UNL     1      -4.789   1.941   0.982  1.00  0.00    -0.316 OA  
ATOM     30  O3  UNL     1      -5.564   1.138   3.119  1.00  0.00    -0.316 OA  
ATOM     31  C18 UNL     1      -5.601   2.206   2.148  1.00  0.00     0.337 C   
ENDBRANCH  22  23
ENDBRANCH  19  22
ENDBRANCH  18  19
BRANCH  18  32
ATOM     32  C19 UNL     1       1.237  -0.957   1.523  1.00  0.00     0.043 C   
ATOM     33  C20 UNL     1       2.261  -2.038   1.125  1.00  0.00     0.010 C   
ATOM     34  C24 UNL     1       1.940   0.407   1.677  1.00  0.00     0.010 C   
ATOM     35  C21 UNL     1       3.426  -2.103   2.113  1.00  0.00     0.001 C   
ATOM     36  C23 UNL     1       3.100   0.335   2.667  1.00  0.00     0.001 C   
ATOM     37  C22 UNL     1       4.103  -0.746   2.279  1.00  0.00     0.000 C   
ENDBRANCH  18  32
ENDBRANCH   3  18
TORSDOF 9
