REMARK SMILES OC[C@H](c1ccc(F)nc1)n1cc([C@@H]([NH2+]Cc2ccc3c(c2)OCO3)C2CCCCC2)nn1
REMARK SMILES IDX 11 1 12 2 13 3 32 4 33 5 3 7 2 8 1 9 4 11 5 12 10 13 6 14
REMARK SMILES IDX 9 15 7 16 8 17 14 18 15 19 16 22 17 23 18 24 22 25 19 26
REMARK SMILES IDX 21 27 20 28 23 29 25 30 24 31 26 32 27 33 31 34 28 35 30 36
REMARK SMILES IDX 29 37
REMARK H PARENT 12 6 1 10 15 20 15 21
ROOT
ATOM     1   N2  UNL     1      -0.387   1.609   2.055  1.00  0.00    -0.202 N   
ATOM     2   C8  UNL     1      -0.585   1.968   0.744  1.00  0.00     0.046 A   
ATOM     3   C9  UNL     1      -0.047   0.923   0.025  1.00  0.00     0.127 A   
ATOM     4   N4  UNL     1       0.514   0.025   0.896  1.00  0.00    -0.132 NA  
ATOM     5   N5  UNL     1       0.298   0.451   2.130  1.00  0.00    -0.075 NA  
ATOM     6   H8  UNL     1      -1.108   2.873   0.462  1.00  0.00     0.083 HD  
ENDROOT
BRANCH   1   7
ATOM     7   C2  UNL     1      -0.966   2.244   3.241  1.00  0.00     0.157 C   
BRANCH   7   8
ATOM     8   C1  UNL     1      -0.072   2.146   4.492  1.00  0.00     0.186 C   
BRANCH   8   9
ATOM     9   O1  UNL     1       1.046   3.025   4.347  1.00  0.00    -0.394 OA  
ATOM     10  H1  UNL     1       1.556   2.987   5.175  1.00  0.00     0.210 HD  
ENDBRANCH   8   9
ENDBRANCH   7   8
BRANCH   7  11
ATOM     11  C3  UNL     1      -2.368   1.711   3.469  1.00  0.00    -0.005 A   
ATOM     12  C4  UNL     1      -3.469   2.577   3.468  1.00  0.00     0.012 A   
ATOM     13  C7  UNL     1      -2.626   0.353   3.668  1.00  0.00     0.120 A   
ATOM     14  C5  UNL     1      -4.753   2.065   3.644  1.00  0.00     0.061 A   
ATOM     15  N1  UNL     1      -3.864  -0.165   3.832  1.00  0.00    -0.228 NA  
ATOM     16  C6  UNL     1      -4.897   0.701   3.817  1.00  0.00     0.212 A   
ATOM     17  F1  UNL     1      -6.131   0.202   3.968  1.00  0.00    -0.185 F   
ENDBRANCH   7  11
ENDBRANCH   1   7
BRANCH   3  18
ATOM     18  C10 UNL     1       0.074   0.699  -1.442  1.00  0.00     0.117 C   
BRANCH  18  19
ATOM     19  N3  UNL     1       1.373  -0.018  -1.742  1.00  0.00     0.249 N   
ATOM     20  H10 UNL     1       1.362  -0.438  -2.677  1.00  0.00     0.199 HD  
ATOM     21  H11 UNL     1       1.448  -0.796  -1.072  1.00  0.00     0.199 HD  
BRANCH  19  22
ATOM     22  C11 UNL     1       2.603   0.810  -1.593  1.00  0.00     0.164 C   
BRANCH  22  23
ATOM     23  C12 UNL     1       3.820   0.023  -1.988  1.00  0.00    -0.002 A   
ATOM     24  C13 UNL     1       4.284   0.047  -3.326  1.00  0.00     0.012 A   
ATOM     25  C17 UNL     1       4.475  -0.785  -1.043  1.00  0.00     0.045 A   
ATOM     26  C14 UNL     1       5.392  -0.716  -3.717  1.00  0.00     0.037 A   
ATOM     27  C16 UNL     1       5.568  -1.520  -1.460  1.00  0.00     0.109 A   
ATOM     28  C15 UNL     1       6.013  -1.486  -2.759  1.00  0.00     0.108 A   
ATOM     29  O2  UNL     1       6.316  -2.341  -0.676  1.00  0.00    -0.316 OA  
ATOM     30  O3  UNL     1       7.097  -2.278  -2.957  1.00  0.00    -0.316 OA  
ATOM     31  C18 UNL     1       7.309  -2.794  -1.625  1.00  0.00     0.337 C   
ENDBRANCH  22  23
ENDBRANCH  19  22
ENDBRANCH  18  19
BRANCH  18  32
ATOM     32  C19 UNL     1      -1.090  -0.088  -2.112  1.00  0.00     0.043 C   
ATOM     33  C20 UNL     1      -2.424   0.690  -2.134  1.00  0.00     0.010 C   
ATOM     34  C24 UNL     1      -1.283  -1.546  -1.650  1.00  0.00     0.010 C   
ATOM     35  C21 UNL     1      -3.348   0.454  -0.942  1.00  0.00     0.001 C   
ATOM     36  C23 UNL     1      -2.202  -1.723  -0.445  1.00  0.00     0.001 C   
ATOM     37  C22 UNL     1      -3.538  -1.026  -0.650  1.00  0.00     0.000 C   
ENDBRANCH  18  32
ENDBRANCH   3  18
TORSDOF 9
