REMARK SMILES O[C@@H](Cn1cc([C@@H]([NH2+]Cc2ccc3c(c2)OCO3)C2CCCC2)nn1)c1ccc(Cl)cc1
REMARK SMILES IDX 4 1 5 2 6 3 24 4 25 5 3 7 2 8 1 9 26 11 27 12 32 13 28 14
REMARK SMILES IDX 31 15 29 16 30 17 7 18 8 19 9 22 10 23 11 24 15 25 12 26
REMARK SMILES IDX 14 27 13 28 16 29 18 30 17 31 19 32 20 33 23 34 21 35 22 36
REMARK H PARENT 5 6 1 10 8 20 8 21
ROOT
ATOM     1   N1  UNL     1       1.857  -1.406   2.036  1.00  0.00    -0.209 N   
ATOM     2   C3  UNL     1       0.630  -1.685   1.503  1.00  0.00     0.045 A   
ATOM     3   C4  UNL     1       0.798  -1.468   0.154  1.00  0.00     0.127 A   
ATOM     4   N3  UNL     1       2.091  -1.079  -0.083  1.00  0.00    -0.132 NA  
ATOM     5   N4  UNL     1       2.729  -1.047   1.076  1.00  0.00    -0.076 NA  
ATOM     6   H5  UNL     1      -0.216  -1.975   2.111  1.00  0.00     0.083 HD  
ENDROOT
BRANCH   1   7
ATOM     7   C2  UNL     1       2.241  -1.405   3.428  1.00  0.00     0.170 C   
BRANCH   7   8
ATOM     8   C1  UNL     1       2.670  -0.026   3.944  1.00  0.00     0.164 C   
BRANCH   8   9
ATOM     9   O1  UNL     1       2.951  -0.132   5.341  1.00  0.00    -0.387 OA  
ATOM     10  H1  UNL     1       3.040   0.773   5.693  1.00  0.00     0.211 HD  
ENDBRANCH   8   9
BRANCH   8  11
ATOM     11  C19 UNL     1       1.625   1.056   3.737  1.00  0.00    -0.018 A   
ATOM     12  C20 UNL     1       0.398   1.023   4.419  1.00  0.00     0.008 A   
ATOM     13  C24 UNL     1       1.875   2.110   2.843  1.00  0.00     0.008 A   
ATOM     14  C21 UNL     1      -0.560   2.017   4.205  1.00  0.00     0.021 A   
ATOM     15  C23 UNL     1       0.918   3.106   2.634  1.00  0.00     0.021 A   
ATOM     16  C22 UNL     1      -0.296   3.054   3.314  1.00  0.00     0.041 A   
ATOM     17  CL1 UNL     1      -1.482   4.267   3.034  1.00  0.00    -0.084 Cl  
ENDBRANCH   8  11
ENDBRANCH   7   8
ENDBRANCH   1   7
BRANCH   3  18
ATOM     18  C5  UNL     1      -0.181  -1.517  -0.973  1.00  0.00     0.117 C   
BRANCH  18  19
ATOM     19  N2  UNL     1       0.069  -0.383  -1.939  1.00  0.00     0.249 N   
ATOM     20  H7  UNL     1       1.062  -0.440  -2.202  1.00  0.00     0.199 HD  
ATOM     21  H8  UNL     1      -0.482  -0.506  -2.792  1.00  0.00     0.199 HD  
BRANCH  19  22
ATOM     22  C6  UNL     1      -0.150   0.999  -1.413  1.00  0.00     0.164 C   
BRANCH  22  23
ATOM     23  C7  UNL     1      -1.572   1.263  -1.005  1.00  0.00    -0.002 A   
ATOM     24  C8  UNL     1      -2.568   1.512  -1.978  1.00  0.00     0.012 A   
ATOM     25  C12 UNL     1      -1.927   1.231   0.355  1.00  0.00     0.045 A   
ATOM     26  C9  UNL     1      -3.898   1.730  -1.603  1.00  0.00     0.037 A   
ATOM     27  C11 UNL     1      -3.246   1.448   0.691  1.00  0.00     0.109 A   
ATOM     28  C10 UNL     1      -4.204   1.693  -0.260  1.00  0.00     0.108 A   
ATOM     29  O2  UNL     1      -3.752   1.442   1.952  1.00  0.00    -0.316 OA  
ATOM     30  O3  UNL     1      -5.435   1.881   0.283  1.00  0.00    -0.316 OA  
ATOM     31  C13 UNL     1      -5.134   1.779   1.691  1.00  0.00     0.337 C   
ENDBRANCH  22  23
ENDBRANCH  19  22
ENDBRANCH  18  19
BRANCH  18  32
ATOM     32  C14 UNL     1      -0.145  -2.874  -1.704  1.00  0.00     0.043 C   
ATOM     33  C15 UNL     1       1.100  -3.172  -2.545  1.00  0.00     0.010 C   
ATOM     34  C18 UNL     1      -1.315  -3.104  -2.677  1.00  0.00     0.010 C   
ATOM     35  C16 UNL     1       0.652  -4.349  -3.397  1.00  0.00     0.001 C   
ATOM     36  C17 UNL     1      -0.766  -3.979  -3.806  1.00  0.00     0.001 C   
ENDBRANCH  18  32
ENDBRANCH   3  18
TORSDOF 9
