REMARK SMILES O[C@H](Cn1cc([C@@H]([NH2+]Cc2ccc3c(c2)OCO3)C2CCCC2)nn1)c1ccc(Cl)cc1
REMARK SMILES IDX 4 1 5 2 6 3 24 4 25 5 3 7 2 8 1 9 26 11 27 12 32 13 28 14
REMARK SMILES IDX 31 15 29 16 30 17 7 18 8 19 9 22 10 23 11 24 15 25 12 26
REMARK SMILES IDX 14 27 13 28 16 29 18 30 17 31 19 32 20 33 23 34 21 35 22 36
REMARK H PARENT 5 6 1 10 8 20 8 21
ROOT
ATOM     1   N1  UNL     1      -1.290  -2.630   1.146  1.00  0.00    -0.209 N   
ATOM     2   C3  UNL     1      -0.545  -1.790   0.368  1.00  0.00     0.045 A   
ATOM     3   C4  UNL     1      -1.091  -0.547   0.605  1.00  0.00     0.127 A   
ATOM     4   N3  UNL     1      -2.148  -0.678   1.469  1.00  0.00    -0.132 NA  
ATOM     5   N4  UNL     1      -2.268  -1.959   1.781  1.00  0.00    -0.076 NA  
ATOM     6   H5  UNL     1       0.284  -2.136  -0.236  1.00  0.00     0.083 HD  
ENDROOT
BRANCH   1   7
ATOM     7   C2  UNL     1      -1.128  -4.053   1.331  1.00  0.00     0.170 C   
BRANCH   7   8
ATOM     8   C1  UNL     1      -0.550  -4.420   2.702  1.00  0.00     0.164 C   
BRANCH   8   9
ATOM     9   O1  UNL     1      -0.437  -5.842   2.782  1.00  0.00    -0.387 OA  
ATOM     10  H1  UNL     1       0.107  -6.051   3.566  1.00  0.00     0.211 HD  
ENDBRANCH   8   9
BRANCH   8  11
ATOM     11  C19 UNL     1       0.810  -3.799   2.958  1.00  0.00    -0.018 A   
ATOM     12  C20 UNL     1       0.940  -2.746   3.877  1.00  0.00     0.008 A   
ATOM     13  C24 UNL     1       1.949  -4.234   2.260  1.00  0.00     0.008 A   
ATOM     14  C21 UNL     1       2.178  -2.134   4.086  1.00  0.00     0.021 A   
ATOM     15  C23 UNL     1       3.186  -3.618   2.467  1.00  0.00     0.021 A   
ATOM     16  C22 UNL     1       3.294  -2.568   3.375  1.00  0.00     0.041 A   
ATOM     17  CL1 UNL     1       4.809  -1.790   3.608  1.00  0.00    -0.084 Cl  
ENDBRANCH   8  11
ENDBRANCH   7   8
ENDBRANCH   1   7
BRANCH   3  18
ATOM     18  C5  UNL     1      -0.744   0.799   0.060  1.00  0.00     0.117 C   
BRANCH  18  19
ATOM     19  N2  UNL     1      -2.007   1.585  -0.231  1.00  0.00     0.249 N   
ATOM     20  H7  UNL     1      -2.543   1.606   0.648  1.00  0.00     0.199 HD  
ATOM     21  H8  UNL     1      -1.778   2.552  -0.474  1.00  0.00     0.199 HD  
BRANCH  19  22
ATOM     22  C6  UNL     1      -2.910   1.031  -1.285  1.00  0.00     0.164 C   
BRANCH  22  23
ATOM     23  C7  UNL     1      -2.281   1.014  -2.651  1.00  0.00    -0.002 A   
ATOM     24  C8  UNL     1      -2.127   2.213  -3.387  1.00  0.00     0.012 A   
ATOM     25  C12 UNL     1      -1.812  -0.195  -3.193  1.00  0.00     0.045 A   
ATOM     26  C9  UNL     1      -1.512   2.210  -4.643  1.00  0.00     0.037 A   
ATOM     27  C11 UNL     1      -1.209  -0.163  -4.433  1.00  0.00     0.109 A   
ATOM     28  C10 UNL     1      -1.063   1.005  -5.138  1.00  0.00     0.108 A   
ATOM     29  O2  UNL     1      -0.696  -1.236  -5.091  1.00  0.00    -0.316 OA  
ATOM     30  O3  UNL     1      -0.447   0.815  -6.332  1.00  0.00    -0.316 OA  
ATOM     31  C13 UNL     1      -0.255  -0.616  -6.319  1.00  0.00     0.337 C   
ENDBRANCH  22  23
ENDBRANCH  19  22
ENDBRANCH  18  19
BRANCH  18  32
ATOM     32  C14 UNL     1       0.111   1.612   1.055  1.00  0.00     0.043 C   
ATOM     33  C15 UNL     1       0.517   3.003   0.555  1.00  0.00     0.010 C   
ATOM     34  C18 UNL     1       1.474   0.976   1.350  1.00  0.00     0.010 C   
ATOM     35  C16 UNL     1       1.756   3.383   1.366  1.00  0.00     0.001 C   
ATOM     36  C17 UNL     1       2.250   2.098   2.024  1.00  0.00     0.001 C   
ENDBRANCH  18  32
ENDBRANCH   3  18
TORSDOF 9
