REMARK SMILES Cc1cc(Cn2cc([C@H](CC(C)C)[NH2+]Cc3ccc4c(c3)OCO4)nn2)cnc1Cl
REMARK SMILES IDX 6 1 7 2 8 3 25 4 26 5 5 7 4 8 2 9 3 10 29 11 28 12 27 13
REMARK SMILES IDX 1 14 30 15 9 16 10 17 11 18 12 19 13 20 14 21 15 24 16 25
REMARK SMILES IDX 17 26 21 27 18 28 20 29 19 30 22 31 24 32 23 33
REMARK H PARENT 7 6 14 22 14 23
ROOT
ATOM     1   N1  UNL     1      -0.361   0.165   2.517  1.00  0.00    -0.208 N   
ATOM     2   C6  UNL     1      -0.589   0.864   1.363  1.00  0.00     0.046 A   
ATOM     3   C7  UNL     1      -1.439   0.050   0.646  1.00  0.00     0.127 A   
ATOM     4   N3  UNL     1      -1.700  -1.084   1.375  1.00  0.00    -0.132 NA  
ATOM     5   N4  UNL     1      -1.040  -0.997   2.518  1.00  0.00    -0.076 NA  
ATOM     6   H7  UNL     1      -0.119   1.815   1.159  1.00  0.00     0.083 HD  
ENDROOT
BRANCH   1   7
ATOM     7   C5  UNL     1       0.481   0.530   3.645  1.00  0.00     0.171 C   
BRANCH   7   8
ATOM     8   C4  UNL     1       1.939   0.476   3.281  1.00  0.00    -0.010 A   
ATOM     9   C2  UNL     1       4.103   1.540   2.979  1.00  0.00    -0.013 A   
ATOM     10  C3  UNL     1       2.749   1.619   3.327  1.00  0.00     0.013 A   
ATOM     11  C22 UNL     1       4.584   0.291   2.593  1.00  0.00     0.131 A   
ATOM     12  N5  UNL     1       3.835  -0.832   2.545  1.00  0.00    -0.244 NA  
ATOM     13  C21 UNL     1       2.538  -0.720   2.894  1.00  0.00     0.118 A   
ATOM     14  C1  UNL     1       4.975   2.759   3.022  1.00  0.00     0.048 C   
ATOM     15  CL1 UNL     1       6.213   0.030   2.110  1.00  0.00    -0.062 Cl  
ENDBRANCH   7   8
ENDBRANCH   1   7
BRANCH   3  16
ATOM     16  C8  UNL     1      -2.023   0.183  -0.725  1.00  0.00     0.114 C   
BRANCH  16  17
ATOM     17  C9  UNL     1      -3.335   0.989  -0.702  1.00  0.00     0.064 C   
BRANCH  17  18
ATOM     18  C10 UNL     1      -3.956   1.287  -2.084  1.00  0.00    -0.012 C   
ATOM     19  C11 UNL     1      -3.043   2.150  -2.959  1.00  0.00     0.007 C   
ATOM     20  C12 UNL     1      -5.303   1.992  -1.899  1.00  0.00     0.007 C   
ENDBRANCH  17  18
ENDBRANCH  16  17
BRANCH  16  21
ATOM     21  N2  UNL     1      -2.294  -1.199  -1.280  1.00  0.00     0.249 N   
ATOM     22  H18 UNL     1      -2.108  -1.855  -0.502  1.00  0.00     0.199 HD  
ATOM     23  H19 UNL     1      -3.291  -1.327  -1.481  1.00  0.00     0.199 HD  
BRANCH  21  24
ATOM     24  C13 UNL     1      -1.475  -1.623  -2.448  1.00  0.00     0.164 C   
BRANCH  24  25
ATOM     25  C14 UNL     1       0.007  -1.619  -2.187  1.00  0.00    -0.002 A   
ATOM     26  C15 UNL     1       0.851  -0.732  -2.900  1.00  0.00     0.012 A   
ATOM     27  C19 UNL     1       0.567  -2.485  -1.230  1.00  0.00     0.045 A   
ATOM     28  C16 UNL     1       2.228  -0.695  -2.656  1.00  0.00     0.037 A   
ATOM     29  C18 UNL     1       1.929  -2.427  -1.019  1.00  0.00     0.109 A   
ATOM     30  C17 UNL     1       2.737  -1.557  -1.710  1.00  0.00     0.108 A   
ATOM     31  O1  UNL     1       2.624  -3.192  -0.137  1.00  0.00    -0.316 OA  
ATOM     32  O2  UNL     1       4.043  -1.667  -1.356  1.00  0.00    -0.316 OA  
ATOM     33  C20 UNL     1       3.977  -2.743  -0.392  1.00  0.00     0.337 C   
ENDBRANCH  24  25
ENDBRANCH  21  24
ENDBRANCH  16  21
ENDBRANCH   3  16
TORSDOF 8
