REMARK SMILES COc1ccnc(CCn2cc([C@@H]([NH2+]Cc3ccc4c(c3)OCO4)C(C)C)nn2)c1
REMARK SMILES IDX 10 1 11 2 12 3 28 4 29 5 9 7 8 8 7 9 3 10 4 11 30 12 5 13
REMARK SMILES IDX 6 14 2 15 1 16 13 17 14 18 15 21 16 22 17 23 21 24 18 25
REMARK SMILES IDX 20 26 19 27 22 28 24 29 23 30 25 31 26 32 27 33
REMARK H PARENT 11 6 14 19 14 20
ROOT
ATOM     1   N2  UNL     1       1.228  -2.040  -0.846  1.00  0.00    -0.212 N   
ATOM     2   C8  UNL     1       0.343  -2.096   0.192  1.00  0.00     0.045 A   
ATOM     3   C9  UNL     1      -0.841  -2.465  -0.402  1.00  0.00     0.127 A   
ATOM     4   N4  UNL     1      -0.636  -2.643  -1.747  1.00  0.00    -0.132 NA  
ATOM     5   N5  UNL     1       0.634  -2.380  -2.006  1.00  0.00    -0.076 NA  
ATOM     6   H10 UNL     1       0.621  -1.827   1.202  1.00  0.00     0.083 HD  
ENDROOT
BRANCH   1   7
ATOM     7   C7  UNL     1       2.617  -1.631  -0.818  1.00  0.00     0.140 C   
BRANCH   7   8
ATOM     8   C6  UNL     1       2.849  -0.280  -1.494  1.00  0.00     0.077 C   
BRANCH   8   9
ATOM     9   C5  UNL     1       2.137   0.873  -0.825  1.00  0.00     0.045 A   
ATOM     10  C2  UNL     1       1.153   3.057  -0.929  1.00  0.00     0.078 A   
ATOM     11  C3  UNL     1       0.953   2.992   0.445  1.00  0.00     0.053 A   
ATOM     12  C22 UNL     1       1.764   1.988  -1.576  1.00  0.00     0.057 A   
ATOM     13  C4  UNL     1       1.364   1.860   1.118  1.00  0.00     0.114 A   
ATOM     14  N1  UNL     1       1.936   0.796   0.513  1.00  0.00    -0.261 NA  
BRANCH  10  15
ATOM     15  O1  UNL     1       0.708   4.205  -1.518  1.00  0.00    -0.349 OA  
ATOM     16  C1  UNL     1       0.993   4.382  -2.902  1.00  0.00     0.203 C   
ENDBRANCH  10  15
ENDBRANCH   8   9
ENDBRANCH   7   8
ENDBRANCH   1   7
BRANCH   3  17
ATOM     17  C10 UNL     1      -2.219  -2.586   0.162  1.00  0.00     0.117 C   
BRANCH  17  18
ATOM     18  N3  UNL     1      -3.242  -2.080  -0.829  1.00  0.00     0.249 N   
ATOM     19  H12 UNL     1      -3.064  -2.583  -1.708  1.00  0.00     0.199 HD  
ATOM     20  H13 UNL     1      -4.189  -2.314  -0.523  1.00  0.00     0.199 HD  
BRANCH  18  21
ATOM     21  C11 UNL     1      -3.182  -0.621  -1.151  1.00  0.00     0.164 C   
BRANCH  21  22
ATOM     22  C12 UNL     1      -3.502   0.258   0.027  1.00  0.00    -0.002 A   
ATOM     23  C13 UNL     1      -4.835   0.399   0.478  1.00  0.00     0.012 A   
ATOM     24  C17 UNL     1      -2.465   0.921   0.708  1.00  0.00     0.045 A   
ATOM     25  C14 UNL     1      -5.134   1.189   1.593  1.00  0.00     0.037 A   
ATOM     26  C16 UNL     1      -2.793   1.689   1.805  1.00  0.00     0.109 A   
ATOM     27  C15 UNL     1      -4.091   1.820   2.234  1.00  0.00     0.108 A   
ATOM     28  O2  UNL     1      -1.916   2.384   2.578  1.00  0.00    -0.316 OA  
ATOM     29  O3  UNL     1      -4.197   2.619   3.327  1.00  0.00    -0.316 OA  
ATOM     30  C18 UNL     1      -2.819   3.001   3.525  1.00  0.00     0.337 C   
ENDBRANCH  21  22
ENDBRANCH  18  21
ENDBRANCH  17  18
BRANCH  17  31
ATOM     31  C19 UNL     1      -2.558  -4.037   0.596  1.00  0.00     0.037 C   
ATOM     32  C20 UNL     1      -3.821  -4.082   1.465  1.00  0.00     0.014 C   
ATOM     33  C21 UNL     1      -2.700  -5.028  -0.565  1.00  0.00     0.014 C   
ENDBRANCH  17  31
ENDBRANCH   3  17
TORSDOF 9
