REMARK SMILES Fc1ccnc(F)c1-n1cc([C@@H]([NH2+]Cc2ccc3c(c2)OCO3)C2CCCCC2)nn1
REMARK SMILES IDX 12 1 11 2 9 3 10 4 31 5 30 6 8 7 2 8 3 9 4 10 6 11 5 12 1 13
REMARK SMILES IDX 7 14 13 15 14 18 15 19 16 20 20 21 17 22 19 23 18 24 21 25
REMARK SMILES IDX 23 26 22 27 24 28 25 29 29 30 26 31 28 32 27 33
REMARK H PARENT 13 16 13 17
ROOT
ATOM     1   C8  UNL     1       0.585   0.664   0.654  1.00  0.00     0.117 C   
ENDROOT
BRANCH   1   2
ATOM     2   C7  UNL     1       0.423  -0.565  -0.184  1.00  0.00     0.127 A   
ATOM     3   N2  UNL     1      -0.196  -2.144  -1.581  1.00  0.00    -0.173 N   
ATOM     4   C6  UNL     1      -0.225  -0.773  -1.381  1.00  0.00     0.135 A   
ATOM     5   N5  UNL     1       0.505  -2.702  -0.560  1.00  0.00    -0.071 NA  
ATOM     6   N4  UNL     1       0.870  -1.761   0.292  1.00  0.00    -0.131 NA  
BRANCH   3   7
ATOM     7   C5  UNL     1      -0.782  -2.914  -2.602  1.00  0.00     0.148 A   
ATOM     8   C1  UNL     1      -1.500  -2.343  -3.649  1.00  0.00     0.152 A   
ATOM     9   C2  UNL     1      -2.073  -3.128  -4.642  1.00  0.00     0.061 A   
ATOM     10  C3  UNL     1      -1.912  -4.493  -4.554  1.00  0.00     0.117 A   
ATOM     11  C4  UNL     1      -0.679  -4.296  -2.606  1.00  0.00     0.239 A   
ATOM     12  N1  UNL     1      -1.230  -5.088  -3.556  1.00  0.00    -0.226 NA  
ATOM     13  F1  UNL     1      -1.667  -1.018  -3.747  1.00  0.00    -0.205 F   
ATOM     14  F2  UNL     1      -0.015  -4.944  -1.639  1.00  0.00    -0.183 F   
ENDBRANCH   3   7
ENDBRANCH   1   2
BRANCH   1  15
ATOM     15  N3  UNL     1       0.382   0.312   2.112  1.00  0.00     0.249 N   
ATOM     16  H5  UNL     1       0.999   0.862   2.716  1.00  0.00     0.199 HD  
ATOM     17  H6  UNL     1       0.691  -0.668   2.212  1.00  0.00     0.199 HD  
BRANCH  15  18
ATOM     18  C9  UNL     1      -1.015   0.415   2.636  1.00  0.00     0.164 C   
BRANCH  18  19
ATOM     19  C10 UNL     1      -2.008  -0.452   1.912  1.00  0.00    -0.002 A   
ATOM     20  C11 UNL     1      -1.996  -1.857   2.088  1.00  0.00     0.012 A   
ATOM     21  C15 UNL     1      -2.912   0.120   0.999  1.00  0.00     0.045 A   
ATOM     22  C12 UNL     1      -2.849  -2.683   1.348  1.00  0.00     0.037 A   
ATOM     23  C14 UNL     1      -3.737  -0.724   0.284  1.00  0.00     0.109 A   
ATOM     24  C13 UNL     1      -3.703  -2.086   0.450  1.00  0.00     0.108 A   
ATOM     25  O1  UNL     1      -4.636  -0.337  -0.658  1.00  0.00    -0.316 OA  
ATOM     26  O2  UNL     1      -4.577  -2.728  -0.368  1.00  0.00    -0.316 OA  
ATOM     27  C16 UNL     1      -5.210  -1.611  -1.028  1.00  0.00     0.337 C   
ENDBRANCH  18  19
ENDBRANCH  15  18
ENDBRANCH   1  15
BRANCH   1  28
ATOM     28  C17 UNL     1       1.960   1.353   0.439  1.00  0.00     0.043 C   
ATOM     29  C18 UNL     1       1.973   2.773   1.042  1.00  0.00     0.010 C   
ATOM     30  C22 UNL     1       3.166   0.541   0.952  1.00  0.00     0.010 C   
ATOM     31  C19 UNL     1       3.298   3.488   0.785  1.00  0.00     0.001 C   
ATOM     32  C21 UNL     1       4.486   1.268   0.699  1.00  0.00     0.001 C   
ATOM     33  C20 UNL     1       4.482   2.672   1.293  1.00  0.00     0.000 C   
ENDBRANCH   1  28
TORSDOF 6
