REMARK SMILES O=C(Cn1cc([C@@H]([NH2+]Cc2ccc3c(c2)OCO3)C2CCCCC2)nn1)c1cccc(Cl)c1
REMARK SMILES IDX 4 1 5 2 6 3 25 4 26 5 3 7 2 8 1 9 27 10 28 11 33 12 29 13
REMARK SMILES IDX 31 14 30 15 32 16 7 17 8 18 9 21 10 22 11 23 15 24 12 25
REMARK SMILES IDX 14 26 13 27 16 28 18 29 17 30 19 31 20 32 24 33 21 34 23 35
REMARK SMILES IDX 22 36
REMARK H PARENT 5 6 8 19 8 20
ROOT
ATOM     1   N1  UNL     1      -1.512  -0.629   0.881  1.00  0.00    -0.204 N   
ATOM     2   C3  UNL     1      -0.662   0.324   1.368  1.00  0.00     0.046 A   
ATOM     3   C4  UNL     1       0.576  -0.278   1.335  1.00  0.00     0.127 A   
ATOM     4   N3  UNL     1       0.436  -1.544   0.818  1.00  0.00    -0.132 NA  
ATOM     5   N4  UNL     1      -0.844  -1.745   0.548  1.00  0.00    -0.076 NA  
ATOM     6   H3  UNL     1      -1.013   1.303   1.665  1.00  0.00     0.083 HD  
ENDROOT
BRANCH   1   7
ATOM     7   C2  UNL     1      -2.946  -0.560   0.737  1.00  0.00     0.214 C   
BRANCH   7   8
ATOM     8   C1  UNL     1      -3.319   0.256  -0.470  1.00  0.00     0.182 C   
ATOM     9   O1  UNL     1      -3.199   1.481  -0.462  1.00  0.00    -0.292 OA  
BRANCH   8  10
ATOM     10  C20 UNL     1      -3.845  -0.423  -1.686  1.00  0.00     0.021 A   
ATOM     11  C21 UNL     1      -3.564  -1.763  -1.977  1.00  0.00     0.012 A   
ATOM     12  C25 UNL     1      -4.634   0.327  -2.569  1.00  0.00     0.032 A   
ATOM     13  C22 UNL     1      -4.092  -2.354  -3.128  1.00  0.00     0.002 A   
ATOM     14  C24 UNL     1      -5.153  -0.271  -3.715  1.00  0.00     0.041 A   
ATOM     15  C23 UNL     1      -4.890  -1.609  -3.995  1.00  0.00     0.020 A   
ATOM     16  CL1 UNL     1      -6.127   0.648  -4.793  1.00  0.00    -0.084 Cl  
ENDBRANCH   8  10
ENDBRANCH   7   8
ENDBRANCH   1   7
BRANCH   3  17
ATOM     17  C5  UNL     1       1.957   0.186   1.681  1.00  0.00     0.117 C   
BRANCH  17  18
ATOM     18  N2  UNL     1       2.850   0.051   0.466  1.00  0.00     0.249 N   
ATOM     19  H5  UNL     1       2.623  -0.873   0.068  1.00  0.00     0.199 HD  
ATOM     20  H6  UNL     1       3.823  -0.018   0.779  1.00  0.00     0.199 HD  
BRANCH  18  21
ATOM     21  C6  UNL     1       2.763   1.043  -0.645  1.00  0.00     0.164 C   
BRANCH  21  22
ATOM     22  C7  UNL     1       1.597   0.869  -1.572  1.00  0.00    -0.002 A   
ATOM     23  C8  UNL     1       0.547   1.817  -1.589  1.00  0.00     0.012 A   
ATOM     24  C12 UNL     1       1.554  -0.222  -2.460  1.00  0.00     0.045 A   
ATOM     25  C9  UNL     1      -0.524   1.690  -2.479  1.00  0.00     0.037 A   
ATOM     26  C11 UNL     1       0.487  -0.312  -3.329  1.00  0.00     0.109 A   
ATOM     27  C10 UNL     1      -0.522   0.618  -3.341  1.00  0.00     0.108 A   
ATOM     28  O2  UNL     1       0.309  -1.280  -4.261  1.00  0.00    -0.316 OA  
ATOM     29  O3  UNL     1      -1.461   0.354  -4.284  1.00  0.00    -0.316 OA  
ATOM     30  C13 UNL     1      -0.902  -0.822  -4.903  1.00  0.00     0.337 C   
ENDBRANCH  21  22
ENDBRANCH  18  21
ENDBRANCH  17  18
BRANCH  17  31
ATOM     31  C14 UNL     1       2.082   1.577   2.364  1.00  0.00     0.043 C   
ATOM     32  C15 UNL     1       3.541   2.047   2.575  1.00  0.00     0.010 C   
ATOM     33  C19 UNL     1       1.371   1.629   3.741  1.00  0.00     0.010 C   
ATOM     34  C16 UNL     1       4.283   1.237   3.635  1.00  0.00     0.001 C   
ATOM     35  C18 UNL     1       2.093   0.833   4.828  1.00  0.00     0.001 C   
ATOM     36  C17 UNL     1       3.548   1.261   4.971  1.00  0.00     0.000 C   
ENDBRANCH  17  31
ENDBRANCH   3  17
TORSDOF 8
