REMARK SMILES c1ccc2[nH]c(-n3cc([C@@H]([NH2+]Cc4ccc5c(c4)OCO5)C4CCCCC4)nn3)nc2c1
REMARK SMILES IDX 10 1 9 2 7 3 8 4 29 5 28 6 6 7 1 8 2 9 32 10 3 11 31 12 4 13
REMARK SMILES IDX 30 14 5 15 11 17 12 20 13 21 14 22 18 23 15 24 17 25 16 26
REMARK SMILES IDX 19 27 21 28 20 29 22 30 23 31 27 32 24 33 26 34 25 35
REMARK H PARENT 5 16 11 18 11 19
ROOT
ATOM     1   C8  UNL     1       1.307  -0.101   0.479  1.00  0.00     0.117 C   
ENDROOT
BRANCH   1   2
ATOM     2   C7  UNL     1       1.380   0.644  -0.818  1.00  0.00     0.128 A   
ATOM     3   N2  UNL     1       1.893   1.841  -2.561  1.00  0.00    -0.149 N   
ATOM     4   C6  UNL     1       2.430   1.298  -1.419  1.00  0.00     0.138 A   
ATOM     5   N5  UNL     1       0.578   1.528  -2.647  1.00  0.00    -0.068 NA  
ATOM     6   N4  UNL     1       0.256   0.798  -1.588  1.00  0.00    -0.131 NA  
BRANCH   3   7
ATOM     7   C5  UNL     1       2.481   2.645  -3.517  1.00  0.00     0.212 A   
ATOM     8   C1  UNL     1       4.896   5.317  -6.205  1.00  0.00     0.002 A   
ATOM     9   C2  UNL     1       3.704   5.334  -6.936  1.00  0.00     0.002 A   
ATOM     10  C24 UNL     1       4.999   4.579  -5.018  1.00  0.00     0.030 A   
ATOM     11  C3  UNL     1       2.576   4.620  -6.511  1.00  0.00     0.026 A   
ATOM     12  C23 UNL     1       3.880   3.858  -4.577  1.00  0.00     0.088 A   
ATOM     13  C4  UNL     1       2.704   3.897  -5.325  1.00  0.00     0.059 A   
ATOM     14  N6  UNL     1       3.727   3.070  -3.459  1.00  0.00    -0.215 NA  
ATOM     15  N1  UNL     1       1.825   3.110  -4.624  1.00  0.00    -0.284 N   
ATOM     16  H4  UNL     1       0.865   2.913  -4.873  1.00  0.00     0.156 HD  
ENDBRANCH   3   7
ENDBRANCH   1   2
BRANCH   1  17
ATOM     17  N3  UNL     1      -0.058   0.038   1.097  1.00  0.00     0.249 N   
ATOM     18  H7  UNL     1      -0.753  -0.171   0.365  1.00  0.00     0.199 HD  
ATOM     19  H8  UNL     1      -0.208  -0.652   1.839  1.00  0.00     0.199 HD  
BRANCH  17  20
ATOM     20  C9  UNL     1      -0.376   1.390   1.636  1.00  0.00     0.164 C   
BRANCH  20  21
ATOM     21  C10 UNL     1      -1.729   1.387   2.289  1.00  0.00    -0.002 A   
ATOM     22  C11 UNL     1      -2.893   1.649   1.522  1.00  0.00     0.012 A   
ATOM     23  C15 UNL     1      -1.855   1.070   3.652  1.00  0.00     0.045 A   
ATOM     24  C12 UNL     1      -4.162   1.605   2.107  1.00  0.00     0.037 A   
ATOM     25  C14 UNL     1      -3.122   1.036   4.196  1.00  0.00     0.109 A   
ATOM     26  C13 UNL     1      -4.243   1.294   3.447  1.00  0.00     0.108 A   
ATOM     27  O1  UNL     1      -3.417   0.747   5.491  1.00  0.00    -0.316 OA  
ATOM     28  O2  UNL     1      -5.386   1.198   4.174  1.00  0.00    -0.316 OA  
ATOM     29  C16 UNL     1      -4.858   0.868   5.477  1.00  0.00     0.337 C   
ENDBRANCH  20  21
ENDBRANCH  17  20
ENDBRANCH   1  17
BRANCH   1  30
ATOM     30  C17 UNL     1       1.685  -1.600   0.316  1.00  0.00     0.043 C   
ATOM     31  C18 UNL     1       1.962  -2.269   1.678  1.00  0.00     0.010 C   
ATOM     32  C22 UNL     1       0.652  -2.427  -0.478  1.00  0.00     0.010 C   
ATOM     33  C19 UNL     1       2.404  -3.723   1.514  1.00  0.00     0.001 C   
ATOM     34  C21 UNL     1       1.097  -3.880  -0.635  1.00  0.00     0.001 C   
ATOM     35  C20 UNL     1       1.384  -4.529   0.715  1.00  0.00     0.000 C   
ENDBRANCH   1  30
TORSDOF 6
