REMARK SMILES Cn1cnc2cc(Cn3cc([C@@H]([NH2+]Cc4ccc5c(c4)OCO5)C4CCCC4)nn3)ccc21
REMARK SMILES IDX 9 1 10 2 11 3 29 4 30 5 8 7 7 8 2 9 3 10 33 11 4 12 5 13
REMARK SMILES IDX 32 14 6 15 31 16 1 17 12 18 13 19 14 22 15 23 16 24 20 25
REMARK SMILES IDX 17 26 19 27 18 28 21 29 23 30 22 31 24 32 25 33 28 34 26 35
REMARK SMILES IDX 27 36
REMARK H PARENT 10 6 13 20 13 21
ROOT
ATOM     1   N3  UNL     1      -2.566  -0.371   2.143  1.00  0.00    -0.208 N   
ATOM     2   C7  UNL     1      -1.735  -1.030   1.275  1.00  0.00     0.046 A   
ATOM     3   C8  UNL     1      -0.473  -0.645   1.669  1.00  0.00     0.127 A   
ATOM     4   N5  UNL     1      -0.571   0.146   2.784  1.00  0.00    -0.132 NA  
ATOM     5   N6  UNL     1      -1.853   0.293   3.073  1.00  0.00    -0.076 NA  
ATOM     6   H8  UNL     1      -2.111  -1.594   0.432  1.00  0.00     0.083 HD  
ENDROOT
BRANCH   1   7
ATOM     7   C6  UNL     1      -3.994  -0.129   1.990  1.00  0.00     0.169 C   
BRANCH   7   8
ATOM     8   C5  UNL     1      -4.232   0.710   0.752  1.00  0.00    -0.026 A   
ATOM     9   N1  UNL     1      -4.341   3.117  -2.586  1.00  0.00    -0.293 N   
ATOM     10  C2  UNL     1      -3.612   4.160  -2.087  1.00  0.00     0.189 A   
ATOM     11  C25 UNL     1      -4.451   2.165  -1.603  1.00  0.00     0.059 A   
ATOM     12  N2  UNL     1      -3.247   3.947  -0.842  1.00  0.00    -0.239 NA  
ATOM     13  C3  UNL     1      -3.782   2.727  -0.520  1.00  0.00     0.086 A   
ATOM     14  C24 UNL     1      -5.043   0.898  -1.552  1.00  0.00     0.026 A   
ATOM     15  C4  UNL     1      -3.695   2.012   0.682  1.00  0.00     0.035 A   
ATOM     16  C23 UNL     1      -4.911   0.179  -0.356  1.00  0.00     0.007 A   
ATOM     17  C1  UNL     1      -4.873   3.037  -3.923  1.00  0.00     0.137 C   
ENDBRANCH   7   8
ENDBRANCH   1   7
BRANCH   3  18
ATOM     18  C9  UNL     1       0.846  -0.826   0.997  1.00  0.00     0.117 C   
BRANCH  18  19
ATOM     19  N4  UNL     1       1.575   0.500   0.912  1.00  0.00     0.249 N   
ATOM     20  H10 UNL     1       1.632   0.862   1.874  1.00  0.00     0.199 HD  
ATOM     21  H11 UNL     1       2.532   0.354   0.581  1.00  0.00     0.199 HD  
BRANCH  19  22
ATOM     22  C10 UNL     1       0.924   1.570   0.089  1.00  0.00     0.164 C   
BRANCH  22  23
ATOM     23  C11 UNL     1       0.765   1.200  -1.361  1.00  0.00    -0.002 A   
ATOM     24  C12 UNL     1       1.896   1.053  -2.199  1.00  0.00     0.012 A   
ATOM     25  C16 UNL     1      -0.520   0.982  -1.891  1.00  0.00     0.045 A   
ATOM     26  C13 UNL     1       1.751   0.686  -3.543  1.00  0.00     0.037 A   
ATOM     27  C15 UNL     1      -0.629   0.625  -3.219  1.00  0.00     0.109 A   
ATOM     28  C14 UNL     1       0.475   0.479  -4.021  1.00  0.00     0.108 A   
ATOM     29  O1  UNL     1      -1.790   0.380  -3.882  1.00  0.00    -0.316 OA  
ATOM     30  O2  UNL     1       0.150   0.124  -5.291  1.00  0.00    -0.316 OA  
ATOM     31  C17 UNL     1      -1.290   0.086  -5.206  1.00  0.00     0.337 C   
ENDBRANCH  22  23
ENDBRANCH  19  22
ENDBRANCH  18  19
BRANCH  18  32
ATOM     32  C18 UNL     1       1.787  -1.846   1.667  1.00  0.00     0.043 C   
ATOM     33  C19 UNL     1       2.283  -1.517   3.082  1.00  0.00     0.010 C   
ATOM     34  C22 UNL     1       1.203  -3.252   1.814  1.00  0.00     0.010 C   
ATOM     35  C20 UNL     1       2.597  -2.865   3.738  1.00  0.00     0.001 C   
ATOM     36  C21 UNL     1       2.213  -3.936   2.723  1.00  0.00     0.001 C   
ENDBRANCH  18  32
ENDBRANCH   3  18
TORSDOF 7
