REMARK SMILES Cc1cc(Cl)cnc1Cn1cc([C@@H]([NH2+]Cc2ccc3c(c2)OCO3)C(C)C)nn1
REMARK SMILES IDX 10 1 11 2 12 3 28 4 29 5 9 7 8 8 2 9 3 10 4 11 7 12 6 13
REMARK SMILES IDX 1 14 5 15 13 16 14 17 15 20 16 21 17 22 21 23 18 24 20 25
REMARK SMILES IDX 19 26 22 27 24 28 23 29 25 30 26 31 27 32
REMARK H PARENT 11 6 14 18 14 19
ROOT
ATOM     1   N2  UNL     1       0.913   2.739  -0.871  1.00  0.00    -0.206 N   
ATOM     2   C8  UNL     1       0.332   1.919  -1.802  1.00  0.00     0.046 A   
ATOM     3   C9  UNL     1      -0.557   1.163  -1.073  1.00  0.00     0.127 A   
ATOM     4   N4  UNL     1      -0.499   1.547   0.244  1.00  0.00    -0.132 NA  
ATOM     5   N5  UNL     1       0.401   2.510   0.355  1.00  0.00    -0.076 NA  
ATOM     6   H8  UNL     1       0.617   1.945  -2.845  1.00  0.00     0.083 HD  
ENDROOT
BRANCH   1   7
ATOM     7   C7  UNL     1       1.921   3.761  -1.081  1.00  0.00     0.190 C   
BRANCH   7   8
ATOM     8   C6  UNL     1       3.291   3.137  -1.161  1.00  0.00     0.063 A   
ATOM     9   C2  UNL     1       4.167   3.089  -0.064  1.00  0.00    -0.026 A   
ATOM     10  C3  UNL     1       5.419   2.482  -0.248  1.00  0.00     0.027 A   
ATOM     11  C4  UNL     1       5.759   1.948  -1.484  1.00  0.00     0.059 A   
ATOM     12  N1  UNL     1       3.612   2.601  -2.373  1.00  0.00    -0.258 NA  
ATOM     13  C5  UNL     1       4.835   2.031  -2.508  1.00  0.00     0.131 A   
ATOM     14  C1  UNL     1       3.821   3.671   1.276  1.00  0.00     0.046 C   
ATOM     15  CL1 UNL     1       7.282   1.197  -1.727  1.00  0.00    -0.083 Cl  
ENDBRANCH   7   8
ENDBRANCH   1   7
BRANCH   3  16
ATOM     16  C10 UNL     1      -1.470   0.050  -1.480  1.00  0.00     0.117 C   
BRANCH  16  17
ATOM     17  N3  UNL     1      -1.764  -0.840  -0.303  1.00  0.00     0.249 N   
ATOM     18  H10 UNL     1      -1.946  -0.218   0.499  1.00  0.00     0.199 HD  
ATOM     19  H11 UNL     1      -2.615  -1.393  -0.437  1.00  0.00     0.199 HD  
BRANCH  17  20
ATOM     20  C11 UNL     1      -0.654  -1.750   0.095  1.00  0.00     0.164 C   
BRANCH  20  21
ATOM     21  C12 UNL     1      -1.014  -2.495   1.348  1.00  0.00    -0.002 A   
ATOM     22  C13 UNL     1      -0.762  -1.915   2.615  1.00  0.00     0.012 A   
ATOM     23  C17 UNL     1      -1.654  -3.744   1.272  1.00  0.00     0.045 A   
ATOM     24  C14 UNL     1      -1.131  -2.575   3.792  1.00  0.00     0.037 A   
ATOM     25  C16 UNL     1      -2.004  -4.366   2.453  1.00  0.00     0.109 A   
ATOM     26  C15 UNL     1      -1.750  -3.799   3.677  1.00  0.00     0.108 A   
ATOM     27  O1  UNL     1      -2.626  -5.570   2.556  1.00  0.00    -0.316 OA  
ATOM     28  O2  UNL     1      -2.178  -4.576   4.706  1.00  0.00    -0.316 OA  
ATOM     29  C18 UNL     1      -2.712  -5.711   3.993  1.00  0.00     0.337 C   
ENDBRANCH  20  21
ENDBRANCH  17  20
ENDBRANCH  16  17
BRANCH  16  30
ATOM     30  C19 UNL     1      -2.790   0.574  -2.103  1.00  0.00     0.037 C   
ATOM     31  C20 UNL     1      -3.706   1.294  -1.107  1.00  0.00     0.014 C   
ATOM     32  C21 UNL     1      -3.569  -0.546  -2.805  1.00  0.00     0.014 C   
ENDBRANCH  16  30
ENDBRANCH   3  16
TORSDOF 7
