REMARK SMILES CC(C)[C@H]([NH2+]Cc1ccc2c(c1)OCO2)c1cn(CCc2cc3c([nH]2)CCCC3)nn1
REMARK SMILES IDX 16 1 17 2 18 3 30 4 31 5 4 7 2 8 1 9 3 10 5 11 6 14 7 15
REMARK SMILES IDX 8 16 12 17 9 18 11 19 10 20 13 21 15 22 14 23 19 24 20 25
REMARK SMILES IDX 21 26 22 27 25 28 23 29 24 30 29 31 26 32 28 33 27 34
REMARK H PARENT 17 6 5 12 5 13 25 35
ROOT
ATOM     1   C13 UNL     1       1.183  -2.838  -0.375  1.00  0.00     0.127 A   
ATOM     2   C14 UNL     1       0.390  -3.333  -1.385  1.00  0.00     0.045 A   
ATOM     3   N2  UNL     1      -0.712  -3.809  -0.730  1.00  0.00    -0.212 N   
ATOM     4   N4  UNL     1      -0.591  -3.650   0.602  1.00  0.00    -0.076 NA  
ATOM     5   N5  UNL     1       0.565  -3.047   0.832  1.00  0.00    -0.132 NA  
ATOM     6   H18 UNL     1       0.472  -3.342  -2.462  1.00  0.00     0.083 HD  
ENDROOT
BRANCH   1   7
ATOM     7   C4  UNL     1       2.454  -2.054  -0.422  1.00  0.00     0.117 C   
BRANCH   7   8
ATOM     8   C2  UNL     1       3.665  -2.840   0.150  1.00  0.00     0.037 C   
ATOM     9   C1  UNL     1       3.852  -4.186  -0.568  1.00  0.00     0.014 C   
ATOM     10  C3  UNL     1       4.978  -2.050   0.043  1.00  0.00     0.014 C   
ENDBRANCH   7   8
BRANCH   7  11
ATOM     11  N1  UNL     1       2.249  -0.793   0.384  1.00  0.00     0.249 N   
ATOM     12  H9  UNL     1       1.855  -1.089   1.290  1.00  0.00     0.199 HD  
ATOM     13  H10 UNL     1       3.129  -0.317   0.596  1.00  0.00     0.199 HD  
BRANCH  11  14
ATOM     14  C5  UNL     1       1.307   0.200  -0.211  1.00  0.00     0.164 C   
BRANCH  14  15
ATOM     15  C6  UNL     1       1.038   1.305   0.771  1.00  0.00    -0.002 A   
ATOM     16  C7  UNL     1      -0.001   1.162   1.723  1.00  0.00     0.012 A   
ATOM     17  C11 UNL     1       1.853   2.449   0.800  1.00  0.00     0.045 A   
ATOM     18  C8  UNL     1      -0.241   2.155   2.678  1.00  0.00     0.037 A   
ATOM     19  C10 UNL     1       1.592   3.406   1.759  1.00  0.00     0.109 A   
ATOM     20  C9  UNL     1       0.573   3.266   2.669  1.00  0.00     0.108 A   
ATOM     21  O1  UNL     1       2.284   4.563   1.929  1.00  0.00    -0.316 OA  
ATOM     22  O2  UNL     1       0.488   4.321   3.519  1.00  0.00    -0.316 OA  
ATOM     23  C12 UNL     1       1.585   5.138   3.057  1.00  0.00     0.337 C   
ENDBRANCH  14  15
ENDBRANCH  11  14
ENDBRANCH   7  11
ENDBRANCH   1   7
BRANCH   3  24
ATOM     24  C15 UNL     1      -1.938  -4.313  -1.311  1.00  0.00     0.140 C   
BRANCH  24  25
ATOM     25  C16 UNL     1      -3.138  -3.396  -1.065  1.00  0.00     0.072 C   
BRANCH  25  26
ATOM     26  C17 UNL     1      -2.920  -1.994  -1.554  1.00  0.00     0.009 A   
ATOM     27  C18 UNL     1      -2.570  -1.510  -2.802  1.00  0.00     0.024 A   
ATOM     28  N3  UNL     1      -3.088  -0.912  -0.716  1.00  0.00    -0.321 N   
ATOM     29  C19 UNL     1      -2.512  -0.101  -2.710  1.00  0.00    -0.029 A   
ATOM     30  C20 UNL     1      -2.823   0.234  -1.409  1.00  0.00     0.010 A   
ATOM     31  C24 UNL     1      -2.225   0.924  -3.757  1.00  0.00     0.037 C   
ATOM     32  C21 UNL     1      -2.973   1.615  -0.871  1.00  0.00     0.051 C   
ATOM     33  C23 UNL     1      -2.734   2.310  -3.318  1.00  0.00     0.005 C   
ATOM     34  C22 UNL     1      -2.361   2.627  -1.857  1.00  0.00     0.006 C   
ATOM     35  H24 UNL     1      -3.412  -0.962   0.241  1.00  0.00     0.152 HD  
ENDBRANCH  25  26
ENDBRANCH  24  25
ENDBRANCH   3  24
TORSDOF 8
