REMARK SMILES Cc1cnc2c(c1)[C@@H](n1cc([C@@H]([NH2+]Cc3ccc4c(c3)OCO4)C3CCCC3)nn1)CCO2
REMARK SMILES IDX 12 1 11 2 9 3 10 4 30 5 29 6 8 8 2 9 3 10 7 11 4 12 6 13
REMARK SMILES IDX 5 14 33 15 31 16 32 17 1 18 13 19 14 22 15 23 16 24 20 25
REMARK SMILES IDX 17 26 19 27 18 28 21 29 23 30 22 31 24 32 25 33 28 34 26 35
REMARK SMILES IDX 27 36
REMARK H PARENT 10 7 13 20 13 21
ROOT
ATOM     1   C10 UNL     1       0.525  -0.583  -1.399  1.00  0.00     0.117 C   
ENDROOT
BRANCH   1   2
ATOM     2   C9  UNL     1      -0.427  -0.131  -0.341  1.00  0.00     0.127 A   
ATOM     3   N2  UNL     1      -1.691   0.899   1.083  1.00  0.00    -0.204 N   
ATOM     4   C8  UNL     1      -0.736   1.126   0.126  1.00  0.00     0.046 A   
ATOM     5   N5  UNL     1      -1.899  -0.423   1.242  1.00  0.00    -0.075 NA  
ATOM     6   N4  UNL     1      -1.139  -1.063   0.369  1.00  0.00    -0.132 NA  
ATOM     7   H7  UNL     1      -0.395   2.121  -0.132  1.00  0.00     0.083 HD  
BRANCH   3   8
ATOM     8   C7  UNL     1      -2.394   1.863   1.934  1.00  0.00     0.136 C   
ATOM     9   C2  UNL     1      -4.044   4.081  -0.707  1.00  0.00    -0.032 A   
ATOM     10  C3  UNL     1      -3.589   5.308  -0.240  1.00  0.00     0.117 A   
ATOM     11  C6  UNL     1      -3.679   2.942   0.015  1.00  0.00     0.015 A   
ATOM     12  N1  UNL     1      -2.815   5.457   0.857  1.00  0.00    -0.232 NA  
ATOM     13  C5  UNL     1      -2.858   3.063   1.147  1.00  0.00     0.025 A   
ATOM     14  C4  UNL     1      -2.493   4.346   1.542  1.00  0.00     0.172 A   
ATOM     15  O3  UNL     1      -1.748   4.582   2.665  1.00  0.00    -0.329 OA  
ATOM     16  C24 UNL     1      -1.502   2.239   3.122  1.00  0.00     0.059 C   
ATOM     17  C25 UNL     1      -1.931   3.585   3.668  1.00  0.00     0.172 C   
ATOM     18  C1  UNL     1      -4.941   3.999  -1.903  1.00  0.00     0.046 C   
ENDBRANCH   3   8
ENDBRANCH   1   2
BRANCH   1  19
ATOM     19  N3  UNL     1       1.340  -1.745  -0.887  1.00  0.00     0.249 N   
ATOM     20  H9  UNL     1       0.676  -2.426  -0.489  1.00  0.00     0.199 HD  
ATOM     21  H10 UNL     1       1.827  -2.230  -1.647  1.00  0.00     0.199 HD  
BRANCH  19  22
ATOM     22  C11 UNL     1       2.327  -1.405   0.175  1.00  0.00     0.164 C   
BRANCH  22  23
ATOM     23  C12 UNL     1       3.103  -2.621   0.593  1.00  0.00    -0.002 A   
ATOM     24  C13 UNL     1       4.332  -2.938  -0.030  1.00  0.00     0.012 A   
ATOM     25  C17 UNL     1       2.588  -3.474   1.585  1.00  0.00     0.045 A   
ATOM     26  C14 UNL     1       5.053  -4.077   0.344  1.00  0.00     0.037 A   
ATOM     27  C16 UNL     1       3.324  -4.588   1.930  1.00  0.00     0.109 A   
ATOM     28  C15 UNL     1       4.526  -4.878   1.333  1.00  0.00     0.108 A   
ATOM     29  O1  UNL     1       2.978  -5.504   2.872  1.00  0.00    -0.316 OA  
ATOM     30  O2  UNL     1       5.095  -6.007   1.831  1.00  0.00    -0.316 OA  
ATOM     31  C18 UNL     1       4.131  -6.378   2.839  1.00  0.00     0.337 C   
ENDBRANCH  22  23
ENDBRANCH  19  22
ENDBRANCH   1  19
BRANCH   1  32
ATOM     32  C19 UNL     1      -0.219  -1.032  -2.672  1.00  0.00     0.043 C   
ATOM     33  C20 UNL     1       0.693  -1.476  -3.824  1.00  0.00     0.010 C   
ATOM     34  C23 UNL     1      -1.039   0.086  -3.327  1.00  0.00     0.010 C   
ATOM     35  C21 UNL     1      -0.130  -1.284  -5.098  1.00  0.00     0.001 C   
ATOM     36  C22 UNL     1      -1.367  -0.487  -4.696  1.00  0.00     0.001 C   
ENDBRANCH   1  32
TORSDOF 6
