REMARK SMILES Cc1cnc2c(c1)[C@H](n1cc([C@@H]([NH2+]Cc3ccc4c(c3)OCO4)C3CCCC3)nn1)CCO2
REMARK SMILES IDX 12 1 11 2 9 3 10 4 30 5 29 6 8 8 2 9 3 10 7 11 4 12 6 13
REMARK SMILES IDX 5 14 33 15 31 16 32 17 1 18 13 19 14 22 15 23 16 24 20 25
REMARK SMILES IDX 17 26 19 27 18 28 21 29 23 30 22 31 24 32 25 33 28 34 26 35
REMARK SMILES IDX 27 36
REMARK H PARENT 10 7 13 20 13 21
ROOT
ATOM     1   C10 UNL     1       0.514  -0.293  -1.633  1.00  0.00     0.117 C   
ENDROOT
BRANCH   1   2
ATOM     2   C9  UNL     1       1.525  -0.453  -0.546  1.00  0.00     0.127 A   
ATOM     3   N2  UNL     1       2.662  -0.906   1.244  1.00  0.00    -0.204 N   
ATOM     4   C8  UNL     1       1.502  -1.229   0.590  1.00  0.00     0.046 A   
ATOM     5   N5  UNL     1       3.351   0.019   0.546  1.00  0.00    -0.075 NA  
ATOM     6   N4  UNL     1       2.671   0.296  -0.555  1.00  0.00    -0.132 NA  
ATOM     7   H7  UNL     1       0.783  -1.935   0.984  1.00  0.00     0.083 HD  
BRANCH   3   8
ATOM     8   C7  UNL     1       3.175  -1.382   2.532  1.00  0.00     0.136 C   
ATOM     9   C2  UNL     1       0.323  -0.710   4.964  1.00  0.00    -0.032 A   
ATOM     10  C3  UNL     1      -0.016  -2.028   5.234  1.00  0.00     0.117 A   
ATOM     11  C6  UNL     1       1.391  -0.492   4.095  1.00  0.00     0.015 A   
ATOM     12  N1  UNL     1       0.606  -3.096   4.689  1.00  0.00    -0.232 NA  
ATOM     13  C5  UNL     1       2.056  -1.582   3.513  1.00  0.00     0.025 A   
ATOM     14  C4  UNL     1       1.629  -2.861   3.848  1.00  0.00     0.172 A   
ATOM     15  O3  UNL     1       2.217  -4.000   3.379  1.00  0.00    -0.329 OA  
ATOM     16  C24 UNL     1       4.004  -2.655   2.378  1.00  0.00     0.059 C   
ATOM     17  C25 UNL     1       3.085  -3.858   2.259  1.00  0.00     0.172 C   
ATOM     18  C1  UNL     1      -0.388   0.424   5.631  1.00  0.00     0.046 C   
ENDBRANCH   3   8
ENDBRANCH   1   2
BRANCH   1  19
ATOM     19  N3  UNL     1       0.356   1.167  -2.012  1.00  0.00     0.249 N   
ATOM     20  H9  UNL     1      -0.306   1.255  -2.787  1.00  0.00     0.199 HD  
ATOM     21  H10 UNL     1       1.274   1.483  -2.352  1.00  0.00     0.199 HD  
BRANCH  19  22
ATOM     22  C11 UNL     1      -0.058   2.107  -0.924  1.00  0.00     0.164 C   
BRANCH  22  23
ATOM     23  C12 UNL     1      -1.341   1.719  -0.245  1.00  0.00    -0.002 A   
ATOM     24  C13 UNL     1      -2.577   1.810  -0.928  1.00  0.00     0.012 A   
ATOM     25  C17 UNL     1      -1.314   1.231   1.074  1.00  0.00     0.045 A   
ATOM     26  C14 UNL     1      -3.768   1.408  -0.311  1.00  0.00     0.037 A   
ATOM     27  C16 UNL     1      -2.504   0.842   1.651  1.00  0.00     0.109 A   
ATOM     28  C15 UNL     1      -3.696   0.926   0.977  1.00  0.00     0.108 A   
ATOM     29  O1  UNL     1      -2.649   0.343   2.906  1.00  0.00    -0.316 OA  
ATOM     30  O2  UNL     1      -4.744   0.488   1.722  1.00  0.00    -0.316 OA  
ATOM     31  C18 UNL     1      -4.078   0.128   2.952  1.00  0.00     0.337 C   
ENDBRANCH  22  23
ENDBRANCH  19  22
ENDBRANCH   1  19
BRANCH   1  32
ATOM     32  C19 UNL     1       0.909  -1.079  -2.900  1.00  0.00     0.043 C   
ATOM     33  C20 UNL     1      -0.103  -0.984  -4.046  1.00  0.00     0.010 C   
ATOM     34  C23 UNL     1       0.980  -2.594  -2.678  1.00  0.00     0.010 C   
ATOM     35  C21 UNL     1       0.217  -2.170  -4.951  1.00  0.00     0.001 C   
ATOM     36  C22 UNL     1       0.971  -3.176  -4.086  1.00  0.00     0.001 C   
ENDBRANCH   1  32
TORSDOF 6
