REMARK SMILES CC(C)(C)[C@H]([NH2+]Cc1ccc2c(c1)OCO2)c1cn(CCc2cn3c(n2)CCCC3)nn1
REMARK SMILES IDX 17 1 18 2 19 3 31 4 32 5 5 7 2 8 1 9 3 10 4 11 6 12 7 15
REMARK SMILES IDX 8 16 9 17 13 18 10 19 12 20 11 21 14 22 16 23 15 24 20 25
REMARK SMILES IDX 21 26 22 27 23 28 26 29 24 30 25 31 30 32 27 33 29 34 28 35
REMARK H PARENT 18 6 6 13 6 14
ROOT
ATOM     1   C14 UNL     1      -0.116  -2.127   1.967  1.00  0.00     0.127 A   
ATOM     2   C15 UNL     1      -0.690  -2.805   0.916  1.00  0.00     0.045 A   
ATOM     3   N2  UNL     1      -1.894  -3.212   1.410  1.00  0.00    -0.212 N   
ATOM     4   N5  UNL     1      -2.039  -2.845   2.698  1.00  0.00    -0.076 NA  
ATOM     5   N6  UNL     1      -0.962  -2.162   3.045  1.00  0.00    -0.132 NA  
ATOM     6   H20 UNL     1      -0.398  -2.979  -0.111  1.00  0.00     0.083 HD  
ENDROOT
BRANCH   1   7
ATOM     7   C5  UNL     1       1.130  -1.306   2.040  1.00  0.00     0.120 C   
BRANCH   7   8
ATOM     8   C2  UNL     1       2.320  -1.993   2.795  1.00  0.00     0.010 C   
ATOM     9   C1  UNL     1       3.604  -1.142   2.648  1.00  0.00     0.017 C   
ATOM     10  C3  UNL     1       2.620  -3.372   2.163  1.00  0.00     0.017 C   
ATOM     11  C4  UNL     1       2.047  -2.195   4.299  1.00  0.00     0.017 C   
ENDBRANCH   7   8
BRANCH   7  12
ATOM     12  N1  UNL     1       0.781   0.019   2.690  1.00  0.00     0.250 N   
ATOM     13  H11 UNL     1       1.618   0.517   2.998  1.00  0.00     0.199 HD  
ATOM     14  H12 UNL     1       0.235  -0.218   3.530  1.00  0.00     0.199 HD  
BRANCH  12  15
ATOM     15  C6  UNL     1      -0.061   0.944   1.873  1.00  0.00     0.164 C   
BRANCH  15  16
ATOM     16  C7  UNL     1       0.707   1.560   0.736  1.00  0.00    -0.002 A   
ATOM     17  C8  UNL     1       1.591   2.640   0.966  1.00  0.00     0.012 A   
ATOM     18  C12 UNL     1       0.580   1.033  -0.561  1.00  0.00     0.045 A   
ATOM     19  C9  UNL     1       2.338   3.191  -0.082  1.00  0.00     0.037 A   
ATOM     20  C11 UNL     1       1.331   1.598  -1.570  1.00  0.00     0.109 A   
ATOM     21  C10 UNL     1       2.186   2.646  -1.337  1.00  0.00     0.108 A   
ATOM     22  O1  UNL     1       1.327   1.207  -2.871  1.00  0.00    -0.316 OA  
ATOM     23  O2  UNL     1       2.829   3.048  -2.465  1.00  0.00    -0.316 OA  
ATOM     24  C13 UNL     1       2.274   2.141  -3.439  1.00  0.00     0.337 C   
ENDBRANCH  15  16
ENDBRANCH  12  15
ENDBRANCH   7  12
ENDBRANCH   1   7
BRANCH   3  25
ATOM     25  C16 UNL     1      -2.944  -3.945   0.737  1.00  0.00     0.140 C   
BRANCH  25  26
ATOM     26  C17 UNL     1      -4.117  -3.058   0.340  1.00  0.00     0.079 C   
BRANCH  26  27
ATOM     27  C18 UNL     1      -3.886  -2.313  -0.931  1.00  0.00     0.058 A   
ATOM     28  C19 UNL     1      -4.579  -2.430  -2.117  1.00  0.00     0.100 A   
ATOM     29  N4  UNL     1      -2.903  -1.350  -1.041  1.00  0.00    -0.241 NA  
ATOM     30  N3  UNL     1      -4.020  -1.508  -2.948  1.00  0.00    -0.294 N   
ATOM     31  C20 UNL     1      -3.021  -0.865  -2.263  1.00  0.00     0.100 A   
ATOM     32  C24 UNL     1      -4.448  -1.185  -4.294  1.00  0.00     0.112 C   
ATOM     33  C21 UNL     1      -2.207   0.207  -2.905  1.00  0.00     0.073 C   
ATOM     34  C23 UNL     1      -3.426  -0.329  -5.042  1.00  0.00     0.020 C   
ATOM     35  C22 UNL     1      -2.892   0.787  -4.144  1.00  0.00     0.009 C   
ENDBRANCH  26  27
ENDBRANCH  25  26
ENDBRANCH   3  25
TORSDOF 8
