REMARK SMILES CC(C)[C@H]([NH2+]Cc1ccc2c(c1)OCO2)c1cn(CCc2ccc(F)c(F)c2)nn1
REMARK SMILES IDX 16 1 17 2 18 3 29 4 30 5 4 7 2 8 1 9 3 10 5 11 6 14 7 15
REMARK SMILES IDX 8 16 12 17 9 18 11 19 10 20 13 21 15 22 14 23 19 24 20 25
REMARK SMILES IDX 21 26 22 27 28 28 23 29 26 30 24 31 27 32 25 33
REMARK H PARENT 17 6 5 12 5 13
ROOT
ATOM     1   C13 UNL     1      -0.758   0.899   1.312  1.00  0.00     0.127 A   
ATOM     2   C14 UNL     1      -1.763   0.016   1.644  1.00  0.00     0.045 A   
ATOM     3   N2  UNL     1      -2.909   0.670   1.283  1.00  0.00    -0.212 N   
ATOM     4   N3  UNL     1      -2.634   1.911   0.840  1.00  0.00    -0.076 NA  
ATOM     5   N4  UNL     1      -1.319   2.050   0.822  1.00  0.00    -0.132 NA  
ATOM     6   H18 UNL     1      -1.766  -1.005   2.003  1.00  0.00     0.083 HD  
ENDROOT
BRANCH   1   7
ATOM     7   C4  UNL     1       0.728   0.715   1.277  1.00  0.00     0.117 C   
BRANCH   7   8
ATOM     8   C2  UNL     1       1.494   1.532   2.349  1.00  0.00     0.037 C   
ATOM     9   C1  UNL     1       1.367   3.053   2.217  1.00  0.00     0.014 C   
ATOM     10  C3  UNL     1       1.091   1.101   3.765  1.00  0.00     0.014 C   
ENDBRANCH   7   8
BRANCH   7  11
ATOM     11  N1  UNL     1       1.195   1.051  -0.122  1.00  0.00     0.249 N   
ATOM     12  H9  UNL     1       0.942   2.030  -0.312  1.00  0.00     0.199 HD  
ATOM     13  H10 UNL     1       0.604   0.517  -0.774  1.00  0.00     0.199 HD  
BRANCH  11  14
ATOM     14  C5  UNL     1       2.612   0.797  -0.491  1.00  0.00     0.164 C   
BRANCH  14  15
ATOM     15  C6  UNL     1       3.031  -0.635  -0.311  1.00  0.00    -0.002 A   
ATOM     16  C7  UNL     1       3.945  -0.990   0.711  1.00  0.00     0.012 A   
ATOM     17  C11 UNL     1       2.502  -1.640  -1.141  1.00  0.00     0.045 A   
ATOM     18  C8  UNL     1       4.317  -2.323   0.915  1.00  0.00     0.037 A   
ATOM     19  C10 UNL     1       2.889  -2.945  -0.913  1.00  0.00     0.109 A   
ATOM     20  C9  UNL     1       3.769  -3.277   0.087  1.00  0.00     0.108 A   
ATOM     21  O1  UNL     1       2.466  -4.029  -1.613  1.00  0.00    -0.316 OA  
ATOM     22  O2  UNL     1       4.012  -4.612   0.142  1.00  0.00    -0.316 OA  
ATOM     23  C12 UNL     1       3.213  -5.083  -0.966  1.00  0.00     0.337 C   
ENDBRANCH  14  15
ENDBRANCH  11  14
ENDBRANCH   7  11
ENDBRANCH   1   7
BRANCH   3  24
ATOM     24  C15 UNL     1      -4.233   0.102   1.109  1.00  0.00     0.139 C   
BRANCH  24  25
ATOM     25  C16 UNL     1      -4.611  -0.103  -0.368  1.00  0.00     0.057 C   
BRANCH  25  26
ATOM     26  C17 UNL     1      -3.583  -0.915  -1.129  1.00  0.00    -0.043 A   
ATOM     27  C18 UNL     1      -3.621  -2.317  -1.131  1.00  0.00     0.007 A   
ATOM     28  C22 UNL     1      -2.514  -0.259  -1.762  1.00  0.00     0.046 A   
ATOM     29  C19 UNL     1      -2.592  -3.049  -1.734  1.00  0.00     0.043 A   
ATOM     30  C21 UNL     1      -1.475  -0.994  -2.316  1.00  0.00     0.159 A   
ATOM     31  C20 UNL     1      -1.516  -2.381  -2.310  1.00  0.00     0.158 A   
ATOM     32  F2  UNL     1      -0.394  -0.345  -2.778  1.00  0.00    -0.204 F   
ATOM     33  F1  UNL     1      -0.499  -3.081  -2.828  1.00  0.00    -0.204 F   
ENDBRANCH  25  26
ENDBRANCH  24  25
ENDBRANCH   3  24
TORSDOF 8
