REMARK SMILES CC(C)[C@H]([NH2+]Cc1ccc2c(c1)OCO2)c1cn(Cc2ccc(O)cc2Cl)nn1
REMARK SMILES IDX 16 1 17 2 18 3 28 4 29 5 4 7 2 8 1 9 3 10 5 11 6 14 7 15
REMARK SMILES IDX 8 16 12 17 9 18 11 19 10 20 13 21 15 22 14 23 19 24 20 25
REMARK SMILES IDX 21 26 26 27 22 28 25 29 23 30 27 31 24 32
REMARK H PARENT 17 6 5 12 5 13 24 33
ROOT
ATOM     1   C13 UNL     1      -0.402   0.033   0.537  1.00  0.00     0.127 A   
ATOM     2   C14 UNL     1      -0.227   1.284  -0.012  1.00  0.00     0.046 A   
ATOM     3   N2  UNL     1      -1.161   2.058   0.619  1.00  0.00    -0.208 N   
ATOM     4   N3  UNL     1      -1.817   1.343   1.556  1.00  0.00    -0.076 NA  
ATOM     5   N4  UNL     1      -1.375   0.098   1.501  1.00  0.00    -0.132 NA  
ATOM     6   H18 UNL     1       0.428   1.672  -0.780  1.00  0.00     0.083 HD  
ENDROOT
BRANCH   1   7
ATOM     7   C4  UNL     1       0.281  -1.269   0.262  1.00  0.00     0.117 C   
BRANCH   7   8
ATOM     8   C2  UNL     1      -0.273  -1.961  -1.013  1.00  0.00     0.037 C   
ATOM     9   C1  UNL     1       0.632  -3.112  -1.469  1.00  0.00     0.014 C   
ATOM     10  C3  UNL     1      -1.716  -2.460  -0.874  1.00  0.00     0.014 C   
ENDBRANCH   7   8
BRANCH   7  11
ATOM     11  N1  UNL     1       0.149  -2.188   1.453  1.00  0.00     0.249 N   
ATOM     12  H9  UNL     1      -0.822  -2.083   1.784  1.00  0.00     0.199 HD  
ATOM     13  H10 UNL     1       0.269  -3.167   1.182  1.00  0.00     0.199 HD  
BRANCH  11  14
ATOM     14  C5  UNL     1       1.043  -1.891   2.610  1.00  0.00     0.164 C   
BRANCH  14  15
ATOM     15  C6  UNL     1       2.468  -2.296   2.349  1.00  0.00    -0.002 A   
ATOM     16  C7  UNL     1       2.838  -3.663   2.368  1.00  0.00     0.012 A   
ATOM     17  C11 UNL     1       3.437  -1.323   2.048  1.00  0.00     0.045 A   
ATOM     18  C8  UNL     1       4.150  -4.057   2.086  1.00  0.00     0.037 A   
ATOM     19  C10 UNL     1       4.720  -1.745   1.772  1.00  0.00     0.109 A   
ATOM     20  C9  UNL     1       5.067  -3.073   1.789  1.00  0.00     0.108 A   
ATOM     21  O1  UNL     1       5.766  -0.939   1.453  1.00  0.00    -0.316 OA  
ATOM     22  O2  UNL     1       6.377  -3.270   1.487  1.00  0.00    -0.316 OA  
ATOM     23  C12 UNL     1       6.825  -1.911   1.297  1.00  0.00     0.337 C   
ENDBRANCH  14  15
ENDBRANCH  11  14
ENDBRANCH   7  11
ENDBRANCH   1   7
BRANCH   3  24
ATOM     24  C15 UNL     1      -1.458   3.466   0.417  1.00  0.00     0.171 C   
BRANCH  24  25
ATOM     25  C16 UNL     1      -2.560   3.652  -0.596  1.00  0.00    -0.010 A   
ATOM     26  C17 UNL     1      -3.898   3.646  -0.154  1.00  0.00     0.009 A   
ATOM     27  C21 UNL     1      -2.313   3.802  -1.972  1.00  0.00     0.048 A   
ATOM     28  C18 UNL     1      -4.954   3.796  -1.056  1.00  0.00     0.033 A   
ATOM     29  C20 UNL     1      -3.370   3.952  -2.873  1.00  0.00     0.054 A   
ATOM     30  C19 UNL     1      -4.679   3.949  -2.408  1.00  0.00     0.073 A   
ATOM     31  CL1 UNL     1      -0.711   3.806  -2.617  1.00  0.00    -0.084 Cl  
BRANCH  30  32
ATOM     32  O3  UNL     1      -5.675   4.096  -3.325  1.00  0.00    -0.361 OA  
ATOM     33  H23 UNL     1      -6.533   4.126  -2.869  1.00  0.00     0.218 HD  
ENDBRANCH  30  32
ENDBRANCH  24  25
ENDBRANCH   3  24
TORSDOF 8
