REMARK SMILES OCc1ccc(-n2cc([C@@H]([NH2+]Cc3ccc4c(c3)OCO4)C3CCCC3)nn2)c(F)c1
REMARK SMILES IDX 7 1 8 2 9 3 27 4 28 5 6 6 3 7 4 8 31 9 5 10 29 11 30 12 2 13
REMARK SMILES IDX 1 14 10 16 11 17 12 20 13 21 14 22 18 23 15 24 17 25 16 26
REMARK SMILES IDX 19 27 21 28 20 29 22 30 23 31 26 32 24 33 25 34
REMARK H PARENT 1 15 11 18 11 19
ROOT
ATOM     1   N1  UNL     1       0.926   1.743   1.424  1.00  0.00    -0.178 N   
ATOM     2   C6  UNL     1       0.902   1.411   0.082  1.00  0.00     0.135 A   
ATOM     3   C7  UNL     1       0.027   0.354  -0.017  1.00  0.00     0.127 A   
ATOM     4   N3  UNL     1      -0.438   0.043   1.228  1.00  0.00    -0.131 NA  
ATOM     5   N4  UNL     1       0.113   0.879   2.091  1.00  0.00    -0.071 NA  
ENDROOT
BRANCH   1   6
ATOM     6   C5  UNL     1       1.638   2.760   2.101  1.00  0.00     0.093 A   
ATOM     7   C2  UNL     1       3.054   4.763   3.498  1.00  0.00    -0.020 A   
ATOM     8   C3  UNL     1       2.178   3.908   4.176  1.00  0.00     0.008 A   
ATOM     9   C23 UNL     1       3.203   4.613   2.112  1.00  0.00     0.047 A   
ATOM     10  C4  UNL     1       1.477   2.912   3.487  1.00  0.00     0.029 A   
ATOM     11  C22 UNL     1       2.505   3.621   1.426  1.00  0.00     0.147 A   
ATOM     12  F1  UNL     1       2.702   3.530   0.104  1.00  0.00    -0.205 F   
BRANCH   7  13
ATOM     13  C1  UNL     1       3.812   5.837   4.231  1.00  0.00     0.191 C   
BRANCH  13  14
ATOM     14  O1  UNL     1       5.194   5.710   3.931  1.00  0.00    -0.392 OA  
ATOM     15  H1  UNL     1       5.657   6.393   4.445  1.00  0.00     0.211 HD  
ENDBRANCH  13  14
ENDBRANCH   7  13
ENDBRANCH   1   6
BRANCH   3  16
ATOM     16  C8  UNL     1      -0.417  -0.455  -1.194  1.00  0.00     0.117 C   
BRANCH  16  17
ATOM     17  N2  UNL     1      -0.629  -1.888  -0.774  1.00  0.00     0.249 N   
ATOM     18  H8  UNL     1      -1.164  -2.416  -1.469  1.00  0.00     0.199 HD  
ATOM     19  H9  UNL     1      -1.206  -1.870   0.080  1.00  0.00     0.199 HD  
BRANCH  17  20
ATOM     20  C9  UNL     1       0.610  -2.656  -0.461  1.00  0.00     0.164 C   
BRANCH  20  21
ATOM     21  C10 UNL     1       0.261  -4.051  -0.027  1.00  0.00    -0.002 A   
ATOM     22  C11 UNL     1       0.249  -5.114  -0.961  1.00  0.00     0.012 A   
ATOM     23  C15 UNL     1      -0.118  -4.294   1.305  1.00  0.00     0.045 A   
ATOM     24  C12 UNL     1      -0.127  -6.405  -0.573  1.00  0.00     0.037 A   
ATOM     25  C14 UNL     1      -0.482  -5.578   1.653  1.00  0.00     0.109 A   
ATOM     26  C13 UNL     1      -0.488  -6.604   0.741  1.00  0.00     0.108 A   
ATOM     27  O2  UNL     1      -0.878  -5.978   2.889  1.00  0.00    -0.316 OA  
ATOM     28  O3  UNL     1      -0.883  -7.781   1.289  1.00  0.00    -0.316 OA  
ATOM     29  C16 UNL     1      -1.097  -7.389   2.662  1.00  0.00     0.337 C   
ENDBRANCH  20  21
ENDBRANCH  17  20
ENDBRANCH  16  17
BRANCH  16  30
ATOM     30  C17 UNL     1      -1.735   0.083  -1.790  1.00  0.00     0.043 C   
ATOM     31  C18 UNL     1      -2.257  -0.698  -2.999  1.00  0.00     0.010 C   
ATOM     32  C21 UNL     1      -1.604   1.501  -2.365  1.00  0.00     0.010 C   
ATOM     33  C19 UNL     1      -3.287   0.240  -3.611  1.00  0.00     0.001 C   
ATOM     34  C20 UNL     1      -2.749   1.647  -3.366  1.00  0.00     0.001 C   
ENDBRANCH  16  30
ENDBRANCH   3  16
TORSDOF 8
