REMARK SMILES CC(C)[C@H]([NH2+]Cc1ccc2c(c1)OCO2)c1cn(CCc2cnccn2)nn1
REMARK SMILES IDX 16 1 17 2 18 3 27 4 28 5 4 7 2 8 1 9 3 10 5 11 6 14 7 15
REMARK SMILES IDX 8 16 12 17 9 18 11 19 10 20 13 21 15 22 14 23 19 24 20 25
REMARK SMILES IDX 21 26 22 27 26 28 23 29 25 30 24 31
REMARK H PARENT 17 6 5 12 5 13
ROOT
ATOM     1   C13 UNL     1      -0.898   0.487  -1.417  1.00  0.00     0.127 A   
ATOM     2   C14 UNL     1      -1.149  -0.048  -2.661  1.00  0.00     0.045 A   
ATOM     3   N2  UNL     1      -0.356   0.685  -3.499  1.00  0.00    -0.212 N   
ATOM     4   N5  UNL     1       0.305   1.643  -2.823  1.00  0.00    -0.076 NA  
ATOM     5   N6  UNL     1      -0.019   1.532  -1.546  1.00  0.00    -0.132 NA  
ATOM     6   H18 UNL     1      -1.733  -0.890  -3.007  1.00  0.00     0.083 HD  
ENDROOT
BRANCH   1   7
ATOM     7   C4  UNL     1      -1.337   0.048  -0.057  1.00  0.00     0.117 C   
BRANCH   7   8
ATOM     8   C2  UNL     1      -2.651   0.740   0.391  1.00  0.00     0.037 C   
ATOM     9   C1  UNL     1      -3.269   0.043   1.609  1.00  0.00     0.014 C   
ATOM     10  C3  UNL     1      -2.502   2.239   0.677  1.00  0.00     0.014 C   
ENDBRANCH   7   8
BRANCH   7  11
ATOM     11  N1  UNL     1      -0.246   0.284   0.951  1.00  0.00     0.249 N   
ATOM     12  H9  UNL     1      -0.596   0.238   1.911  1.00  0.00     0.199 HD  
ATOM     13  H10 UNL     1       0.093   1.246   0.809  1.00  0.00     0.199 HD  
BRANCH  11  14
ATOM     14  C5  UNL     1       0.940  -0.616   0.827  1.00  0.00     0.164 C   
BRANCH  14  15
ATOM     15  C6  UNL     1       1.948  -0.293   1.894  1.00  0.00    -0.002 A   
ATOM     16  C7  UNL     1       2.945   0.683   1.657  1.00  0.00     0.012 A   
ATOM     17  C11 UNL     1       1.871  -0.913   3.153  1.00  0.00     0.045 A   
ATOM     18  C8  UNL     1       3.863   1.030   2.654  1.00  0.00     0.037 A   
ATOM     19  C10 UNL     1       2.791  -0.548   4.113  1.00  0.00     0.109 A   
ATOM     20  C9  UNL     1       3.759   0.396   3.872  1.00  0.00     0.108 A   
ATOM     21  O1  UNL     1       2.855  -1.047   5.376  1.00  0.00    -0.316 OA  
ATOM     22  O2  UNL     1       4.557   0.607   4.950  1.00  0.00    -0.316 OA  
ATOM     23  C12 UNL     1       3.999  -0.331   5.895  1.00  0.00     0.337 C   
ENDBRANCH  14  15
ENDBRANCH  11  14
ENDBRANCH   7  11
ENDBRANCH   1   7
BRANCH   3  24
ATOM     24  C15 UNL     1      -0.012   0.388  -4.877  1.00  0.00     0.140 C   
BRANCH  24  25
ATOM     25  C16 UNL     1       1.415  -0.148  -5.018  1.00  0.00     0.079 C   
BRANCH  25  26
ATOM     26  C17 UNL     1       1.635  -1.356  -4.146  1.00  0.00     0.060 A   
ATOM     27  C18 UNL     1       2.309  -1.252  -2.931  1.00  0.00     0.134 A   
ATOM     28  N4  UNL     1       1.059  -2.520  -4.531  1.00  0.00    -0.258 NA  
ATOM     29  N3  UNL     1       2.412  -2.280  -2.054  1.00  0.00    -0.261 NA  
ATOM     30  C20 UNL     1       1.232  -3.571  -3.696  1.00  0.00     0.131 A   
ATOM     31  C19 UNL     1       1.891  -3.453  -2.485  1.00  0.00     0.131 A   
ENDBRANCH  25  26
ENDBRANCH  24  25
ENDBRANCH   3  24
TORSDOF 8
