REMARK SMILES CC(C)[C@H]([NH2+]Cc1ccc2c(c1)OCO2)c1cn(Cc2c(F)cncc2F)nn1
REMARK SMILES IDX 16 1 17 2 18 3 28 4 29 5 4 7 2 8 1 9 3 10 5 11 6 14 7 15
REMARK SMILES IDX 8 16 12 17 9 18 11 19 10 20 13 21 15 22 14 23 19 24 20 25
REMARK SMILES IDX 21 26 26 27 23 28 25 29 24 30 22 31 27 32
REMARK H PARENT 17 6 5 12 5 13
ROOT
ATOM     1   C13 UNL     1      -0.117   0.618  -0.599  1.00  0.00     0.127 A   
ATOM     2   C14 UNL     1      -1.294   0.085  -0.123  1.00  0.00     0.046 A   
ATOM     3   N2  UNL     1      -1.620  -0.870  -1.047  1.00  0.00    -0.208 N   
ATOM     4   N4  UNL     1      -0.718  -0.901  -2.047  1.00  0.00    -0.076 NA  
ATOM     5   N5  UNL     1       0.210   0.004  -1.782  1.00  0.00    -0.132 NA  
ATOM     6   H18 UNL     1      -1.893   0.272   0.757  1.00  0.00     0.083 HD  
ENDROOT
BRANCH   1   7
ATOM     7   C4  UNL     1       0.804   1.653  -0.036  1.00  0.00     0.117 C   
BRANCH   7   8
ATOM     8   C2  UNL     1       0.387   3.091  -0.446  1.00  0.00     0.037 C   
ATOM     9   C1  UNL     1       0.529   3.382  -1.946  1.00  0.00     0.014 C   
ATOM     10  C3  UNL     1       1.147   4.149   0.363  1.00  0.00     0.014 C   
ENDBRANCH   7   8
BRANCH   7  11
ATOM     11  N1  UNL     1       2.222   1.366  -0.479  1.00  0.00     0.249 N   
ATOM     12  H9  UNL     1       2.138   0.832  -1.358  1.00  0.00     0.199 HD  
ATOM     13  H10 UNL     1       2.714   2.228  -0.725  1.00  0.00     0.199 HD  
BRANCH  11  14
ATOM     14  C5  UNL     1       3.067   0.586   0.467  1.00  0.00     0.164 C   
BRANCH  14  15
ATOM     15  C6  UNL     1       2.579  -0.809   0.742  1.00  0.00    -0.002 A   
ATOM     16  C7  UNL     1       2.595  -1.792  -0.279  1.00  0.00     0.012 A   
ATOM     17  C11 UNL     1       2.106  -1.153   2.020  1.00  0.00     0.045 A   
ATOM     18  C8  UNL     1       2.144  -3.095  -0.034  1.00  0.00     0.037 A   
ATOM     19  C10 UNL     1       1.679  -2.449   2.231  1.00  0.00     0.109 A   
ATOM     20  C9  UNL     1       1.700  -3.393   1.235  1.00  0.00     0.108 A   
ATOM     21  O1  UNL     1       1.213  -2.945   3.406  1.00  0.00    -0.316 OA  
ATOM     22  O2  UNL     1       1.255  -4.605   1.660  1.00  0.00    -0.316 OA  
ATOM     23  C12 UNL     1       1.022  -4.338   3.059  1.00  0.00     0.337 C   
ENDBRANCH  14  15
ENDBRANCH  11  14
ENDBRANCH   7  11
ENDBRANCH   1   7
BRANCH   3  24
ATOM     24  C15 UNL     1      -2.772  -1.755  -1.059  1.00  0.00     0.175 C   
BRANCH  24  25
ATOM     25  C16 UNL     1      -2.609  -2.874  -0.079  1.00  0.00     0.046 A   
ATOM     26  C17 UNL     1      -2.021  -4.082  -0.450  1.00  0.00     0.149 A   
ATOM     27  C20 UNL     1      -3.019  -2.738   1.246  1.00  0.00     0.149 A   
ATOM     28  C18 UNL     1      -1.879  -5.091   0.492  1.00  0.00     0.150 A   
ATOM     29  C19 UNL     1      -2.848  -3.792   2.130  1.00  0.00     0.150 A   
ATOM     30  N3  UNL     1      -2.281  -4.972   1.782  1.00  0.00    -0.259 NA  
ATOM     31  F1  UNL     1      -1.601  -4.275  -1.708  1.00  0.00    -0.205 F   
ATOM     32  F2  UNL     1      -3.566  -1.590   1.665  1.00  0.00    -0.205 F   
ENDBRANCH  24  25
ENDBRANCH   3  24
TORSDOF 7
