REMARK SMILES COCc1cccc(-n2cc([C@@H]([NH2+]Cc3ccc4c(c3)OCO4)C(C)C)nn2)c1
REMARK SMILES IDX 9 1 10 2 11 3 27 4 28 5 8 6 4 7 5 8 29 9 6 10 7 11 3 12 2 13
REMARK SMILES IDX 1 14 12 15 13 16 14 19 15 20 16 21 20 22 17 23 19 24 18 25
REMARK SMILES IDX 21 26 23 27 22 28 24 29 25 30 26 31
REMARK H PARENT 13 17 13 18
ROOT
ATOM     1   N1  UNL     1       2.457  -1.608  -0.570  1.00  0.00    -0.181 N   
ATOM     2   C8  UNL     1       1.347  -1.174   0.132  1.00  0.00     0.135 A   
ATOM     3   C9  UNL     1       0.317  -1.980  -0.294  1.00  0.00     0.127 A   
ATOM     4   N3  UNL     1       0.794  -2.865  -1.218  1.00  0.00    -0.131 NA  
ATOM     5   N4  UNL     1       2.087  -2.637  -1.376  1.00  0.00    -0.071 NA  
ENDROOT
BRANCH   1   6
ATOM     6   C7  UNL     1       3.783  -1.109  -0.542  1.00  0.00     0.058 A   
ATOM     7   C3  UNL     1       5.438   0.490   0.274  1.00  0.00    -0.020 A   
ATOM     8   C4  UNL     1       6.403  -0.121  -0.539  1.00  0.00     0.006 A   
ATOM     9   C22 UNL     1       4.128  -0.022   0.275  1.00  0.00     0.032 A   
ATOM     10  C5  UNL     1       6.066  -1.210  -1.346  1.00  0.00     0.002 A   
ATOM     11  C6  UNL     1       4.762  -1.706  -1.350  1.00  0.00     0.026 A   
BRANCH   7  12
ATOM     12  C2  UNL     1       5.829   1.634   1.181  1.00  0.00     0.195 C   
BRANCH  12  13
ATOM     13  O1  UNL     1       4.745   2.560   1.283  1.00  0.00    -0.380 OA  
ATOM     14  C1  UNL     1       5.133   3.733   1.992  1.00  0.00     0.195 C   
ENDBRANCH  12  13
ENDBRANCH   7  12
ENDBRANCH   1   6
BRANCH   3  15
ATOM     15  C10 UNL     1      -1.135  -1.987   0.062  1.00  0.00     0.117 C   
BRANCH  15  16
ATOM     16  N2  UNL     1      -1.977  -2.431  -1.110  1.00  0.00     0.249 N   
ATOM     17  H11 UNL     1      -2.940  -2.614  -0.814  1.00  0.00     0.199 HD  
ATOM     18  H12 UNL     1      -1.580  -3.324  -1.435  1.00  0.00     0.199 HD  
BRANCH  16  19
ATOM     19  C11 UNL     1      -2.002  -1.519  -2.294  1.00  0.00     0.164 C   
BRANCH  19  20
ATOM     20  C12 UNL     1      -2.600  -0.173  -1.994  1.00  0.00    -0.002 A   
ATOM     21  C13 UNL     1      -1.771   0.974  -1.909  1.00  0.00     0.012 A   
ATOM     22  C17 UNL     1      -3.981  -0.045  -1.762  1.00  0.00     0.045 A   
ATOM     23  C14 UNL     1      -2.304   2.230  -1.594  1.00  0.00     0.037 A   
ATOM     24  C16 UNL     1      -4.476   1.209  -1.459  1.00  0.00     0.109 A   
ATOM     25  C15 UNL     1      -3.662   2.314  -1.376  1.00  0.00     0.108 A   
ATOM     26  O2  UNL     1      -5.778   1.503  -1.209  1.00  0.00    -0.316 OA  
ATOM     27  O3  UNL     1      -4.349   3.443  -1.069  1.00  0.00    -0.316 OA  
ATOM     28  C18 UNL     1      -5.700   2.934  -1.004  1.00  0.00     0.337 C   
ENDBRANCH  19  20
ENDBRANCH  16  19
ENDBRANCH  15  16
BRANCH  15  29
ATOM     29  C19 UNL     1      -1.428  -2.875   1.303  1.00  0.00     0.037 C   
ATOM     30  C20 UNL     1      -2.827  -2.607   1.870  1.00  0.00     0.014 C   
ATOM     31  C21 UNL     1      -1.251  -4.377   1.057  1.00  0.00     0.014 C   
ENDBRANCH  15  29
ENDBRANCH   3  15
TORSDOF 8
