REMARK SMILES CC(C)(C)c1n[nH]cc1Cn1cc([C@@H]([NH2+]Cc2ccc3c(c2)OCO3)C2CCCC2)nn1
REMARK SMILES IDX 11 1 12 2 13 3 31 4 32 5 10 7 9 8 5 9 6 10 7 11 8 12 2 14
REMARK SMILES IDX 1 15 3 16 4 17 14 18 15 19 16 22 17 23 18 24 22 25 19 26
REMARK SMILES IDX 21 27 20 28 23 29 25 30 24 31 26 32 27 33 30 34 28 35 29 36
REMARK H PARENT 12 6 7 13 15 20 15 21
ROOT
ATOM     1   N3  UNL     1      -2.724  -0.935   0.619  1.00  0.00    -0.208 N   
ATOM     2   C9  UNL     1      -2.005  -0.854  -0.544  1.00  0.00     0.046 A   
ATOM     3   C10 UNL     1      -0.739  -1.262  -0.188  1.00  0.00     0.127 A   
ATOM     4   N5  UNL     1      -0.733  -1.605   1.138  1.00  0.00    -0.132 NA  
ATOM     5   N6  UNL     1      -1.955  -1.423   1.614  1.00  0.00    -0.076 NA  
ATOM     6   H14 UNL     1      -2.437  -0.499  -1.470  1.00  0.00     0.083 HD  
ENDROOT
BRANCH   1   7
ATOM     7   C8  UNL     1      -4.117  -0.586   0.873  1.00  0.00     0.172 C   
BRANCH   7   8
ATOM     8   C7  UNL     1      -4.501   0.688   0.199  1.00  0.00     0.011 A   
ATOM     9   C5  UNL     1      -4.373   2.046   0.646  1.00  0.00     0.070 A   
ATOM     10  N1  UNL     1      -4.800   2.890  -0.305  1.00  0.00    -0.188 NA  
ATOM     11  N2  UNL     1      -5.275   2.118  -1.283  1.00  0.00    -0.245 N   
ATOM     12  C6  UNL     1      -5.106   0.792  -1.042  1.00  0.00     0.099 A   
ATOM     13  H10 UNL     1      -5.698   2.570  -2.090  1.00  0.00     0.175 HD  
BRANCH   9  14
ATOM     14  C2  UNL     1      -3.875   2.620   1.977  1.00  0.00     0.006 C   
ATOM     15  C1  UNL     1      -3.743   4.163   1.922  1.00  0.00     0.017 C   
ATOM     16  C3  UNL     1      -4.877   2.284   3.099  1.00  0.00     0.017 C   
ATOM     17  C4  UNL     1      -2.488   2.069   2.350  1.00  0.00     0.017 C   
ENDBRANCH   9  14
ENDBRANCH   7   8
ENDBRANCH   1   7
BRANCH   3  18
ATOM     18  C11 UNL     1       0.531  -1.320  -0.973  1.00  0.00     0.117 C   
BRANCH  18  19
ATOM     19  N4  UNL     1       1.698  -0.969  -0.093  1.00  0.00     0.249 N   
ATOM     20  H16 UNL     1       1.589  -1.510   0.777  1.00  0.00     0.199 HD  
ATOM     21  H17 UNL     1       2.591  -1.260  -0.502  1.00  0.00     0.199 HD  
BRANCH  19  22
ATOM     22  C12 UNL     1       1.790   0.468   0.294  1.00  0.00     0.164 C   
BRANCH  22  23
ATOM     23  C13 UNL     1       3.014   0.708   1.132  1.00  0.00    -0.002 A   
ATOM     24  C14 UNL     1       3.005   0.395   2.514  1.00  0.00     0.012 A   
ATOM     25  C18 UNL     1       4.191   1.196   0.541  1.00  0.00     0.045 A   
ATOM     26  C15 UNL     1       4.150   0.572   3.298  1.00  0.00     0.037 A   
ATOM     27  C17 UNL     1       5.301   1.361   1.343  1.00  0.00     0.109 A   
ATOM     28  C16 UNL     1       5.284   1.055   2.682  1.00  0.00     0.108 A   
ATOM     29  O1  UNL     1       6.511   1.822   0.928  1.00  0.00    -0.316 OA  
ATOM     30  O2  UNL     1       6.485   1.279   3.279  1.00  0.00    -0.316 OA  
ATOM     31  C19 UNL     1       7.243   1.824   2.177  1.00  0.00     0.337 C   
ENDBRANCH  22  23
ENDBRANCH  19  22
ENDBRANCH  18  19
BRANCH  18  32
ATOM     32  C20 UNL     1       0.728  -2.702  -1.626  1.00  0.00     0.043 C   
ATOM     33  C21 UNL     1       1.099  -3.856  -0.690  1.00  0.00     0.010 C   
ATOM     34  C24 UNL     1       1.848  -2.763  -2.668  1.00  0.00     0.010 C   
ATOM     35  C22 UNL     1       1.532  -4.963  -1.645  1.00  0.00     0.001 C   
ATOM     36  C23 UNL     1       2.091  -4.256  -2.880  1.00  0.00     0.001 C   
ENDBRANCH  18  32
ENDBRANCH   3  18
TORSDOF 8
