REMARK SMILES CC(C)[C@H]([NH2+]Cc1ccc2c(c1)OCO2)c1cn(Cc2cccc(Cl)n2)nn1
REMARK SMILES IDX 16 1 17 2 18 3 27 4 28 5 4 7 2 8 1 9 3 10 5 11 6 14 7 15
REMARK SMILES IDX 8 16 12 17 9 18 11 19 10 20 13 21 15 22 14 23 19 24 20 25
REMARK SMILES IDX 21 26 26 27 22 28 24 29 23 30 25 31
REMARK H PARENT 17 6 5 12 5 13
ROOT
ATOM     1   C13 UNL     1      -1.160   0.646  -0.991  1.00  0.00     0.127 A   
ATOM     2   C14 UNL     1      -0.151   1.545  -0.734  1.00  0.00     0.046 A   
ATOM     3   N2  UNL     1      -0.250   1.781   0.610  1.00  0.00    -0.206 N   
ATOM     4   N4  UNL     1      -1.276   1.089   1.145  1.00  0.00    -0.076 NA  
ATOM     5   N5  UNL     1      -1.834   0.381   0.176  1.00  0.00    -0.132 NA  
ATOM     6   H18 UNL     1       0.619   2.001  -1.342  1.00  0.00     0.083 HD  
ENDROOT
BRANCH   1   7
ATOM     7   C4  UNL     1      -1.550  -0.066  -2.243  1.00  0.00     0.117 C   
BRANCH   7   8
ATOM     8   C2  UNL     1      -2.661   0.650  -3.055  1.00  0.00     0.037 C   
ATOM     9   C1  UNL     1      -2.172   1.988  -3.622  1.00  0.00     0.014 C   
ATOM     10  C3  UNL     1      -3.968   0.863  -2.283  1.00  0.00     0.014 C   
ENDBRANCH   7   8
BRANCH   7  11
ATOM     11  N1  UNL     1      -2.026  -1.466  -1.906  1.00  0.00     0.249 N   
ATOM     12  H9  UNL     1      -2.373  -1.420  -0.934  1.00  0.00     0.199 HD  
ATOM     13  H10 UNL     1      -2.831  -1.722  -2.483  1.00  0.00     0.199 HD  
BRANCH  11  14
ATOM     14  C5  UNL     1      -1.006  -2.548  -1.993  1.00  0.00     0.164 C   
BRANCH  14  15
ATOM     15  C6  UNL     1       0.099  -2.439  -0.982  1.00  0.00    -0.002 A   
ATOM     16  C7  UNL     1       1.399  -2.042  -1.378  1.00  0.00     0.012 A   
ATOM     17  C11 UNL     1      -0.153  -2.718   0.372  1.00  0.00     0.045 A   
ATOM     18  C8  UNL     1       2.434  -1.928  -0.443  1.00  0.00     0.037 A   
ATOM     19  C10 UNL     1       0.889  -2.598   1.268  1.00  0.00     0.109 A   
ATOM     20  C9  UNL     1       2.147  -2.215   0.873  1.00  0.00     0.108 A   
ATOM     21  O1  UNL     1       0.816  -2.842   2.602  1.00  0.00    -0.316 OA  
ATOM     22  O2  UNL     1       3.025  -2.171   1.908  1.00  0.00    -0.316 OA  
ATOM     23  C12 UNL     1       2.181  -2.592   3.001  1.00  0.00     0.337 C   
ENDBRANCH  14  15
ENDBRANCH  11  14
ENDBRANCH   7  11
ENDBRANCH   1   7
BRANCH   3  24
ATOM     24  C15 UNL     1       0.543   2.685   1.421  1.00  0.00     0.190 C   
BRANCH  24  25
ATOM     25  C16 UNL     1       1.870   2.064   1.764  1.00  0.00     0.062 A   
ATOM     26  C17 UNL     1       2.163   1.686   3.074  1.00  0.00     0.026 A   
ATOM     27  N3  UNL     1       2.760   1.915   0.750  1.00  0.00    -0.239 NA  
ATOM     28  C18 UNL     1       3.415   1.144   3.357  1.00  0.00     0.005 A   
ATOM     29  C20 UNL     1       3.960   1.377   1.060  1.00  0.00     0.129 A   
ATOM     30  C19 UNL     1       4.337   0.983   2.329  1.00  0.00     0.041 A   
ATOM     31  CL1 UNL     1       5.017   1.197  -0.277  1.00  0.00    -0.062 Cl  
ENDBRANCH  24  25
ENDBRANCH   3  24
TORSDOF 7
