REMARK SMILES Fc1ccccc1-n1cc([C@@H]([NH2+]Cc2ccc3c(c2)OCO3)C2CCCC2)nn1
REMARK SMILES IDX 11 1 10 2 8 3 9 4 29 5 28 6 7 7 2 8 3 9 4 10 6 11 5 12 1 13
REMARK SMILES IDX 12 14 13 17 14 18 15 19 19 20 16 21 18 22 17 23 20 24 22 25
REMARK SMILES IDX 21 26 23 27 24 28 27 29 25 30 26 31
REMARK H PARENT 12 15 12 16
ROOT
ATOM     1   C9  UNL     1       0.576   0.254   0.905  1.00  0.00     0.117 C   
ENDROOT
BRANCH   1   2
ATOM     2   C8  UNL     1      -0.736   0.876   1.264  1.00  0.00     0.127 A   
ATOM     3   N1  UNL     1      -2.548   1.690   2.198  1.00  0.00    -0.178 N   
ATOM     4   C7  UNL     1      -1.339   1.085   2.484  1.00  0.00     0.135 A   
ATOM     5   N4  UNL     1      -2.671   1.778   0.845  1.00  0.00    -0.071 NA  
ATOM     6   N3  UNL     1      -1.576   1.302   0.275  1.00  0.00    -0.131 NA  
BRANCH   3   7
ATOM     7   C6  UNL     1      -3.559   2.166   3.065  1.00  0.00     0.093 A   
ATOM     8   C1  UNL     1      -3.437   2.075   4.453  1.00  0.00     0.146 A   
ATOM     9   C2  UNL     1      -4.441   2.558   5.292  1.00  0.00     0.041 A   
ATOM     10  C3  UNL     1      -5.587   3.135   4.749  1.00  0.00     0.003 A   
ATOM     11  C5  UNL     1      -4.717   2.752   2.523  1.00  0.00     0.029 A   
ATOM     12  C4  UNL     1      -5.724   3.232   3.366  1.00  0.00     0.002 A   
ATOM     13  F1  UNL     1      -2.362   1.523   5.033  1.00  0.00    -0.205 F   
ENDBRANCH   3   7
ENDBRANCH   1   2
BRANCH   1  14
ATOM     14  N2  UNL     1       0.482  -0.398  -0.454  1.00  0.00     0.249 N   
ATOM     15  H7  UNL     1       1.411  -0.563  -0.856  1.00  0.00     0.199 HD  
ATOM     16  H8  UNL     1       0.015   0.277  -1.078  1.00  0.00     0.199 HD  
BRANCH  14  17
ATOM     17  C10 UNL     1      -0.300  -1.663  -0.509  1.00  0.00     0.164 C   
BRANCH  17  18
ATOM     18  C11 UNL     1      -0.394  -2.155  -1.925  1.00  0.00    -0.002 A   
ATOM     19  C12 UNL     1      -1.444  -1.707  -2.761  1.00  0.00     0.012 A   
ATOM     20  C16 UNL     1       0.592  -3.009  -2.449  1.00  0.00     0.045 A   
ATOM     21  C13 UNL     1      -1.522  -2.113  -4.098  1.00  0.00     0.037 A   
ATOM     22  C15 UNL     1       0.489  -3.387  -3.772  1.00  0.00     0.109 A   
ATOM     23  C14 UNL     1      -0.538  -2.954  -4.573  1.00  0.00     0.108 A   
ATOM     24  O1  UNL     1       1.356  -4.197  -4.433  1.00  0.00    -0.316 OA  
ATOM     25  O2  UNL     1      -0.451  -3.440  -5.838  1.00  0.00    -0.316 OA  
ATOM     26  C17 UNL     1       0.750  -4.237  -5.745  1.00  0.00     0.337 C   
ENDBRANCH  17  18
ENDBRANCH  14  17
ENDBRANCH   1  14
BRANCH   1  27
ATOM     27  C18 UNL     1       1.765   1.233   0.869  1.00  0.00     0.043 C   
ATOM     28  C19 UNL     1       2.060   1.951   2.188  1.00  0.00     0.010 C   
ATOM     29  C22 UNL     1       1.653   2.401  -0.115  1.00  0.00     0.010 C   
ATOM     30  C20 UNL     1       3.024   3.068   1.795  1.00  0.00     0.001 C   
ATOM     31  C21 UNL     1       2.769   3.350   0.314  1.00  0.00     0.001 C   
ENDBRANCH   1  27
TORSDOF 6
