REMARK SMILES CC(C)[C@H]([NH2+]Cc1ccc2c(c1)OCO2)c1cn([C@@H](CO)c2ccc(F)cc2)nn1
REMARK SMILES IDX 16 1 17 2 18 3 29 4 30 5 4 7 2 8 1 9 3 10 5 11 6 14 7 15
REMARK SMILES IDX 8 16 12 17 9 18 11 19 10 20 13 21 15 22 14 23 19 24 20 25
REMARK SMILES IDX 21 26 22 28 23 29 28 30 24 31 27 32 25 33 26 34
REMARK H PARENT 17 6 5 12 5 13 21 27
ROOT
ATOM     1   C13 UNL     1      -1.260   0.630  -0.545  1.00  0.00     0.127 A   
ATOM     2   C14 UNL     1      -0.773  -0.189  -1.537  1.00  0.00     0.046 A   
ATOM     3   N2  UNL     1      -1.178   0.412  -2.699  1.00  0.00    -0.202 N   
ATOM     4   N3  UNL     1      -1.841   1.558  -2.433  1.00  0.00    -0.075 NA  
ATOM     5   N4  UNL     1      -1.906   1.695  -1.119  1.00  0.00    -0.132 NA  
ATOM     6   H18 UNL     1      -0.204  -1.109  -1.532  1.00  0.00     0.083 HD  
ENDROOT
BRANCH   1   7
ATOM     7   C4  UNL     1      -1.156   0.536   0.943  1.00  0.00     0.117 C   
BRANCH   7   8
ATOM     8   C2  UNL     1      -2.244  -0.391   1.548  1.00  0.00     0.037 C   
ATOM     9   C1  UNL     1      -1.944  -0.737   3.012  1.00  0.00     0.014 C   
ATOM     10  C3  UNL     1      -3.671   0.159   1.429  1.00  0.00     0.014 C   
ENDBRANCH   7   8
BRANCH   7  11
ATOM     11  N1  UNL     1      -1.237   1.911   1.564  1.00  0.00     0.249 N   
ATOM     12  H9  UNL     1      -2.025   2.386   1.101  1.00  0.00     0.199 HD  
ATOM     13  H10 UNL     1      -1.461   1.851   2.560  1.00  0.00     0.199 HD  
BRANCH  11  14
ATOM     14  C5  UNL     1      -0.035   2.779   1.386  1.00  0.00     0.164 C   
BRANCH  14  15
ATOM     15  C6  UNL     1       1.154   2.295   2.168  1.00  0.00    -0.002 A   
ATOM     16  C7  UNL     1       2.264   1.724   1.498  1.00  0.00     0.012 A   
ATOM     17  C11 UNL     1       1.162   2.378   3.572  1.00  0.00     0.045 A   
ATOM     18  C8  UNL     1       3.364   1.238   2.214  1.00  0.00     0.037 A   
ATOM     19  C10 UNL     1       2.262   1.888   4.246  1.00  0.00     0.109 A   
ATOM     20  C9  UNL     1       3.331   1.334   3.588  1.00  0.00     0.108 A   
ATOM     21  O1  UNL     1       2.424   1.885   5.596  1.00  0.00    -0.316 OA  
ATOM     22  O2  UNL     1       4.303   0.914   4.439  1.00  0.00    -0.316 OA  
ATOM     23  C12 UNL     1       3.740   1.298   5.712  1.00  0.00     0.337 C   
ENDBRANCH  14  15
ENDBRANCH  11  14
ENDBRANCH   7  11
ENDBRANCH   1   7
BRANCH   3  24
ATOM     24  C15 UNL     1      -0.982  -0.023  -4.083  1.00  0.00     0.155 C   
BRANCH  24  25
ATOM     25  C16 UNL     1       0.410   0.392  -4.602  1.00  0.00     0.185 C   
BRANCH  25  26
ATOM     26  O3  UNL     1       1.482  -0.105  -3.797  1.00  0.00    -0.394 OA  
ATOM     27  H22 UNL     1       2.311   0.135  -4.252  1.00  0.00     0.210 HD  
ENDBRANCH  25  26
ENDBRANCH  24  25
BRANCH  24  28
ATOM     28  C17 UNL     1      -1.386  -1.486  -4.252  1.00  0.00    -0.023 A   
ATOM     29  C18 UNL     1      -0.453  -2.535  -4.327  1.00  0.00     0.009 A   
ATOM     30  C22 UNL     1      -2.758  -1.807  -4.309  1.00  0.00     0.009 A   
ATOM     31  C19 UNL     1      -0.879  -3.859  -4.460  1.00  0.00     0.039 A   
ATOM     32  C21 UNL     1      -3.180  -3.131  -4.442  1.00  0.00     0.039 A   
ATOM     33  C20 UNL     1      -2.236  -4.145  -4.516  1.00  0.00     0.123 A   
ATOM     34  F1  UNL     1      -2.639  -5.416  -4.637  1.00  0.00    -0.207 F   
ENDBRANCH  24  28
ENDBRANCH   3  24
TORSDOF 9
