REMARK SMILES CC(C)[C@H]([NH2+]Cc1ccc2c(c1)OCO2)c1cn([C@H](CO)c2ccc(F)cc2)nn1
REMARK SMILES IDX 16 1 17 2 18 3 29 4 30 5 4 7 2 8 1 9 3 10 5 11 6 14 7 15
REMARK SMILES IDX 8 16 12 17 9 18 11 19 10 20 13 21 15 22 14 23 19 24 20 25
REMARK SMILES IDX 21 26 22 28 23 29 28 30 24 31 27 32 25 33 26 34
REMARK H PARENT 17 6 5 12 5 13 21 27
ROOT
ATOM     1   C13 UNL     1       0.244  -0.220   0.920  1.00  0.00     0.127 A   
ATOM     2   C14 UNL     1       0.229   1.047   1.455  1.00  0.00     0.046 A   
ATOM     3   N2  UNL     1       1.444   1.575   1.106  1.00  0.00    -0.202 N   
ATOM     4   N3  UNL     1       2.153   0.688   0.375  1.00  0.00    -0.075 NA  
ATOM     5   N4  UNL     1       1.432  -0.416   0.262  1.00  0.00    -0.132 NA  
ATOM     6   H18 UNL     1      -0.499   1.609   2.024  1.00  0.00     0.083 HD  
ENDROOT
BRANCH   1   7
ATOM     7   C4  UNL     1      -0.799  -1.289   0.891  1.00  0.00     0.117 C   
BRANCH   7   8
ATOM     8   C2  UNL     1      -0.694  -2.313   2.051  1.00  0.00     0.037 C   
ATOM     9   C1  UNL     1       0.639  -3.067   2.108  1.00  0.00     0.014 C   
ATOM     10  C3  UNL     1      -0.977  -1.658   3.407  1.00  0.00     0.014 C   
ENDBRANCH   7   8
BRANCH   7  11
ATOM     11  N1  UNL     1      -0.723  -2.037  -0.418  1.00  0.00     0.249 N   
ATOM     12  H9  UNL     1       0.275  -2.231  -0.589  1.00  0.00     0.199 HD  
ATOM     13  H10 UNL     1      -1.191  -2.946  -0.362  1.00  0.00     0.199 HD  
BRANCH  11  14
ATOM     14  C5  UNL     1      -1.235  -1.290  -1.601  1.00  0.00     0.164 C   
BRANCH  14  15
ATOM     15  C6  UNL     1      -0.994  -2.068  -2.863  1.00  0.00    -0.002 A   
ATOM     16  C7  UNL     1      -2.006  -2.897  -3.401  1.00  0.00     0.012 A   
ATOM     17  C11 UNL     1       0.262  -2.006  -3.495  1.00  0.00     0.045 A   
ATOM     18  C8  UNL     1      -1.778  -3.644  -4.562  1.00  0.00     0.037 A   
ATOM     19  C10 UNL     1       0.451  -2.755  -4.638  1.00  0.00     0.109 A   
ATOM     20  C9  UNL     1      -0.539  -3.549  -5.158  1.00  0.00     0.108 A   
ATOM     21  O1  UNL     1       1.594  -2.804  -5.370  1.00  0.00    -0.316 OA  
ATOM     22  O2  UNL     1      -0.147  -4.196  -6.286  1.00  0.00    -0.316 OA  
ATOM     23  C12 UNL     1       1.204  -3.707  -6.429  1.00  0.00     0.337 C   
ENDBRANCH  14  15
ENDBRANCH  11  14
ENDBRANCH   7  11
ENDBRANCH   1   7
BRANCH   3  24
ATOM     24  C15 UNL     1       1.974   2.914   1.361  1.00  0.00     0.155 C   
BRANCH  24  25
ATOM     25  C16 UNL     1       2.316   3.122   2.852  1.00  0.00     0.185 C   
BRANCH  25  26
ATOM     26  O3  UNL     1       1.200   2.925   3.722  1.00  0.00    -0.394 OA  
ATOM     27  H22 UNL     1       1.517   3.087   4.633  1.00  0.00     0.210 HD  
ENDBRANCH  25  26
ENDBRANCH  24  25
BRANCH  24  28
ATOM     28  C17 UNL     1       1.094   3.962   0.684  1.00  0.00    -0.023 A   
ATOM     29  C18 UNL     1       1.240   4.172  -0.704  1.00  0.00     0.009 A   
ATOM     30  C22 UNL     1       0.118   4.704   1.371  1.00  0.00     0.009 A   
ATOM     31  C19 UNL     1       0.438   5.096  -1.378  1.00  0.00     0.039 A   
ATOM     32  C21 UNL     1      -0.683   5.627   0.693  1.00  0.00     0.039 A   
ATOM     33  C20 UNL     1      -0.518   5.814  -0.673  1.00  0.00     0.123 A   
ATOM     34  F1  UNL     1      -1.295   6.691  -1.320  1.00  0.00    -0.207 F   
ENDBRANCH  24  28
ENDBRANCH   3  24
TORSDOF 9
