REMARK SMILES CC(C)C[C@H]([NH2+]Cc1ccc2c(c1)OCO2)c1cn(CC(=O)c2ccccc2O)nn1
REMARK SMILES IDX 17 1 18 2 19 3 30 4 31 5 5 7 4 8 2 9 1 10 3 11 6 12 7 15
REMARK SMILES IDX 8 16 9 17 13 18 10 19 12 20 11 21 14 22 16 23 15 24 20 25
REMARK SMILES IDX 21 26 22 27 23 28 24 29 28 30 25 31 27 32 26 33 29 34
REMARK H PARENT 18 6 6 13 6 14 29 35
ROOT
ATOM     1   C14 UNL     1       0.803   1.134   0.315  1.00  0.00     0.127 A   
ATOM     2   C15 UNL     1       0.296   0.963  -0.953  1.00  0.00     0.046 A   
ATOM     3   N2  UNL     1      -0.979   0.517  -0.739  1.00  0.00    -0.204 N   
ATOM     4   N3  UNL     1      -1.275   0.519   0.573  1.00  0.00    -0.076 NA  
ATOM     5   N4  UNL     1      -0.191   0.890   1.231  1.00  0.00    -0.132 NA  
ATOM     6   H20 UNL     1       0.718   1.043  -1.945  1.00  0.00     0.083 HD  
ENDROOT
BRANCH   1   7
ATOM     7   C5  UNL     1       2.160   1.520   0.807  1.00  0.00     0.114 C   
BRANCH   7   8
ATOM     8   C4  UNL     1       3.332   0.799   0.108  1.00  0.00     0.064 C   
BRANCH   8   9
ATOM     9   C2  UNL     1       3.648  -0.660   0.513  1.00  0.00    -0.012 C   
ATOM     10  C1  UNL     1       4.912  -1.129  -0.220  1.00  0.00     0.007 C   
ATOM     11  C3  UNL     1       2.509  -1.636   0.226  1.00  0.00     0.007 C   
ENDBRANCH   8   9
ENDBRANCH   7   8
BRANCH   7  12
ATOM     12  N1  UNL     1       2.222   1.331   2.295  1.00  0.00     0.249 N   
ATOM     13  H11 UNL     1       1.310   1.649   2.661  1.00  0.00     0.199 HD  
ATOM     14  H12 UNL     1       2.208   0.328   2.518  1.00  0.00     0.199 HD  
BRANCH  12  15
ATOM     15  C6  UNL     1       3.298   2.023   3.034  1.00  0.00     0.164 C   
BRANCH  15  16
ATOM     16  C7  UNL     1       3.173   1.758   4.508  1.00  0.00    -0.002 A   
ATOM     17  C8  UNL     1       3.741   0.592   5.075  1.00  0.00     0.012 A   
ATOM     18  C12 UNL     1       2.426   2.629   5.321  1.00  0.00     0.045 A   
ATOM     19  C9  UNL     1       3.575   0.298   6.433  1.00  0.00     0.037 A   
ATOM     20  C11 UNL     1       2.279   2.308   6.655  1.00  0.00     0.109 A   
ATOM     21  C10 UNL     1       2.837   1.176   7.196  1.00  0.00     0.108 A   
ATOM     22  O1  UNL     1       1.578   3.028   7.567  1.00  0.00    -0.316 OA  
ATOM     23  O2  UNL     1       2.559   1.038   8.517  1.00  0.00    -0.316 OA  
ATOM     24  C13 UNL     1       1.753   2.213   8.749  1.00  0.00     0.337 C   
ENDBRANCH  15  16
ENDBRANCH  12  15
ENDBRANCH   7  12
ENDBRANCH   1   7
BRANCH   3  25
ATOM     25  C16 UNL     1      -1.954   0.070  -1.717  1.00  0.00     0.215 C   
BRANCH  25  26
ATOM     26  C17 UNL     1      -1.690  -1.363  -2.117  1.00  0.00     0.184 C   
ATOM     27  O3  UNL     1      -0.565  -1.863  -2.071  1.00  0.00    -0.292 OA  
BRANCH  26  28
ATOM     28  C18 UNL     1      -2.831  -2.202  -2.573  1.00  0.00     0.049 A   
ATOM     29  C19 UNL     1      -2.740  -3.587  -2.363  1.00  0.00     0.014 A   
ATOM     30  C23 UNL     1      -3.968  -1.680  -3.193  1.00  0.00     0.082 A   
ATOM     31  C20 UNL     1      -3.789  -4.430  -2.739  1.00  0.00     0.001 A   
ATOM     32  C22 UNL     1      -5.019  -2.524  -3.564  1.00  0.00     0.034 A   
ATOM     33  C21 UNL     1      -4.931  -3.898  -3.330  1.00  0.00     0.003 A   
BRANCH  30  34
ATOM     34  O4  UNL     1      -4.056  -0.343  -3.465  1.00  0.00    -0.360 OA  
ATOM     35  H27 UNL     1      -4.847  -0.189  -4.020  1.00  0.00     0.218 HD  
ENDBRANCH  30  34
ENDBRANCH  26  28
ENDBRANCH  25  26
ENDBRANCH   3  25
TORSDOF 10
