REMARK SMILES Cc1cc(C)cc([C@H](O)Cn2cc([C@@H]([NH2+]Cc3ccc4c(c3)OCO4)C(C)C)nn2)c1
REMARK SMILES IDX 11 1 12 2 13 3 29 4 30 5 10 7 8 8 7 9 2 10 3 11 31 12 4 13
REMARK SMILES IDX 6 14 1 15 5 16 9 17 14 19 15 20 16 23 17 24 18 25 22 26
REMARK SMILES IDX 19 27 21 28 20 29 23 30 25 31 24 32 26 33 27 34 28 35
REMARK H PARENT 12 6 9 18 15 21 15 22
ROOT
ATOM     1   N1  UNL     1      -1.242  -0.960  -0.906  1.00  0.00    -0.209 N   
ATOM     2   C10 UNL     1      -1.505   0.373  -1.049  1.00  0.00     0.045 A   
ATOM     3   C11 UNL     1      -0.468   0.833  -1.827  1.00  0.00     0.127 A   
ATOM     4   N3  UNL     1       0.370  -0.211  -2.124  1.00  0.00    -0.132 NA  
ATOM     5   N4  UNL     1      -0.125  -1.307  -1.572  1.00  0.00    -0.076 NA  
ATOM     6   H13 UNL     1      -2.350   0.850  -0.571  1.00  0.00     0.083 HD  
ENDROOT
BRANCH   1   7
ATOM     7   C9  UNL     1      -2.002  -1.951  -0.168  1.00  0.00     0.170 C   
BRANCH   7   8
ATOM     8   C8  UNL     1      -1.309  -2.317   1.146  1.00  0.00     0.164 C   
BRANCH   8   9
ATOM     9   C7  UNL     1      -1.982  -3.502   1.808  1.00  0.00    -0.017 A   
ATOM     10  C2  UNL     1      -2.012  -5.886   2.317  1.00  0.00    -0.051 A   
ATOM     11  C3  UNL     1      -3.228  -5.718   2.993  1.00  0.00     0.006 A   
ATOM     12  C24 UNL     1      -1.404  -4.777   1.717  1.00  0.00     0.010 A   
ATOM     13  C4  UNL     1      -3.833  -4.459   3.080  1.00  0.00    -0.051 A   
ATOM     14  C6  UNL     1      -3.201  -3.356   2.491  1.00  0.00     0.010 A   
ATOM     15  C1  UNL     1      -1.406  -7.254   2.195  1.00  0.00     0.044 C   
ATOM     16  C5  UNL     1      -5.119  -4.279   3.832  1.00  0.00     0.044 C   
ENDBRANCH   8   9
BRANCH   8  17
ATOM     17  O1  UNL     1      -1.333  -1.192   2.037  1.00  0.00    -0.387 OA  
ATOM     18  H10 UNL     1      -1.182  -1.543   2.935  1.00  0.00     0.211 HD  
ENDBRANCH   8  17
ENDBRANCH   7   8
ENDBRANCH   1   7
BRANCH   3  19
ATOM     19  C12 UNL     1      -0.119   2.214  -2.283  1.00  0.00     0.117 C   
BRANCH  19  20
ATOM     20  N2  UNL     1       1.365   2.398  -2.101  1.00  0.00     0.249 N   
ATOM     21  H15 UNL     1       1.587   2.103  -1.140  1.00  0.00     0.199 HD  
ATOM     22  H16 UNL     1       1.855   1.698  -2.674  1.00  0.00     0.199 HD  
BRANCH  20  23
ATOM     23  C13 UNL     1       1.927   3.751  -2.317  1.00  0.00     0.164 C   
BRANCH  23  24
ATOM     24  C14 UNL     1       3.348   3.820  -1.837  1.00  0.00    -0.002 A   
ATOM     25  C15 UNL     1       4.415   3.491  -2.708  1.00  0.00     0.012 A   
ATOM     26  C19 UNL     1       3.625   4.163  -0.503  1.00  0.00     0.045 A   
ATOM     27  C16 UNL     1       5.740   3.516  -2.261  1.00  0.00     0.037 A   
ATOM     28  C18 UNL     1       4.942   4.176  -0.095  1.00  0.00     0.109 A   
ATOM     29  C17 UNL     1       5.970   3.862  -0.948  1.00  0.00     0.108 A   
ATOM     30  O2  UNL     1       5.379   4.484   1.155  1.00  0.00    -0.316 OA  
ATOM     31  O3  UNL     1       7.184   3.935  -0.345  1.00  0.00    -0.316 OA  
ATOM     32  C20 UNL     1       6.808   4.349   0.986  1.00  0.00     0.337 C   
ENDBRANCH  23  24
ENDBRANCH  20  23
ENDBRANCH  19  20
BRANCH  19  33
ATOM     33  C21 UNL     1      -0.554   2.530  -3.738  1.00  0.00     0.037 C   
ATOM     34  C22 UNL     1       0.118   1.662  -4.808  1.00  0.00     0.014 C   
ATOM     35  C23 UNL     1      -2.078   2.453  -3.896  1.00  0.00     0.014 C   
ENDBRANCH  19  33
ENDBRANCH   3  19
TORSDOF 9
