REMARK SMILES Cc1cc(C)cc([C@@H](O)Cn2cc([C@@H]([NH2+]Cc3ccc4c(c3)OCO4)C(C)C)nn2)c1
REMARK SMILES IDX 11 1 12 2 13 3 29 4 30 5 10 7 8 8 7 9 2 10 3 11 31 12 4 13
REMARK SMILES IDX 6 14 1 15 5 16 9 17 14 19 15 20 16 23 17 24 18 25 22 26
REMARK SMILES IDX 19 27 21 28 20 29 23 30 25 31 24 32 26 33 27 34 28 35
REMARK H PARENT 12 6 9 18 15 21 15 22
ROOT
ATOM     1   N1  UNL     1       0.786  -3.301   1.025  1.00  0.00    -0.209 N   
ATOM     2   C10 UNL     1       1.345  -2.054   1.026  1.00  0.00     0.045 A   
ATOM     3   C11 UNL     1       0.784  -1.441   2.123  1.00  0.00     0.127 A   
ATOM     4   N3  UNL     1      -0.077  -2.314   2.737  1.00  0.00    -0.132 NA  
ATOM     5   N4  UNL     1      -0.066  -3.448   2.056  1.00  0.00    -0.076 NA  
ATOM     6   H13 UNL     1       2.042  -1.729   0.265  1.00  0.00     0.083 HD  
ENDROOT
BRANCH   1   7
ATOM     7   C9  UNL     1       0.969  -4.358   0.058  1.00  0.00     0.170 C   
BRANCH   7   8
ATOM     8   C8  UNL     1      -0.297  -4.663  -0.748  1.00  0.00     0.164 C   
BRANCH   8   9
ATOM     9   C7  UNL     1      -0.845  -3.461  -1.495  1.00  0.00    -0.017 A   
ATOM     10  C2  UNL     1      -2.596  -1.789  -1.792  1.00  0.00    -0.051 A   
ATOM     11  C3  UNL     1      -1.875  -1.236  -2.856  1.00  0.00     0.006 A   
ATOM     12  C24 UNL     1      -2.068  -2.892  -1.109  1.00  0.00     0.010 A   
ATOM     13  C4  UNL     1      -0.655  -1.792  -3.263  1.00  0.00    -0.051 A   
ATOM     14  C6  UNL     1      -0.144  -2.897  -2.572  1.00  0.00     0.010 A   
ATOM     15  C1  UNL     1      -3.902  -1.184  -1.365  1.00  0.00     0.044 C   
ATOM     16  C5  UNL     1       0.111  -1.184  -4.402  1.00  0.00     0.044 C   
ENDBRANCH   8   9
BRANCH   8  17
ATOM     17  O1  UNL     1       0.000  -5.699  -1.688  1.00  0.00    -0.387 OA  
ATOM     18  H10 UNL     1      -0.725  -5.718  -2.340  1.00  0.00     0.211 HD  
ENDBRANCH   8  17
ENDBRANCH   7   8
ENDBRANCH   1   7
BRANCH   3  19
ATOM     19  C12 UNL     1       0.903  -0.041   2.635  1.00  0.00     0.117 C   
BRANCH  19  20
ATOM     20  N2  UNL     1      -0.485   0.494   2.930  1.00  0.00     0.249 N   
ATOM     21  H15 UNL     1      -0.432   1.406   3.389  1.00  0.00     0.199 HD  
ATOM     22  H16 UNL     1      -0.912  -0.165   3.597  1.00  0.00     0.199 HD  
BRANCH  20  23
ATOM     23  C13 UNL     1      -1.412   0.613   1.763  1.00  0.00     0.164 C   
BRANCH  23  24
ATOM     24  C14 UNL     1      -0.962   1.642   0.764  1.00  0.00    -0.002 A   
ATOM     25  C15 UNL     1      -0.385   1.237  -0.463  1.00  0.00     0.012 A   
ATOM     26  C19 UNL     1      -1.078   3.012   1.054  1.00  0.00     0.045 A   
ATOM     27  C16 UNL     1       0.071   2.179  -1.391  1.00  0.00     0.037 A   
ATOM     28  C18 UNL     1      -0.617   3.915   0.118  1.00  0.00     0.109 A   
ATOM     29  C17 UNL     1      -0.059   3.511  -1.070  1.00  0.00     0.108 A   
ATOM     30  O2  UNL     1      -0.649   5.267   0.243  1.00  0.00    -0.316 OA  
ATOM     31  O3  UNL     1       0.329   4.558  -1.843  1.00  0.00    -0.316 OA  
ATOM     32  C20 UNL     1      -0.069   5.674  -1.017  1.00  0.00     0.337 C   
ENDBRANCH  23  24
ENDBRANCH  20  23
ENDBRANCH  19  20
BRANCH  19  33
ATOM     33  C21 UNL     1       1.767   0.043   3.926  1.00  0.00     0.037 C   
ATOM     34  C22 UNL     1       1.863   1.470   4.482  1.00  0.00     0.014 C   
ATOM     35  C23 UNL     1       3.193  -0.473   3.676  1.00  0.00     0.014 C   
ENDBRANCH  19  33
ENDBRANCH   3  19
TORSDOF 9
