REMARK SMILES Cc1ccccc1[C@H](O)Cn1cc([C@@H]([NH2+]Cc2ccc3c(c2)OCO3)C(C)C)nn1
REMARK SMILES IDX 11 1 12 2 13 3 29 4 30 5 10 7 8 8 7 9 2 10 3 11 4 12 6 13
REMARK SMILES IDX 5 14 1 15 9 16 14 18 15 19 16 22 17 23 18 24 22 25 19 26
REMARK SMILES IDX 21 27 20 28 23 29 25 30 24 31 26 32 27 33 28 34
REMARK H PARENT 12 6 9 17 15 20 15 21
ROOT
ATOM     1   N1  UNL     1       0.339   0.426   1.885  1.00  0.00    -0.209 N   
ATOM     2   C10 UNL     1      -1.025   0.479   1.950  1.00  0.00     0.045 A   
ATOM     3   C11 UNL     1      -1.439  -0.157   0.801  1.00  0.00     0.127 A   
ATOM     4   N3  UNL     1      -0.335  -0.555   0.088  1.00  0.00    -0.132 NA  
ATOM     5   N4  UNL     1       0.745  -0.185   0.757  1.00  0.00    -0.076 NA  
ATOM     6   H12 UNL     1      -1.543   0.955   2.770  1.00  0.00     0.083 HD  
ENDROOT
BRANCH   1   7
ATOM     7   C9  UNL     1       1.304   0.921   2.847  1.00  0.00     0.170 C   
BRANCH   7   8
ATOM     8   C8  UNL     1       1.692   2.371   2.549  1.00  0.00     0.164 C   
BRANCH   8   9
ATOM     9   C7  UNL     1       2.899   2.796   3.367  1.00  0.00    -0.015 A   
ATOM     10  C2  UNL     1       4.188   2.901   2.799  1.00  0.00    -0.045 A   
ATOM     11  C3  UNL     1       5.266   3.295   3.609  1.00  0.00     0.004 A   
ATOM     12  C4  UNL     1       5.084   3.566   4.964  1.00  0.00     0.000 A   
ATOM     13  C6  UNL     1       2.738   3.066   4.742  1.00  0.00     0.007 A   
ATOM     14  C5  UNL     1       3.821   3.448   5.532  1.00  0.00     0.000 A   
ATOM     15  C1  UNL     1       4.451   2.615   1.344  1.00  0.00     0.045 C   
ENDBRANCH   8   9
BRANCH   8  16
ATOM     16  O1  UNL     1       0.584   3.237   2.843  1.00  0.00    -0.387 OA  
ATOM     17  H9  UNL     1       0.956   4.130   2.981  1.00  0.00     0.211 HD  
ENDBRANCH   8  16
ENDBRANCH   7   8
ENDBRANCH   1   7
BRANCH   3  18
ATOM     18  C12 UNL     1      -2.803  -0.404   0.244  1.00  0.00     0.117 C   
BRANCH  18  19
ATOM     19  N2  UNL     1      -2.737  -0.488  -1.262  1.00  0.00     0.249 N   
ATOM     20  H14 UNL     1      -3.558  -0.960  -1.652  1.00  0.00     0.199 HD  
ATOM     21  H15 UNL     1      -1.924  -1.081  -1.488  1.00  0.00     0.199 HD  
BRANCH  19  22
ATOM     22  C13 UNL     1      -2.538   0.808  -1.968  1.00  0.00     0.164 C   
BRANCH  22  23
ATOM     23  C14 UNL     1      -2.398   0.575  -3.447  1.00  0.00    -0.002 A   
ATOM     24  C15 UNL     1      -3.516   0.702  -4.306  1.00  0.00     0.012 A   
ATOM     25  C19 UNL     1      -1.160   0.170  -3.975  1.00  0.00     0.045 A   
ATOM     26  C16 UNL     1      -3.401   0.436  -5.675  1.00  0.00     0.037 A   
ATOM     27  C18 UNL     1      -1.083  -0.087  -5.329  1.00  0.00     0.109 A   
ATOM     28  C17 UNL     1      -2.172   0.042  -6.155  1.00  0.00     0.108 A   
ATOM     29  O2  UNL     1       0.029  -0.493  -5.995  1.00  0.00    -0.316 OA  
ATOM     30  O3  UNL     1      -1.882  -0.263  -7.447  1.00  0.00    -0.316 OA  
ATOM     31  C20 UNL     1      -0.480  -0.591  -7.345  1.00  0.00     0.337 C   
ENDBRANCH  22  23
ENDBRANCH  19  22
ENDBRANCH  18  19
BRANCH  18  32
ATOM     32  C21 UNL     1      -3.481  -1.696   0.771  1.00  0.00     0.037 C   
ATOM     33  C22 UNL     1      -2.694  -2.980   0.478  1.00  0.00     0.014 C   
ATOM     34  C23 UNL     1      -3.788  -1.607   2.271  1.00  0.00     0.014 C   
ENDBRANCH  18  32
ENDBRANCH   3  18
TORSDOF 9
