REMARK SMILES Cc1ccccc1[C@@H](O)Cn1cc([C@@H]([NH2+]Cc2ccc3c(c2)OCO3)C(C)C)nn1
REMARK SMILES IDX 11 1 12 2 13 3 29 4 30 5 10 7 8 8 7 9 2 10 3 11 4 12 6 13
REMARK SMILES IDX 5 14 1 15 9 16 14 18 15 19 16 22 17 23 18 24 22 25 19 26
REMARK SMILES IDX 21 27 20 28 23 29 25 30 24 31 26 32 27 33 28 34
REMARK H PARENT 12 6 9 17 15 20 15 21
ROOT
ATOM     1   N1  UNL     1       1.800  -1.736   1.354  1.00  0.00    -0.209 N   
ATOM     2   C10 UNL     1       1.835  -0.710   0.455  1.00  0.00     0.045 A   
ATOM     3   C11 UNL     1       1.924   0.418   1.242  1.00  0.00     0.127 A   
ATOM     4   N3  UNL     1       1.948   0.044   2.561  1.00  0.00    -0.132 NA  
ATOM     5   N4  UNL     1       1.886  -1.276   2.616  1.00  0.00    -0.076 NA  
ATOM     6   H12 UNL     1       1.760  -0.869  -0.613  1.00  0.00     0.083 HD  
ENDROOT
BRANCH   1   7
ATOM     7   C9  UNL     1       1.656  -3.148   1.087  1.00  0.00     0.170 C   
BRANCH   7   8
ATOM     8   C8  UNL     1       0.313  -3.722   1.551  1.00  0.00     0.164 C   
BRANCH   8   9
ATOM     9   C7  UNL     1      -0.900  -3.020   0.956  1.00  0.00    -0.015 A   
ATOM     10  C2  UNL     1      -1.853  -2.350   1.755  1.00  0.00    -0.045 A   
ATOM     11  C3  UNL     1      -2.960  -1.740   1.139  1.00  0.00     0.004 A   
ATOM     12  C4  UNL     1      -3.125  -1.782  -0.245  1.00  0.00     0.000 A   
ATOM     13  C6  UNL     1      -1.091  -3.055  -0.440  1.00  0.00     0.007 A   
ATOM     14  C5  UNL     1      -2.189  -2.436  -1.034  1.00  0.00     0.000 A   
ATOM     15  C1  UNL     1      -1.752  -2.296   3.256  1.00  0.00     0.045 C   
ENDBRANCH   8   9
BRANCH   8  16
ATOM     16  O1  UNL     1       0.264  -5.106   1.185  1.00  0.00    -0.387 OA  
ATOM     17  H9  UNL     1      -0.670  -5.385   1.226  1.00  0.00     0.211 HD  
ENDBRANCH   8  16
ENDBRANCH   7   8
ENDBRANCH   1   7
BRANCH   3  18
ATOM     18  C12 UNL     1       1.893   1.866   0.883  1.00  0.00     0.117 C   
BRANCH  18  19
ATOM     19  N2  UNL     1       1.010   2.627   1.850  1.00  0.00     0.249 N   
ATOM     20  H14 UNL     1       1.116   3.635   1.704  1.00  0.00     0.199 HD  
ATOM     21  H15 UNL     1       1.359   2.411   2.793  1.00  0.00     0.199 HD  
BRANCH  19  22
ATOM     22  C13 UNL     1      -0.443   2.274   1.841  1.00  0.00     0.164 C   
BRANCH  22  23
ATOM     23  C14 UNL     1      -1.127   2.606   0.544  1.00  0.00    -0.002 A   
ATOM     24  C15 UNL     1      -1.462   3.945   0.228  1.00  0.00     0.012 A   
ATOM     25  C19 UNL     1      -1.410   1.586  -0.381  1.00  0.00     0.045 A   
ATOM     26  C16 UNL     1      -2.071   4.262  -0.990  1.00  0.00     0.037 A   
ATOM     27  C18 UNL     1      -2.009   1.933  -1.572  1.00  0.00     0.109 A   
ATOM     28  C17 UNL     1      -2.332   3.234  -1.868  1.00  0.00     0.108 A   
ATOM     29  O2  UNL     1      -2.344   1.074  -2.570  1.00  0.00    -0.316 OA  
ATOM     30  O3  UNL     1      -2.912   3.359  -3.089  1.00  0.00    -0.316 OA  
ATOM     31  C20 UNL     1      -2.938   1.982  -3.525  1.00  0.00     0.337 C   
ENDBRANCH  22  23
ENDBRANCH  19  22
ENDBRANCH  18  19
BRANCH  18  32
ATOM     32  C21 UNL     1       3.288   2.546   0.849  1.00  0.00     0.037 C   
ATOM     33  C22 UNL     1       4.165   1.965  -0.268  1.00  0.00     0.014 C   
ATOM     34  C23 UNL     1       4.053   2.508   2.177  1.00  0.00     0.014 C   
ENDBRANCH  18  32
ENDBRANCH   3  18
TORSDOF 9
