REMARK SMILES CC(C)(C)[C@H]([NH2+]Cc1ccc2c(c1)OCO2)c1cn(-c2ccc(O)cc2)nn1
REMARK SMILES IDX 17 1 18 2 19 3 27 4 28 5 5 6 2 7 1 8 3 9 4 10 6 11 7 14 8 15
REMARK SMILES IDX 9 16 13 17 10 18 12 19 11 20 14 21 16 22 15 23 20 24 21 25
REMARK SMILES IDX 26 26 22 27 25 28 23 29 24 30
REMARK H PARENT 6 12 6 13 24 31
ROOT
ATOM     1   C14 UNL     1      -0.419   0.595  -0.624  1.00  0.00     0.128 A   
ATOM     2   C15 UNL     1      -1.671   1.161  -0.511  1.00  0.00     0.135 A   
ATOM     3   N2  UNL     1      -2.530   0.097  -0.308  1.00  0.00    -0.181 N   
ATOM     4   N3  UNL     1      -1.799  -1.047  -0.254  1.00  0.00    -0.071 NA  
ATOM     5   N4  UNL     1      -0.525  -0.756  -0.454  1.00  0.00    -0.131 NA  
ENDROOT
BRANCH   1   6
ATOM     6   C5  UNL     1       0.937   1.209  -0.818  1.00  0.00     0.120 C   
BRANCH   6   7
ATOM     7   C2  UNL     1       1.361   1.370  -2.321  1.00  0.00     0.010 C   
ATOM     8   C1  UNL     1       2.700   2.139  -2.422  1.00  0.00     0.017 C   
ATOM     9   C3  UNL     1       0.309   2.204  -3.088  1.00  0.00     0.017 C   
ATOM     10  C4  UNL     1       1.524   0.016  -3.039  1.00  0.00     0.017 C   
ENDBRANCH   6   7
BRANCH   6  11
ATOM     11  N1  UNL     1       1.956   0.376  -0.074  1.00  0.00     0.250 N   
ATOM     12  H11 UNL     1       1.746  -0.611  -0.287  1.00  0.00     0.199 HD  
ATOM     13  H12 UNL     1       2.912   0.538  -0.401  1.00  0.00     0.199 HD  
BRANCH  11  14
ATOM     14  C6  UNL     1       1.937   0.515   1.410  1.00  0.00     0.164 C   
BRANCH  14  15
ATOM     15  C7  UNL     1       2.928  -0.426   2.034  1.00  0.00    -0.002 A   
ATOM     16  C8  UNL     1       2.552  -1.760   2.328  1.00  0.00     0.012 A   
ATOM     17  C12 UNL     1       4.248  -0.009   2.275  1.00  0.00     0.045 A   
ATOM     18  C9  UNL     1       3.474  -2.663   2.867  1.00  0.00     0.037 A   
ATOM     19  C11 UNL     1       5.131  -0.926   2.807  1.00  0.00     0.109 A   
ATOM     20  C10 UNL     1       4.756  -2.215   3.094  1.00  0.00     0.108 A   
ATOM     21  O1  UNL     1       6.436  -0.687   3.098  1.00  0.00    -0.316 OA  
ATOM     22  O2  UNL     1       5.777  -2.950   3.606  1.00  0.00    -0.316 OA  
ATOM     23  C13 UNL     1       6.838  -1.970   3.629  1.00  0.00     0.337 C   
ENDBRANCH  14  15
ENDBRANCH  11  14
ENDBRANCH   6  11
ENDBRANCH   1   6
BRANCH   3  24
ATOM     24  C16 UNL     1      -3.938   0.101  -0.150  1.00  0.00     0.058 A   
ATOM     25  C17 UNL     1      -4.667   1.298  -0.200  1.00  0.00     0.028 A   
ATOM     26  C21 UNL     1      -4.614  -1.113   0.060  1.00  0.00     0.028 A   
ATOM     27  C18 UNL     1      -6.054   1.273  -0.039  1.00  0.00     0.035 A   
ATOM     28  C20 UNL     1      -6.003  -1.129   0.219  1.00  0.00     0.035 A   
ATOM     29  C19 UNL     1      -6.710   0.066   0.169  1.00  0.00     0.071 A   
BRANCH  29  30
ATOM     30  O3  UNL     1      -8.063   0.101   0.319  1.00  0.00    -0.361 OA  
ATOM     31  H23 UNL     1      -8.396  -0.804   0.443  1.00  0.00     0.218 HD  
ENDBRANCH  29  30
ENDBRANCH   3  24
TORSDOF 7
