REMARK SMILES COc1ncccc1CCn1cc([C@H](CC(C)C)[NH2+]Cc2ccc3c(c2)OCO3)nn1
REMARK SMILES IDX 11 1 12 2 13 3 30 4 31 5 10 7 9 8 8 9 3 10 4 11 5 12 7 13
REMARK SMILES IDX 6 14 2 15 1 16 14 17 15 18 16 19 17 20 18 21 19 22 20 25
REMARK SMILES IDX 21 26 22 27 26 28 23 29 25 30 24 31 27 32 29 33 28 34
REMARK H PARENT 12 6 19 23 19 24
ROOT
ATOM     1   N2  UNL     1      -2.039   2.838   0.321  1.00  0.00    -0.212 N   
ATOM     2   C9  UNL     1      -1.420   2.057   1.261  1.00  0.00     0.045 A   
ATOM     3   C10 UNL     1      -1.593   0.777   0.774  1.00  0.00     0.127 A   
ATOM     4   N4  UNL     1      -2.441   0.820  -0.302  1.00  0.00    -0.132 NA  
ATOM     5   N5  UNL     1      -2.722   2.087  -0.557  1.00  0.00    -0.076 NA  
ATOM     6   H11 UNL     1      -0.792   2.475   2.035  1.00  0.00     0.083 HD  
ENDROOT
BRANCH   1   7
ATOM     7   C8  UNL     1      -1.751   4.229   0.027  1.00  0.00     0.139 C   
BRANCH   7   8
ATOM     8   C7  UNL     1      -0.606   4.387  -0.992  1.00  0.00     0.061 C   
BRANCH   8   9
ATOM     9   C6  UNL     1       0.694   3.771  -0.519  1.00  0.00     0.003 A   
ATOM     10  C2  UNL     1       1.094   2.485  -0.885  1.00  0.00     0.169 A   
ATOM     11  N1  UNL     1       2.104   1.793  -0.301  1.00  0.00    -0.233 NA  
ATOM     12  C3  UNL     1       2.872   2.490   0.567  1.00  0.00     0.114 A   
ATOM     13  C5  UNL     1       1.499   4.438   0.409  1.00  0.00     0.010 A   
ATOM     14  C4  UNL     1       2.615   3.799   0.945  1.00  0.00     0.021 A   
BRANCH  10  15
ATOM     15  O1  UNL     1       0.344   1.741  -1.759  1.00  0.00    -0.332 OA  
ATOM     16  C1  UNL     1       0.953   1.802  -3.052  1.00  0.00     0.205 C   
ENDBRANCH  10  15
ENDBRANCH   8   9
ENDBRANCH   7   8
ENDBRANCH   1   7
BRANCH   3  17
ATOM     17  C11 UNL     1      -0.848  -0.488   1.058  1.00  0.00     0.114 C   
BRANCH  17  18
ATOM     18  C12 UNL     1      -0.329  -0.620   2.499  1.00  0.00     0.064 C   
BRANCH  18  19
ATOM     19  C13 UNL     1      -1.431  -0.673   3.580  1.00  0.00    -0.012 C   
ATOM     20  C14 UNL     1      -2.367  -1.869   3.398  1.00  0.00     0.007 C   
ATOM     21  C15 UNL     1      -0.789  -0.726   4.969  1.00  0.00     0.007 C   
ENDBRANCH  18  19
ENDBRANCH  17  18
BRANCH  17  22
ATOM     22  N3  UNL     1       0.326  -0.517   0.105  1.00  0.00     0.249 N   
ATOM     23  H22 UNL     1      -0.030  -0.142  -0.791  1.00  0.00     0.199 HD  
ATOM     24  H23 UNL     1       1.028   0.199   0.360  1.00  0.00     0.199 HD  
BRANCH  22  25
ATOM     25  C16 UNL     1       0.990  -1.807  -0.181  1.00  0.00     0.164 C   
BRANCH  25  26
ATOM     26  C17 UNL     1       0.126  -2.748  -0.972  1.00  0.00    -0.002 A   
ATOM     27  C18 UNL     1      -0.499  -3.852  -0.344  1.00  0.00     0.012 A   
ATOM     28  C22 UNL     1      -0.097  -2.513  -2.341  1.00  0.00     0.045 A   
ATOM     29  C19 UNL     1      -1.335  -4.710  -1.067  1.00  0.00     0.037 A   
ATOM     30  C21 UNL     1      -0.926  -3.377  -3.024  1.00  0.00     0.109 A   
ATOM     31  C20 UNL     1      -1.528  -4.446  -2.406  1.00  0.00     0.108 A   
ATOM     32  O2  UNL     1      -1.248  -3.289  -4.341  1.00  0.00    -0.316 OA  
ATOM     33  O3  UNL     1      -2.307  -5.165  -3.257  1.00  0.00    -0.316 OA  
ATOM     34  C23 UNL     1      -2.121  -4.432  -4.487  1.00  0.00     0.337 C   
ENDBRANCH  25  26
ENDBRANCH  22  25
ENDBRANCH  17  22
ENDBRANCH   3  17
TORSDOF 10
