REMARK SMILES Cc1ccc(C(=O)Cn2cc([C@H](CC(C)C)[NH2+]Cc3ccc4c(c3)OCO4)nn2)cc1
REMARK SMILES IDX 9 1 10 2 11 3 28 4 29 5 8 7 6 8 7 9 5 10 2 11 3 12 31 13
REMARK SMILES IDX 4 14 30 15 1 16 12 17 13 18 14 19 15 20 16 21 17 22 18 25
REMARK SMILES IDX 19 26 20 27 24 28 21 29 23 30 22 31 25 32 27 33 26 34
REMARK H PARENT 10 6 17 23 17 24
ROOT
ATOM     1   N1  UNL     1       1.597  -0.890  -0.175  1.00  0.00    -0.204 N   
ATOM     2   C8  UNL     1       1.361   0.332   0.389  1.00  0.00     0.046 A   
ATOM     3   C9  UNL     1       0.498   0.054   1.425  1.00  0.00     0.127 A   
ATOM     4   N3  UNL     1       0.284  -1.300   1.485  1.00  0.00    -0.132 NA  
ATOM     5   N4  UNL     1       0.958  -1.866   0.496  1.00  0.00    -0.076 NA  
ATOM     6   H8  UNL     1       1.757   1.250  -0.028  1.00  0.00     0.083 HD  
ENDROOT
BRANCH   1   7
ATOM     7   C7  UNL     1       2.308  -1.185  -1.398  1.00  0.00     0.214 C   
BRANCH   7   8
ATOM     8   C6  UNL     1       1.369  -1.042  -2.572  1.00  0.00     0.182 C   
ATOM     9   O1  UNL     1       0.799   0.024  -2.808  1.00  0.00    -0.292 OA  
BRANCH   8  10
ATOM     10  C5  UNL     1       1.137  -2.207  -3.464  1.00  0.00     0.019 A   
ATOM     11  C2  UNL     1       0.691  -4.346  -5.226  1.00  0.00    -0.051 A   
ATOM     12  C3  UNL     1       0.644  -3.027  -5.690  1.00  0.00     0.004 A   
ATOM     13  C24 UNL     1       0.931  -4.585  -3.868  1.00  0.00     0.004 A   
ATOM     14  C4  UNL     1       0.864  -1.962  -4.814  1.00  0.00     0.012 A   
ATOM     15  C23 UNL     1       1.153  -3.522  -2.988  1.00  0.00     0.012 A   
ATOM     16  C1  UNL     1       0.425  -5.485  -6.167  1.00  0.00     0.044 C   
ENDBRANCH   8  10
ENDBRANCH   7   8
ENDBRANCH   1   7
BRANCH   3  17
ATOM     17  C10 UNL     1      -0.249   0.965   2.342  1.00  0.00     0.114 C   
BRANCH  17  18
ATOM     18  C11 UNL     1       0.399   0.986   3.741  1.00  0.00     0.064 C   
BRANCH  18  19
ATOM     19  C12 UNL     1      -0.241   1.930   4.782  1.00  0.00    -0.012 C   
ATOM     20  C13 UNL     1      -0.305   3.381   4.302  1.00  0.00     0.007 C   
ATOM     21  C14 UNL     1       0.546   1.855   6.094  1.00  0.00     0.007 C   
ENDBRANCH  18  19
ENDBRANCH  17  18
BRANCH  17  22
ATOM     22  N2  UNL     1      -1.687   0.519   2.466  1.00  0.00     0.249 N   
ATOM     23  H19 UNL     1      -2.172   1.068   3.179  1.00  0.00     0.199 HD  
ATOM     24  H20 UNL     1      -1.664  -0.458   2.788  1.00  0.00     0.199 HD  
BRANCH  22  25
ATOM     25  C15 UNL     1      -2.500   0.553   1.209  1.00  0.00     0.164 C   
BRANCH  25  26
ATOM     26  C16 UNL     1      -2.658   1.940   0.651  1.00  0.00    -0.002 A   
ATOM     27  C17 UNL     1      -1.988   2.310  -0.540  1.00  0.00     0.012 A   
ATOM     28  C21 UNL     1      -3.444   2.891   1.325  1.00  0.00     0.045 A   
ATOM     29  C18 UNL     1      -2.081   3.611  -1.044  1.00  0.00     0.037 A   
ATOM     30  C20 UNL     1      -3.513   4.165   0.802  1.00  0.00     0.109 A   
ATOM     31  C19 UNL     1      -2.851   4.517  -0.348  1.00  0.00     0.108 A   
ATOM     32  O2  UNL     1      -4.209   5.202   1.339  1.00  0.00    -0.316 OA  
ATOM     33  O3  UNL     1      -3.049   5.818  -0.682  1.00  0.00    -0.316 OA  
ATOM     34  C22 UNL     1      -3.943   6.241   0.368  1.00  0.00     0.337 C   
ENDBRANCH  25  26
ENDBRANCH  22  25
ENDBRANCH  17  22
ENDBRANCH   3  17
TORSDOF 9
