REMARK SMILES CC(C)C[C@H]([NH2+]Cc1ccc2c(c1)OCO2)c1cn([C@@H](CO)c2ccncc2Cl)nn1
REMARK SMILES IDX 17 1 18 2 19 3 30 4 31 5 5 7 4 8 2 9 1 10 3 11 6 12 7 15
REMARK SMILES IDX 8 16 9 17 13 18 10 19 12 20 11 21 14 22 16 23 15 24 20 25
REMARK SMILES IDX 21 26 22 27 23 29 24 30 28 31 25 32 27 33 26 34 29 35
REMARK H PARENT 18 6 6 13 6 14 22 28
ROOT
ATOM     1   C14 UNL     1       1.124  -0.417   0.294  1.00  0.00     0.127 A   
ATOM     2   C15 UNL     1       1.197  -1.745  -0.064  1.00  0.00     0.046 A   
ATOM     3   N2  UNL     1       1.964  -2.318   0.915  1.00  0.00    -0.202 N   
ATOM     4   N4  UNL     1       2.261  -1.403   1.868  1.00  0.00    -0.075 NA  
ATOM     5   N5  UNL     1       1.783  -0.234   1.480  1.00  0.00    -0.132 NA  
ATOM     6   H20 UNL     1       0.799  -2.304  -0.900  1.00  0.00     0.083 HD  
ENDROOT
BRANCH   1   7
ATOM     7   C5  UNL     1       0.440   0.742  -0.348  1.00  0.00     0.114 C   
BRANCH   7   8
ATOM     8   C4  UNL     1       1.389   1.565  -1.242  1.00  0.00     0.064 C   
BRANCH   8   9
ATOM     9   C2  UNL     1       1.917   0.829  -2.494  1.00  0.00    -0.012 C   
ATOM     10  C1  UNL     1       2.901   1.732  -3.246  1.00  0.00     0.007 C   
ATOM     11  C3  UNL     1       0.789   0.401  -3.436  1.00  0.00     0.007 C   
ENDBRANCH   8   9
ENDBRANCH   7   8
BRANCH   7  12
ATOM     12  N1  UNL     1      -0.082   1.686   0.721  1.00  0.00     0.249 N   
ATOM     13  H11 UNL     1      -0.326   2.589   0.307  1.00  0.00     0.199 HD  
ATOM     14  H12 UNL     1       0.705   1.846   1.366  1.00  0.00     0.199 HD  
BRANCH  12  15
ATOM     15  C6  UNL     1      -1.233   1.191   1.534  1.00  0.00     0.164 C   
BRANCH  15  16
ATOM     16  C7  UNL     1      -2.491   1.037   0.723  1.00  0.00    -0.002 A   
ATOM     17  C8  UNL     1      -3.203   2.179   0.282  1.00  0.00     0.012 A   
ATOM     18  C12 UNL     1      -2.940  -0.244   0.356  1.00  0.00     0.045 A   
ATOM     19  C9  UNL     1      -4.342   2.048  -0.519  1.00  0.00     0.037 A   
ATOM     20  C11 UNL     1      -4.063  -0.337  -0.438  1.00  0.00     0.109 A   
ATOM     21  C10 UNL     1      -4.745   0.777  -0.864  1.00  0.00     0.108 A   
ATOM     22  O1  UNL     1      -4.620  -1.491  -0.890  1.00  0.00    -0.316 OA  
ATOM     23  O2  UNL     1      -5.817   0.463  -1.636  1.00  0.00    -0.316 OA  
ATOM     24  C13 UNL     1      -5.740  -0.979  -1.646  1.00  0.00     0.337 C   
ENDBRANCH  15  16
ENDBRANCH  12  15
ENDBRANCH   7  12
ENDBRANCH   1   7
BRANCH   3  25
ATOM     25  C16 UNL     1       2.411  -3.704   1.079  1.00  0.00     0.157 C   
BRANCH  25  26
ATOM     26  C17 UNL     1       1.921  -4.688  -0.004  1.00  0.00     0.186 C   
BRANCH  26  27
ATOM     27  O3  UNL     1       0.506  -4.866   0.084  1.00  0.00    -0.394 OA  
ATOM     28  H24 UNL     1       0.277  -5.651  -0.453  1.00  0.00     0.210 HD  
ENDBRANCH  26  27
ENDBRANCH  25  26
BRANCH  25  29
ATOM     29  C18 UNL     1       3.922  -3.785   1.266  1.00  0.00    -0.001 A   
ATOM     30  C19 UNL     1       4.412  -4.359   2.456  1.00  0.00     0.027 A   
ATOM     31  C22 UNL     1       4.865  -3.331   0.330  1.00  0.00     0.064 A   
ATOM     32  C20 UNL     1       5.783  -4.452   2.659  1.00  0.00     0.111 A   
ATOM     33  C21 UNL     1       6.219  -3.467   0.628  1.00  0.00     0.131 A   
ATOM     34  N3  UNL     1       6.696  -4.020   1.768  1.00  0.00    -0.263 NA  
ATOM     35  CL1 UNL     1       4.435  -2.612  -1.176  1.00  0.00    -0.082 Cl  
ENDBRANCH  25  29
ENDBRANCH   3  25
TORSDOF 10
