REMARK SMILES Cc1cccc([C@@H](CO)n2cc([C@@H]([NH2+]Cc3ccc4c(c3)OCO4)C(C)(C)C)nn2)c1C
REMARK SMILES IDX 10 1 11 2 12 3 29 4 30 5 7 7 6 8 2 9 3 10 31 11 4 12 5 13
REMARK SMILES IDX 1 14 32 15 8 16 9 17 13 19 14 20 15 23 16 24 17 25 21 26
REMARK SMILES IDX 18 27 20 28 19 29 22 30 24 31 23 32 25 33 26 34 27 35 28 36
REMARK H PARENT 11 6 9 18 14 21 14 22
ROOT
ATOM     1   N1  UNL     1       2.016   0.693   0.677  1.00  0.00    -0.202 N   
ATOM     2   C9  UNL     1       1.171   1.618   0.124  1.00  0.00     0.046 A   
ATOM     3   C10 UNL     1      -0.063   1.303   0.644  1.00  0.00     0.127 A   
ATOM     4   N3  UNL     1       0.059   0.205   1.457  1.00  0.00    -0.132 NA  
ATOM     5   N4  UNL     1       1.332  -0.155   1.475  1.00  0.00    -0.075 NA  
ATOM     6   H11 UNL     1       1.523   2.381  -0.556  1.00  0.00     0.083 HD  
ENDROOT
BRANCH   1   7
ATOM     7   C7  UNL     1       3.456   0.525   0.476  1.00  0.00     0.155 C   
BRANCH   7   8
ATOM     8   C6  UNL     1       3.776   0.391  -1.020  1.00  0.00    -0.020 A   
ATOM     9   C2  UNL     1       3.764  -0.875  -3.130  1.00  0.00    -0.048 A   
ATOM     10  C3  UNL     1       4.303   0.240  -3.786  1.00  0.00     0.004 A   
ATOM     11  C24 UNL     1       3.513  -0.817  -1.734  1.00  0.00    -0.043 A   
ATOM     12  C4  UNL     1       4.574   1.410  -3.091  1.00  0.00     0.001 A   
ATOM     13  C5  UNL     1       4.308   1.486  -1.727  1.00  0.00     0.006 A   
ATOM     14  C1  UNL     1       3.494  -2.111  -3.949  1.00  0.00     0.044 C   
ATOM     15  C25 UNL     1       2.929  -2.023  -1.030  1.00  0.00     0.045 C   
ENDBRANCH   7   8
BRANCH   7  16
ATOM     16  C8  UNL     1       4.249   1.567   1.298  1.00  0.00     0.185 C   
BRANCH  16  17
ATOM     17  O1  UNL     1       3.874   2.918   1.019  1.00  0.00    -0.394 OA  
ATOM     18  H10 UNL     1       4.441   3.488   1.572  1.00  0.00     0.210 HD  
ENDBRANCH  16  17
ENDBRANCH   7  16
ENDBRANCH   1   7
BRANCH   3  19
ATOM     19  C11 UNL     1      -1.416   1.890   0.388  1.00  0.00     0.120 C   
BRANCH  19  20
ATOM     20  N2  UNL     1      -2.419   0.761   0.323  1.00  0.00     0.250 N   
ATOM     21  H13 UNL     1      -3.382   1.081   0.452  1.00  0.00     0.199 HD  
ATOM     22  H14 UNL     1      -2.212   0.141   1.121  1.00  0.00     0.199 HD  
BRANCH  20  23
ATOM     23  C12 UNL     1      -2.351  -0.073  -0.909  1.00  0.00     0.164 C   
BRANCH  23  24
ATOM     24  C13 UNL     1      -3.329  -1.211  -0.828  1.00  0.00    -0.002 A   
ATOM     25  C14 UNL     1      -4.627  -1.085  -1.376  1.00  0.00     0.012 A   
ATOM     26  C18 UNL     1      -2.970  -2.394  -0.156  1.00  0.00     0.045 A   
ATOM     27  C15 UNL     1      -5.554  -2.127  -1.269  1.00  0.00     0.037 A   
ATOM     28  C17 UNL     1      -3.909  -3.401  -0.070  1.00  0.00     0.109 A   
ATOM     29  C16 UNL     1      -5.164  -3.272  -0.610  1.00  0.00     0.108 A   
ATOM     30  O2  UNL     1      -3.725  -4.602   0.538  1.00  0.00    -0.316 OA  
ATOM     31  O3  UNL     1      -5.929  -4.376  -0.413  1.00  0.00    -0.316 OA  
ATOM     32  C19 UNL     1      -5.006  -5.228   0.300  1.00  0.00     0.337 C   
ENDBRANCH  23  24
ENDBRANCH  20  23
ENDBRANCH  19  20
BRANCH  19  33
ATOM     33  C20 UNL     1      -1.863   2.963   1.440  1.00  0.00     0.010 C   
ATOM     34  C21 UNL     1      -2.057   2.372   2.851  1.00  0.00     0.017 C   
ATOM     35  C22 UNL     1      -0.813   4.094   1.527  1.00  0.00     0.017 C   
ATOM     36  C23 UNL     1      -3.194   3.619   1.004  1.00  0.00     0.017 C   
ENDBRANCH  19  33
ENDBRANCH   3  19
TORSDOF 9
