REMARK SMILES Cc1cccc([C@H](CO)n2cc([C@@H]([NH2+]Cc3ccc4c(c3)OCO4)C(C)(C)C)nn2)c1C
REMARK SMILES IDX 10 1 11 2 12 3 29 4 30 5 7 7 6 8 2 9 3 10 31 11 4 12 5 13
REMARK SMILES IDX 1 14 32 15 8 16 9 17 13 19 14 20 15 23 16 24 17 25 21 26
REMARK SMILES IDX 18 27 20 28 19 29 22 30 24 31 23 32 25 33 26 34 27 35 28 36
REMARK H PARENT 11 6 9 18 14 21 14 22
ROOT
ATOM     1   N1  UNL     1       0.287  -0.105  -3.114  1.00  0.00    -0.202 N   
ATOM     2   C9  UNL     1       0.472  -1.177  -2.277  1.00  0.00     0.046 A   
ATOM     3   C10 UNL     1      -0.511  -1.034  -1.324  1.00  0.00     0.127 A   
ATOM     4   N3  UNL     1      -1.226   0.107  -1.583  1.00  0.00    -0.132 NA  
ATOM     5   N4  UNL     1      -0.724   0.672  -2.667  1.00  0.00    -0.075 NA  
ATOM     6   H11 UNL     1       1.254  -1.905  -2.440  1.00  0.00     0.083 HD  
ENDROOT
BRANCH   1   7
ATOM     7   C7  UNL     1       1.076   0.244  -4.300  1.00  0.00     0.155 C   
BRANCH   7   8
ATOM     8   C6  UNL     1       2.204   1.203  -3.917  1.00  0.00    -0.020 A   
ATOM     9   C2  UNL     1       4.570   1.764  -3.609  1.00  0.00    -0.048 A   
ATOM     10  C3  UNL     1       4.194   3.045  -3.175  1.00  0.00     0.004 A   
ATOM     11  C24 UNL     1       3.575   0.829  -3.987  1.00  0.00    -0.043 A   
ATOM     12  C4  UNL     1       2.856   3.413  -3.113  1.00  0.00     0.001 A   
ATOM     13  C5  UNL     1       1.872   2.503  -3.481  1.00  0.00     0.006 A   
ATOM     14  C1  UNL     1       6.042   1.442  -3.662  1.00  0.00     0.044 C   
ATOM     15  C25 UNL     1       3.966  -0.547  -4.476  1.00  0.00     0.045 C   
ENDBRANCH   7   8
BRANCH   7  16
ATOM     16  C8  UNL     1       0.211   0.767  -5.463  1.00  0.00     0.185 C   
BRANCH  16  17
ATOM     17  O1  UNL     1      -0.538  -0.308  -6.036  1.00  0.00    -0.394 OA  
ATOM     18  H10 UNL     1      -1.068   0.070  -6.762  1.00  0.00     0.210 HD  
ENDBRANCH  16  17
ENDBRANCH   7  16
ENDBRANCH   1   7
BRANCH   3  19
ATOM     19  C11 UNL     1      -0.832  -1.836  -0.098  1.00  0.00     0.120 C   
BRANCH  19  20
ATOM     20  N2  UNL     1      -1.321  -0.891   0.975  1.00  0.00     0.250 N   
ATOM     21  H13 UNL     1      -1.982  -0.247   0.513  1.00  0.00     0.199 HD  
ATOM     22  H14 UNL     1      -1.852  -1.364   1.709  1.00  0.00     0.199 HD  
BRANCH  20  23
ATOM     23  C12 UNL     1      -0.269  -0.047   1.610  1.00  0.00     0.164 C   
BRANCH  23  24
ATOM     24  C13 UNL     1      -0.890   0.908   2.590  1.00  0.00    -0.002 A   
ATOM     25  C14 UNL     1      -0.976   0.575   3.963  1.00  0.00     0.012 A   
ATOM     26  C18 UNL     1      -1.444   2.117   2.133  1.00  0.00     0.045 A   
ATOM     27  C15 UNL     1      -1.597   1.439   4.872  1.00  0.00     0.037 A   
ATOM     28  C17 UNL     1      -2.049   2.944   3.056  1.00  0.00     0.109 A   
ATOM     29  C16 UNL     1      -2.124   2.615   4.387  1.00  0.00     0.108 A   
ATOM     30  O2  UNL     1      -2.632   4.141   2.784  1.00  0.00    -0.316 OA  
ATOM     31  O3  UNL     1      -2.761   3.564   5.121  1.00  0.00    -0.316 OA  
ATOM     32  C19 UNL     1      -3.066   4.542   4.103  1.00  0.00     0.337 C   
ENDBRANCH  23  24
ENDBRANCH  20  23
ENDBRANCH  19  20
BRANCH  19  33
ATOM     33  C20 UNL     1      -1.878  -2.981  -0.334  1.00  0.00     0.010 C   
ATOM     34  C21 UNL     1      -2.035  -3.838   0.944  1.00  0.00     0.017 C   
ATOM     35  C22 UNL     1      -1.390  -3.931  -1.451  1.00  0.00     0.017 C   
ATOM     36  C23 UNL     1      -3.268  -2.442  -0.728  1.00  0.00     0.017 C   
ENDBRANCH  19  33
ENDBRANCH   3  19
TORSDOF 9
