REMARK SMILES Cc1ccc(Cn2cc([C@@H]([NH2+]Cc3ccc4c(c3)OCO4)C(C)(C)C)nn2)cc1O
REMARK SMILES IDX 7 1 8 2 9 3 26 4 27 5 6 7 5 8 2 9 3 10 29 11 4 12 28 13 1 14
REMARK SMILES IDX 30 15 10 17 11 18 12 21 13 22 14 23 18 24 15 25 17 26 16 27
REMARK SMILES IDX 19 28 21 29 20 30 22 31 23 32 24 33 25 34
REMARK H PARENT 8 6 30 16 11 19 11 20
ROOT
ATOM     1   N1  UNL     1       3.109   0.444   0.707  1.00  0.00    -0.208 N   
ATOM     2   C7  UNL     1       2.110   0.651  -0.205  1.00  0.00     0.046 A   
ATOM     3   C8  UNL     1       1.270   1.546   0.419  1.00  0.00     0.127 A   
ATOM     4   N3  UNL     1       1.779   1.855   1.655  1.00  0.00    -0.132 NA  
ATOM     5   N4  UNL     1       2.903   1.176   1.819  1.00  0.00    -0.076 NA  
ATOM     6   H8  UNL     1       2.078   0.137  -1.156  1.00  0.00     0.083 HD  
ENDROOT
BRANCH   1   7
ATOM     7   C6  UNL     1       4.244  -0.458   0.605  1.00  0.00     0.169 C   
BRANCH   7   8
ATOM     8   C5  UNL     1       3.811  -1.880   0.851  1.00  0.00    -0.026 A   
ATOM     9   C2  UNL     1       2.925  -4.528   1.310  1.00  0.00    -0.021 A   
ATOM     10  C3  UNL     1       3.286  -3.694   2.380  1.00  0.00     0.006 A   
ATOM     11  C23 UNL     1       3.025  -4.018   0.012  1.00  0.00     0.074 A   
ATOM     12  C4  UNL     1       3.719  -2.383   2.155  1.00  0.00     0.006 A   
ATOM     13  C22 UNL     1       3.456  -2.712  -0.219  1.00  0.00     0.038 A   
ATOM     14  C1  UNL     1       2.471  -5.933   1.587  1.00  0.00     0.047 C   
BRANCH  11  15
ATOM     15  O3  UNL     1       2.706  -4.746  -1.097  1.00  0.00    -0.361 OA  
ATOM     16  H29 UNL     1       2.630  -5.685  -0.859  1.00  0.00     0.218 HD  
ENDBRANCH  11  15
ENDBRANCH   7   8
ENDBRANCH   1   7
BRANCH   3  17
ATOM     17  C9  UNL     1      -0.062   2.094   0.009  1.00  0.00     0.120 C   
BRANCH  17  18
ATOM     18  N2  UNL     1      -0.962   2.149   1.230  1.00  0.00     0.250 N   
ATOM     19  H10 UNL     1      -0.421   2.631   1.962  1.00  0.00     0.199 HD  
ATOM     20  H11 UNL     1      -1.798   2.708   1.050  1.00  0.00     0.199 HD  
BRANCH  18  21
ATOM     21  C10 UNL     1      -1.380   0.831   1.800  1.00  0.00     0.164 C   
BRANCH  21  22
ATOM     22  C11 UNL     1      -2.269   0.044   0.878  1.00  0.00    -0.002 A   
ATOM     23  C12 UNL     1      -1.797  -1.145   0.274  1.00  0.00     0.012 A   
ATOM     24  C16 UNL     1      -3.570   0.495   0.593  1.00  0.00     0.045 A   
ATOM     25  C13 UNL     1      -2.605  -1.876  -0.605  1.00  0.00     0.037 A   
ATOM     26  C15 UNL     1      -4.340  -0.249  -0.277  1.00  0.00     0.109 A   
ATOM     27  C14 UNL     1      -3.873  -1.400  -0.859  1.00  0.00     0.108 A   
ATOM     28  O1  UNL     1      -5.613   0.045  -0.650  1.00  0.00    -0.316 OA  
ATOM     29  O2  UNL     1      -4.793  -1.976  -1.675  1.00  0.00    -0.316 OA  
ATOM     30  C17 UNL     1      -5.907  -1.071  -1.522  1.00  0.00     0.337 C   
ENDBRANCH  21  22
ENDBRANCH  18  21
ENDBRANCH  17  18
BRANCH  17  31
ATOM     31  C18 UNL     1       0.006   3.502  -0.681  1.00  0.00     0.010 C   
ATOM     32  C19 UNL     1      -1.389   3.903  -1.214  1.00  0.00     0.017 C   
ATOM     33  C20 UNL     1       0.499   4.612   0.267  1.00  0.00     0.017 C   
ATOM     34  C21 UNL     1       0.954   3.450  -1.902  1.00  0.00     0.017 C   
ENDBRANCH  17  31
ENDBRANCH   3  17
TORSDOF 8
