REMARK SMILES Cc1ccc(CCn2cc([C@H](CC(C)C)[NH2+]Cc3ccc4c(c3)OCO4)nn2)cc1
REMARK SMILES IDX 8 1 9 2 10 3 27 4 28 5 7 7 6 8 5 9 2 10 3 11 30 12 4 13
REMARK SMILES IDX 29 14 1 15 11 16 12 17 13 18 14 19 15 20 16 21 17 24 18 25
REMARK SMILES IDX 19 26 23 27 20 28 22 29 21 30 24 31 26 32 25 33
REMARK H PARENT 9 6 16 22 16 23
ROOT
ATOM     1   N1  UNL     1      -1.823  -2.163   1.277  1.00  0.00    -0.212 N   
ATOM     2   C8  UNL     1      -2.010  -0.851   1.609  1.00  0.00     0.045 A   
ATOM     3   C9  UNL     1      -1.938  -0.193   0.402  1.00  0.00     0.127 A   
ATOM     4   N3  UNL     1      -1.744  -1.109  -0.601  1.00  0.00    -0.132 NA  
ATOM     5   N4  UNL     1      -1.677  -2.311  -0.052  1.00  0.00    -0.076 NA  
ATOM     6   H10 UNL     1      -2.116  -0.521   2.633  1.00  0.00     0.083 HD  
ENDROOT
BRANCH   1   7
ATOM     7   C7  UNL     1      -1.662  -3.291   2.172  1.00  0.00     0.139 C   
BRANCH   7   8
ATOM     8   C6  UNL     1      -0.204  -3.740   2.302  1.00  0.00     0.057 C   
BRANCH   8   9
ATOM     9   C5  UNL     1       0.725  -2.639   2.763  1.00  0.00    -0.046 A   
ATOM     10  C2  UNL     1       2.450  -0.573   3.598  1.00  0.00    -0.051 A   
ATOM     11  C3  UNL     1       2.542  -1.090   2.301  1.00  0.00     0.004 A   
ATOM     12  C24 UNL     1       1.480  -1.084   4.468  1.00  0.00     0.004 A   
ATOM     13  C4  UNL     1       1.689  -2.116   1.888  1.00  0.00     0.004 A   
ATOM     14  C23 UNL     1       0.631  -2.115   4.058  1.00  0.00     0.004 A   
ATOM     15  C1  UNL     1       3.363   0.531   4.051  1.00  0.00     0.044 C   
ENDBRANCH   8   9
ENDBRANCH   7   8
ENDBRANCH   1   7
BRANCH   3  16
ATOM     16  C10 UNL     1      -1.922   1.261   0.081  1.00  0.00     0.114 C   
BRANCH  16  17
ATOM     17  C11 UNL     1      -3.224   1.742  -0.582  1.00  0.00     0.064 C   
BRANCH  17  18
ATOM     18  C12 UNL     1      -4.492   1.602   0.287  1.00  0.00    -0.012 C   
ATOM     19  C13 UNL     1      -5.718   2.051  -0.513  1.00  0.00     0.007 C   
ATOM     20  C14 UNL     1      -4.403   2.406   1.585  1.00  0.00     0.007 C   
ENDBRANCH  17  18
ENDBRANCH  16  17
BRANCH  16  21
ATOM     21  N2  UNL     1      -0.799   1.544  -0.888  1.00  0.00     0.249 N   
ATOM     22  H21 UNL     1      -0.892   0.862  -1.655  1.00  0.00     0.199 HD  
ATOM     23  H22 UNL     1      -0.895   2.472  -1.312  1.00  0.00     0.199 HD  
BRANCH  21  24
ATOM     24  C15 UNL     1       0.574   1.398  -0.327  1.00  0.00     0.164 C   
BRANCH  24  25
ATOM     25  C16 UNL     1       1.601   1.662  -1.391  1.00  0.00    -0.002 A   
ATOM     26  C17 UNL     1       2.008   0.619  -2.257  1.00  0.00     0.012 A   
ATOM     27  C21 UNL     1       2.116   2.957  -1.575  1.00  0.00     0.045 A   
ATOM     28  C18 UNL     1       2.917   0.859  -3.292  1.00  0.00     0.037 A   
ATOM     29  C20 UNL     1       3.011   3.159  -2.604  1.00  0.00     0.109 A   
ATOM     30  C19 UNL     1       3.400   2.141  -3.440  1.00  0.00     0.108 A   
ATOM     31  O1  UNL     1       3.590   4.346  -2.926  1.00  0.00    -0.316 OA  
ATOM     32  O2  UNL     1       4.276   2.557  -4.390  1.00  0.00    -0.316 OA  
ATOM     33  C22 UNL     1       4.418   3.952  -4.044  1.00  0.00     0.337 C   
ENDBRANCH  24  25
ENDBRANCH  21  24
ENDBRANCH  16  21
ENDBRANCH   3  16
TORSDOF 9
