REMARK SMILES c1cc2ccc(Cn3cc([C@@H]([NH2+]Cc4ccc5c(c4)OCO5)C4CCCC4)nn3)cc2[nH]1
REMARK SMILES IDX 8 1 9 2 10 3 28 4 29 5 7 7 6 8 1 9 2 10 32 11 3 12 31 13
REMARK SMILES IDX 4 14 30 15 5 16 11 18 12 19 13 22 14 23 15 24 19 25 16 26
REMARK SMILES IDX 18 27 17 28 20 29 22 30 21 31 23 32 24 33 27 34 25 35 26 36
REMARK H PARENT 9 6 32 17 12 20 12 21
ROOT
ATOM     1   N1  UNL     1       0.673   2.256   1.647  1.00  0.00    -0.208 N   
ATOM     2   C8  UNL     1       1.663   1.587   0.978  1.00  0.00     0.046 A   
ATOM     3   C9  UNL     1       1.238   1.590  -0.332  1.00  0.00     0.127 A   
ATOM     4   N3  UNL     1       0.048   2.265  -0.419  1.00  0.00    -0.132 NA  
ATOM     5   N4  UNL     1      -0.289   2.664   0.796  1.00  0.00    -0.076 NA  
ATOM     6   H7  UNL     1       2.516   1.159   1.486  1.00  0.00     0.083 HD  
ENDROOT
BRANCH   1   7
ATOM     7   C7  UNL     1       0.550   2.484   3.077  1.00  0.00     0.169 C   
BRANCH   7   8
ATOM     8   C6  UNL     1       0.184   1.203   3.788  1.00  0.00    -0.027 A   
ATOM     9   C1  UNL     1       0.717  -2.635   6.294  1.00  0.00     0.072 A   
ATOM     10  C2  UNL     1      -0.541  -2.436   5.775  1.00  0.00     0.025 A   
ATOM     11  N5  UNL     1       1.502  -1.580   5.909  1.00  0.00    -0.321 N   
ATOM     12  C3  UNL     1      -0.519  -1.218   5.042  1.00  0.00    -0.003 A   
ATOM     13  C25 UNL     1       0.775  -0.704   5.133  1.00  0.00     0.037 A   
ATOM     14  C4  UNL     1      -1.484  -0.501   4.312  1.00  0.00     0.010 A   
ATOM     15  C24 UNL     1       1.157   0.498   4.522  1.00  0.00     0.029 A   
ATOM     16  C5  UNL     1      -1.122   0.701   3.693  1.00  0.00     0.006 A   
ATOM     17  H28 UNL     1       2.475  -1.464   6.161  1.00  0.00     0.152 HD  
ENDBRANCH   7   8
ENDBRANCH   1   7
BRANCH   3  18
ATOM     18  C10 UNL     1       1.800   0.934  -1.550  1.00  0.00     0.117 C   
BRANCH  18  19
ATOM     19  N2  UNL     1       0.675   0.329  -2.355  1.00  0.00     0.249 N   
ATOM     20  H9  UNL     1      -0.037   1.065  -2.468  1.00  0.00     0.199 HD  
ATOM     21  H10 UNL     1       0.976   0.070  -3.298  1.00  0.00     0.199 HD  
BRANCH  19  22
ATOM     22  C11 UNL     1       0.006  -0.847  -1.729  1.00  0.00     0.164 C   
BRANCH  22  23
ATOM     23  C12 UNL     1      -1.144  -1.308  -2.578  1.00  0.00    -0.002 A   
ATOM     24  C13 UNL     1      -2.425  -0.723  -2.418  1.00  0.00     0.012 A   
ATOM     25  C17 UNL     1      -0.946  -2.283  -3.570  1.00  0.00     0.045 A   
ATOM     26  C14 UNL     1      -3.498  -1.111  -3.227  1.00  0.00     0.037 A   
ATOM     27  C16 UNL     1      -2.026  -2.643  -4.349  1.00  0.00     0.109 A   
ATOM     28  C15 UNL     1      -3.266  -2.075  -4.184  1.00  0.00     0.108 A   
ATOM     29  O1  UNL     1      -2.004  -3.563  -5.348  1.00  0.00    -0.316 OA  
ATOM     30  O2  UNL     1      -4.181  -2.567  -5.057  1.00  0.00    -0.316 OA  
ATOM     31  C18 UNL     1      -3.386  -3.537  -5.773  1.00  0.00     0.337 C   
ENDBRANCH  22  23
ENDBRANCH  19  22
ENDBRANCH  18  19
BRANCH  18  32
ATOM     32  C19 UNL     1       2.560   1.928  -2.448  1.00  0.00     0.043 C   
ATOM     33  C20 UNL     1       3.765   2.580  -1.761  1.00  0.00     0.010 C   
ATOM     34  C23 UNL     1       3.189   1.292  -3.698  1.00  0.00     0.010 C   
ATOM     35  C21 UNL     1       4.542   3.173  -2.925  1.00  0.00     0.001 C   
ATOM     36  C22 UNL     1       4.421   2.134  -4.033  1.00  0.00     0.001 C   
ENDBRANCH  18  32
ENDBRANCH   3  18
TORSDOF 7
