REMARK SMILES COc1ccc(-n2cc([C@@H]([NH2+]Cc3ccc4c(c3)OCO4)C3CCCCC3)nn2)cc1F
REMARK SMILES IDX 7 1 8 2 9 3 28 4 29 5 6 6 3 7 4 8 31 9 5 10 30 11 32 12 2 13
REMARK SMILES IDX 1 14 10 15 11 16 12 19 13 20 14 21 18 22 15 23 17 24 16 25
REMARK SMILES IDX 19 26 21 27 20 28 22 29 23 30 27 31 24 32 26 33 25 34
REMARK H PARENT 11 17 11 18
ROOT
ATOM     1   N1  UNL     1      -0.855   0.072   1.887  1.00  0.00    -0.181 N   
ATOM     2   C6  UNL     1      -1.469  -0.137   0.666  1.00  0.00     0.135 A   
ATOM     3   C7  UNL     1      -0.460  -0.032  -0.266  1.00  0.00     0.127 A   
ATOM     4   N3  UNL     1       0.710   0.257   0.377  1.00  0.00    -0.131 NA  
ATOM     5   N4  UNL     1       0.461   0.331   1.673  1.00  0.00    -0.071 NA  
ENDROOT
BRANCH   1   6
ATOM     6   C5  UNL     1      -1.415   0.060   3.188  1.00  0.00     0.061 A   
ATOM     7   C2  UNL     1      -2.493   0.051   5.794  1.00  0.00     0.110 A   
ATOM     8   C3  UNL     1      -3.305  -0.230   4.694  1.00  0.00     0.038 A   
ATOM     9   C24 UNL     1      -1.143   0.336   5.572  1.00  0.00     0.155 A   
ATOM     10  C4  UNL     1      -2.772  -0.226   3.395  1.00  0.00     0.029 A   
ATOM     11  C23 UNL     1      -0.598   0.340   4.290  1.00  0.00     0.068 A   
ATOM     12  F1  UNL     1      -0.335   0.615   6.606  1.00  0.00    -0.204 F   
BRANCH   7  13
ATOM     13  O1  UNL     1      -2.899   0.084   7.099  1.00  0.00    -0.346 OA  
ATOM     14  C1  UNL     1      -4.243  -0.288   7.378  1.00  0.00     0.203 C   
ENDBRANCH   7  13
ENDBRANCH   1   6
BRANCH   3  15
ATOM     15  C8  UNL     1      -0.467  -0.123  -1.760  1.00  0.00     0.117 C   
BRANCH  15  16
ATOM     16  N2  UNL     1       0.647   0.721  -2.331  1.00  0.00     0.249 N   
ATOM     17  H8  UNL     1       1.485   0.538  -1.757  1.00  0.00     0.199 HD  
ATOM     18  H9  UNL     1       0.889   0.437  -3.286  1.00  0.00     0.199 HD  
BRANCH  16  19
ATOM     19  C9  UNL     1       0.416   2.193  -2.305  1.00  0.00     0.164 C   
BRANCH  19  20
ATOM     20  C10 UNL     1       1.631   2.923  -2.803  1.00  0.00    -0.002 A   
ATOM     21  C11 UNL     1       1.728   3.319  -4.158  1.00  0.00     0.012 A   
ATOM     22  C15 UNL     1       2.705   3.169  -1.929  1.00  0.00     0.045 A   
ATOM     23  C12 UNL     1       2.875   3.961  -4.638  1.00  0.00     0.037 A   
ATOM     24  C14 UNL     1       3.821   3.803  -2.435  1.00  0.00     0.109 A   
ATOM     25  C13 UNL     1       3.904   4.188  -3.750  1.00  0.00     0.108 A   
ATOM     26  O2  UNL     1       4.941   4.111  -1.731  1.00  0.00    -0.316 OA  
ATOM     27  O3  UNL     1       5.086   4.791  -4.040  1.00  0.00    -0.316 OA  
ATOM     28  C16 UNL     1       5.735   4.762  -2.750  1.00  0.00     0.337 C   
ENDBRANCH  19  20
ENDBRANCH  16  19
ENDBRANCH  15  16
BRANCH  15  29
ATOM     29  C17 UNL     1      -0.314  -1.565  -2.315  1.00  0.00     0.043 C   
ATOM     30  C18 UNL     1      -1.540  -2.439  -1.984  1.00  0.00     0.010 C   
ATOM     31  C22 UNL     1       0.981  -2.277  -1.875  1.00  0.00     0.010 C   
ATOM     32  C19 UNL     1      -1.423  -3.831  -2.604  1.00  0.00     0.001 C   
ATOM     33  C21 UNL     1       1.092  -3.673  -2.486  1.00  0.00     0.001 C   
ATOM     34  C20 UNL     1      -0.134  -4.526  -2.177  1.00  0.00     0.000 C   
ENDBRANCH  15  29
ENDBRANCH   3  15
TORSDOF 7
