REMARK SMILES CC(C)[C@H]([NH2+]Cc1ccc2c(c1)OCO2)c1cn([C@H](CO)c2ccccn2)nn1
REMARK SMILES IDX 16 1 17 2 18 3 28 4 29 5 4 7 2 8 1 9 3 10 5 11 6 14 7 15
REMARK SMILES IDX 8 16 12 17 9 18 11 19 10 20 13 21 15 22 14 23 19 24 20 25
REMARK SMILES IDX 21 26 22 28 23 29 27 30 24 31 26 32 25 33
REMARK H PARENT 17 6 5 12 5 13 21 27
ROOT
ATOM     1   C13 UNL     1       1.984  -0.608   0.999  1.00  0.00     0.127 A   
ATOM     2   C14 UNL     1       1.576   0.698   1.132  1.00  0.00     0.046 A   
ATOM     3   N2  UNL     1       2.644   1.434   0.695  1.00  0.00    -0.201 N   
ATOM     4   N4  UNL     1       3.632   0.619   0.263  1.00  0.00    -0.075 NA  
ATOM     5   N5  UNL     1       3.242  -0.631   0.453  1.00  0.00    -0.132 NA  
ATOM     6   H18 UNL     1       0.667   1.160   1.494  1.00  0.00     0.083 HD  
ENDROOT
BRANCH   1   7
ATOM     7   C4  UNL     1       1.266  -1.886   1.278  1.00  0.00     0.117 C   
BRANCH   7   8
ATOM     8   C2  UNL     1       1.549  -2.481   2.683  1.00  0.00     0.037 C   
ATOM     9   C1  UNL     1       1.014  -1.572   3.797  1.00  0.00     0.014 C   
ATOM     10  C3  UNL     1       3.023  -2.809   2.950  1.00  0.00     0.014 C   
ENDBRANCH   7   8
BRANCH   7  11
ATOM     11  N1  UNL     1       1.624  -2.928   0.238  1.00  0.00     0.249 N   
ATOM     12  H9  UNL     1       2.651  -2.963   0.206  1.00  0.00     0.199 HD  
ATOM     13  H10 UNL     1       1.291  -3.849   0.536  1.00  0.00     0.199 HD  
BRANCH  11  14
ATOM     14  C5  UNL     1       1.157  -2.661  -1.156  1.00  0.00     0.164 C   
BRANCH  14  15
ATOM     15  C6  UNL     1      -0.340  -2.667  -1.291  1.00  0.00    -0.002 A   
ATOM     16  C7  UNL     1      -1.061  -3.885  -1.244  1.00  0.00     0.012 A   
ATOM     17  C11 UNL     1      -1.039  -1.454  -1.433  1.00  0.00     0.045 A   
ATOM     18  C8  UNL     1      -2.457  -3.896  -1.333  1.00  0.00     0.037 A   
ATOM     19  C10 UNL     1      -2.414  -1.502  -1.515  1.00  0.00     0.109 A   
ATOM     20  C9  UNL     1      -3.104  -2.688  -1.465  1.00  0.00     0.108 A   
ATOM     21  O1  UNL     1      -3.236  -0.428  -1.645  1.00  0.00    -0.316 OA  
ATOM     22  O2  UNL     1      -4.447  -2.511  -1.560  1.00  0.00    -0.316 OA  
ATOM     23  C12 UNL     1      -4.528  -1.076  -1.698  1.00  0.00     0.337 C   
ENDBRANCH  14  15
ENDBRANCH  11  14
ENDBRANCH   7  11
ENDBRANCH   1   7
BRANCH   3  24
ATOM     24  C15 UNL     1       2.797   2.882   0.610  1.00  0.00     0.174 C   
BRANCH  24  25
ATOM     25  C16 UNL     1       2.662   3.571   1.981  1.00  0.00     0.187 C   
BRANCH  25  26
ATOM     26  O3  UNL     1       1.366   3.436   2.569  1.00  0.00    -0.394 OA  
ATOM     27  H22 UNL     1       0.735   3.812   1.915  1.00  0.00     0.210 HD  
ENDBRANCH  25  26
ENDBRANCH  24  25
BRANCH  24  28
ATOM     28  C17 UNL     1       1.855   3.437  -0.443  1.00  0.00     0.065 A   
ATOM     29  C18 UNL     1       2.260   3.511  -1.776  1.00  0.00     0.026 A   
ATOM     30  N3  UNL     1       0.608   3.814  -0.045  1.00  0.00    -0.259 NA  
ATOM     31  C19 UNL     1       1.370   4.006  -2.726  1.00  0.00     0.004 A   
ATOM     32  C21 UNL     1      -0.232   4.297  -0.992  1.00  0.00     0.111 A   
ATOM     33  C20 UNL     1       0.102   4.409  -2.329  1.00  0.00     0.020 A   
ENDBRANCH  24  28
ENDBRANCH   3  24
TORSDOF 9
