REMARK SMILES CC(C)[C@H]([NH2+]Cc1ccc2c(c1)OCO2)c1cn([C@@H](CO)c2ccccn2)nn1
REMARK SMILES IDX 16 1 17 2 18 3 28 4 29 5 4 7 2 8 1 9 3 10 5 11 6 14 7 15
REMARK SMILES IDX 8 16 12 17 9 18 11 19 10 20 13 21 15 22 14 23 19 24 20 25
REMARK SMILES IDX 21 26 22 28 23 29 27 30 24 31 26 32 25 33
REMARK H PARENT 17 6 5 12 5 13 21 27
ROOT
ATOM     1   C13 UNL     1       0.350   1.168  -0.312  1.00  0.00     0.127 A   
ATOM     2   C14 UNL     1      -0.939   1.373   0.118  1.00  0.00     0.046 A   
ATOM     3   N2  UNL     1      -1.465   2.250  -0.793  1.00  0.00    -0.201 N   
ATOM     4   N4  UNL     1      -0.545   2.563  -1.732  1.00  0.00    -0.075 NA  
ATOM     5   N5  UNL     1       0.568   1.907  -1.447  1.00  0.00    -0.132 NA  
ATOM     6   H18 UNL     1      -1.525   0.972   0.935  1.00  0.00     0.083 HD  
ENDROOT
BRANCH   1   7
ATOM     7   C4  UNL     1       1.410   0.246   0.191  1.00  0.00     0.117 C   
BRANCH   7   8
ATOM     8   C2  UNL     1       2.461   0.924   1.109  1.00  0.00     0.037 C   
ATOM     9   C1  UNL     1       3.249   2.059   0.447  1.00  0.00     0.014 C   
ATOM     10  C3  UNL     1       1.825   1.427   2.410  1.00  0.00     0.014 C   
ENDBRANCH   7   8
BRANCH   7  11
ATOM     11  N1  UNL     1       2.131  -0.394  -0.977  1.00  0.00     0.249 N   
ATOM     12  H9  UNL     1       2.388   0.374  -1.612  1.00  0.00     0.199 HD  
ATOM     13  H10 UNL     1       2.998  -0.837  -0.659  1.00  0.00     0.199 HD  
BRANCH  11  14
ATOM     14  C5  UNL     1       1.340  -1.376  -1.778  1.00  0.00     0.164 C   
BRANCH  14  15
ATOM     15  C6  UNL     1       1.052  -2.646  -1.027  1.00  0.00    -0.002 A   
ATOM     16  C7  UNL     1       2.077  -3.600  -0.814  1.00  0.00     0.012 A   
ATOM     17  C11 UNL     1      -0.231  -2.881  -0.503  1.00  0.00     0.045 A   
ATOM     18  C8  UNL     1       1.831  -4.769  -0.086  1.00  0.00     0.037 A   
ATOM     19  C10 UNL     1      -0.440  -4.043   0.211  1.00  0.00     0.109 A   
ATOM     20  C9  UNL     1       0.562  -4.960   0.414  1.00  0.00     0.108 A   
ATOM     21  O1  UNL     1      -1.611  -4.417   0.788  1.00  0.00    -0.316 OA  
ATOM     22  O2  UNL     1       0.146  -6.029   1.141  1.00  0.00    -0.316 OA  
ATOM     23  C12 UNL     1      -1.244  -5.697   1.350  1.00  0.00     0.337 C   
ENDBRANCH  14  15
ENDBRANCH  11  14
ENDBRANCH   7  11
ENDBRANCH   1   7
BRANCH   3  24
ATOM     24  C15 UNL     1      -2.824   2.769  -0.898  1.00  0.00     0.174 C   
BRANCH  24  25
ATOM     25  C16 UNL     1      -3.787   1.698  -1.441  1.00  0.00     0.187 C   
BRANCH  25  26
ATOM     26  O3  UNL     1      -3.886   0.547  -0.596  1.00  0.00    -0.394 OA  
ATOM     27  H22 UNL     1      -4.227   0.883   0.264  1.00  0.00     0.210 HD  
ENDBRANCH  25  26
ENDBRANCH  24  25
BRANCH  24  28
ATOM     28  C17 UNL     1      -3.270   3.370   0.424  1.00  0.00     0.065 A   
ATOM     29  C18 UNL     1      -2.950   4.692   0.734  1.00  0.00     0.026 A   
ATOM     30  N3  UNL     1      -3.951   2.569   1.289  1.00  0.00    -0.259 NA  
ATOM     31  C19 UNL     1      -3.358   5.215   1.958  1.00  0.00     0.004 A   
ATOM     32  C21 UNL     1      -4.340   3.110   2.468  1.00  0.00     0.111 A   
ATOM     33  C20 UNL     1      -4.069   4.413   2.841  1.00  0.00     0.020 A   
ENDBRANCH  24  28
ENDBRANCH   3  24
TORSDOF 9
