REMARK SMILES CC(C)C[C@H]([NH2+]Cc1ccc2c(c1)OCO2)c1cn(-c2ccccc2N(C)C)nn1
REMARK SMILES IDX 17 1 18 2 19 3 29 4 30 5 5 6 4 7 2 8 1 9 3 10 6 11 7 14 8 15
REMARK SMILES IDX 9 16 13 17 10 18 12 19 11 20 14 21 16 22 15 23 20 24 21 25
REMARK SMILES IDX 25 26 22 27 24 28 23 29 26 30 27 31 28 32
REMARK H PARENT 6 12 6 13
ROOT
ATOM     1   C14 UNL     1      -0.267   0.647  -0.846  1.00  0.00     0.127 A   
ATOM     2   C15 UNL     1      -1.622   0.717  -1.068  1.00  0.00     0.135 A   
ATOM     3   N2  UNL     1      -1.772   0.883  -2.433  1.00  0.00    -0.179 N   
ATOM     4   N4  UNL     1      -0.521   0.874  -2.989  1.00  0.00    -0.071 NA  
ATOM     5   N5  UNL     1       0.387   0.747  -2.037  1.00  0.00    -0.131 NA  
ENDROOT
BRANCH   1   6
ATOM     6   C5  UNL     1       0.513   0.467   0.415  1.00  0.00     0.114 C   
BRANCH   6   7
ATOM     7   C4  UNL     1       0.812   1.832   1.067  1.00  0.00     0.064 C   
BRANCH   7   8
ATOM     8   C2  UNL     1       1.560   1.803   2.418  1.00  0.00    -0.012 C   
ATOM     9   C1  UNL     1       0.834   0.968   3.473  1.00  0.00     0.007 C   
ATOM     10  C3  UNL     1       1.748   3.234   2.930  1.00  0.00     0.007 C   
ENDBRANCH   7   8
ENDBRANCH   6   7
BRANCH   6  11
ATOM     11  N1  UNL     1       1.810  -0.238   0.124  1.00  0.00     0.249 N   
ATOM     12  H11 UNL     1       2.224   0.226  -0.699  1.00  0.00     0.199 HD  
ATOM     13  H12 UNL     1       2.487  -0.133   0.884  1.00  0.00     0.199 HD  
BRANCH  11  14
ATOM     14  C6  UNL     1       1.686  -1.687  -0.202  1.00  0.00     0.164 C   
BRANCH  14  15
ATOM     15  C7  UNL     1       3.034  -2.265  -0.528  1.00  0.00    -0.002 A   
ATOM     16  C8  UNL     1       3.520  -2.228  -1.857  1.00  0.00     0.012 A   
ATOM     17  C12 UNL     1       3.844  -2.792   0.492  1.00  0.00     0.045 A   
ATOM     18  C9  UNL     1       4.791  -2.721  -2.170  1.00  0.00     0.037 A   
ATOM     19  C11 UNL     1       5.093  -3.267   0.149  1.00  0.00     0.109 A   
ATOM     20  C10 UNL     1       5.554  -3.233  -1.144  1.00  0.00     0.108 A   
ATOM     21  O1  UNL     1       5.999  -3.802   1.009  1.00  0.00    -0.316 OA  
ATOM     22  O2  UNL     1       6.805  -3.748  -1.262  1.00  0.00    -0.316 OA  
ATOM     23  C13 UNL     1       7.081  -4.120   0.105  1.00  0.00     0.337 C   
ENDBRANCH  14  15
ENDBRANCH  11  14
ENDBRANCH   6  11
ENDBRANCH   1   6
BRANCH   3  24
ATOM     24  C16 UNL     1      -2.934   1.037  -3.245  1.00  0.00     0.079 A   
ATOM     25  C17 UNL     1      -2.728   1.207  -4.634  1.00  0.00     0.028 A   
ATOM     26  C21 UNL     1      -4.254   1.027  -2.737  1.00  0.00     0.052 A   
ATOM     27  C18 UNL     1      -3.799   1.368  -5.512  1.00  0.00     0.002 A   
ATOM     28  C20 UNL     1      -5.316   1.195  -3.655  1.00  0.00     0.025 A   
ATOM     29  C19 UNL     1      -5.095   1.363  -5.021  1.00  0.00     0.002 A   
BRANCH  26  30
ATOM     30  N3  UNL     1      -4.537   0.859  -1.357  1.00  0.00    -0.335 N   
ATOM     31  C22 UNL     1      -5.329  -0.355  -1.100  1.00  0.00     0.129 C   
ATOM     32  C23 UNL     1      -5.135   2.074  -0.777  1.00  0.00     0.129 C   
ENDBRANCH  26  30
ENDBRANCH   3  24
TORSDOF 8
