REMARK SMILES Cc1cc(C)cc([C@@H](O)Cn2cc([C@@H]([NH2+]Cc3ccc4c(c3)OCO4)C(C)(C)C)nn2)c1
REMARK SMILES IDX 11 1 12 2 13 3 30 4 31 5 10 7 8 8 7 9 2 10 3 11 32 12 4 13
REMARK SMILES IDX 6 14 1 15 5 16 9 17 14 19 15 20 16 23 17 24 18 25 22 26
REMARK SMILES IDX 19 27 21 28 20 29 23 30 25 31 24 32 26 33 27 34 28 35 29 36
REMARK H PARENT 12 6 9 18 15 21 15 22
ROOT
ATOM     1   N1  UNL     1      -0.040   2.543  -2.394  1.00  0.00    -0.209 N   
ATOM     2   C10 UNL     1       0.604   2.626  -1.191  1.00  0.00     0.046 A   
ATOM     3   C11 UNL     1       1.284   1.432  -1.097  1.00  0.00     0.127 A   
ATOM     4   N3  UNL     1       1.028   0.680  -2.216  1.00  0.00    -0.132 NA  
ATOM     5   N4  UNL     1       0.219   1.371  -3.002  1.00  0.00    -0.076 NA  
ATOM     6   H13 UNL     1       0.498   3.479  -0.534  1.00  0.00     0.083 HD  
ENDROOT
BRANCH   1   7
ATOM     7   C9  UNL     1      -0.967   3.487  -2.976  1.00  0.00     0.170 C   
BRANCH   7   8
ATOM     8   C8  UNL     1      -2.409   2.971  -2.998  1.00  0.00     0.164 C   
BRANCH   8   9
ATOM     9   C7  UNL     1      -2.931   2.607  -1.620  1.00  0.00    -0.017 A   
ATOM     10  C2  UNL     1      -3.701   3.258   0.599  1.00  0.00    -0.051 A   
ATOM     11  C3  UNL     1      -3.859   1.906   0.930  1.00  0.00     0.006 A   
ATOM     12  C25 UNL     1      -3.231   3.599  -0.674  1.00  0.00     0.010 A   
ATOM     13  C4  UNL     1      -3.555   0.899   0.007  1.00  0.00    -0.051 A   
ATOM     14  C6  UNL     1      -3.102   1.258  -1.268  1.00  0.00     0.010 A   
ATOM     15  C1  UNL     1      -4.055   4.319   1.600  1.00  0.00     0.044 C   
ATOM     16  C5  UNL     1      -3.803  -0.540   0.351  1.00  0.00     0.044 C   
ENDBRANCH   8   9
BRANCH   8  17
ATOM     17  O1  UNL     1      -3.247   3.978  -3.572  1.00  0.00    -0.387 OA  
ATOM     18  H10 UNL     1      -4.169   3.757  -3.345  1.00  0.00     0.211 HD  
ENDBRANCH   8  17
ENDBRANCH   7   8
ENDBRANCH   1   7
BRANCH   3  19
ATOM     19  C12 UNL     1       2.100   0.844   0.014  1.00  0.00     0.120 C   
BRANCH  19  20
ATOM     20  N2  UNL     1       1.778  -0.629   0.110  1.00  0.00     0.250 N   
ATOM     21  H15 UNL     1       2.481  -1.155   0.634  1.00  0.00     0.199 HD  
ATOM     22  H16 UNL     1       1.805  -0.996  -0.854  1.00  0.00     0.199 HD  
BRANCH  20  23
ATOM     23  C13 UNL     1       0.431  -0.948   0.661  1.00  0.00     0.164 C   
BRANCH  23  24
ATOM     24  C14 UNL     1       0.142  -2.415   0.519  1.00  0.00    -0.002 A   
ATOM     25  C15 UNL     1      -0.445  -2.906  -0.673  1.00  0.00     0.012 A   
ATOM     26  C19 UNL     1       0.508  -3.314   1.534  1.00  0.00     0.045 A   
ATOM     27  C16 UNL     1      -0.680  -4.274  -0.846  1.00  0.00     0.037 A   
ATOM     28  C18 UNL     1       0.265  -4.657   1.329  1.00  0.00     0.109 A   
ATOM     29  C17 UNL     1      -0.313  -5.123   0.173  1.00  0.00     0.108 A   
ATOM     30  O2  UNL     1       0.565  -5.656   2.200  1.00  0.00    -0.316 OA  
ATOM     31  O3  UNL     1      -0.455  -6.474   0.174  1.00  0.00    -0.316 OA  
ATOM     32  C20 UNL     1       0.094  -6.809   1.466  1.00  0.00     0.337 C   
ENDBRANCH  23  24
ENDBRANCH  20  23
ENDBRANCH  19  20
BRANCH  19  33
ATOM     33  C21 UNL     1       3.646   1.060  -0.140  1.00  0.00     0.010 C   
ATOM     34  C22 UNL     1       3.961   2.570  -0.247  1.00  0.00     0.017 C   
ATOM     35  C23 UNL     1       4.227   0.354  -1.382  1.00  0.00     0.017 C   
ATOM     36  C24 UNL     1       4.389   0.533   1.109  1.00  0.00     0.017 C   
ENDBRANCH  19  33
ENDBRANCH   3  19
TORSDOF 9
