REMARK SMILES Cc1cc(C)cc([C@H](O)Cn2cc([C@@H]([NH2+]Cc3ccc4c(c3)OCO4)C(C)(C)C)nn2)c1
REMARK SMILES IDX 11 1 12 2 13 3 30 4 31 5 10 7 8 8 7 9 2 10 3 11 32 12 4 13
REMARK SMILES IDX 6 14 1 15 5 16 9 17 14 19 15 20 16 23 17 24 18 25 22 26
REMARK SMILES IDX 19 27 21 28 20 29 23 30 25 31 24 32 26 33 27 34 28 35 29 36
REMARK H PARENT 12 6 9 18 15 21 15 22
ROOT
ATOM     1   N1  UNL     1       1.830  -1.334   1.061  1.00  0.00    -0.209 N   
ATOM     2   C10 UNL     1       0.659  -0.777   1.490  1.00  0.00     0.046 A   
ATOM     3   C11 UNL     1       0.311   0.087   0.476  1.00  0.00     0.127 A   
ATOM     4   N3  UNL     1       1.286   0.061  -0.489  1.00  0.00    -0.132 NA  
ATOM     5   N4  UNL     1       2.214  -0.803  -0.114  1.00  0.00    -0.076 NA  
ATOM     6   H13 UNL     1       0.191  -1.058   2.424  1.00  0.00     0.083 HD  
ENDROOT
BRANCH   1   7
ATOM     7   C9  UNL     1       2.632  -2.344   1.713  1.00  0.00     0.170 C   
BRANCH   7   8
ATOM     8   C8  UNL     1       2.429  -3.741   1.120  1.00  0.00     0.164 C   
BRANCH   8   9
ATOM     9   C7  UNL     1       1.003  -4.238   1.256  1.00  0.00    -0.017 A   
ATOM     10  C2  UNL     1      -1.146  -4.761   0.232  1.00  0.00    -0.051 A   
ATOM     11  C3  UNL     1      -1.650  -5.111   1.492  1.00  0.00     0.006 A   
ATOM     12  C25 UNL     1       0.182  -4.333   0.122  1.00  0.00     0.010 A   
ATOM     13  C4  UNL     1      -0.852  -5.014   2.638  1.00  0.00    -0.051 A   
ATOM     14  C6  UNL     1       0.475  -4.587   2.510  1.00  0.00     0.010 A   
ATOM     15  C1  UNL     1      -2.005  -4.914  -0.988  1.00  0.00     0.044 C   
ATOM     16  C5  UNL     1      -1.388  -5.440   3.973  1.00  0.00     0.044 C   
ENDBRANCH   8   9
BRANCH   8  17
ATOM     17  O1  UNL     1       3.311  -4.652   1.782  1.00  0.00    -0.387 OA  
ATOM     18  H10 UNL     1       2.983  -5.553   1.609  1.00  0.00     0.211 HD  
ENDBRANCH   8  17
ENDBRANCH   7   8
ENDBRANCH   1   7
BRANCH   3  19
ATOM     19  C12 UNL     1      -0.846   1.029   0.328  1.00  0.00     0.120 C   
BRANCH  19  20
ATOM     20  N2  UNL     1      -0.357   2.286  -0.356  1.00  0.00     0.250 N   
ATOM     21  H15 UNL     1       0.210   1.979  -1.161  1.00  0.00     0.199 HD  
ATOM     22  H16 UNL     1      -1.120   2.847  -0.742  1.00  0.00     0.199 HD  
BRANCH  20  23
ATOM     23  C13 UNL     1       0.510   3.169   0.475  1.00  0.00     0.164 C   
BRANCH  23  24
ATOM     24  C14 UNL     1       0.960   4.361  -0.322  1.00  0.00    -0.002 A   
ATOM     25  C15 UNL     1       0.298   5.605  -0.191  1.00  0.00     0.012 A   
ATOM     26  C19 UNL     1       2.015   4.229  -1.242  1.00  0.00     0.045 A   
ATOM     27  C16 UNL     1       0.688   6.708  -0.958  1.00  0.00     0.037 A   
ATOM     28  C18 UNL     1       2.371   5.336  -1.984  1.00  0.00     0.109 A   
ATOM     29  C17 UNL     1       1.727   6.540  -1.846  1.00  0.00     0.108 A   
ATOM     30  O2  UNL     1       3.360   5.380  -2.915  1.00  0.00    -0.316 OA  
ATOM     31  O3  UNL     1       2.233   7.496  -2.668  1.00  0.00    -0.316 OA  
ATOM     32  C20 UNL     1       3.286   6.762  -3.330  1.00  0.00     0.337 C   
ENDBRANCH  23  24
ENDBRANCH  20  23
ENDBRANCH  19  20
BRANCH  19  33
ATOM     33  C21 UNL     1      -2.071   0.428  -0.447  1.00  0.00     0.010 C   
ATOM     34  C22 UNL     1      -2.560  -0.863   0.248  1.00  0.00     0.017 C   
ATOM     35  C23 UNL     1      -1.739   0.089  -1.915  1.00  0.00     0.017 C   
ATOM     36  C24 UNL     1      -3.256   1.421  -0.435  1.00  0.00     0.017 C   
ENDBRANCH  19  33
ENDBRANCH   3  19
TORSDOF 9
