REMARK SMILES Cc1cc(O)c(Cn2cc([C@@H]([NH2+]Cc3ccc4c(c3)OCO4)C(C)C)nn2)cc1C
REMARK SMILES IDX 8 1 9 2 10 3 26 4 27 5 7 7 6 8 2 9 3 10 29 11 4 12 28 13
REMARK SMILES IDX 1 14 30 15 5 16 11 18 12 19 13 22 14 23 15 24 19 25 16 26
REMARK SMILES IDX 18 27 17 28 20 29 22 30 21 31 23 32 24 33 25 34
REMARK H PARENT 9 6 5 17 12 20 12 21
ROOT
ATOM     1   N1  UNL     1      -0.501  -0.064   2.701  1.00  0.00    -0.208 N   
ATOM     2   C7  UNL     1       0.740  -0.534   2.368  1.00  0.00     0.046 A   
ATOM     3   C8  UNL     1       1.247   0.429   1.525  1.00  0.00     0.127 A   
ATOM     4   N3  UNL     1       0.321   1.431   1.377  1.00  0.00    -0.132 NA  
ATOM     5   N4  UNL     1      -0.742   1.120   2.101  1.00  0.00    -0.076 NA  
ATOM     6   H8  UNL     1       1.113  -1.479   2.738  1.00  0.00     0.083 HD  
ENDROOT
BRANCH   1   7
ATOM     7   C6  UNL     1      -1.490  -0.671   3.574  1.00  0.00     0.172 C   
BRANCH   7   8
ATOM     8   C5  UNL     1      -2.309  -1.692   2.830  1.00  0.00     0.002 A   
ATOM     9   C2  UNL     1      -3.860  -3.577   1.406  1.00  0.00    -0.046 A   
ATOM     10  C3  UNL     1      -2.699  -3.972   2.089  1.00  0.00     0.037 A   
ATOM     11  C22 UNL     1      -4.253  -2.225   1.439  1.00  0.00    -0.048 A   
ATOM     12  C4  UNL     1      -1.937  -3.036   2.786  1.00  0.00     0.076 A   
ATOM     13  C21 UNL     1      -3.468  -1.297   2.144  1.00  0.00     0.011 A   
ATOM     14  C1  UNL     1      -4.670  -4.611   0.671  1.00  0.00     0.045 C   
ATOM     15  C23 UNL     1      -5.492  -1.751   0.727  1.00  0.00     0.044 C   
BRANCH  12  16
ATOM     16  O1  UNL     1      -0.799  -3.426   3.436  1.00  0.00    -0.361 OA  
ATOM     17  H5  UNL     1      -0.796  -4.400   3.483  1.00  0.00     0.218 HD  
ENDBRANCH  12  16
ENDBRANCH   7   8
ENDBRANCH   1   7
BRANCH   3  18
ATOM     18  C9  UNL     1       2.523   0.495   0.752  1.00  0.00     0.117 C   
BRANCH  18  19
ATOM     19  N2  UNL     1       2.289   1.229  -0.546  1.00  0.00     0.249 N   
ATOM     20  H10 UNL     1       3.163   1.585  -0.945  1.00  0.00     0.199 HD  
ATOM     21  H11 UNL     1       1.715   2.055  -0.316  1.00  0.00     0.199 HD  
BRANCH  19  22
ATOM     22  C10 UNL     1       1.546   0.461  -1.583  1.00  0.00     0.164 C   
BRANCH  22  23
ATOM     23  C11 UNL     1       1.246   1.335  -2.767  1.00  0.00    -0.002 A   
ATOM     24  C12 UNL     1       0.061   2.109  -2.793  1.00  0.00     0.012 A   
ATOM     25  C16 UNL     1       2.162   1.433  -3.828  1.00  0.00     0.045 A   
ATOM     26  C13 UNL     1      -0.217   2.960  -3.868  1.00  0.00     0.037 A   
ATOM     27  C15 UNL     1       1.856   2.282  -4.872  1.00  0.00     0.109 A   
ATOM     28  C14 UNL     1       0.701   3.023  -4.892  1.00  0.00     0.108 A   
ATOM     29  O2  UNL     1       2.628   2.492  -5.970  1.00  0.00    -0.316 OA  
ATOM     30  O3  UNL     1       0.598   3.792  -6.007  1.00  0.00    -0.316 OA  
ATOM     31  C17 UNL     1       1.814   3.439  -6.699  1.00  0.00     0.337 C   
ENDBRANCH  22  23
ENDBRANCH  19  22
ENDBRANCH  18  19
BRANCH  18  32
ATOM     32  C18 UNL     1       3.690   1.186   1.503  1.00  0.00     0.037 C   
ATOM     33  C19 UNL     1       3.405   2.636   1.910  1.00  0.00     0.014 C   
ATOM     34  C20 UNL     1       4.126   0.380   2.732  1.00  0.00     0.014 C   
ENDBRANCH  18  32
ENDBRANCH   3  18
TORSDOF 8
