REMARK SMILES Clc1cnc(Cn2cc([C@@H]([NH2+]Cc3ccc4c(c3)OCO4)C3CCCCC3)nn2)cn1
REMARK SMILES IDX 7 1 8 2 9 3 28 4 29 5 6 7 5 8 2 9 3 10 31 11 4 12 30 13 1 14
REMARK SMILES IDX 10 15 11 16 12 19 13 20 14 21 18 22 15 23 17 24 16 25 19 26
REMARK SMILES IDX 21 27 20 28 22 29 23 30 27 31 24 32 26 33 25 34
REMARK H PARENT 8 6 11 17 11 18
ROOT
ATOM     1   N2  UNL     1       0.709  -2.722  -1.737  1.00  0.00    -0.206 N   
ATOM     2   C5  UNL     1       0.823  -2.370  -0.420  1.00  0.00     0.046 A   
ATOM     3   C6  UNL     1      -0.309  -1.623  -0.175  1.00  0.00     0.127 A   
ATOM     4   N4  UNL     1      -1.049  -1.540  -1.328  1.00  0.00    -0.132 NA  
ATOM     5   N5  UNL     1      -0.413  -2.208  -2.276  1.00  0.00    -0.076 NA  
ATOM     6   H4  UNL     1       1.670  -2.663   0.185  1.00  0.00     0.083 HD  
ENDROOT
BRANCH   1   7
ATOM     7   C4  UNL     1       1.629  -3.496  -2.547  1.00  0.00     0.191 C   
BRANCH   7   8
ATOM     8   C3  UNL     1       2.728  -2.609  -3.055  1.00  0.00     0.078 A   
ATOM     9   C1  UNL     1       4.652  -0.962  -3.964  1.00  0.00     0.147 A   
ATOM     10  C2  UNL     1       4.856  -1.753  -2.847  1.00  0.00     0.152 A   
ATOM     11  N6  UNL     1       3.486  -0.960  -4.646  1.00  0.00    -0.241 NA  
ATOM     12  N1  UNL     1       3.895  -2.580  -2.356  1.00  0.00    -0.255 NA  
ATOM     13  C22 UNL     1       2.538  -1.803  -4.177  1.00  0.00     0.138 A   
ATOM     14  CL1 UNL     1       5.854   0.099  -4.556  1.00  0.00    -0.061 Cl  
ENDBRANCH   7   8
ENDBRANCH   1   7
BRANCH   3  15
ATOM     15  C7  UNL     1      -0.769  -0.899   1.050  1.00  0.00     0.117 C   
BRANCH  15  16
ATOM     16  N3  UNL     1      -1.540   0.346   0.660  1.00  0.00     0.249 N   
ATOM     17  H6  UNL     1      -2.233   0.050  -0.041  1.00  0.00     0.199 HD  
ATOM     18  H7  UNL     1      -2.056   0.712   1.466  1.00  0.00     0.199 HD  
BRANCH  16  19
ATOM     19  C8  UNL     1      -0.747   1.452   0.043  1.00  0.00     0.164 C   
BRANCH  19  20
ATOM     20  C9  UNL     1       0.202   2.104   1.009  1.00  0.00    -0.002 A   
ATOM     21  C10 UNL     1       1.593   1.857   0.921  1.00  0.00     0.012 A   
ATOM     22  C14 UNL     1      -0.287   2.947   2.023  1.00  0.00     0.045 A   
ATOM     23  C11 UNL     1       2.486   2.435   1.830  1.00  0.00     0.037 A   
ATOM     24  C13 UNL     1       0.620   3.501   2.901  1.00  0.00     0.109 A   
ATOM     25  C12 UNL     1       1.967   3.252   2.809  1.00  0.00     0.108 A   
ATOM     26  O1  UNL     1       0.315   4.332   3.932  1.00  0.00    -0.316 OA  
ATOM     27  O2  UNL     1       2.680   3.896   3.769  1.00  0.00    -0.316 OA  
ATOM     28  C15 UNL     1       1.633   4.610   4.460  1.00  0.00     0.337 C   
ENDBRANCH  19  20
ENDBRANCH  16  19
ENDBRANCH  15  16
BRANCH  15  29
ATOM     29  C16 UNL     1      -1.665  -1.748   1.993  1.00  0.00     0.043 C   
ATOM     30  C17 UNL     1      -2.949  -2.291   1.332  1.00  0.00     0.010 C   
ATOM     31  C21 UNL     1      -0.871  -2.901   2.640  1.00  0.00     0.010 C   
ATOM     32  C18 UNL     1      -3.796  -3.097   2.316  1.00  0.00     0.001 C   
ATOM     33  C20 UNL     1      -1.726  -3.693   3.626  1.00  0.00     0.001 C   
ATOM     34  C19 UNL     1      -2.996  -4.220   2.967  1.00  0.00     0.000 C   
ENDBRANCH  15  29
ENDBRANCH   3  15
TORSDOF 7
