REMARK SMILES OC[C@@H](c1ccccc1Cl)n1cc([C@@H]([NH2+]Cc2ccc3c(c2)OCO3)C2CCCC2)nn1
REMARK SMILES IDX 11 1 12 2 13 3 31 4 32 5 3 7 2 8 1 9 4 11 5 12 9 13 6 14
REMARK SMILES IDX 8 15 7 16 10 17 14 18 15 19 16 22 17 23 18 24 22 25 19 26
REMARK SMILES IDX 21 27 20 28 23 29 25 30 24 31 26 32 27 33 30 34 28 35 29 36
REMARK H PARENT 12 6 1 10 15 20 15 21
ROOT
ATOM     1   N1  UNL     1       2.557  -1.941   0.456  1.00  0.00    -0.202 N   
ATOM     2   C9  UNL     1       2.808  -0.596   0.362  1.00  0.00     0.046 A   
ATOM     3   C10 UNL     1       1.586  -0.008   0.594  1.00  0.00     0.127 A   
ATOM     4   N3  UNL     1       0.646  -0.989   0.795  1.00  0.00    -0.132 NA  
ATOM     5   N4  UNL     1       1.243  -2.163   0.682  1.00  0.00    -0.075 NA  
ATOM     6   H9  UNL     1       3.797  -0.206   0.163  1.00  0.00     0.083 HD  
ENDROOT
BRANCH   1   7
ATOM     7   C2  UNL     1       3.515  -3.043   0.346  1.00  0.00     0.157 C   
BRANCH   7   8
ATOM     8   C1  UNL     1       3.451  -3.970   1.580  1.00  0.00     0.186 C   
BRANCH   8   9
ATOM     9   O1  UNL     1       3.961  -3.297   2.735  1.00  0.00    -0.394 OA  
ATOM     10  H1  UNL     1       3.915  -3.932   3.474  1.00  0.00     0.210 HD  
ENDBRANCH   8   9
ENDBRANCH   7   8
BRANCH   7  11
ATOM     11  C3  UNL     1       3.342  -3.751  -0.994  1.00  0.00    -0.005 A   
ATOM     12  C4  UNL     1       2.443  -4.828  -1.124  1.00  0.00     0.007 A   
ATOM     13  C8  UNL     1       4.046  -3.345  -2.145  1.00  0.00     0.046 A   
ATOM     14  C5  UNL     1       2.283  -5.497  -2.339  1.00  0.00     0.000 A   
ATOM     15  C7  UNL     1       3.882  -4.018  -3.361  1.00  0.00     0.021 A   
ATOM     16  C6  UNL     1       3.007  -5.097  -3.456  1.00  0.00     0.002 A   
ATOM     17  CL1 UNL     1       5.133  -1.999  -2.137  1.00  0.00    -0.084 Cl  
ENDBRANCH   7  11
ENDBRANCH   1   7
BRANCH   3  18
ATOM     18  C11 UNL     1       1.173   1.429   0.649  1.00  0.00     0.117 C   
BRANCH  18  19
ATOM     19  N2  UNL     1      -0.286   1.552   0.299  1.00  0.00     0.249 N   
ATOM     20  H11 UNL     1      -0.788   0.858   0.873  1.00  0.00     0.199 HD  
ATOM     21  H12 UNL     1      -0.662   2.471   0.550  1.00  0.00     0.199 HD  
BRANCH  19  22
ATOM     22  C12 UNL     1      -0.635   1.286  -1.126  1.00  0.00     0.164 C   
BRANCH  22  23
ATOM     23  C13 UNL     1      -2.110   1.478  -1.335  1.00  0.00    -0.002 A   
ATOM     24  C14 UNL     1      -3.014   0.447  -0.982  1.00  0.00     0.012 A   
ATOM     25  C18 UNL     1      -2.606   2.703  -1.812  1.00  0.00     0.045 A   
ATOM     26  C15 UNL     1      -4.396   0.632  -1.096  1.00  0.00     0.037 A   
ATOM     27  C17 UNL     1      -3.973   2.850  -1.917  1.00  0.00     0.109 A   
ATOM     28  C16 UNL     1      -4.844   1.847  -1.563  1.00  0.00     0.108 A   
ATOM     29  O2  UNL     1      -4.615   3.966  -2.346  1.00  0.00    -0.316 OA  
ATOM     30  O3  UNL     1      -6.144   2.206  -1.726  1.00  0.00    -0.316 OA  
ATOM     31  C19 UNL     1      -5.996   3.538  -2.261  1.00  0.00     0.337 C   
ENDBRANCH  22  23
ENDBRANCH  19  22
ENDBRANCH  18  19
BRANCH  18  32
ATOM     32  C20 UNL     1       1.398   2.021   2.058  1.00  0.00     0.043 C   
ATOM     33  C21 UNL     1       2.891   2.154   2.422  1.00  0.00     0.010 C   
ATOM     34  C24 UNL     1       0.863   3.442   2.270  1.00  0.00     0.010 C   
ATOM     35  C22 UNL     1       3.012   3.382   3.324  1.00  0.00     0.001 C   
ATOM     36  C23 UNL     1       1.595   3.897   3.522  1.00  0.00     0.001 C   
ENDBRANCH  18  32
ENDBRANCH   3  18
TORSDOF 9
