REMARK SMILES OC[C@H](c1ccccc1Cl)n1cc([C@@H]([NH2+]Cc2ccc3c(c2)OCO3)C2CCCC2)nn1
REMARK SMILES IDX 11 1 12 2 13 3 31 4 32 5 3 7 2 8 1 9 4 11 5 12 9 13 6 14
REMARK SMILES IDX 8 15 7 16 10 17 14 18 15 19 16 22 17 23 18 24 22 25 19 26
REMARK SMILES IDX 21 27 20 28 23 29 25 30 24 31 26 32 27 33 30 34 28 35 29 36
REMARK H PARENT 12 6 1 10 15 20 15 21
ROOT
ATOM     1   N1  UNL     1       0.953  -0.205  -2.804  1.00  0.00    -0.202 N   
ATOM     2   C9  UNL     1       1.992  -0.410  -1.933  1.00  0.00     0.046 A   
ATOM     3   C10 UNL     1       1.482  -0.034  -0.712  1.00  0.00     0.127 A   
ATOM     4   N3  UNL     1       0.200   0.425  -0.879  1.00  0.00    -0.132 NA  
ATOM     5   N4  UNL     1      -0.105   0.337  -2.163  1.00  0.00    -0.075 NA  
ATOM     6   H9  UNL     1       2.944  -0.808  -2.255  1.00  0.00     0.083 HD  
ENDROOT
BRANCH   1   7
ATOM     7   C2  UNL     1       0.913  -0.499  -4.239  1.00  0.00     0.157 C   
BRANCH   7   8
ATOM     8   C1  UNL     1       0.804   0.802  -5.056  1.00  0.00     0.186 C   
BRANCH   8   9
ATOM     9   O1  UNL     1       2.023   1.546  -4.969  1.00  0.00    -0.394 OA  
ATOM     10  H1  UNL     1       1.936   2.304  -5.576  1.00  0.00     0.210 HD  
ENDBRANCH   8   9
ENDBRANCH   7   8
BRANCH   7  11
ATOM     11  C3  UNL     1      -0.158  -1.549  -4.524  1.00  0.00    -0.005 A   
ATOM     12  C4  UNL     1      -1.454  -1.166  -4.930  1.00  0.00     0.007 A   
ATOM     13  C8  UNL     1       0.091  -2.926  -4.343  1.00  0.00     0.046 A   
ATOM     14  C5  UNL     1      -2.447  -2.119  -5.171  1.00  0.00     0.000 A   
ATOM     15  C7  UNL     1      -0.906  -3.878  -4.589  1.00  0.00     0.021 A   
ATOM     16  C6  UNL     1      -2.173  -3.473  -5.005  1.00  0.00     0.002 A   
ATOM     17  CL1 UNL     1       1.622  -3.518  -3.791  1.00  0.00    -0.084 Cl  
ENDBRANCH   7  11
ENDBRANCH   1   7
BRANCH   3  18
ATOM     18  C11 UNL     1       2.094  -0.020   0.652  1.00  0.00     0.117 C   
BRANCH  18  19
ATOM     19  N2  UNL     1       1.510   1.124   1.444  1.00  0.00     0.249 N   
ATOM     20  H11 UNL     1       0.493   1.105   1.280  1.00  0.00     0.199 HD  
ATOM     21  H12 UNL     1       1.639   1.003   2.450  1.00  0.00     0.199 HD  
BRANCH  19  22
ATOM     22  C12 UNL     1       1.994   2.476   1.058  1.00  0.00     0.164 C   
BRANCH  22  23
ATOM     23  C13 UNL     1       1.286   3.537   1.853  1.00  0.00    -0.002 A   
ATOM     24  C14 UNL     1       1.779   3.934   3.120  1.00  0.00     0.012 A   
ATOM     25  C18 UNL     1       0.101   4.109   1.357  1.00  0.00     0.045 A   
ATOM     26  C15 UNL     1       1.107   4.895   3.883  1.00  0.00     0.037 A   
ATOM     27  C17 UNL     1      -0.533   5.060   2.132  1.00  0.00     0.109 A   
ATOM     28  C16 UNL     1      -0.045   5.440   3.359  1.00  0.00     0.108 A   
ATOM     29  O2  UNL     1      -1.674   5.719   1.798  1.00  0.00    -0.316 OA  
ATOM     30  O3  UNL     1      -0.820   6.383   3.954  1.00  0.00    -0.316 OA  
ATOM     31  C19 UNL     1      -1.824   6.598   2.936  1.00  0.00     0.337 C   
ENDBRANCH  22  23
ENDBRANCH  19  22
ENDBRANCH  18  19
BRANCH  18  32
ATOM     32  C20 UNL     1       1.832  -1.334   1.414  1.00  0.00     0.043 C   
ATOM     33  C21 UNL     1       2.456  -1.398   2.812  1.00  0.00     0.010 C   
ATOM     34  C24 UNL     1       2.446  -2.567   0.732  1.00  0.00     0.010 C   
ATOM     35  C22 UNL     1       2.389  -2.878   3.154  1.00  0.00     0.001 C   
ATOM     36  C23 UNL     1       2.672  -3.597   1.841  1.00  0.00     0.001 C   
ENDBRANCH  18  32
ENDBRANCH   3  18
TORSDOF 9
