REMARK SMILES CC(C)C[C@H]([NH2+]Cc1ccc2c(c1)OCO2)c1cn(CCc2nccs2)nn1
REMARK SMILES IDX 17 1 18 2 19 3 27 4 28 5 5 7 4 8 2 9 1 10 3 11 6 12 7 15
REMARK SMILES IDX 8 16 9 17 13 18 10 19 12 20 11 21 14 22 16 23 15 24 20 25
REMARK SMILES IDX 21 26 22 27 23 28 26 29 24 30 25 31
REMARK H PARENT 18 6 6 13 6 14
ROOT
ATOM     1   C14 UNL     1      -0.566  -0.213   1.045  1.00  0.00     0.127 A   
ATOM     2   C15 UNL     1      -1.281   0.173   2.155  1.00  0.00     0.045 A   
ATOM     3   N2  UNL     1      -0.616  -0.412   3.195  1.00  0.00    -0.212 N   
ATOM     4   N4  UNL     1       0.480  -1.062   2.761  1.00  0.00    -0.076 NA  
ATOM     5   N5  UNL     1       0.510  -0.966   1.442  1.00  0.00    -0.132 NA  
ATOM     6   H20 UNL     1      -2.186   0.748   2.301  1.00  0.00     0.083 HD  
ENDROOT
BRANCH   1   7
ATOM     7   C5  UNL     1      -0.783   0.061  -0.408  1.00  0.00     0.114 C   
BRANCH   7   8
ATOM     8   C4  UNL     1      -1.773  -0.956  -1.010  1.00  0.00     0.064 C   
BRANCH   8   9
ATOM     9   C2  UNL     1      -2.153  -0.755  -2.493  1.00  0.00    -0.012 C   
ATOM     10  C1  UNL     1      -3.169  -1.823  -2.911  1.00  0.00     0.007 C   
ATOM     11  C3  UNL     1      -2.723   0.636  -2.771  1.00  0.00     0.007 C   
ENDBRANCH   8   9
ENDBRANCH   7   8
BRANCH   7  12
ATOM     12  N1  UNL     1       0.522  -0.018  -1.152  1.00  0.00     0.249 N   
ATOM     13  H11 UNL     1       0.998  -0.872  -0.822  1.00  0.00     0.199 HD  
ATOM     14  H12 UNL     1       0.390  -0.133  -2.160  1.00  0.00     0.199 HD  
BRANCH  12  15
ATOM     15  C6  UNL     1       1.454   1.122  -0.923  1.00  0.00     0.164 C   
BRANCH  15  16
ATOM     16  C7  UNL     1       2.736   0.908  -1.676  1.00  0.00    -0.002 A   
ATOM     17  C8  UNL     1       2.906   1.449  -2.972  1.00  0.00     0.012 A   
ATOM     18  C12 UNL     1       3.755   0.119  -1.114  1.00  0.00     0.045 A   
ATOM     19  C9  UNL     1       4.081   1.218  -3.697  1.00  0.00     0.037 A   
ATOM     20  C11 UNL     1       4.899  -0.089  -1.856  1.00  0.00     0.109 A   
ATOM     21  C10 UNL     1       5.058   0.445  -3.111  1.00  0.00     0.108 A   
ATOM     22  O1  UNL     1       5.974  -0.822  -1.464  1.00  0.00    -0.316 OA  
ATOM     23  O2  UNL     1       6.253   0.116  -3.667  1.00  0.00    -0.316 OA  
ATOM     24  C13 UNL     1       6.842  -0.671  -2.609  1.00  0.00     0.337 C   
ENDBRANCH  15  16
ENDBRANCH  12  15
ENDBRANCH   7  12
ENDBRANCH   1   7
BRANCH   3  25
ATOM     25  C16 UNL     1      -0.940  -0.378   4.606  1.00  0.00     0.141 C   
BRANCH  25  26
ATOM     26  C17 UNL     1      -1.532  -1.692   5.109  1.00  0.00     0.085 C   
BRANCH  26  27
ATOM     27  C18 UNL     1      -2.909  -1.949   4.573  1.00  0.00     0.079 A   
ATOM     28  N3  UNL     1      -3.663  -1.055   3.965  1.00  0.00    -0.254 NA  
ATOM     29  S1  UNL     1      -3.615  -3.508   4.758  1.00  0.00    -0.081 S   
ATOM     30  C19 UNL     1      -4.886  -1.618   3.648  1.00  0.00     0.119 A   
ATOM     31  C20 UNL     1      -5.040  -2.943   3.995  1.00  0.00     0.067 A   
ENDBRANCH  26  27
ENDBRANCH  25  26
ENDBRANCH   3  25
TORSDOF 9
