REMARK SMILES CC(C)C[C@H]([NH2+]Cc1ccc2c(c1)OCO2)c1cn(Cc2cc(O)ccc2O)nn1
REMARK SMILES IDX 17 1 18 2 19 3 29 4 30 5 5 7 4 8 2 9 1 10 3 11 6 12 7 15
REMARK SMILES IDX 8 16 9 17 13 18 10 19 12 20 11 21 14 22 16 23 15 24 20 25
REMARK SMILES IDX 21 26 22 27 27 28 23 29 26 30 25 31 28 32 24 34
REMARK H PARENT 18 6 6 13 6 14 28 33 24 35
ROOT
ATOM     1   C14 UNL     1       1.130  -1.717  -0.245  1.00  0.00     0.127 A   
ATOM     2   C15 UNL     1      -0.067  -1.860  -0.908  1.00  0.00     0.046 A   
ATOM     3   N2  UNL     1      -0.466  -3.133  -0.609  1.00  0.00    -0.208 N   
ATOM     4   N3  UNL     1       0.456  -3.752   0.156  1.00  0.00    -0.076 NA  
ATOM     5   N4  UNL     1       1.436  -2.893   0.389  1.00  0.00    -0.132 NA  
ATOM     6   H20 UNL     1      -0.680  -1.188  -1.494  1.00  0.00     0.083 HD  
ENDROOT
BRANCH   1   7
ATOM     7   C5  UNL     1       1.979  -0.514  -0.024  1.00  0.00     0.114 C   
BRANCH   7   8
ATOM     8   C4  UNL     1       3.373  -0.613  -0.681  1.00  0.00     0.064 C   
BRANCH   8   9
ATOM     9   C2  UNL     1       3.431  -0.224  -2.175  1.00  0.00    -0.012 C   
ATOM     10  C1  UNL     1       2.675  -1.184  -3.091  1.00  0.00     0.007 C   
ATOM     11  C3  UNL     1       4.895  -0.149  -2.623  1.00  0.00     0.007 C   
ENDBRANCH   8   9
ENDBRANCH   7   8
BRANCH   7  12
ATOM     12  N1  UNL     1       2.220  -0.329   1.469  1.00  0.00     0.249 N   
ATOM     13  H11 UNL     1       2.832   0.478   1.621  1.00  0.00     0.199 HD  
ATOM     14  H12 UNL     1       2.731  -1.166   1.782  1.00  0.00     0.199 HD  
BRANCH  12  15
ATOM     15  C6  UNL     1       1.017  -0.208   2.350  1.00  0.00     0.164 C   
BRANCH  15  16
ATOM     16  C7  UNL     1       0.056   0.875   1.940  1.00  0.00    -0.002 A   
ATOM     17  C8  UNL     1       0.429   2.239   1.991  1.00  0.00     0.012 A   
ATOM     18  C12 UNL     1      -1.229   0.528   1.486  1.00  0.00     0.045 A   
ATOM     19  C9  UNL     1      -0.458   3.239   1.577  1.00  0.00     0.037 A   
ATOM     20  C11 UNL     1      -2.078   1.535   1.079  1.00  0.00     0.109 A   
ATOM     21  C10 UNL     1      -1.701   2.854   1.122  1.00  0.00     0.108 A   
ATOM     22  O1  UNL     1      -3.339   1.367   0.594  1.00  0.00    -0.316 OA  
ATOM     23  O2  UNL     1      -2.677   3.687   0.678  1.00  0.00    -0.316 OA  
ATOM     24  C13 UNL     1      -3.727   2.747   0.375  1.00  0.00     0.337 C   
ENDBRANCH  15  16
ENDBRANCH  12  15
ENDBRANCH   7  12
ENDBRANCH   1   7
BRANCH   3  25
ATOM     25  C16 UNL     1      -1.708  -3.791  -0.972  1.00  0.00     0.172 C   
BRANCH  25  26
ATOM     26  C17 UNL     1      -2.754  -3.602   0.097  1.00  0.00     0.004 A   
ATOM     27  C18 UNL     1      -2.987  -4.619   1.034  1.00  0.00     0.041 A   
ATOM     28  C22 UNL     1      -3.491  -2.416   0.208  1.00  0.00     0.076 A   
ATOM     29  C19 UNL     1      -3.944  -4.450   2.031  1.00  0.00     0.072 A   
ATOM     30  C21 UNL     1      -4.450  -2.248   1.208  1.00  0.00     0.036 A   
ATOM     31  C20 UNL     1      -4.680  -3.275   2.125  1.00  0.00     0.036 A   
BRANCH  28  32
ATOM     32  O4  UNL     1      -3.245  -1.404  -0.677  1.00  0.00    -0.361 OA  
ATOM     33  H27 UNL     1      -3.773  -0.625  -0.416  1.00  0.00     0.218 HD  
ENDBRANCH  28  32
BRANCH  29  34
ATOM     34  O3  UNL     1      -4.128  -5.477   2.907  1.00  0.00    -0.361 OA  
ATOM     35  H24 UNL     1      -4.875  -5.270   3.493  1.00  0.00     0.218 HD  
ENDBRANCH  29  34
ENDBRANCH  25  26
ENDBRANCH   3  25
TORSDOF 10
