REMARK SMILES CC(=O)c1cc(-n2cc([C@@H]([NH2+]Cc3ccc4c(c3)OCO4)C3CCCCC3)nn2)ccc1O
REMARK SMILES IDX 7 1 8 2 9 3 28 4 29 5 6 6 4 7 5 8 32 9 31 10 30 11 2 12 1 13
REMARK SMILES IDX 3 14 33 15 10 17 11 18 12 21 13 22 14 23 18 24 15 25 17 26
REMARK SMILES IDX 16 27 19 28 21 29 20 30 22 31 23 32 27 33 24 34 26 35 25 36
REMARK H PARENT 33 16 11 19 11 20
ROOT
ATOM     1   N1  UNL     1       0.227   0.135   2.312  1.00  0.00    -0.181 N   
ATOM     2   C6  UNL     1      -0.561  -0.440   1.331  1.00  0.00     0.135 A   
ATOM     3   C7  UNL     1       0.049  -0.107   0.140  1.00  0.00     0.127 A   
ATOM     4   N3  UNL     1       1.150   0.657   0.403  1.00  0.00    -0.131 NA  
ATOM     5   N4  UNL     1       1.238   0.813   1.713  1.00  0.00    -0.071 NA  
ENDROOT
BRANCH   1   6
ATOM     6   C5  UNL     1       0.071   0.109   3.721  1.00  0.00     0.058 A   
ATOM     7   C3  UNL     1      -1.119  -0.608   5.728  1.00  0.00     0.049 A   
ATOM     8   C4  UNL     1      -0.973  -0.613   4.327  1.00  0.00     0.040 A   
ATOM     9   C25 UNL     1      -0.207   0.118   6.507  1.00  0.00     0.082 A   
ATOM     10  C24 UNL     1       0.826   0.835   5.908  1.00  0.00     0.036 A   
ATOM     11  C23 UNL     1       0.969   0.831   4.520  1.00  0.00     0.029 A   
BRANCH   7  12
ATOM     12  C2  UNL     1      -2.227  -1.355   6.399  1.00  0.00     0.162 C   
ATOM     13  C1  UNL     1      -3.307  -1.994   5.568  1.00  0.00     0.093 C   
ATOM     14  O1  UNL     1      -2.235  -1.433   7.628  1.00  0.00    -0.294 OA  
ENDBRANCH   7  12
BRANCH   9  15
ATOM     15  O4  UNL     1      -0.261   0.180   7.872  1.00  0.00    -0.360 OA  
ATOM     16  H29 UNL     1      -0.979  -0.416   8.186  1.00  0.00     0.218 HD  
ENDBRANCH   9  15
ENDBRANCH   1   6
BRANCH   3  17
ATOM     17  C8  UNL     1      -0.326  -0.389  -1.281  1.00  0.00     0.117 C   
BRANCH  17  18
ATOM     18  N2  UNL     1       0.140   0.729  -2.183  1.00  0.00     0.249 N   
ATOM     19  H7  UNL     1       0.105   0.446  -3.169  1.00  0.00     0.199 HD  
ATOM     20  H8  UNL     1       1.131   0.908  -1.969  1.00  0.00     0.199 HD  
BRANCH  18  21
ATOM     21  C9  UNL     1      -0.584   2.025  -2.033  1.00  0.00     0.164 C   
BRANCH  21  22
ATOM     22  C10 UNL     1      -0.140   2.996  -3.091  1.00  0.00    -0.002 A   
ATOM     23  C11 UNL     1      -0.918   3.184  -4.258  1.00  0.00     0.012 A   
ATOM     24  C15 UNL     1       1.078   3.686  -2.951  1.00  0.00     0.045 A   
ATOM     25  C12 UNL     1      -0.491   4.044  -5.275  1.00  0.00     0.037 A   
ATOM     26  C14 UNL     1       1.470   4.524  -3.973  1.00  0.00     0.109 A   
ATOM     27  C13 UNL     1       0.710   4.697  -5.103  1.00  0.00     0.108 A   
ATOM     28  O2  UNL     1       2.619   5.251  -4.004  1.00  0.00    -0.316 OA  
ATOM     29  O3  UNL     1       1.282   5.554  -5.987  1.00  0.00    -0.316 OA  
ATOM     30  C16 UNL     1       2.481   5.926  -5.275  1.00  0.00     0.337 C   
ENDBRANCH  21  22
ENDBRANCH  18  21
ENDBRANCH  17  18
BRANCH  17  31
ATOM     31  C17 UNL     1       0.235  -1.725  -1.839  1.00  0.00     0.043 C   
ATOM     32  C18 UNL     1      -0.416  -2.944  -1.155  1.00  0.00     0.010 C   
ATOM     33  C22 UNL     1       1.771  -1.838  -1.781  1.00  0.00     0.010 C   
ATOM     34  C19 UNL     1       0.081  -4.259  -1.756  1.00  0.00     0.001 C   
ATOM     35  C21 UNL     1       2.262  -3.162  -2.367  1.00  0.00     0.001 C   
ATOM     36  C20 UNL     1       1.600  -4.356  -1.688  1.00  0.00     0.000 C   
ENDBRANCH  17  31
ENDBRANCH   3  17
TORSDOF 8
