REMARK SMILES CC(C)(C)[C@H]([NH2+]Cc1ccc2c(c1)OCO2)c1cn(CCc2cccc(Cl)c2O)nn1
REMARK SMILES IDX 17 1 18 2 19 3 30 4 31 5 5 7 2 8 1 9 3 10 4 11 6 12 7 15
REMARK SMILES IDX 8 16 9 17 13 18 10 19 12 20 11 21 14 22 16 23 15 24 20 25
REMARK SMILES IDX 21 26 22 27 23 28 28 29 24 30 26 31 25 32 27 33 29 34
REMARK H PARENT 18 6 6 13 6 14 29 35
ROOT
ATOM     1   C14 UNL     1      -0.669  -0.112   0.604  1.00  0.00     0.127 A   
ATOM     2   C15 UNL     1      -1.173  -1.259   0.034  1.00  0.00     0.045 A   
ATOM     3   N2  UNL     1      -1.851  -1.863   1.056  1.00  0.00    -0.212 N   
ATOM     4   N3  UNL     1      -1.832  -1.102   2.164  1.00  0.00    -0.076 NA  
ATOM     5   N4  UNL     1      -1.099  -0.031   1.905  1.00  0.00    -0.132 NA  
ATOM     6   H20 UNL     1      -1.093  -1.704  -0.948  1.00  0.00     0.083 HD  
ENDROOT
BRANCH   1   7
ATOM     7   C5  UNL     1       0.154   0.999   0.027  1.00  0.00     0.120 C   
BRANCH   7   8
ATOM     8   C2  UNL     1       1.703   0.800   0.189  1.00  0.00     0.010 C   
ATOM     9   C1  UNL     1       2.157   0.838   1.662  1.00  0.00     0.017 C   
ATOM     10  C3  UNL     1       2.466   1.901  -0.584  1.00  0.00     0.017 C   
ATOM     11  C4  UNL     1       2.140  -0.553  -0.415  1.00  0.00     0.017 C   
ENDBRANCH   7   8
BRANCH   7  12
ATOM     12  N1  UNL     1      -0.278   2.300   0.663  1.00  0.00     0.250 N   
ATOM     13  H11 UNL     1      -0.347   2.122   1.677  1.00  0.00     0.199 HD  
ATOM     14  H12 UNL     1       0.416   3.043   0.552  1.00  0.00     0.199 HD  
BRANCH  12  15
ATOM     15  C6  UNL     1      -1.605   2.815   0.223  1.00  0.00     0.164 C   
BRANCH  15  16
ATOM     16  C7  UNL     1      -1.921   4.106   0.925  1.00  0.00    -0.002 A   
ATOM     17  C8  UNL     1      -2.503   4.090   2.216  1.00  0.00     0.012 A   
ATOM     18  C12 UNL     1      -1.587   5.334   0.329  1.00  0.00     0.045 A   
ATOM     19  C9  UNL     1      -2.760   5.283   2.902  1.00  0.00     0.037 A   
ATOM     20  C11 UNL     1      -1.858   6.490   1.031  1.00  0.00     0.109 A   
ATOM     21  C10 UNL     1      -2.427   6.467   2.281  1.00  0.00     0.108 A   
ATOM     22  O1  UNL     1      -1.603   7.753   0.600  1.00  0.00    -0.316 OA  
ATOM     23  O2  UNL     1      -2.604   7.712   2.793  1.00  0.00    -0.316 OA  
ATOM     24  C13 UNL     1      -2.115   8.529   1.708  1.00  0.00     0.337 C   
ENDBRANCH  15  16
ENDBRANCH  12  15
ENDBRANCH   7  12
ENDBRANCH   1   7
BRANCH   3  25
ATOM     25  C16 UNL     1      -2.533  -3.140   1.040  1.00  0.00     0.139 C   
BRANCH  25  26
ATOM     26  C17 UNL     1      -1.732  -4.252   1.719  1.00  0.00     0.059 C   
BRANCH  26  27
ATOM     27  C18 UNL     1      -0.361  -4.494   1.125  1.00  0.00    -0.015 A   
ATOM     28  C19 UNL     1       0.783  -4.262   1.905  1.00  0.00     0.006 A   
ATOM     29  C23 UNL     1      -0.189  -4.958  -0.185  1.00  0.00     0.093 A   
ATOM     30  C20 UNL     1       2.062  -4.486   1.388  1.00  0.00     0.002 A   
ATOM     31  C22 UNL     1       1.092  -5.179  -0.705  1.00  0.00     0.071 A   
ATOM     32  C21 UNL     1       2.219  -4.944   0.080  1.00  0.00     0.023 A   
ATOM     33  CL1 UNL     1       1.290  -5.727  -2.328  1.00  0.00    -0.081 Cl  
BRANCH  29  34
ATOM     34  O3  UNL     1      -1.303  -5.187  -0.948  1.00  0.00    -0.359 OA  
ATOM     35  H28 UNL     1      -1.007  -5.647  -1.758  1.00  0.00     0.218 HD  
ENDBRANCH  29  34
ENDBRANCH  26  27
ENDBRANCH  25  26
ENDBRANCH   3  25
TORSDOF 9
