REMARK SMILES CC(C)C[C@H]([NH2+]Cc1ccc2c(c1)OCO2)c1cn(Cc2cccn2C)nn1
REMARK SMILES IDX 17 1 18 2 19 3 27 4 28 5 5 7 4 8 2 9 1 10 3 11 6 12 7 15
REMARK SMILES IDX 8 16 9 17 13 18 10 19 12 20 11 21 14 22 16 23 15 24 20 25
REMARK SMILES IDX 21 26 22 27 25 28 23 29 24 30 26 31
REMARK H PARENT 18 6 6 13 6 14
ROOT
ATOM     1   C14 UNL     1       1.396   1.827   1.090  1.00  0.00     0.127 A   
ATOM     2   C15 UNL     1       1.785   0.933   2.063  1.00  0.00     0.046 A   
ATOM     3   N2  UNL     1       1.219   1.427   3.208  1.00  0.00    -0.206 N   
ATOM     4   N4  UNL     1       0.568   2.580   2.961  1.00  0.00    -0.076 NA  
ATOM     5   N5  UNL     1       0.674   2.838   1.667  1.00  0.00    -0.132 NA  
ATOM     6   H20 UNL     1       2.329  -0.000   2.042  1.00  0.00     0.083 HD  
ENDROOT
BRANCH   1   7
ATOM     7   C5  UNL     1       1.558   1.783  -0.393  1.00  0.00     0.114 C   
BRANCH   7   8
ATOM     8   C4  UNL     1       2.674   2.744  -0.850  1.00  0.00     0.064 C   
BRANCH   8   9
ATOM     9   C2  UNL     1       2.982   2.767  -2.362  1.00  0.00    -0.012 C   
ATOM     10  C1  UNL     1       3.349   1.387  -2.909  1.00  0.00     0.007 C   
ATOM     11  C3  UNL     1       4.124   3.752  -2.638  1.00  0.00     0.007 C   
ENDBRANCH   8   9
ENDBRANCH   7   8
BRANCH   7  12
ATOM     12  N1  UNL     1       0.268   2.158  -1.085  1.00  0.00     0.249 N   
ATOM     13  H11 UNL     1       0.041   3.115  -0.785  1.00  0.00     0.199 HD  
ATOM     14  H12 UNL     1       0.403   2.175  -2.099  1.00  0.00     0.199 HD  
BRANCH  12  15
ATOM     15  C6  UNL     1      -0.926   1.308  -0.779  1.00  0.00     0.164 C   
BRANCH  15  16
ATOM     16  C7  UNL     1      -0.724  -0.147  -1.094  1.00  0.00    -0.002 A   
ATOM     17  C8  UNL     1      -0.643  -1.095  -0.044  1.00  0.00     0.012 A   
ATOM     18  C12 UNL     1      -0.584  -0.577  -2.425  1.00  0.00     0.045 A   
ATOM     19  C9  UNL     1      -0.414  -2.449  -0.312  1.00  0.00     0.037 A   
ATOM     20  C11 UNL     1      -0.358  -1.919  -2.653  1.00  0.00     0.109 A   
ATOM     21  C10 UNL     1      -0.274  -2.828  -1.627  1.00  0.00     0.108 A   
ATOM     22  O1  UNL     1      -0.191  -2.494  -3.873  1.00  0.00    -0.316 OA  
ATOM     23  O2  UNL     1      -0.044  -4.091  -2.073  1.00  0.00    -0.316 OA  
ATOM     24  C13 UNL     1      -0.027  -3.882  -3.501  1.00  0.00     0.337 C   
ENDBRANCH  15  16
ENDBRANCH  12  15
ENDBRANCH   7  12
ENDBRANCH   1   7
BRANCH   3  25
ATOM     25  C16 UNL     1       1.190   0.815   4.530  1.00  0.00     0.185 C   
BRANCH  25  26
ATOM     26  C17 UNL     1       0.430  -0.476   4.482  1.00  0.00     0.029 A   
ATOM     27  C18 UNL     1      -0.922  -0.678   4.248  1.00  0.00     0.022 A   
ATOM     28  N3  UNL     1       0.994  -1.718   4.685  1.00  0.00    -0.312 N   
ATOM     29  C19 UNL     1      -1.164  -2.068   4.264  1.00  0.00     0.017 A   
ATOM     30  C20 UNL     1       0.036  -2.686   4.525  1.00  0.00     0.074 A   
ATOM     31  C21 UNL     1       2.373  -1.994   5.030  1.00  0.00     0.135 C   
ENDBRANCH  25  26
ENDBRANCH   3  25
TORSDOF 8
