REMARK SMILES CCC[C@@H](c1cnn[nH]1)n1cc([C@@H]([NH2+]Cc2ccc3c(c2)OCO3)C(C)(C)C)nn1
REMARK SMILES IDX 10 1 11 2 12 3 29 4 30 5 4 7 3 8 2 9 1 10 5 11 6 12 9 13
REMARK SMILES IDX 7 14 8 15 13 17 14 18 15 21 16 22 17 23 21 24 18 25 20 26
REMARK SMILES IDX 19 27 22 28 24 29 23 30 25 31 26 32 27 33 28 34
REMARK H PARENT 11 6 9 16 14 19 14 20
ROOT
ATOM     1   N4  UNL     1       0.246   1.188  -0.389  1.00  0.00    -0.203 N   
ATOM     2   C7  UNL     1      -0.271   0.307  -1.302  1.00  0.00     0.046 A   
ATOM     3   C8  UNL     1      -1.300  -0.314  -0.628  1.00  0.00     0.127 A   
ATOM     4   N6  UNL     1      -1.366   0.185   0.648  1.00  0.00    -0.132 NA  
ATOM     5   N7  UNL     1      -0.429   1.107   0.780  1.00  0.00    -0.075 NA  
ATOM     6   H11 UNL     1       0.136   0.200  -2.299  1.00  0.00     0.083 HD  
ENDROOT
BRANCH   1   7
ATOM     7   C4  UNL     1       1.370   2.111  -0.575  1.00  0.00     0.147 C   
BRANCH   7   8
ATOM     8   C3  UNL     1       0.919   3.551  -0.889  1.00  0.00     0.031 C   
BRANCH   8   9
ATOM     9   C2  UNL     1       0.185   4.283   0.240  1.00  0.00    -0.001 C   
ATOM     10  C1  UNL     1      -0.173   5.705  -0.171  1.00  0.00     0.004 C   
ENDBRANCH   8   9
ENDBRANCH   7   8
BRANCH   7  11
ATOM     11  C5  UNL     1       2.384   2.034   0.520  1.00  0.00     0.069 A   
ATOM     12  C6  UNL     1       3.757   2.149   0.515  1.00  0.00     0.160 A   
ATOM     13  N3  UNL     1       2.091   1.830   1.844  1.00  0.00    -0.220 N   
ATOM     14  N1  UNL     1       4.233   2.009   1.785  1.00  0.00    -0.141 NA  
ATOM     15  N2  UNL     1       3.201   1.810   2.592  1.00  0.00    -0.079 NA  
ATOM     16  H10 UNL     1       1.190   1.684   2.290  1.00  0.00     0.177 HD  
ENDBRANCH   7  11
ENDBRANCH   1   7
BRANCH   3  17
ATOM     17  C9  UNL     1      -2.217  -1.432  -1.028  1.00  0.00     0.120 C   
BRANCH  17  18
ATOM     18  N5  UNL     1      -2.357  -2.379   0.150  1.00  0.00     0.250 N   
ATOM     19  H13 UNL     1      -3.319  -2.709   0.257  1.00  0.00     0.199 HD  
ATOM     20  H14 UNL     1      -2.170  -1.813   0.994  1.00  0.00     0.199 HD  
BRANCH  18  21
ATOM     21  C10 UNL     1      -1.442  -3.558   0.164  1.00  0.00     0.164 C   
BRANCH  21  22
ATOM     22  C11 UNL     1       0.015  -3.200   0.243  1.00  0.00    -0.002 A   
ATOM     23  C12 UNL     1       0.854  -3.357  -0.887  1.00  0.00     0.012 A   
ATOM     24  C16 UNL     1       0.552  -2.680   1.434  1.00  0.00     0.045 A   
ATOM     25  C13 UNL     1       2.205  -2.995  -0.837  1.00  0.00     0.037 A   
ATOM     26  C15 UNL     1       1.888  -2.338   1.451  1.00  0.00     0.109 A   
ATOM     27  C14 UNL     1       2.691  -2.488   0.348  1.00  0.00     0.108 A   
ATOM     28  O1  UNL     1       2.560  -1.831   2.517  1.00  0.00    -0.316 OA  
ATOM     29  O2  UNL     1       3.969  -2.093   0.579  1.00  0.00    -0.316 OA  
ATOM     30  C17 UNL     1       3.902  -1.745   1.982  1.00  0.00     0.337 C   
ENDBRANCH  21  22
ENDBRANCH  18  21
ENDBRANCH  17  18
BRANCH  17  31
ATOM     31  C18 UNL     1      -3.626  -0.959  -1.528  1.00  0.00     0.010 C   
ATOM     32  C19 UNL     1      -3.466   0.014  -2.719  1.00  0.00     0.017 C   
ATOM     33  C20 UNL     1      -4.446  -0.249  -0.432  1.00  0.00     0.017 C   
ATOM     34  C21 UNL     1      -4.441  -2.169  -2.043  1.00  0.00     0.017 C   
ENDBRANCH  17  31
ENDBRANCH   3  17
TORSDOF 9
