REMARK SMILES CCC[C@H](c1cnn[nH]1)n1cc([C@@H]([NH2+]Cc2ccc3c(c2)OCO3)C(C)(C)C)nn1
REMARK SMILES IDX 10 1 11 2 12 3 29 4 30 5 4 7 3 8 2 9 1 10 5 11 6 12 9 13
REMARK SMILES IDX 7 14 8 15 13 17 14 18 15 21 16 22 17 23 21 24 18 25 20 26
REMARK SMILES IDX 19 27 22 28 24 29 23 30 25 31 26 32 27 33 28 34
REMARK H PARENT 11 6 9 16 14 19 14 20
ROOT
ATOM     1   N4  UNL     1      -0.820   0.914  -1.947  1.00  0.00    -0.203 N   
ATOM     2   C7  UNL     1       0.357   1.243  -1.330  1.00  0.00     0.046 A   
ATOM     3   C8  UNL     1       0.439   0.363  -0.273  1.00  0.00     0.127 A   
ATOM     4   N6  UNL     1      -0.692  -0.414  -0.247  1.00  0.00    -0.132 NA  
ATOM     5   N7  UNL     1      -1.452  -0.072  -1.274  1.00  0.00    -0.075 NA  
ATOM     6   H11 UNL     1       1.016   2.011  -1.710  1.00  0.00     0.083 HD  
ENDROOT
BRANCH   1   7
ATOM     7   C4  UNL     1      -1.352   1.431  -3.209  1.00  0.00     0.147 C   
BRANCH   7   8
ATOM     8   C3  UNL     1      -2.850   1.786  -3.149  1.00  0.00     0.031 C   
BRANCH   8   9
ATOM     9   C2  UNL     1      -3.146   2.929  -2.172  1.00  0.00    -0.001 C   
ATOM     10  C1  UNL     1      -4.625   3.282  -2.162  1.00  0.00     0.004 C   
ENDBRANCH   8   9
ENDBRANCH   7   8
BRANCH   7  11
ATOM     11  C5  UNL     1      -1.060   0.455  -4.301  1.00  0.00     0.069 A   
ATOM     12  C6  UNL     1      -0.399   0.569  -5.503  1.00  0.00     0.160 A   
ATOM     13  N3  UNL     1      -1.435  -0.865  -4.268  1.00  0.00    -0.220 N   
ATOM     14  N1  UNL     1      -0.366  -0.645  -6.121  1.00  0.00    -0.141 NA  
ATOM     15  N2  UNL     1      -1.001  -1.520  -5.352  1.00  0.00    -0.079 NA  
ATOM     16  H10 UNL     1      -1.940  -1.381  -3.553  1.00  0.00     0.177 HD  
ENDBRANCH   7  11
ENDBRANCH   1   7
BRANCH   3  17
ATOM     17  C9  UNL     1       1.482   0.188   0.794  1.00  0.00     0.120 C   
BRANCH  17  18
ATOM     18  N5  UNL     1       0.800  -0.201   2.085  1.00  0.00     0.250 N   
ATOM     19  H13 UNL     1       1.448  -0.612   2.761  1.00  0.00     0.199 HD  
ATOM     20  H14 UNL     1       0.122  -0.943   1.853  1.00  0.00     0.199 HD  
BRANCH  18  21
ATOM     21  C10 UNL     1       0.043   0.890   2.762  1.00  0.00     0.164 C   
BRANCH  21  22
ATOM     22  C11 UNL     1      -0.645   0.368   3.991  1.00  0.00    -0.002 A   
ATOM     23  C12 UNL     1      -1.918  -0.245   3.886  1.00  0.00     0.012 A   
ATOM     24  C16 UNL     1      -0.012   0.440   5.243  1.00  0.00     0.045 A   
ATOM     25  C13 UNL     1      -2.558  -0.767   5.016  1.00  0.00     0.037 A   
ATOM     26  C15 UNL     1      -0.672  -0.086   6.335  1.00  0.00     0.109 A   
ATOM     27  C14 UNL     1      -1.910  -0.671   6.226  1.00  0.00     0.108 A   
ATOM     28  O1  UNL     1      -0.203  -0.095   7.611  1.00  0.00    -0.316 OA  
ATOM     29  O2  UNL     1      -2.376  -1.120   7.420  1.00  0.00    -0.316 OA  
ATOM     30  C17 UNL     1      -1.300  -0.737   8.301  1.00  0.00     0.337 C   
ENDBRANCH  21  22
ENDBRANCH  18  21
ENDBRANCH  17  18
BRANCH  17  31
ATOM     31  C18 UNL     1       2.598  -0.855   0.433  1.00  0.00     0.010 C   
ATOM     32  C19 UNL     1       3.716  -0.831   1.502  1.00  0.00     0.017 C   
ATOM     33  C20 UNL     1       3.262  -0.489  -0.914  1.00  0.00     0.017 C   
ATOM     34  C21 UNL     1       2.056  -2.295   0.331  1.00  0.00     0.017 C   
ENDBRANCH  17  31
ENDBRANCH   3  17
TORSDOF 9
