REMARK SMILES COCc1cccc(Cn2cc([C@@H]([NH2+]Cc3ccc4c(c3)OCO4)C(C)C)nn2)n1
REMARK SMILES IDX 10 1 11 2 12 3 28 4 29 5 9 7 8 8 4 9 5 10 30 11 6 12 7 13
REMARK SMILES IDX 3 14 2 15 1 16 13 17 14 18 15 21 16 22 17 23 21 24 18 25
REMARK SMILES IDX 20 26 19 27 22 28 24 29 23 30 25 31 26 32 27 33
REMARK H PARENT 11 6 14 19 14 20
ROOT
ATOM     1   N1  UNL     1       2.719   2.041   1.061  1.00  0.00    -0.206 N   
ATOM     2   C9  UNL     1       1.454   2.500   1.319  1.00  0.00     0.046 A   
ATOM     3   C10 UNL     1       0.967   1.601   2.239  1.00  0.00     0.127 A   
ATOM     4   N3  UNL     1       1.967   0.741   2.608  1.00  0.00    -0.132 NA  
ATOM     5   N4  UNL     1       3.041   1.030   1.891  1.00  0.00    -0.076 NA  
ATOM     6   H11 UNL     1       0.995   3.277   0.724  1.00  0.00     0.083 HD  
ENDROOT
BRANCH   1   7
ATOM     7   C8  UNL     1       3.530   2.322  -0.109  1.00  0.00     0.190 C   
BRANCH   7   8
ATOM     8   C7  UNL     1       3.053   1.441  -1.237  1.00  0.00     0.060 A   
ATOM     9   C3  UNL     1       1.313   0.862  -2.685  1.00  0.00     0.066 A   
ATOM     10  C4  UNL     1       2.033  -0.227  -3.166  1.00  0.00     0.026 A   
ATOM     11  N5  UNL     1       1.805   1.687  -1.725  1.00  0.00    -0.254 NA  
ATOM     12  C5  UNL     1       3.310  -0.462  -2.665  1.00  0.00     0.004 A   
ATOM     13  C6  UNL     1       3.830   0.378  -1.687  1.00  0.00     0.025 A   
BRANCH   9  14
ATOM     14  C2  UNL     1      -0.085   1.135  -3.191  1.00  0.00     0.215 C   
BRANCH  14  15
ATOM     15  O1  UNL     1      -1.034   0.464  -2.352  1.00  0.00    -0.378 OA  
ATOM     16  C1  UNL     1      -2.336   0.504  -2.925  1.00  0.00     0.195 C   
ENDBRANCH  14  15
ENDBRANCH   9  14
ENDBRANCH   7   8
ENDBRANCH   1   7
BRANCH   3  17
ATOM     17  C11 UNL     1      -0.438   1.328   2.665  1.00  0.00     0.117 C   
BRANCH  17  18
ATOM     18  N2  UNL     1      -0.784  -0.073   2.213  1.00  0.00     0.249 N   
ATOM     19  H13 UNL     1      -1.650  -0.415   2.634  1.00  0.00     0.199 HD  
ATOM     20  H14 UNL     1      -0.029  -0.688   2.550  1.00  0.00     0.199 HD  
BRANCH  18  21
ATOM     21  C12 UNL     1      -0.874  -0.261   0.730  1.00  0.00     0.164 C   
BRANCH  21  22
ATOM     22  C13 UNL     1      -1.161  -1.701   0.408  1.00  0.00    -0.002 A   
ATOM     23  C14 UNL     1      -0.093  -2.621   0.272  1.00  0.00     0.012 A   
ATOM     24  C18 UNL     1      -2.485  -2.151   0.284  1.00  0.00     0.045 A   
ATOM     25  C15 UNL     1      -0.339  -3.972   0.013  1.00  0.00     0.037 A   
ATOM     26  C17 UNL     1      -2.692  -3.488   0.020  1.00  0.00     0.109 A   
ATOM     27  C16 UNL     1      -1.651  -4.374  -0.108  1.00  0.00     0.108 A   
ATOM     28  O2  UNL     1      -3.902  -4.084  -0.132  1.00  0.00    -0.316 OA  
ATOM     29  O3  UNL     1      -2.074  -5.639  -0.360  1.00  0.00    -0.316 OA  
ATOM     30  C19 UNL     1      -3.504  -5.447  -0.403  1.00  0.00     0.337 C   
ENDBRANCH  21  22
ENDBRANCH  18  21
ENDBRANCH  17  18
BRANCH  17  31
ATOM     31  C20 UNL     1      -0.636   1.448   4.199  1.00  0.00     0.037 C   
ATOM     32  C21 UNL     1      -2.076   1.146   4.636  1.00  0.00     0.014 C   
ATOM     33  C22 UNL     1      -0.268   2.856   4.694  1.00  0.00     0.014 C   
ENDBRANCH  17  31
ENDBRANCH   3  17
TORSDOF 9
