REMARK SMILES CC(C)C[C@H]([NH2+]Cc1ccc2c(c1)OCO2)c1cn(CCC(=O)c2ccc(F)cc2)nn1
REMARK SMILES IDX 17 1 18 2 19 3 31 4 32 5 5 7 4 8 2 9 1 10 3 11 6 12 7 15
REMARK SMILES IDX 8 16 9 17 13 18 10 19 12 20 11 21 14 22 16 23 15 24 20 25
REMARK SMILES IDX 21 26 22 27 23 28 24 29 25 30 30 31 26 32 29 33 27 34 28 35
REMARK H PARENT 18 6 6 13 6 14
ROOT
ATOM     1   C14 UNL     1      -1.520   0.312   1.386  1.00  0.00     0.127 A   
ATOM     2   C15 UNL     1      -2.574   0.523   0.526  1.00  0.00     0.045 A   
ATOM     3   N2  UNL     1      -2.761   1.875   0.560  1.00  0.00    -0.212 N   
ATOM     4   N3  UNL     1      -1.901   2.461   1.414  1.00  0.00    -0.076 NA  
ATOM     5   N4  UNL     1      -1.137   1.512   1.932  1.00  0.00    -0.132 NA  
ATOM     6   H20 UNL     1      -3.136  -0.124  -0.135  1.00  0.00     0.083 HD  
ENDROOT
BRANCH   1   7
ATOM     7   C5  UNL     1      -0.739  -0.925   1.686  1.00  0.00     0.114 C   
BRANCH   7   8
ATOM     8   C4  UNL     1      -1.169  -1.529   3.038  1.00  0.00     0.064 C   
BRANCH   8   9
ATOM     9   C2  UNL     1      -0.480  -2.847   3.451  1.00  0.00    -0.012 C   
ATOM     10  C1  UNL     1      -0.644  -3.951   2.405  1.00  0.00     0.007 C   
ATOM     11  C3  UNL     1      -1.044  -3.321   4.794  1.00  0.00     0.007 C   
ENDBRANCH   8   9
ENDBRANCH   7   8
BRANCH   7  12
ATOM     12  N1  UNL     1       0.738  -0.612   1.731  1.00  0.00     0.249 N   
ATOM     13  H11 UNL     1       0.852   0.145   2.419  1.00  0.00     0.199 HD  
ATOM     14  H12 UNL     1       1.266  -1.419   2.070  1.00  0.00     0.199 HD  
BRANCH  12  15
ATOM     15  C6  UNL     1       1.356  -0.149   0.450  1.00  0.00     0.164 C   
BRANCH  15  16
ATOM     16  C7  UNL     1       1.427  -1.234  -0.588  1.00  0.00    -0.002 A   
ATOM     17  C8  UNL     1       2.402  -2.255  -0.487  1.00  0.00     0.012 A   
ATOM     18  C12 UNL     1       0.505  -1.260  -1.649  1.00  0.00     0.045 A   
ATOM     19  C9  UNL     1       2.458  -3.290  -1.427  1.00  0.00     0.037 A   
ATOM     20  C11 UNL     1       0.588  -2.294  -2.557  1.00  0.00     0.109 A   
ATOM     21  C10 UNL     1       1.536  -3.281  -2.449  1.00  0.00     0.108 A   
ATOM     22  O1  UNL     1      -0.224  -2.470  -3.631  1.00  0.00    -0.316 OA  
ATOM     23  O2  UNL     1       1.441  -4.202  -3.443  1.00  0.00    -0.316 OA  
ATOM     24  C13 UNL     1       0.338  -3.671  -4.208  1.00  0.00     0.337 C   
ENDBRANCH  15  16
ENDBRANCH  12  15
ENDBRANCH   7  12
ENDBRANCH   1   7
BRANCH   3  25
ATOM     25  C16 UNL     1      -3.576   2.679  -0.331  1.00  0.00     0.142 C   
BRANCH  25  26
ATOM     26  C17 UNL     1      -2.734   3.516  -1.293  1.00  0.00     0.102 C   
BRANCH  26  27
ATOM     27  C18 UNL     1      -1.736   2.631  -2.014  1.00  0.00     0.164 C   
ATOM     28  O3  UNL     1      -2.097   1.580  -2.543  1.00  0.00    -0.294 OA  
BRANCH  27  29
ATOM     29  C19 UNL     1      -0.288   2.985  -2.056  1.00  0.00     0.018 A   
ATOM     30  C20 UNL     1       0.493   2.418  -3.076  1.00  0.00     0.015 A   
ATOM     31  C24 UNL     1       0.326   3.788  -1.085  1.00  0.00     0.015 A   
ATOM     32  C21 UNL     1       1.868   2.659  -3.132  1.00  0.00     0.040 A   
ATOM     33  C23 UNL     1       1.702   4.028  -1.146  1.00  0.00     0.040 A   
ATOM     34  C22 UNL     1       2.459   3.462  -2.166  1.00  0.00     0.123 A   
ATOM     35  F1  UNL     1       3.779   3.678  -2.203  1.00  0.00    -0.207 F   
ENDBRANCH  27  29
ENDBRANCH  26  27
ENDBRANCH  25  26
ENDBRANCH   3  25
TORSDOF 10
