REMARK SMILES c1cc2[nH]cnc2c(-n2cc([C@@H]([NH2+]Cc3ccc4c(c3)OCO4)C3CCCC3)nn2)n1
REMARK SMILES IDX 12 1 11 2 9 3 10 4 30 5 29 6 8 7 1 8 2 9 31 10 3 11 4 12
REMARK SMILES IDX 7 13 5 14 6 15 13 17 14 20 15 21 16 22 20 23 17 24 19 25
REMARK SMILES IDX 18 26 21 27 23 28 22 29 24 30 25 31 28 32 26 33 27 34
REMARK H PARENT 4 16 13 18 13 19
ROOT
ATOM     1   C9  UNL     1       0.718  -1.025   0.047  1.00  0.00     0.117 C   
ENDROOT
BRANCH   1   2
ATOM     2   C8  UNL     1       1.579   0.182  -0.139  1.00  0.00     0.128 A   
ATOM     3   N3  UNL     1       3.119   1.680  -0.574  1.00  0.00    -0.160 N   
ATOM     4   C7  UNL     1       2.829   0.330  -0.690  1.00  0.00     0.137 A   
ATOM     5   N6  UNL     1       2.082   2.294   0.050  1.00  0.00    -0.069 NA  
ATOM     6   N5  UNL     1       1.142   1.399   0.306  1.00  0.00    -0.131 NA  
BRANCH   3   7
ATOM     7   C6  UNL     1       4.293   2.323  -1.022  1.00  0.00     0.173 A   
ATOM     8   C1  UNL     1       6.386   2.153  -2.089  1.00  0.00     0.115 A   
ATOM     9   C2  UNL     1       6.675   3.504  -1.975  1.00  0.00     0.046 A   
ATOM     10  N7  UNL     1       5.255   1.559  -1.642  1.00  0.00    -0.237 NA  
ATOM     11  C3  UNL     1       5.690   4.255  -1.341  1.00  0.00     0.062 A   
ATOM     12  N1  UNL     1       5.604   5.593  -1.045  1.00  0.00    -0.304 N   
ATOM     13  C5  UNL     1       4.502   3.704  -0.856  1.00  0.00     0.128 A   
ATOM     14  C4  UNL     1       4.416   5.805  -0.407  1.00  0.00     0.187 A   
ATOM     15  N2  UNL     1       3.733   4.692  -0.277  1.00  0.00    -0.236 NA  
ATOM     16  H3  UNL     1       6.294   6.299  -1.262  1.00  0.00     0.154 HD  
ENDBRANCH   3   7
ENDBRANCH   1   2
BRANCH   1  17
ATOM     17  N4  UNL     1      -0.296  -0.779   1.133  1.00  0.00     0.249 N   
ATOM     18  H7  UNL     1      -1.110  -1.395   1.052  1.00  0.00     0.199 HD  
ATOM     19  H8  UNL     1      -0.648   0.181   0.999  1.00  0.00     0.199 HD  
BRANCH  17  20
ATOM     20  C10 UNL     1       0.231  -0.850   2.524  1.00  0.00     0.164 C   
BRANCH  20  21
ATOM     21  C11 UNL     1      -0.857  -0.529   3.509  1.00  0.00    -0.002 A   
ATOM     22  C12 UNL     1      -1.115   0.816   3.868  1.00  0.00     0.012 A   
ATOM     23  C16 UNL     1      -1.663  -1.553   4.033  1.00  0.00     0.045 A   
ATOM     24  C13 UNL     1      -2.155   1.138   4.746  1.00  0.00     0.037 A   
ATOM     25  C15 UNL     1      -2.678  -1.201   4.897  1.00  0.00     0.109 A   
ATOM     26  C14 UNL     1      -2.919   0.106   5.244  1.00  0.00     0.108 A   
ATOM     27  O1  UNL     1      -3.545  -2.064   5.490  1.00  0.00    -0.316 OA  
ATOM     28  O2  UNL     1      -3.966   0.231   6.100  1.00  0.00    -0.316 OA  
ATOM     29  C17 UNL     1      -4.337  -1.153   6.286  1.00  0.00     0.337 C   
ENDBRANCH  20  21
ENDBRANCH  17  20
ENDBRANCH   1  17
BRANCH   1  30
ATOM     30  C18 UNL     1       0.010  -1.431  -1.261  1.00  0.00     0.043 C   
ATOM     31  C19 UNL     1      -0.709  -2.793  -1.198  1.00  0.00     0.010 C   
ATOM     32  C22 UNL     1      -1.049  -0.452  -1.786  1.00  0.00     0.010 C   
ATOM     33  C20 UNL     1      -2.034  -2.614  -1.938  1.00  0.00     0.001 C   
ATOM     34  C21 UNL     1      -1.886  -1.316  -2.715  1.00  0.00     0.001 C   
ENDBRANCH   1  30
TORSDOF 6
