REMARK SMILES O=C(c1ccc(Cl)cc1)n1cc([C@@H]([NH2+]Cc2ccc3c(c2)OCO3)C2CCCCC2)nn1
REMARK SMILES IDX 10 1 11 2 12 3 31 4 32 5 2 6 1 7 3 8 4 9 9 10 5 11 8 12 6 13
REMARK SMILES IDX 7 14 13 15 14 16 15 19 16 20 17 21 21 22 18 23 20 24 19 25
REMARK SMILES IDX 22 26 24 27 23 28 25 29 26 30 30 31 27 32 29 33 28 34
REMARK H PARENT 14 17 14 18
ROOT
ATOM     1   N1  UNL     1       0.674   1.803  -2.526  1.00  0.00    -0.143 N   
ATOM     2   C8  UNL     1       0.867   1.418  -1.212  1.00  0.00     0.139 A   
ATOM     3   C9  UNL     1      -0.190   0.588  -0.924  1.00  0.00     0.128 A   
ATOM     4   N3  UNL     1      -0.993   0.486  -2.032  1.00  0.00    -0.131 NA  
ATOM     5   N4  UNL     1      -0.453   1.208  -3.001  1.00  0.00    -0.068 NA  
ENDROOT
BRANCH   1   6
ATOM     6   C1  UNL     1       1.435   2.695  -3.295  1.00  0.00     0.271 C   
ATOM     7   O1  UNL     1       2.302   3.323  -2.689  1.00  0.00    -0.269 OA  
BRANCH   6   8
ATOM     8   C2  UNL     1       1.260   2.938  -4.751  1.00  0.00     0.040 A   
ATOM     9   C3  UNL     1       1.494   4.231  -5.245  1.00  0.00     0.015 A   
ATOM     10  C7  UNL     1       0.927   1.905  -5.637  1.00  0.00     0.015 A   
ATOM     11  C4  UNL     1       1.381   4.490  -6.614  1.00  0.00     0.021 A   
ATOM     12  C6  UNL     1       0.822   2.167  -7.006  1.00  0.00     0.021 A   
ATOM     13  C5  UNL     1       1.049   3.456  -7.489  1.00  0.00     0.041 A   
ATOM     14  CL1 UNL     1       0.930   3.768  -9.176  1.00  0.00    -0.084 Cl  
ENDBRANCH   6   8
ENDBRANCH   1   6
BRANCH   3  15
ATOM     15  C10 UNL     1      -0.586  -0.120   0.337  1.00  0.00     0.117 C   
BRANCH  15  16
ATOM     16  N2  UNL     1      -2.091  -0.207   0.410  1.00  0.00     0.249 N   
ATOM     17  H7  UNL     1      -2.395  -1.028   0.942  1.00  0.00     0.199 HD  
ATOM     18  H8  UNL     1      -2.417  -0.353  -0.557  1.00  0.00     0.199 HD  
BRANCH  16  19
ATOM     19  C11 UNL     1      -2.782   0.997   0.956  1.00  0.00     0.164 C   
BRANCH  19  20
ATOM     20  C12 UNL     1      -2.921   0.920   2.451  1.00  0.00    -0.002 A   
ATOM     21  C13 UNL     1      -1.949   1.495   3.305  1.00  0.00     0.012 A   
ATOM     22  C17 UNL     1      -4.008   0.227   3.010  1.00  0.00     0.045 A   
ATOM     23  C14 UNL     1      -2.051   1.374   4.697  1.00  0.00     0.037 A   
ATOM     24  C16 UNL     1      -4.082   0.131   4.385  1.00  0.00     0.109 A   
ATOM     25  C15 UNL     1      -3.128   0.684   5.205  1.00  0.00     0.108 A   
ATOM     26  O2  UNL     1      -5.060  -0.503   5.083  1.00  0.00    -0.316 OA  
ATOM     27  O3  UNL     1      -3.379   0.460   6.521  1.00  0.00    -0.316 OA  
ATOM     28  C18 UNL     1      -4.621  -0.273   6.443  1.00  0.00     0.337 C   
ENDBRANCH  19  20
ENDBRANCH  16  19
ENDBRANCH  15  16
BRANCH  15  29
ATOM     29  C19 UNL     1       0.052  -1.532   0.453  1.00  0.00     0.043 C   
ATOM     30  C20 UNL     1      -0.479  -2.545  -0.583  1.00  0.00     0.010 C   
ATOM     31  C24 UNL     1      -0.092  -2.092   1.883  1.00  0.00     0.010 C   
ATOM     32  C21 UNL     1       0.168  -3.921  -0.423  1.00  0.00     0.001 C   
ATOM     33  C23 UNL     1       0.549  -3.471   2.026  1.00  0.00     0.001 C   
ATOM     34  C22 UNL     1      -0.001  -4.455   0.995  1.00  0.00     0.000 C   
ENDBRANCH  15  29
ENDBRANCH   3  15
TORSDOF 7
