REMARK SMILES Cc1cc(-n2cc([C@@H]([NH2+]Cc3ccc4c(c3)OCO4)C(C)C)nn2)c2cc[nH]c2n1
REMARK SMILES IDX 8 1 7 2 5 3 6 4 24 5 23 6 4 7 2 8 3 9 30 10 29 11 25 12
REMARK SMILES IDX 28 13 26 14 27 15 1 16 9 18 10 21 11 22 12 23 16 24 13 25
REMARK SMILES IDX 15 26 14 27 17 28 19 29 18 30 20 31 21 32 22 33
REMARK H PARENT 28 17 9 19 9 20
ROOT
ATOM     1   C7  UNL     1       0.388   1.476   0.637  1.00  0.00     0.117 C   
ENDROOT
BRANCH   1   2
ATOM     2   C6  UNL     1      -0.563   0.536  -0.038  1.00  0.00     0.127 A   
ATOM     3   N1  UNL     1      -2.159  -0.483  -1.147  1.00  0.00    -0.180 N   
ATOM     4   C5  UNL     1      -1.694   0.767  -0.790  1.00  0.00     0.135 A   
ATOM     5   N4  UNL     1      -1.344  -1.417  -0.581  1.00  0.00    -0.071 NA  
ATOM     6   N3  UNL     1      -0.367  -0.810   0.067  1.00  0.00    -0.131 NA  
BRANCH   3   7
ATOM     7   C4  UNL     1      -3.281  -0.862  -1.922  1.00  0.00     0.070 A   
ATOM     8   C2  UNL     1      -4.697  -2.655  -2.755  1.00  0.00     0.041 A   
ATOM     9   C3  UNL     1      -3.589  -2.235  -2.024  1.00  0.00     0.050 A   
ATOM     10  N6  UNL     1      -5.529  -1.817  -3.398  1.00  0.00    -0.237 NA  
ATOM     11  C22 UNL     1      -5.197  -0.521  -3.296  1.00  0.00     0.131 A   
ATOM     12  C19 UNL     1      -4.125   0.044  -2.606  1.00  0.00     0.040 A   
ATOM     13  N5  UNL     1      -5.913   0.475  -3.896  1.00  0.00    -0.305 N   
ATOM     14  C20 UNL     1      -4.223   1.449  -2.847  1.00  0.00     0.029 A   
ATOM     15  C21 UNL     1      -5.333   1.683  -3.631  1.00  0.00     0.074 A   
ATOM     16  C1  UNL     1      -5.012  -4.122  -2.845  1.00  0.00     0.067 C   
ATOM     17  H25 UNL     1      -6.737   0.309  -4.457  1.00  0.00     0.154 HD  
ENDBRANCH   3   7
ENDBRANCH   1   2
BRANCH   1  18
ATOM     18  N2  UNL     1       1.168   0.755   1.703  1.00  0.00     0.249 N   
ATOM     19  H7  UNL     1       1.434  -0.161   1.311  1.00  0.00     0.199 HD  
ATOM     20  H8  UNL     1       2.046   1.230   1.932  1.00  0.00     0.199 HD  
BRANCH  18  21
ATOM     21  C8  UNL     1       0.428   0.485   2.967  1.00  0.00     0.164 C   
BRANCH  21  22
ATOM     22  C9  UNL     1       1.257  -0.373   3.878  1.00  0.00    -0.002 A   
ATOM     23  C10 UNL     1       1.149  -1.783   3.817  1.00  0.00     0.012 A   
ATOM     24  C14 UNL     1       2.194   0.212   4.745  1.00  0.00     0.045 A   
ATOM     25  C11 UNL     1       1.952  -2.602   4.618  1.00  0.00     0.037 A   
ATOM     26  C13 UNL     1       2.975  -0.624   5.517  1.00  0.00     0.109 A   
ATOM     27  C12 UNL     1       2.855  -1.991   5.458  1.00  0.00     0.108 A   
ATOM     28  O1  UNL     1       3.935  -0.222   6.392  1.00  0.00    -0.316 OA  
ATOM     29  O2  UNL     1       3.722  -2.621   6.292  1.00  0.00    -0.316 OA  
ATOM     30  C15 UNL     1       4.392  -1.497   6.900  1.00  0.00     0.337 C   
ENDBRANCH  21  22
ENDBRANCH  18  21
ENDBRANCH   1  18
BRANCH   1  31
ATOM     31  C16 UNL     1       1.355   2.147  -0.373  1.00  0.00     0.037 C   
ATOM     32  C17 UNL     1       2.372   1.182  -0.993  1.00  0.00     0.014 C   
ATOM     33  C18 UNL     1       2.087   3.340   0.253  1.00  0.00     0.014 C   
ENDBRANCH   1  31
TORSDOF 6
