REMARK SMILES CC(C)[C@H]([NH2+]Cc1ccc2c(c1)OCO2)c1cn(C[C@H](O)c2cccc(F)c2F)nn1
REMARK SMILES IDX 16 1 17 2 18 3 30 4 31 5 4 7 2 8 1 9 3 10 5 11 6 14 7 15
REMARK SMILES IDX 8 16 12 17 9 18 11 19 10 20 13 21 15 22 14 23 19 24 20 25
REMARK SMILES IDX 21 26 22 28 23 29 28 30 24 31 26 32 25 33 29 34 27 35
REMARK H PARENT 17 6 5 12 5 13 21 27
ROOT
ATOM     1   C13 UNL     1      -0.826  -0.124  -0.320  1.00  0.00     0.127 A   
ATOM     2   C14 UNL     1      -0.479   0.655  -1.402  1.00  0.00     0.045 A   
ATOM     3   N2  UNL     1      -1.561   0.562  -2.232  1.00  0.00    -0.209 N   
ATOM     4   N3  UNL     1      -2.552  -0.140  -1.654  1.00  0.00    -0.076 NA  
ATOM     5   N4  UNL     1      -2.107  -0.586  -0.492  1.00  0.00    -0.132 NA  
ATOM     6   H18 UNL     1       0.415   1.202  -1.669  1.00  0.00     0.083 HD  
ENDROOT
BRANCH   1   7
ATOM     7   C4  UNL     1      -0.081  -0.482   0.925  1.00  0.00     0.117 C   
BRANCH   7   8
ATOM     8   C2  UNL     1       0.823  -1.736   0.783  1.00  0.00     0.037 C   
ATOM     9   C1  UNL     1       1.988  -1.489  -0.182  1.00  0.00     0.014 C   
ATOM     10  C3  UNL     1       0.074  -3.011   0.375  1.00  0.00     0.014 C   
ENDBRANCH   7   8
BRANCH   7  11
ATOM     11  N1  UNL     1      -1.054  -0.729   2.060  1.00  0.00     0.249 N   
ATOM     12  H9  UNL     1      -0.594  -1.235   2.822  1.00  0.00     0.199 HD  
ATOM     13  H10 UNL     1      -1.785  -1.346   1.677  1.00  0.00     0.199 HD  
BRANCH  11  14
ATOM     14  C5  UNL     1      -1.746   0.473   2.612  1.00  0.00     0.164 C   
BRANCH  14  15
ATOM     15  C6  UNL     1      -0.821   1.379   3.375  1.00  0.00    -0.002 A   
ATOM     16  C7  UNL     1      -0.359   1.014   4.663  1.00  0.00     0.012 A   
ATOM     17  C11 UNL     1      -0.384   2.586   2.800  1.00  0.00     0.045 A   
ATOM     18  C8  UNL     1       0.529   1.835   5.367  1.00  0.00     0.037 A   
ATOM     19  C10 UNL     1       0.493   3.370   3.520  1.00  0.00     0.109 A   
ATOM     20  C9  UNL     1       0.938   3.005   4.767  1.00  0.00     0.108 A   
ATOM     21  O1  UNL     1       1.015   4.554   3.108  1.00  0.00    -0.316 OA  
ATOM     22  O2  UNL     1       1.793   3.916   5.298  1.00  0.00    -0.316 OA  
ATOM     23  C12 UNL     1       1.817   4.915   4.256  1.00  0.00     0.337 C   
ENDBRANCH  14  15
ENDBRANCH  11  14
ENDBRANCH   7  11
ENDBRANCH   1   7
BRANCH   3  24
ATOM     24  C15 UNL     1      -1.708   1.080  -3.573  1.00  0.00     0.170 C   
BRANCH  24  25
ATOM     25  C16 UNL     1      -0.954   0.251  -4.620  1.00  0.00     0.167 C   
BRANCH  25  26
ATOM     26  O3  UNL     1      -0.978   0.961  -5.862  1.00  0.00    -0.387 OA  
ATOM     27  H22 UNL     1      -0.633   0.365  -6.552  1.00  0.00     0.211 HD  
ENDBRANCH  25  26
BRANCH  25  28
ATOM     28  C17 UNL     1      -1.519  -1.139  -4.803  1.00  0.00     0.021 A   
ATOM     29  C18 UNL     1      -2.624  -1.391  -5.633  1.00  0.00     0.010 A   
ATOM     30  C22 UNL     1      -0.966  -2.212  -4.092  1.00  0.00     0.164 A   
ATOM     31  C19 UNL     1      -3.143  -2.684  -5.755  1.00  0.00     0.004 A   
ATOM     32  C21 UNL     1      -1.489  -3.495  -4.209  1.00  0.00     0.159 A   
ATOM     33  C20 UNL     1      -2.574  -3.740  -5.041  1.00  0.00     0.042 A   
ATOM     34  F2  UNL     1       0.074  -1.996  -3.272  1.00  0.00    -0.203 F   
ATOM     35  F1  UNL     1      -0.953  -4.502  -3.506  1.00  0.00    -0.204 F   
ENDBRANCH  25  28
ENDBRANCH  24  25
ENDBRANCH   3  24
TORSDOF 9
