REMARK SMILES CC(C)[C@H]([NH2+]Cc1ccc2c(c1)OCO2)c1cn(C[C@@H](O)c2cccc(F)c2F)nn1
REMARK SMILES IDX 16 1 17 2 18 3 30 4 31 5 4 7 2 8 1 9 3 10 5 11 6 14 7 15
REMARK SMILES IDX 8 16 12 17 9 18 11 19 10 20 13 21 15 22 14 23 19 24 20 25
REMARK SMILES IDX 21 26 22 28 23 29 28 30 24 31 26 32 25 33 29 34 27 35
REMARK H PARENT 17 6 5 12 5 13 21 27
ROOT
ATOM     1   C13 UNL     1      -0.168  -0.148   1.104  1.00  0.00     0.127 A   
ATOM     2   C14 UNL     1      -0.221   0.434   2.350  1.00  0.00     0.045 A   
ATOM     3   N2  UNL     1      -0.218   1.776   2.087  1.00  0.00    -0.209 N   
ATOM     4   N3  UNL     1      -0.226   2.006   0.761  1.00  0.00    -0.076 NA  
ATOM     5   N4  UNL     1      -0.172   0.836   0.147  1.00  0.00    -0.132 NA  
ATOM     6   H18 UNL     1      -0.231   0.046   3.360  1.00  0.00     0.083 HD  
ENDROOT
BRANCH   1   7
ATOM     7   C4  UNL     1      -0.127  -1.583   0.683  1.00  0.00     0.117 C   
BRANCH   7   8
ATOM     8   C2  UNL     1       1.287  -2.199   0.855  1.00  0.00     0.037 C   
ATOM     9   C1  UNL     1       2.340  -1.612  -0.094  1.00  0.00     0.014 C   
ATOM     10  C3  UNL     1       1.262  -3.726   0.719  1.00  0.00     0.014 C   
ENDBRANCH   7   8
BRANCH   7  11
ATOM     11  N1  UNL     1      -0.585  -1.720  -0.745  1.00  0.00     0.249 N   
ATOM     12  H9  UNL     1      -0.152  -0.942  -1.267  1.00  0.00     0.199 HD  
ATOM     13  H10 UNL     1      -0.250  -2.583  -1.182  1.00  0.00     0.199 HD  
BRANCH  11  14
ATOM     14  C5  UNL     1      -2.056  -1.612  -0.952  1.00  0.00     0.164 C   
BRANCH  14  15
ATOM     15  C6  UNL     1      -2.379  -1.621  -2.419  1.00  0.00    -0.002 A   
ATOM     16  C7  UNL     1      -2.381  -0.410  -3.151  1.00  0.00     0.012 A   
ATOM     17  C11 UNL     1      -2.622  -2.835  -3.084  1.00  0.00     0.045 A   
ATOM     18  C8  UNL     1      -2.635  -0.403  -4.527  1.00  0.00     0.037 A   
ATOM     19  C10 UNL     1      -2.866  -2.792  -4.442  1.00  0.00     0.109 A   
ATOM     20  C9  UNL     1      -2.874  -1.611  -5.143  1.00  0.00     0.108 A   
ATOM     21  O1  UNL     1      -3.117  -3.868  -5.233  1.00  0.00    -0.316 OA  
ATOM     22  O2  UNL     1      -3.133  -1.794  -6.463  1.00  0.00    -0.316 OA  
ATOM     23  C12 UNL     1      -3.303  -3.227  -6.516  1.00  0.00     0.337 C   
ENDBRANCH  14  15
ENDBRANCH  11  14
ENDBRANCH   7  11
ENDBRANCH   1   7
BRANCH   3  24
ATOM     24  C15 UNL     1      -0.265   2.876   3.029  1.00  0.00     0.170 C   
BRANCH  24  25
ATOM     25  C16 UNL     1       1.090   3.183   3.682  1.00  0.00     0.167 C   
BRANCH  25  26
ATOM     26  O3  UNL     1       1.468   2.100   4.541  1.00  0.00    -0.387 OA  
ATOM     27  H22 UNL     1       2.243   2.407   5.049  1.00  0.00     0.211 HD  
ENDBRANCH  25  26
BRANCH  25  28
ATOM     28  C17 UNL     1       2.190   3.513   2.699  1.00  0.00     0.021 A   
ATOM     29  C18 UNL     1       3.215   2.609   2.371  1.00  0.00     0.010 A   
ATOM     30  C22 UNL     1       2.180   4.761   2.063  1.00  0.00     0.164 A   
ATOM     31  C19 UNL     1       4.204   2.958   1.444  1.00  0.00     0.004 A   
ATOM     32  C21 UNL     1       3.161   5.104   1.140  1.00  0.00     0.159 A   
ATOM     33  C20 UNL     1       4.178   4.209   0.828  1.00  0.00     0.042 A   
ATOM     34  F2  UNL     1       1.202   5.633   2.350  1.00  0.00    -0.203 F   
ATOM     35  F1  UNL     1       3.134   6.303   0.544  1.00  0.00    -0.204 F   
ENDBRANCH  25  28
ENDBRANCH  24  25
ENDBRANCH   3  24
TORSDOF 9
