REMARK SMILES COc1ccc(Cn2cc([C@@H]([NH2+]Cc3ccc4c(c3)OCO4)C3CCCCC3)nn2)c(O)c1
REMARK SMILES IDX 8 1 9 2 10 3 29 4 30 5 7 7 6 8 3 9 4 10 33 11 5 12 31 13
REMARK SMILES IDX 2 14 1 15 32 16 11 18 12 19 13 22 14 23 15 24 19 25 16 26
REMARK SMILES IDX 18 27 17 28 20 29 22 30 21 31 23 32 24 33 28 34 25 35 27 36
REMARK SMILES IDX 26 37
REMARK H PARENT 9 6 32 17 12 20 12 21
ROOT
ATOM     1   N1  UNL     1       1.090  -2.515   0.425  1.00  0.00    -0.208 N   
ATOM     2   C7  UNL     1       0.938  -1.157   0.345  1.00  0.00     0.046 A   
ATOM     3   C8  UNL     1      -0.220  -0.902   1.044  1.00  0.00     0.127 A   
ATOM     4   N3  UNL     1      -0.737  -2.087   1.500  1.00  0.00    -0.132 NA  
ATOM     5   N4  UNL     1       0.065  -3.064   1.111  1.00  0.00    -0.076 NA  
ATOM     6   H8  UNL     1       1.641  -0.525  -0.181  1.00  0.00     0.083 HD  
ENDROOT
BRANCH   1   7
ATOM     7   C6  UNL     1       2.160  -3.363  -0.081  1.00  0.00     0.172 C   
BRANCH   7   8
ATOM     8   C5  UNL     1       2.695  -2.895  -1.410  1.00  0.00     0.002 A   
ATOM     9   C2  UNL     1       3.671  -2.001  -3.900  1.00  0.00     0.077 A   
ATOM     10  C3  UNL     1       2.518  -2.788  -3.829  1.00  0.00     0.034 A   
ATOM     11  C25 UNL     1       4.335  -1.653  -2.724  1.00  0.00     0.067 A   
ATOM     12  C4  UNL     1       2.033  -3.235  -2.598  1.00  0.00     0.011 A   
ATOM     13  C24 UNL     1       3.841  -2.096  -1.495  1.00  0.00     0.079 A   
BRANCH   9  14
ATOM     14  O1  UNL     1       4.028  -1.632  -5.167  1.00  0.00    -0.349 OA  
ATOM     15  C1  UNL     1       5.260  -0.936  -5.319  1.00  0.00     0.203 C   
ENDBRANCH   9  14
BRANCH  13  16
ATOM     16  O4  UNL     1       4.466  -1.732  -0.334  1.00  0.00    -0.361 OA  
ATOM     17  H30 UNL     1       5.325  -1.328  -0.552  1.00  0.00     0.218 HD  
ENDBRANCH  13  16
ENDBRANCH   7   8
ENDBRANCH   1   7
BRANCH   3  18
ATOM     18  C9  UNL     1      -0.962   0.370   1.293  1.00  0.00     0.117 C   
BRANCH  18  19
ATOM     19  N2  UNL     1      -2.436   0.079   1.496  1.00  0.00     0.249 N   
ATOM     20  H10 UNL     1      -2.904   0.878   1.933  1.00  0.00     0.199 HD  
ATOM     21  H11 UNL     1      -2.481  -0.707   2.159  1.00  0.00     0.199 HD  
BRANCH  19  22
ATOM     22  C10 UNL     1      -3.201  -0.336   0.283  1.00  0.00     0.164 C   
BRANCH  22  23
ATOM     23  C11 UNL     1      -3.383   0.782  -0.705  1.00  0.00    -0.002 A   
ATOM     24  C12 UNL     1      -4.281   1.843  -0.432  1.00  0.00     0.012 A   
ATOM     25  C16 UNL     1      -2.643   0.792  -1.901  1.00  0.00     0.045 A   
ATOM     26  C13 UNL     1      -4.436   2.902  -1.333  1.00  0.00     0.037 A   
ATOM     27  C15 UNL     1      -2.821   1.851  -2.767  1.00  0.00     0.109 A   
ATOM     28  C14 UNL     1      -3.691   2.877  -2.491  1.00  0.00     0.108 A   
ATOM     29  O2  UNL     1      -2.184   2.015  -3.956  1.00  0.00    -0.316 OA  
ATOM     30  O3  UNL     1      -3.716   3.813  -3.474  1.00  0.00    -0.316 OA  
ATOM     31  C17 UNL     1      -2.776   3.251  -4.416  1.00  0.00     0.337 C   
ENDBRANCH  22  23
ENDBRANCH  19  22
ENDBRANCH  18  19
BRANCH  18  32
ATOM     32  C18 UNL     1      -0.457   1.178   2.520  1.00  0.00     0.043 C   
ATOM     33  C19 UNL     1       0.953   1.753   2.283  1.00  0.00     0.010 C   
ATOM     34  C23 UNL     1      -0.497   0.400   3.850  1.00  0.00     0.010 C   
ATOM     35  C20 UNL     1       1.414   2.617   3.455  1.00  0.00     0.001 C   
ATOM     36  C22 UNL     1      -0.029   1.265   5.021  1.00  0.00     0.001 C   
ATOM     37  C21 UNL     1       1.357   1.851   4.773  1.00  0.00     0.000 C   
ENDBRANCH  18  32
ENDBRANCH   3  18
TORSDOF 9
