REMARK SMILES Cc1ccc([C@@H](CO)n2cc([C@@H]([NH2+]Cc3ccc4c(c3)OCO4)C3CCCC3)nn2)cc1F
REMARK SMILES IDX 9 1 10 2 11 3 29 4 30 5 6 7 5 8 2 9 3 10 32 11 4 12 31 13
REMARK SMILES IDX 1 14 33 15 7 16 8 17 12 19 13 20 14 23 15 24 16 25 20 26
REMARK SMILES IDX 17 27 19 28 18 29 21 30 23 31 22 32 24 33 25 34 28 35 26 36
REMARK SMILES IDX 27 37
REMARK H PARENT 10 6 8 18 13 21 13 22
ROOT
ATOM     1   N1  UNL     1      -1.350   2.366  -0.139  1.00  0.00    -0.202 N   
ATOM     2   C8  UNL     1      -0.960   1.054  -0.187  1.00  0.00     0.046 A   
ATOM     3   C9  UNL     1      -1.241   0.570   1.068  1.00  0.00     0.127 A   
ATOM     4   N3  UNL     1      -1.744   1.587   1.840  1.00  0.00    -0.132 NA  
ATOM     5   N4  UNL     1      -1.785   2.684   1.099  1.00  0.00    -0.075 NA  
ATOM     6   H10 UNL     1      -0.577   0.601  -1.091  1.00  0.00     0.083 HD  
ENDROOT
BRANCH   1   7
ATOM     7   C6  UNL     1      -1.379   3.363  -1.211  1.00  0.00     0.155 C   
BRANCH   7   8
ATOM     8   C5  UNL     1      -0.073   3.356  -1.999  1.00  0.00    -0.020 A   
ATOM     9   C2  UNL     1       2.411   3.333  -3.367  1.00  0.00    -0.015 A   
ATOM     10  C3  UNL     1       2.316   3.875  -2.085  1.00  0.00     0.007 A   
ATOM     11  C25 UNL     1       1.258   2.822  -3.959  1.00  0.00     0.126 A   
ATOM     12  C4  UNL     1       1.091   3.884  -1.407  1.00  0.00     0.006 A   
ATOM     13  C24 UNL     1       0.034   2.826  -3.292  1.00  0.00     0.045 A   
ATOM     14  C1  UNL     1       3.706   3.335  -4.120  1.00  0.00     0.047 C   
ATOM     15  F1  UNL     1       1.316   2.301  -5.194  1.00  0.00    -0.207 F   
ENDBRANCH   7   8
BRANCH   7  16
ATOM     16  C7  UNL     1      -2.690   3.232  -2.018  1.00  0.00     0.185 C   
BRANCH  16  17
ATOM     17  O1  UNL     1      -2.861   1.923  -2.568  1.00  0.00    -0.394 OA  
ATOM     18  H9  UNL     1      -3.701   1.929  -3.063  1.00  0.00     0.210 HD  
ENDBRANCH  16  17
ENDBRANCH   7  16
ENDBRANCH   1   7
BRANCH   3  19
ATOM     19  C10 UNL     1      -1.078  -0.796   1.652  1.00  0.00     0.117 C   
BRANCH  19  20
ATOM     20  N2  UNL     1      -0.922  -0.697   3.158  1.00  0.00     0.249 N   
ATOM     21  H12 UNL     1      -1.689  -0.092   3.484  1.00  0.00     0.199 HD  
ATOM     22  H13 UNL     1      -1.044  -1.611   3.595  1.00  0.00     0.199 HD  
BRANCH  20  23
ATOM     23  C11 UNL     1       0.354  -0.103   3.659  1.00  0.00     0.164 C   
BRANCH  23  24
ATOM     24  C12 UNL     1       1.555  -0.964   3.378  1.00  0.00    -0.002 A   
ATOM     25  C13 UNL     1       1.719  -2.208   4.037  1.00  0.00     0.012 A   
ATOM     26  C17 UNL     1       2.517  -0.543   2.442  1.00  0.00     0.045 A   
ATOM     27  C14 UNL     1       2.818  -3.026   3.761  1.00  0.00     0.037 A   
ATOM     28  C16 UNL     1       3.594  -1.369   2.202  1.00  0.00     0.109 A   
ATOM     29  C15 UNL     1       3.740  -2.572   2.844  1.00  0.00     0.108 A   
ATOM     30  O2  UNL     1       4.609  -1.117   1.338  1.00  0.00    -0.316 OA  
ATOM     31  O3  UNL     1       4.867  -3.229   2.468  1.00  0.00    -0.316 OA  
ATOM     32  C18 UNL     1       5.445  -2.277   1.551  1.00  0.00     0.337 C   
ENDBRANCH  23  24
ENDBRANCH  20  23
ENDBRANCH  19  20
BRANCH  19  33
ATOM     33  C19 UNL     1      -2.292  -1.702   1.352  1.00  0.00     0.043 C   
ATOM     34  C20 UNL     1      -2.180  -3.119   1.931  1.00  0.00     0.010 C   
ATOM     35  C23 UNL     1      -2.480  -1.998  -0.142  1.00  0.00     0.010 C   
ATOM     36  C21 UNL     1      -3.209  -3.936   1.154  1.00  0.00     0.001 C   
ATOM     37  C22 UNL     1      -3.405  -3.214  -0.178  1.00  0.00     0.001 C   
ENDBRANCH  19  33
ENDBRANCH   3  19
TORSDOF 9
