REMARK SMILES Cc1ccc([C@H](CO)n2cc([C@@H]([NH2+]Cc3ccc4c(c3)OCO4)C3CCCC3)nn2)cc1F
REMARK SMILES IDX 9 1 10 2 11 3 29 4 30 5 6 7 5 8 2 9 3 10 32 11 4 12 31 13
REMARK SMILES IDX 1 14 33 15 7 16 8 17 12 19 13 20 14 23 15 24 16 25 20 26
REMARK SMILES IDX 17 27 19 28 18 29 21 30 23 31 22 32 24 33 25 34 28 35 26 36
REMARK SMILES IDX 27 37
REMARK H PARENT 10 6 8 18 13 21 13 22
ROOT
ATOM     1   N1  UNL     1       1.748   0.816  -1.630  1.00  0.00    -0.202 N   
ATOM     2   C8  UNL     1       1.029   0.044  -0.757  1.00  0.00     0.046 A   
ATOM     3   C9  UNL     1      -0.252   0.066  -1.260  1.00  0.00     0.127 A   
ATOM     4   N3  UNL     1      -0.280   0.847  -2.385  1.00  0.00    -0.132 NA  
ATOM     5   N4  UNL     1       0.945   1.296  -2.604  1.00  0.00    -0.075 NA  
ATOM     6   H10 UNL     1       1.469  -0.424   0.111  1.00  0.00     0.083 HD  
ENDROOT
BRANCH   1   7
ATOM     7   C6  UNL     1       3.150   1.237  -1.575  1.00  0.00     0.155 C   
BRANCH   7   8
ATOM     8   C5  UNL     1       4.041   0.183  -0.927  1.00  0.00    -0.020 A   
ATOM     9   C2  UNL     1       5.701  -1.819   0.202  1.00  0.00    -0.015 A   
ATOM     10  C3  UNL     1       5.397  -1.838  -1.163  1.00  0.00     0.007 A   
ATOM     11  C25 UNL     1       5.153  -0.810   0.991  1.00  0.00     0.126 A   
ATOM     12  C4  UNL     1       4.579  -0.849  -1.720  1.00  0.00     0.006 A   
ATOM     13  C24 UNL     1       4.338   0.181   0.444  1.00  0.00     0.045 A   
ATOM     14  C1  UNL     1       6.562  -2.877   0.823  1.00  0.00     0.047 C   
ATOM     15  F1  UNL     1       5.401  -0.784   2.308  1.00  0.00    -0.207 F   
ENDBRANCH   7   8
BRANCH   7  16
ATOM     16  C7  UNL     1       3.272   2.667  -1.006  1.00  0.00     0.185 C   
BRANCH  16  17
ATOM     17  O1  UNL     1       2.638   2.820   0.268  1.00  0.00    -0.394 OA  
ATOM     18  H9  UNL     1       2.861   3.719   0.583  1.00  0.00     0.210 HD  
ENDBRANCH  16  17
ENDBRANCH   7  16
ENDBRANCH   1   7
BRANCH   3  19
ATOM     19  C10 UNL     1      -1.519  -0.496  -0.710  1.00  0.00     0.117 C   
BRANCH  19  20
ATOM     20  N2  UNL     1      -2.638   0.521  -0.831  1.00  0.00     0.249 N   
ATOM     21  H12 UNL     1      -2.672   0.795  -1.822  1.00  0.00     0.199 HD  
ATOM     22  H13 UNL     1      -3.534   0.085  -0.599  1.00  0.00     0.199 HD  
BRANCH  20  23
ATOM     23  C11 UNL     1      -2.475   1.778  -0.035  1.00  0.00     0.164 C   
BRANCH  23  24
ATOM     24  C12 UNL     1      -2.395   1.537   1.447  1.00  0.00    -0.002 A   
ATOM     25  C13 UNL     1      -3.534   1.107   2.170  1.00  0.00     0.012 A   
ATOM     26  C17 UNL     1      -1.169   1.697   2.117  1.00  0.00     0.045 A   
ATOM     27  C14 UNL     1      -3.450   0.824   3.538  1.00  0.00     0.037 A   
ATOM     28  C16 UNL     1      -1.121   1.409   3.465  1.00  0.00     0.109 A   
ATOM     29  C15 UNL     1      -2.229   0.981   4.155  1.00  0.00     0.108 A   
ATOM     30  O2  UNL     1      -0.019   1.491   4.255  1.00  0.00    -0.316 OA  
ATOM     31  O3  UNL     1      -1.962   0.734   5.465  1.00  0.00    -0.316 OA  
ATOM     32  C18 UNL     1      -0.564   1.091   5.532  1.00  0.00     0.337 C   
ENDBRANCH  23  24
ENDBRANCH  20  23
ENDBRANCH  19  20
BRANCH  19  33
ATOM     33  C19 UNL     1      -1.996  -1.803  -1.369  1.00  0.00     0.043 C   
ATOM     34  C20 UNL     1      -2.304  -1.754  -2.869  1.00  0.00     0.010 C   
ATOM     35  C23 UNL     1      -1.005  -2.965  -1.277  1.00  0.00     0.010 C   
ATOM     36  C21 UNL     1      -2.291  -3.216  -3.321  1.00  0.00     0.001 C   
ATOM     37  C22 UNL     1      -1.617  -4.009  -2.201  1.00  0.00     0.001 C   
ENDBRANCH  19  33
ENDBRANCH   3  19
TORSDOF 9
