REMARK SMILES CC(C)[C@H]([NH2+]Cc1ccc2c(c1)OCO2)c1cn(-c2nccs2)nn1
REMARK SMILES IDX 4 1 2 2 1 3 3 4 5 5 6 8 7 9 8 10 12 11 9 12 11 13 10 14
REMARK SMILES IDX 13 15 15 16 14 17 16 18 17 19 25 20 18 21 24 22 19 23 20 24
REMARK SMILES IDX 23 25 21 26 22 27
REMARK H PARENT 5 6 5 7
ROOT
ATOM     1   C4  UNL     1      -0.157   1.117  -1.817  1.00  0.00     0.117 C   
ENDROOT
BRANCH   1   2
ATOM     2   C2  UNL     1       0.756   1.771  -2.888  1.00  0.00     0.037 C   
ATOM     3   C1  UNL     1       2.240   1.412  -2.741  1.00  0.00     0.014 C   
ATOM     4   C3  UNL     1       0.594   3.296  -2.918  1.00  0.00     0.014 C   
ENDBRANCH   1   2
BRANCH   1   5
ATOM     5   N1  UNL     1       0.332   1.461  -0.435  1.00  0.00     0.249 N   
ATOM     6   H9  UNL     1       0.723   2.406  -0.388  1.00  0.00     0.199 HD  
ATOM     7   H10 UNL     1       1.111   0.819  -0.222  1.00  0.00     0.199 HD  
BRANCH   5   8
ATOM     8   C5  UNL     1      -0.673   1.306   0.654  1.00  0.00     0.164 C   
BRANCH   8   9
ATOM     9   C6  UNL     1      -0.039   1.574   1.989  1.00  0.00    -0.002 A   
ATOM     10  C7  UNL     1       0.611   0.529   2.688  1.00  0.00     0.012 A   
ATOM     11  C11 UNL     1      -0.036   2.873   2.525  1.00  0.00     0.045 A   
ATOM     12  C8  UNL     1       1.246   0.769   3.912  1.00  0.00     0.037 A   
ATOM     13  C10 UNL     1       0.600   3.075   3.732  1.00  0.00     0.109 A   
ATOM     14  C9  UNL     1       1.223   2.054   4.407  1.00  0.00     0.108 A   
ATOM     15  O1  UNL     1       0.697   4.263   4.385  1.00  0.00    -0.316 OA  
ATOM     16  O2  UNL     1       1.787   2.470   5.570  1.00  0.00    -0.316 OA  
ATOM     17  C12 UNL     1       1.431   3.869   5.566  1.00  0.00     0.337 C   
ENDBRANCH   8   9
ENDBRANCH   5   8
ENDBRANCH   1   5
BRANCH   1  18
ATOM     18  C13 UNL     1      -0.250  -0.368  -1.988  1.00  0.00     0.128 A   
ATOM     19  C14 UNL     1      -0.980  -1.135  -2.866  1.00  0.00     0.137 A   
ATOM     20  N5  UNL     1       0.465  -1.195  -1.163  1.00  0.00    -0.131 NA  
ATOM     21  N2  UNL     1      -0.665  -2.443  -2.547  1.00  0.00    -0.156 N   
ATOM     22  N4  UNL     1       0.200  -2.448  -1.500  1.00  0.00    -0.069 NA  
BRANCH  21  23
ATOM     23  C15 UNL     1      -1.127  -3.614  -3.140  1.00  0.00     0.185 A   
ATOM     24  N3  UNL     1      -1.979  -3.605  -4.144  1.00  0.00    -0.232 NA  
ATOM     25  S1  UNL     1      -0.604  -5.135  -2.581  1.00  0.00    -0.059 S   
ATOM     26  C16 UNL     1      -2.241  -4.914  -4.510  1.00  0.00     0.121 A   
ATOM     27  C17 UNL     1      -1.586  -5.882  -3.775  1.00  0.00     0.069 A   
ENDBRANCH  21  23
ENDBRANCH   1  18
TORSDOF 6
