REMARK SMILES Cc1ccnc(CCn2cc([C@H](CC(C)C)[NH2+]Cc3ccc4c(c3)OCO4)nn2)c1
REMARK SMILES IDX 9 1 10 2 11 3 28 4 29 5 8 7 7 8 6 9 2 10 3 11 30 12 4 13
REMARK SMILES IDX 5 14 1 15 12 16 13 17 14 18 15 19 16 20 17 21 18 24 19 25
REMARK SMILES IDX 20 26 24 27 21 28 23 29 22 30 25 31 27 32 26 33
REMARK H PARENT 10 6 17 22 17 23
ROOT
ATOM     1   N2  UNL     1      -2.647  -0.319  -0.444  1.00  0.00    -0.212 N   
ATOM     2   C8  UNL     1      -1.729  -0.583   0.531  1.00  0.00     0.045 A   
ATOM     3   C9  UNL     1      -1.560   0.627   1.162  1.00  0.00     0.127 A   
ATOM     4   N4  UNL     1      -2.395   1.554   0.594  1.00  0.00    -0.132 NA  
ATOM     5   N5  UNL     1      -3.065   0.960  -0.381  1.00  0.00    -0.076 NA  
ATOM     6   H10 UNL     1      -1.251  -1.548   0.625  1.00  0.00     0.083 HD  
ENDROOT
BRANCH   1   7
ATOM     7   C7  UNL     1      -3.131  -1.208  -1.480  1.00  0.00     0.140 C   
BRANCH   7   8
ATOM     8   C6  UNL     1      -2.662  -0.811  -2.880  1.00  0.00     0.077 C   
BRANCH   8   9
ATOM     9   C5  UNL     1      -1.168  -0.899  -3.102  1.00  0.00     0.042 A   
ATOM     10  C2  UNL     1       0.759  -0.431  -4.474  1.00  0.00    -0.048 A   
ATOM     11  C3  UNL     1       1.531  -1.143  -3.558  1.00  0.00     0.023 A   
ATOM     12  C23 UNL     1      -0.616  -0.324  -4.246  1.00  0.00     0.027 A   
ATOM     13  C4  UNL     1       0.905  -1.687  -2.450  1.00  0.00     0.111 A   
ATOM     14  N1  UNL     1      -0.419  -1.575  -2.198  1.00  0.00    -0.261 NA  
ATOM     15  C1  UNL     1       1.373   0.141  -5.716  1.00  0.00     0.044 C   
ENDBRANCH   8   9
ENDBRANCH   7   8
ENDBRANCH   1   7
BRANCH   3  16
ATOM     16  C10 UNL     1      -0.570   1.053   2.191  1.00  0.00     0.114 C   
BRANCH  16  17
ATOM     17  C11 UNL     1      -1.163   1.172   3.603  1.00  0.00     0.064 C   
BRANCH  17  18
ATOM     18  C12 UNL     1      -1.650  -0.158   4.218  1.00  0.00    -0.012 C   
ATOM     19  C13 UNL     1      -2.296   0.110   5.581  1.00  0.00     0.007 C   
ATOM     20  C14 UNL     1      -0.519  -1.176   4.376  1.00  0.00     0.007 C   
ENDBRANCH  17  18
ENDBRANCH  16  17
BRANCH  16  21
ATOM     21  N3  UNL     1      -0.035   2.413   1.789  1.00  0.00     0.249 N   
ATOM     22  H21 UNL     1      -0.612   3.142   2.223  1.00  0.00     0.199 HD  
ATOM     23  H22 UNL     1      -0.234   2.513   0.782  1.00  0.00     0.199 HD  
BRANCH  21  24
ATOM     24  C15 UNL     1       1.411   2.661   2.014  1.00  0.00     0.164 C   
BRANCH  24  25
ATOM     25  C16 UNL     1       2.285   1.847   1.099  1.00  0.00    -0.002 A   
ATOM     26  C17 UNL     1       2.331   2.135  -0.288  1.00  0.00     0.012 A   
ATOM     27  C21 UNL     1       3.027   0.766   1.603  1.00  0.00     0.045 A   
ATOM     28  C18 UNL     1       3.093   1.351  -1.161  1.00  0.00     0.037 A   
ATOM     29  C20 UNL     1       3.765   0.012   0.713  1.00  0.00     0.109 A   
ATOM     30  C19 UNL     1       3.795   0.293  -0.630  1.00  0.00     0.108 A   
ATOM     31  O1  UNL     1       4.518  -1.073   1.033  1.00  0.00    -0.316 OA  
ATOM     32  O2  UNL     1       4.569  -0.580  -1.326  1.00  0.00    -0.316 OA  
ATOM     33  C22 UNL     1       5.068  -1.416  -0.259  1.00  0.00     0.337 C   
ENDBRANCH  24  25
ENDBRANCH  21  24
ENDBRANCH  16  21
ENDBRANCH   3  16
TORSDOF 9
