REMARK SMILES CC(C)C[C@H]([NH2+]Cc1ccc2c(c1)OCO2)c1cn(-c2ccc(Cl)cc2O)nn1
REMARK SMILES IDX 17 1 18 2 19 3 28 4 29 5 5 6 4 7 2 8 1 9 3 10 6 11 7 14 8 15
REMARK SMILES IDX 9 16 13 17 10 18 12 19 11 20 14 21 16 22 15 23 20 24 21 25
REMARK SMILES IDX 26 26 22 27 25 28 23 29 24 30 27 31
REMARK H PARENT 6 12 6 13 27 32
ROOT
ATOM     1   C14 UNL     1      -1.159   0.241   0.750  1.00  0.00     0.127 A   
ATOM     2   C15 UNL     1      -1.159   1.439   0.073  1.00  0.00     0.135 A   
ATOM     3   N2  UNL     1      -1.294   2.414   1.043  1.00  0.00    -0.178 N   
ATOM     4   N3  UNL     1      -1.330   1.794   2.259  1.00  0.00    -0.071 NA  
ATOM     5   N4  UNL     1      -1.260   0.484   2.087  1.00  0.00    -0.131 NA  
ENDROOT
BRANCH   1   6
ATOM     6   C5  UNL     1      -1.026  -1.161   0.261  1.00  0.00     0.114 C   
BRANCH   6   7
ATOM     7   C4  UNL     1      -2.386  -1.880   0.148  1.00  0.00     0.064 C   
BRANCH   7   8
ATOM     8   C2  UNL     1      -3.368  -1.275  -0.878  1.00  0.00    -0.012 C   
ATOM     9   C1  UNL     1      -4.694  -2.039  -0.833  1.00  0.00     0.007 C   
ATOM     10  C3  UNL     1      -2.810  -1.296  -2.302  1.00  0.00     0.007 C   
ENDBRANCH   7   8
ENDBRANCH   6   7
BRANCH   6  11
ATOM     11  N1  UNL     1      -0.184  -1.975   1.226  1.00  0.00     0.249 N   
ATOM     12  H11 UNL     1      -0.251  -2.971   0.995  1.00  0.00     0.199 HD  
ATOM     13  H12 UNL     1      -0.606  -1.849   2.157  1.00  0.00     0.199 HD  
BRANCH  11  14
ATOM     14  C6  UNL     1       1.256  -1.596   1.335  1.00  0.00     0.164 C   
BRANCH  14  15
ATOM     15  C7  UNL     1       2.019  -1.815   0.059  1.00  0.00    -0.002 A   
ATOM     16  C8  UNL     1       2.441  -0.710  -0.719  1.00  0.00     0.012 A   
ATOM     17  C12 UNL     1       2.293  -3.120  -0.389  1.00  0.00     0.045 A   
ATOM     18  C9  UNL     1       3.119  -0.897  -1.928  1.00  0.00     0.037 A   
ATOM     19  C11 UNL     1       2.963  -3.268  -1.586  1.00  0.00     0.109 A   
ATOM     20  C10 UNL     1       3.363  -2.189  -2.334  1.00  0.00     0.108 A   
ATOM     21  O1  UNL     1       3.298  -4.453  -2.161  1.00  0.00    -0.316 OA  
ATOM     22  O2  UNL     1       4.002  -2.558  -3.475  1.00  0.00    -0.316 OA  
ATOM     23  C13 UNL     1       3.986  -3.997  -3.348  1.00  0.00     0.337 C   
ENDBRANCH  14  15
ENDBRANCH  11  14
ENDBRANCH   6  11
ENDBRANCH   1   6
BRANCH   3  24
ATOM     24  C16 UNL     1      -1.374   3.830   0.938  1.00  0.00     0.088 A   
ATOM     25  C17 UNL     1      -1.533   4.575   2.124  1.00  0.00     0.030 A   
ATOM     26  C21 UNL     1      -1.304   4.518  -0.282  1.00  0.00     0.096 A   
ATOM     27  C18 UNL     1      -1.621   5.970   2.088  1.00  0.00     0.023 A   
ATOM     28  C20 UNL     1      -1.393   5.916  -0.315  1.00  0.00     0.055 A   
ATOM     29  C19 UNL     1      -1.550   6.633   0.869  1.00  0.00     0.043 A   
ATOM     30  CL1 UNL     1      -1.657   8.348   0.820  1.00  0.00    -0.084 Cl  
BRANCH  26  31
ATOM     31  O3  UNL     1      -1.144   3.861  -1.470  1.00  0.00    -0.359 OA  
ATOM     32  H24 UNL     1      -1.149   4.507  -2.200  1.00  0.00     0.218 HD  
ENDBRANCH  26  31
ENDBRANCH   3  24
TORSDOF 8
