REMARK SMILES CC(C)C[C@H]([NH2+]Cc1ccc2c(c1)OCO2)c1cn(CCc2cn3c(n2)CCCC3)nn1
REMARK SMILES IDX 17 1 18 2 19 3 31 4 32 5 5 7 4 8 2 9 1 10 3 11 6 12 7 15
REMARK SMILES IDX 8 16 9 17 13 18 10 19 12 20 11 21 14 22 16 23 15 24 20 25
REMARK SMILES IDX 21 26 22 27 23 28 26 29 24 30 25 31 30 32 27 33 29 34 28 35
REMARK H PARENT 18 6 6 13 6 14
ROOT
ATOM     1   C14 UNL     1       1.184   0.893  -0.551  1.00  0.00     0.127 A   
ATOM     2   C15 UNL     1       0.957   1.191  -1.879  1.00  0.00     0.045 A   
ATOM     3   N2  UNL     1       1.187   2.537  -1.928  1.00  0.00    -0.212 N   
ATOM     4   N5  UNL     1       1.790   2.967  -0.805  1.00  0.00    -0.076 NA  
ATOM     5   N6  UNL     1       1.789   1.960   0.055  1.00  0.00    -0.132 NA  
ATOM     6   H20 UNL     1       0.439   0.669  -2.672  1.00  0.00     0.083 HD  
ENDROOT
BRANCH   1   7
ATOM     7   C5  UNL     1       0.599  -0.198   0.277  1.00  0.00     0.114 C   
BRANCH   7   8
ATOM     8   C4  UNL     1       0.543  -1.569  -0.422  1.00  0.00     0.064 C   
BRANCH   8   9
ATOM     9   C2  UNL     1       1.917  -2.165  -0.792  1.00  0.00    -0.012 C   
ATOM     10  C1  UNL     1       1.722  -3.491  -1.532  1.00  0.00     0.007 C   
ATOM     11  C3  UNL     1       2.809  -2.383   0.432  1.00  0.00     0.007 C   
ENDBRANCH   8   9
ENDBRANCH   7   8
BRANCH   7  12
ATOM     12  N1  UNL     1      -0.833   0.192   0.611  1.00  0.00     0.249 N   
ATOM     13  H11 UNL     1      -1.369  -0.625   0.906  1.00  0.00     0.199 HD  
ATOM     14  H12 UNL     1      -1.272   0.563  -0.257  1.00  0.00     0.199 HD  
BRANCH  12  15
ATOM     15  C6  UNL     1      -1.015   1.279   1.620  1.00  0.00     0.164 C   
BRANCH  15  16
ATOM     16  C7  UNL     1      -0.537   0.890   2.991  1.00  0.00    -0.002 A   
ATOM     17  C8  UNL     1       0.679   1.412   3.495  1.00  0.00     0.012 A   
ATOM     18  C12 UNL     1      -1.271  -0.024   3.767  1.00  0.00     0.045 A   
ATOM     19  C9  UNL     1       1.165   1.024   4.748  1.00  0.00     0.037 A   
ATOM     20  C11 UNL     1      -0.763  -0.385   4.998  1.00  0.00     0.109 A   
ATOM     21  C10 UNL     1       0.421   0.121   5.474  1.00  0.00     0.108 A   
ATOM     22  O1  UNL     1      -1.338  -1.263   5.862  1.00  0.00    -0.316 OA  
ATOM     23  O2  UNL     1       0.741  -0.375   6.697  1.00  0.00    -0.316 OA  
ATOM     24  C13 UNL     1      -0.391  -1.231   6.954  1.00  0.00     0.337 C   
ENDBRANCH  15  16
ENDBRANCH  12  15
ENDBRANCH   7  12
ENDBRANCH   1   7
BRANCH   3  25
ATOM     25  C16 UNL     1       0.487   3.478  -2.780  1.00  0.00     0.140 C   
BRANCH  25  26
ATOM     26  C17 UNL     1      -0.910   3.774  -2.224  1.00  0.00     0.079 C   
BRANCH  26  27
ATOM     27  C18 UNL     1      -1.898   2.663  -2.429  1.00  0.00     0.058 A   
ATOM     28  C19 UNL     1      -2.731   2.488  -3.515  1.00  0.00     0.100 A   
ATOM     29  N4  UNL     1      -2.122   1.662  -1.484  1.00  0.00    -0.241 NA  
ATOM     30  N3  UNL     1      -3.508   1.415  -3.205  1.00  0.00    -0.294 N   
ATOM     31  C20 UNL     1      -3.134   0.957  -1.967  1.00  0.00     0.100 A   
ATOM     32  C24 UNL     1      -4.636   0.921  -3.975  1.00  0.00     0.112 C   
ATOM     33  C21 UNL     1      -3.844  -0.189  -1.321  1.00  0.00     0.073 C   
ATOM     34  C23 UNL     1      -5.189  -0.400  -3.435  1.00  0.00     0.020 C   
ATOM     35  C22 UNL     1      -5.244  -0.386  -1.906  1.00  0.00     0.009 C   
ENDBRANCH  26  27
ENDBRANCH  25  26
ENDBRANCH   3  25
TORSDOF 9
