REMARK SMILES COCc1cccc(Cn2cc([C@H](CC(C)C)[NH2+]Cc3ccc4c(c3)OCO4)nn2)c1
REMARK SMILES IDX 10 1 11 2 12 3 29 4 30 5 9 7 8 8 4 9 5 10 31 11 6 12 7 13
REMARK SMILES IDX 3 14 2 15 1 16 13 17 14 18 15 19 16 20 17 21 18 22 19 25
REMARK SMILES IDX 20 26 21 27 25 28 22 29 24 30 23 31 26 32 28 33 27 34
REMARK H PARENT 11 6 18 23 18 24
ROOT
ATOM     1   N1  UNL     1       1.202  -3.506  -0.583  1.00  0.00    -0.208 N   
ATOM     2   C9  UNL     1       0.382  -2.619  -1.226  1.00  0.00     0.046 A   
ATOM     3   C10 UNL     1       1.254  -1.754  -1.847  1.00  0.00     0.127 A   
ATOM     4   N3  UNL     1       2.541  -2.167  -1.619  1.00  0.00    -0.132 NA  
ATOM     5   N4  UNL     1       2.497  -3.238  -0.842  1.00  0.00    -0.076 NA  
ATOM     6   H11 UNL     1      -0.695  -2.646  -1.127  1.00  0.00     0.083 HD  
ENDROOT
BRANCH   1   7
ATOM     7   C8  UNL     1       0.828  -4.539   0.367  1.00  0.00     0.169 C   
BRANCH   7   8
ATOM     8   C7  UNL     1       0.531  -3.921   1.711  1.00  0.00    -0.028 A   
ATOM     9   C3  UNL     1      -1.038  -2.829   3.236  1.00  0.00    -0.022 A   
ATOM     10  C4  UNL     1       0.003  -2.651   4.156  1.00  0.00     0.006 A   
ATOM     11  C24 UNL     1      -0.765  -3.479   2.022  1.00  0.00     0.011 A   
ATOM     12  C5  UNL     1       1.293  -3.093   3.860  1.00  0.00     0.001 A   
ATOM     13  C6  UNL     1       1.558  -3.718   2.642  1.00  0.00     0.005 A   
BRANCH   9  14
ATOM     14  C2  UNL     1      -2.437  -2.369   3.556  1.00  0.00     0.195 C   
BRANCH  14  15
ATOM     15  O1  UNL     1      -2.939  -1.611   2.452  1.00  0.00    -0.380 OA  
ATOM     16  C1  UNL     1      -4.285  -1.207   2.679  1.00  0.00     0.195 C   
ENDBRANCH  14  15
ENDBRANCH   9  14
ENDBRANCH   7   8
ENDBRANCH   1   7
BRANCH   3  17
ATOM     17  C11 UNL     1       1.006  -0.474  -2.572  1.00  0.00     0.114 C   
BRANCH  17  18
ATOM     18  C12 UNL     1       1.179  -0.653  -4.096  1.00  0.00     0.064 C   
BRANCH  18  19
ATOM     19  C13 UNL     1       0.309   0.246  -5.003  1.00  0.00    -0.012 C   
ATOM     20  C14 UNL     1      -1.183  -0.065  -4.861  1.00  0.00     0.007 C   
ATOM     21  C15 UNL     1       0.561   1.740  -4.816  1.00  0.00     0.007 C   
ENDBRANCH  18  19
ENDBRANCH  17  18
BRANCH  17  22
ATOM     22  N2  UNL     1       1.988   0.573  -2.090  1.00  0.00     0.249 N   
ATOM     23  H22 UNL     1       2.925   0.164  -2.213  1.00  0.00     0.199 HD  
ATOM     24  H23 UNL     1       1.943   1.410  -2.675  1.00  0.00     0.199 HD  
BRANCH  22  25
ATOM     25  C16 UNL     1       1.877   0.975  -0.652  1.00  0.00     0.164 C   
BRANCH  25  26
ATOM     26  C17 UNL     1       0.551   1.594  -0.310  1.00  0.00    -0.002 A   
ATOM     27  C18 UNL     1      -0.390   0.877   0.468  1.00  0.00     0.012 A   
ATOM     28  C22 UNL     1       0.222   2.874  -0.787  1.00  0.00     0.045 A   
ATOM     29  C19 UNL     1      -1.647   1.419   0.755  1.00  0.00     0.037 A   
ATOM     30  C21 UNL     1      -1.026   3.378  -0.485  1.00  0.00     0.109 A   
ATOM     31  C20 UNL     1      -1.937   2.671   0.261  1.00  0.00     0.108 A   
ATOM     32  O2  UNL     1      -1.503   4.590  -0.875  1.00  0.00    -0.316 OA  
ATOM     33  O3  UNL     1      -3.102   3.347   0.435  1.00  0.00    -0.316 OA  
ATOM     34  C23 UNL     1      -2.811   4.581  -0.257  1.00  0.00     0.337 C   
ENDBRANCH  25  26
ENDBRANCH  22  25
ENDBRANCH  17  22
ENDBRANCH   3  17
TORSDOF 10
