REMARK SMILES CC(C)[C@H]([NH2+]Cc1ccc2c(c1)OCO2)c1cn(Cc2cc(Cl)ccc2O)nn1
REMARK SMILES IDX 16 1 17 2 18 3 28 4 29 5 4 7 2 8 1 9 3 10 5 11 6 14 7 15
REMARK SMILES IDX 8 16 12 17 9 18 11 19 10 20 13 21 15 22 14 23 19 24 20 25
REMARK SMILES IDX 21 26 26 27 22 28 25 29 24 30 23 31 27 32
REMARK H PARENT 17 6 5 12 5 13 27 33
ROOT
ATOM     1   C13 UNL     1      -1.265   0.145   2.120  1.00  0.00     0.127 A   
ATOM     2   C14 UNL     1      -1.424  -0.935   1.282  1.00  0.00     0.046 A   
ATOM     3   N2  UNL     1      -2.742  -0.884   0.924  1.00  0.00    -0.208 N   
ATOM     4   N3  UNL     1      -3.369   0.133   1.547  1.00  0.00    -0.076 NA  
ATOM     5   N4  UNL     1      -2.475   0.768   2.287  1.00  0.00    -0.132 NA  
ATOM     6   H18 UNL     1      -0.742  -1.664   0.867  1.00  0.00     0.083 HD  
ENDROOT
BRANCH   1   7
ATOM     7   C4  UNL     1      -0.032   0.744   2.707  1.00  0.00     0.117 C   
BRANCH   7   8
ATOM     8   C2  UNL     1       0.247   0.328   4.175  1.00  0.00     0.037 C   
ATOM     9   C1  UNL     1      -0.860   0.701   5.167  1.00  0.00     0.014 C   
ATOM     10  C3  UNL     1       0.549  -1.173   4.282  1.00  0.00     0.014 C   
ENDBRANCH   7   8
BRANCH   7  11
ATOM     11  N1  UNL     1      -0.086   2.257   2.635  1.00  0.00     0.249 N   
ATOM     12  H9  UNL     1       0.724   2.657   3.116  1.00  0.00     0.199 HD  
ATOM     13  H10 UNL     1      -0.928   2.546   3.148  1.00  0.00     0.199 HD  
BRANCH  11  14
ATOM     14  C5  UNL     1      -0.201   2.863   1.270  1.00  0.00     0.164 C   
BRANCH  14  15
ATOM     15  C6  UNL     1       0.908   2.474   0.333  1.00  0.00    -0.002 A   
ATOM     16  C7  UNL     1       2.214   2.990   0.511  1.00  0.00     0.012 A   
ATOM     17  C11 UNL     1       0.657   1.572  -0.718  1.00  0.00     0.045 A   
ATOM     18  C8  UNL     1       3.257   2.612  -0.343  1.00  0.00     0.037 A   
ATOM     19  C10 UNL     1       1.707   1.218  -1.539  1.00  0.00     0.109 A   
ATOM     20  C9  UNL     1       2.970   1.724  -1.357  1.00  0.00     0.108 A   
ATOM     21  O1  UNL     1       1.639   0.356  -2.589  1.00  0.00    -0.316 OA  
ATOM     22  O2  UNL     1       3.855   1.253  -2.274  1.00  0.00    -0.316 OA  
ATOM     23  C12 UNL     1       2.997   0.421  -3.083  1.00  0.00     0.337 C   
ENDBRANCH  14  15
ENDBRANCH  11  14
ENDBRANCH   7  11
ENDBRANCH   1   7
BRANCH   3  24
ATOM     24  C15 UNL     1      -3.431  -1.686  -0.074  1.00  0.00     0.172 C   
BRANCH  24  25
ATOM     25  C16 UNL     1      -3.161  -1.142  -1.456  1.00  0.00     0.003 A   
ATOM     26  C17 UNL     1      -3.982  -0.133  -1.986  1.00  0.00     0.028 A   
ATOM     27  C21 UNL     1      -2.071  -1.583  -2.215  1.00  0.00     0.076 A   
ATOM     28  C18 UNL     1      -3.713   0.405  -3.246  1.00  0.00     0.041 A   
ATOM     29  C20 UNL     1      -1.802  -1.050  -3.475  1.00  0.00     0.035 A   
ATOM     30  C19 UNL     1      -2.628  -0.051  -3.991  1.00  0.00     0.023 A   
ATOM     31  CL1 UNL     1      -4.721   1.648  -3.875  1.00  0.00    -0.084 Cl  
BRANCH  27  32
ATOM     32  O3  UNL     1      -1.256  -2.545  -1.691  1.00  0.00    -0.361 OA  
ATOM     33  H24 UNL     1      -0.651  -2.856  -2.388  1.00  0.00     0.218 HD  
ENDBRANCH  27  32
ENDBRANCH  24  25
ENDBRANCH   3  24
TORSDOF 8
