REMARK SMILES CC(C)C[C@H]([NH2+]Cc1ccc2c(c1)OCO2)c1cn(Cc2cc(Cl)ccc2O)nn1
REMARK SMILES IDX 17 1 18 2 19 3 29 4 30 5 5 7 4 8 2 9 1 10 3 11 6 12 7 15
REMARK SMILES IDX 8 16 9 17 13 18 10 19 12 20 11 21 14 22 16 23 15 24 20 25
REMARK SMILES IDX 21 26 22 27 27 28 23 29 26 30 25 31 24 32 28 33
REMARK H PARENT 18 6 6 13 6 14 28 34
ROOT
ATOM     1   C14 UNL     1      -0.828  -0.920   1.092  1.00  0.00     0.127 A   
ATOM     2   C15 UNL     1      -1.126  -0.966   2.435  1.00  0.00     0.046 A   
ATOM     3   N2  UNL     1      -0.010  -1.518   3.002  1.00  0.00    -0.208 N   
ATOM     4   N3  UNL     1       0.917  -1.798   2.064  1.00  0.00    -0.076 NA  
ATOM     5   N4  UNL     1       0.424  -1.443   0.889  1.00  0.00    -0.132 NA  
ATOM     6   H20 UNL     1      -1.980  -0.663   3.025  1.00  0.00     0.083 HD  
ENDROOT
BRANCH   1   7
ATOM     7   C5  UNL     1      -1.598  -0.389  -0.074  1.00  0.00     0.114 C   
BRANCH   7   8
ATOM     8   C4  UNL     1      -2.508  -1.483  -0.668  1.00  0.00     0.064 C   
BRANCH   8   9
ATOM     9   C2  UNL     1      -3.412  -1.063  -1.847  1.00  0.00    -0.012 C   
ATOM     10  C1  UNL     1      -4.272  -2.254  -2.283  1.00  0.00     0.007 C   
ATOM     11  C3  UNL     1      -4.311   0.124  -1.505  1.00  0.00     0.007 C   
ENDBRANCH   8   9
ENDBRANCH   7   8
BRANCH   7  12
ATOM     12  N1  UNL     1      -0.653   0.102  -1.136  1.00  0.00     0.249 N   
ATOM     13  H11 UNL     1      -1.111   0.214  -2.044  1.00  0.00     0.199 HD  
ATOM     14  H12 UNL     1       0.061  -0.633  -1.259  1.00  0.00     0.199 HD  
BRANCH  12  15
ATOM     15  C6  UNL     1       0.069   1.365  -0.809  1.00  0.00     0.164 C   
BRANCH  15  16
ATOM     16  C7  UNL     1       1.007   1.734  -1.923  1.00  0.00    -0.002 A   
ATOM     17  C8  UNL     1       0.593   2.618  -2.948  1.00  0.00     0.012 A   
ATOM     18  C12 UNL     1       2.287   1.157  -1.980  1.00  0.00     0.045 A   
ATOM     19  C9  UNL     1       1.446   2.933  -4.011  1.00  0.00     0.037 A   
ATOM     20  C11 UNL     1       3.103   1.488  -3.043  1.00  0.00     0.109 A   
ATOM     21  C10 UNL     1       2.695   2.351  -4.029  1.00  0.00     0.108 A   
ATOM     22  O1  UNL     1       4.362   1.021  -3.249  1.00  0.00    -0.316 OA  
ATOM     23  O2  UNL     1       3.646   2.538  -4.980  1.00  0.00    -0.316 OA  
ATOM     24  C13 UNL     1       4.713   1.710  -4.470  1.00  0.00     0.337 C   
ENDBRANCH  15  16
ENDBRANCH  12  15
ENDBRANCH   7  12
ENDBRANCH   1   7
BRANCH   3  25
ATOM     25  C16 UNL     1       0.240  -1.811   4.403  1.00  0.00     0.172 C   
BRANCH  25  26
ATOM     26  C17 UNL     1       0.719  -0.583   5.132  1.00  0.00     0.003 A   
ATOM     27  C18 UNL     1       2.085  -0.249   5.122  1.00  0.00     0.028 A   
ATOM     28  C22 UNL     1      -0.169   0.261   5.810  1.00  0.00     0.076 A   
ATOM     29  C19 UNL     1       2.536   0.891   5.787  1.00  0.00     0.041 A   
ATOM     30  C21 UNL     1       0.281   1.398   6.480  1.00  0.00     0.035 A   
ATOM     31  C20 UNL     1       1.641   1.713   6.468  1.00  0.00     0.023 A   
ATOM     32  CL1 UNL     1       4.208   1.290   5.758  1.00  0.00    -0.084 Cl  
BRANCH  28  33
ATOM     33  O3  UNL     1      -1.500  -0.045   5.798  1.00  0.00    -0.361 OA  
ATOM     34  H26 UNL     1      -1.951   0.511   6.460  1.00  0.00     0.218 HD  
ENDBRANCH  28  33
ENDBRANCH  25  26
ENDBRANCH   3  25
TORSDOF 9
