REMARK SMILES c1c[nH]c(CCn2cc([C@@H]([NH2+]Cc3ccc4c(c3)OCO4)C3CCCC3)nn2)c1
REMARK SMILES IDX 7 1 8 2 9 3 27 4 28 5 6 7 5 8 4 9 1 10 2 11 29 12 3 13 10 15
REMARK SMILES IDX 11 16 12 19 13 20 14 21 18 22 15 23 17 24 16 25 19 26 21 27
REMARK SMILES IDX 20 28 22 29 23 30 26 31 24 32 25 33
REMARK H PARENT 8 6 3 14 11 17 11 18
ROOT
ATOM     1   N2  UNL     1      -0.390  -2.438  -1.624  1.00  0.00    -0.212 N   
ATOM     2   C6  UNL     1      -0.234  -1.093  -1.441  1.00  0.00     0.045 A   
ATOM     3   C7  UNL     1      -0.229  -0.944  -0.072  1.00  0.00     0.127 A   
ATOM     4   N4  UNL     1      -0.429  -2.167   0.515  1.00  0.00    -0.132 NA  
ATOM     5   N5  UNL     1      -0.541  -3.071  -0.446  1.00  0.00    -0.076 NA  
ATOM     6   H8  UNL     1      -0.103  -0.407  -2.266  1.00  0.00     0.083 HD  
ENDROOT
BRANCH   1   7
ATOM     7   C5  UNL     1      -0.400  -3.175  -2.871  1.00  0.00     0.140 C   
BRANCH   7   8
ATOM     8   C4  UNL     1       0.925  -3.883  -3.151  1.00  0.00     0.072 C   
BRANCH   8   9
ATOM     9   C3  UNL     1       2.067  -2.927  -3.299  1.00  0.00     0.008 A   
ATOM     10  C1  UNL     1       3.535  -1.325  -3.907  1.00  0.00     0.017 A   
ATOM     11  C2  UNL     1       3.998  -1.923  -2.758  1.00  0.00     0.071 A   
ATOM     12  C22 UNL     1       2.322  -1.963  -4.256  1.00  0.00     0.020 A   
ATOM     13  N1  UNL     1       3.113  -2.905  -2.404  1.00  0.00    -0.324 N   
ATOM     14  H3  UNL     1       3.221  -3.527  -1.611  1.00  0.00     0.152 HD  
ENDBRANCH   8   9
ENDBRANCH   7   8
ENDBRANCH   1   7
BRANCH   3  15
ATOM     15  C8  UNL     1      -0.079   0.272   0.782  1.00  0.00     0.117 C   
BRANCH  15  16
ATOM     16  N3  UNL     1      -0.962   0.150   2.007  1.00  0.00     0.249 N   
ATOM     17  H10 UNL     1      -0.746  -0.766   2.425  1.00  0.00     0.199 HD  
ATOM     18  H11 UNL     1      -0.721   0.864   2.698  1.00  0.00     0.199 HD  
BRANCH  16  19
ATOM     19  C9  UNL     1      -2.435   0.194   1.766  1.00  0.00     0.164 C   
BRANCH  19  20
ATOM     20  C10 UNL     1      -2.903   1.525   1.248  1.00  0.00    -0.002 A   
ATOM     21  C11 UNL     1      -3.359   1.649  -0.087  1.00  0.00     0.012 A   
ATOM     22  C15 UNL     1      -2.867   2.662   2.075  1.00  0.00     0.045 A   
ATOM     23  C12 UNL     1      -3.767   2.887  -0.596  1.00  0.00     0.037 A   
ATOM     24  C14 UNL     1      -3.274   3.867   1.541  1.00  0.00     0.109 A   
ATOM     25  C13 UNL     1      -3.710   3.978   0.244  1.00  0.00     0.108 A   
ATOM     26  O1  UNL     1      -3.296   5.054   2.200  1.00  0.00    -0.316 OA  
ATOM     27  O2  UNL     1      -4.065   5.249  -0.077  1.00  0.00    -0.316 OA  
ATOM     28  C16 UNL     1      -3.824   5.927   1.175  1.00  0.00     0.337 C   
ENDBRANCH  19  20
ENDBRANCH  16  19
ENDBRANCH  15  16
BRANCH  15  29
ATOM     29  C17 UNL     1       1.378   0.463   1.254  1.00  0.00     0.043 C   
ATOM     30  C18 UNL     1       2.367   0.679   0.104  1.00  0.00     0.010 C   
ATOM     31  C21 UNL     1       1.607   1.724   2.095  1.00  0.00     0.010 C   
ATOM     32  C19 UNL     1       3.608   1.253   0.777  1.00  0.00     0.001 C   
ATOM     33  C20 UNL     1       3.112   1.967   2.031  1.00  0.00     0.001 C   
ENDBRANCH  15  29
ENDBRANCH   3  15
TORSDOF 8
