REMARK SMILES COc1cc(F)ccc1-n1cc([C@@H]([NH2+]Cc2ccc3c(c2)OCO3)C2CCCCC2)nn1
REMARK SMILES IDX 10 1 11 2 12 3 31 4 32 5 9 6 3 7 4 8 5 9 8 10 7 11 6 12 2 13
REMARK SMILES IDX 1 14 13 15 14 16 15 19 16 20 17 21 21 22 18 23 20 24 19 25
REMARK SMILES IDX 22 26 24 27 23 28 25 29 26 30 30 31 27 32 29 33 28 34
REMARK H PARENT 14 17 14 18
ROOT
ATOM     1   N1  UNL     1       0.433  -1.531   0.427  1.00  0.00    -0.178 N   
ATOM     2   C8  UNL     1      -0.679  -0.820   0.840  1.00  0.00     0.135 A   
ATOM     3   C9  UNL     1      -1.293  -0.396  -0.316  1.00  0.00     0.127 A   
ATOM     4   N3  UNL     1      -0.619  -0.897  -1.390  1.00  0.00    -0.131 NA  
ATOM     5   N4  UNL     1       0.394  -1.613  -0.936  1.00  0.00    -0.071 NA  
ENDROOT
BRANCH   1   6
ATOM     6   C7  UNL     1       1.520  -2.092   1.160  1.00  0.00     0.088 A   
ATOM     7   C2  UNL     1       1.693  -1.917   2.551  1.00  0.00     0.101 A   
ATOM     8   C3  UNL     1       2.809  -2.498   3.172  1.00  0.00     0.074 A   
ATOM     9   C4  UNL     1       3.732  -3.232   2.432  1.00  0.00     0.125 A   
ATOM     10  C6  UNL     1       2.474  -2.840   0.431  1.00  0.00     0.032 A   
ATOM     11  C5  UNL     1       3.576  -3.408   1.069  1.00  0.00     0.041 A   
ATOM     12  F1  UNL     1       4.791  -3.769   3.050  1.00  0.00    -0.207 F   
BRANCH   7  13
ATOM     13  O1  UNL     1       0.779  -1.164   3.237  1.00  0.00    -0.347 OA  
ATOM     14  C1  UNL     1       0.945  -1.016   4.645  1.00  0.00     0.203 C   
ENDBRANCH   7  13
ENDBRANCH   1   6
BRANCH   3  15
ATOM     15  C10 UNL     1      -2.412   0.570  -0.538  1.00  0.00     0.117 C   
BRANCH  15  16
ATOM     16  N2  UNL     1      -2.024   1.536  -1.638  1.00  0.00     0.249 N   
ATOM     17  H9  UNL     1      -2.828   1.772  -2.225  1.00  0.00     0.199 HD  
ATOM     18  H10 UNL     1      -1.375   1.017  -2.252  1.00  0.00     0.199 HD  
BRANCH  16  19
ATOM     19  C11 UNL     1      -1.353   2.802  -1.211  1.00  0.00     0.164 C   
BRANCH  19  20
ATOM     20  C12 UNL     1      -0.116   2.601  -0.378  1.00  0.00    -0.002 A   
ATOM     21  C13 UNL     1      -0.137   2.888   1.009  1.00  0.00     0.012 A   
ATOM     22  C17 UNL     1       1.052   2.070  -0.953  1.00  0.00     0.045 A   
ATOM     23  C14 UNL     1       0.972   2.620   1.817  1.00  0.00     0.037 A   
ATOM     24  C16 UNL     1       2.125   1.811  -0.126  1.00  0.00     0.109 A   
ATOM     25  C15 UNL     1       2.085   2.071   1.221  1.00  0.00     0.108 A   
ATOM     26  O2  UNL     1       3.307   1.262  -0.512  1.00  0.00    -0.316 OA  
ATOM     27  O3  UNL     1       3.234   1.719   1.853  1.00  0.00    -0.316 OA  
ATOM     28  C18 UNL     1       4.013   1.213   0.747  1.00  0.00     0.337 C   
ENDBRANCH  19  20
ENDBRANCH  16  19
ENDBRANCH  15  16
BRANCH  15  29
ATOM     29  C19 UNL     1      -3.756  -0.134  -0.866  1.00  0.00     0.043 C   
ATOM     30  C20 UNL     1      -3.784  -0.864  -2.224  1.00  0.00     0.010 C   
ATOM     31  C24 UNL     1      -4.939   0.850  -0.766  1.00  0.00     0.010 C   
ATOM     32  C21 UNL     1      -5.129  -1.549  -2.470  1.00  0.00     0.001 C   
ATOM     33  C23 UNL     1      -6.277   0.156  -1.013  1.00  0.00     0.001 C   
ATOM     34  C22 UNL     1      -6.293  -0.572  -2.352  1.00  0.00     0.000 C   
ENDBRANCH  15  29
ENDBRANCH   3  15
TORSDOF 7
