REMARK SMILES CC(C)[C@H]([NH2+]Cc1ccc2c(c1)OCO2)c1cn(Cc2ccncc2Cl)nn1
REMARK SMILES IDX 16 1 17 2 18 3 27 4 28 5 4 7 2 8 1 9 3 10 5 11 6 14 7 15
REMARK SMILES IDX 8 16 12 17 9 18 11 19 10 20 13 21 15 22 14 23 19 24 20 25
REMARK SMILES IDX 21 26 25 27 22 28 24 29 23 30 26 31
REMARK H PARENT 17 6 5 12 5 13
ROOT
ATOM     1   C13 UNL     1       1.562   0.557  -1.430  1.00  0.00     0.127 A   
ATOM     2   C14 UNL     1       2.531  -0.419  -1.508  1.00  0.00     0.046 A   
ATOM     3   N2  UNL     1       3.081  -0.442  -0.255  1.00  0.00    -0.208 N   
ATOM     4   N4  UNL     1       2.493   0.472   0.542  1.00  0.00    -0.076 NA  
ATOM     5   N5  UNL     1       1.559   1.085  -0.164  1.00  0.00    -0.132 NA  
ATOM     6   H18 UNL     1       2.862  -1.077  -2.300  1.00  0.00     0.083 HD  
ENDROOT
BRANCH   1   7
ATOM     7   C4  UNL     1       0.557   1.037  -2.428  1.00  0.00     0.117 C   
BRANCH   7   8
ATOM     8   C2  UNL     1       1.055   2.199  -3.325  1.00  0.00     0.037 C   
ATOM     9   C1  UNL     1       1.470   3.457  -2.553  1.00  0.00     0.014 C   
ATOM     10  C3  UNL     1       2.199   1.755  -4.244  1.00  0.00     0.014 C   
ENDBRANCH   7   8
BRANCH   7  11
ATOM     11  N1  UNL     1      -0.694   1.490  -1.715  1.00  0.00     0.249 N   
ATOM     12  H9  UNL     1      -1.264   2.105  -2.304  1.00  0.00     0.199 HD  
ATOM     13  H10 UNL     1      -0.389   2.058  -0.910  1.00  0.00     0.199 HD  
BRANCH  11  14
ATOM     14  C5  UNL     1      -1.552   0.398  -1.176  1.00  0.00     0.164 C   
BRANCH  14  15
ATOM     15  C6  UNL     1      -2.707   0.972  -0.406  1.00  0.00    -0.002 A   
ATOM     16  C7  UNL     1      -2.558   1.288   0.966  1.00  0.00     0.012 A   
ATOM     17  C11 UNL     1      -3.921   1.254  -1.054  1.00  0.00     0.045 A   
ATOM     18  C8  UNL     1      -3.607   1.865   1.689  1.00  0.00     0.037 A   
ATOM     19  C10 UNL     1      -4.935   1.824  -0.312  1.00  0.00     0.109 A   
ATOM     20  C9  UNL     1      -4.784   2.120   1.020  1.00  0.00     0.108 A   
ATOM     21  O1  UNL     1      -6.165   2.158  -0.782  1.00  0.00    -0.316 OA  
ATOM     22  O2  UNL     1      -5.900   2.677   1.557  1.00  0.00    -0.316 OA  
ATOM     23  C12 UNL     1      -6.785   2.677   0.417  1.00  0.00     0.337 C   
ENDBRANCH  14  15
ENDBRANCH  11  14
ENDBRANCH   7  11
ENDBRANCH   1   7
BRANCH   3  24
ATOM     24  C15 UNL     1       4.160  -1.278   0.246  1.00  0.00     0.171 C   
BRANCH  24  25
ATOM     25  C16 UNL     1       3.633  -2.398   1.106  1.00  0.00    -0.007 A   
ATOM     26  C17 UNL     1       3.555  -2.214   2.497  1.00  0.00     0.027 A   
ATOM     27  C20 UNL     1       3.182  -3.615   0.580  1.00  0.00     0.064 A   
ATOM     28  C18 UNL     1       3.046  -3.233   3.288  1.00  0.00     0.111 A   
ATOM     29  C19 UNL     1       2.692  -4.577   1.456  1.00  0.00     0.131 A   
ATOM     30  N3  UNL     1       2.610  -4.409   2.796  1.00  0.00    -0.263 NA  
ATOM     31  CL1 UNL     1       3.197  -3.961  -1.107  1.00  0.00    -0.082 Cl  
ENDBRANCH  24  25
ENDBRANCH   3  24
TORSDOF 7
