REMARK SMILES CC(C)[C@H]([NH2+]Cc1ccc2c(c1)OCO2)c1cn(-c2ccnc(CO)c2)nn1
REMARK SMILES IDX 16 1 17 2 18 3 27 4 28 5 4 6 2 7 1 8 3 9 5 10 6 13 7 14 8 15
REMARK SMILES IDX 12 16 9 17 11 18 10 19 13 20 15 21 14 22 19 23 20 24 26 25
REMARK SMILES IDX 21 26 23 27 22 28 24 29 25 30
REMARK H PARENT 5 11 5 12 25 31
ROOT
ATOM     1   C13 UNL     1       0.329   0.689  -0.269  1.00  0.00     0.127 A   
ATOM     2   C14 UNL     1       0.835   1.916   0.098  1.00  0.00     0.135 A   
ATOM     3   N2  UNL     1      -0.043   2.398   1.050  1.00  0.00    -0.180 N   
ATOM     4   N4  UNL     1      -1.013   1.469   1.257  1.00  0.00    -0.071 NA  
ATOM     5   N5  UNL     1      -0.804   0.440   0.453  1.00  0.00    -0.131 NA  
ENDROOT
BRANCH   1   6
ATOM     6   C4  UNL     1       0.820  -0.327  -1.254  1.00  0.00     0.117 C   
BRANCH   6   7
ATOM     7   C2  UNL     1       0.468   0.060  -2.715  1.00  0.00     0.037 C   
ATOM     8   C1  UNL     1      -1.033   0.004  -3.027  1.00  0.00     0.014 C   
ATOM     9   C3  UNL     1       1.239  -0.792  -3.730  1.00  0.00     0.014 C   
ENDBRANCH   6   7
BRANCH   6  10
ATOM     10  N1  UNL     1       0.268  -1.689  -0.930  1.00  0.00     0.249 N   
ATOM     11  H9  UNL     1      -0.730  -1.565  -0.705  1.00  0.00     0.199 HD  
ATOM     12  H10 UNL     1       0.302  -2.320  -1.736  1.00  0.00     0.199 HD  
BRANCH  10  13
ATOM     13  C5  UNL     1       0.895  -2.373   0.236  1.00  0.00     0.164 C   
BRANCH  13  14
ATOM     14  C6  UNL     1       0.219  -3.691   0.489  1.00  0.00    -0.002 A   
ATOM     15  C7  UNL     1      -0.933  -3.752   1.309  1.00  0.00     0.012 A   
ATOM     16  C11 UNL     1       0.689  -4.859  -0.135  1.00  0.00     0.045 A   
ATOM     17  C8  UNL     1      -1.604  -4.962   1.515  1.00  0.00     0.037 A   
ATOM     18  C10 UNL     1       0.002  -6.034   0.087  1.00  0.00     0.109 A   
ATOM     19  C9  UNL     1      -1.112  -6.085   0.888  1.00  0.00     0.108 A   
ATOM     20  O1  UNL     1       0.320  -7.245  -0.440  1.00  0.00    -0.316 OA  
ATOM     21  O2  UNL     1      -1.635  -7.336   0.969  1.00  0.00    -0.316 OA  
ATOM     22  C12 UNL     1      -0.714  -8.075   0.138  1.00  0.00     0.337 C   
ENDBRANCH  13  14
ENDBRANCH  10  13
ENDBRANCH   6  10
ENDBRANCH   1   6
BRANCH   3  23
ATOM     23  C15 UNL     1      -0.015   3.624   1.754  1.00  0.00     0.061 A   
ATOM     24  C16 UNL     1      -1.003   3.902   2.700  1.00  0.00     0.046 A   
ATOM     25  C20 UNL     1       0.990   4.567   1.516  1.00  0.00     0.052 A   
ATOM     26  C17 UNL     1      -0.942   5.111   3.367  1.00  0.00     0.113 A   
ATOM     27  C18 UNL     1       0.983   5.755   2.244  1.00  0.00     0.068 A   
ATOM     28  N3  UNL     1       0.021   6.033   3.157  1.00  0.00    -0.259 NA  
BRANCH  27  29
ATOM     29  C19 UNL     1       2.026   6.822   2.009  1.00  0.00     0.212 C   
BRANCH  29  30
ATOM     30  O3  UNL     1       3.252   6.269   1.529  1.00  0.00    -0.390 OA  
ATOM     31  H23 UNL     1       3.893   7.003   1.535  1.00  0.00     0.211 HD  
ENDBRANCH  29  30
ENDBRANCH  27  29
ENDBRANCH   3  23
TORSDOF 8
