REMARK SMILES COc1ccc(N)cc1-n1cc([C@@H]([NH2+]Cc2ccc3c(c2)OCO3)C(C)(C)C)nn1
REMARK SMILES IDX 10 1 11 2 12 3 29 4 30 5 9 6 3 7 4 8 5 9 8 10 6 11 2 12 1 13
REMARK SMILES IDX 7 14 13 17 14 18 15 21 16 22 17 23 21 24 18 25 20 26 19 27
REMARK SMILES IDX 22 28 24 29 23 30 25 31 26 32 27 33 28 34
REMARK H PARENT 7 15 7 16 14 19 14 20
ROOT
ATOM     1   N2  UNL     1      -0.999  -1.139   1.871  1.00  0.00    -0.178 N   
ATOM     2   C8  UNL     1      -0.653   0.200   1.851  1.00  0.00     0.135 A   
ATOM     3   C9  UNL     1       0.003   0.399   0.657  1.00  0.00     0.128 A   
ATOM     4   N4  UNL     1       0.085  -0.787  -0.008  1.00  0.00    -0.131 NA  
ATOM     5   N5  UNL     1      -0.511  -1.708   0.729  1.00  0.00    -0.071 NA  
ENDROOT
BRANCH   1   6
ATOM     6   C7  UNL     1      -1.704  -1.916   2.836  1.00  0.00     0.090 A   
ATOM     7   C2  UNL     1      -2.238  -1.381   4.025  1.00  0.00     0.098 A   
ATOM     8   C3  UNL     1      -2.876  -2.250   4.922  1.00  0.00     0.037 A   
ATOM     9   C4  UNL     1      -3.006  -3.614   4.641  1.00  0.00     0.026 A   
ATOM     10  C6  UNL     1      -1.856  -3.296   2.569  1.00  0.00     0.051 A   
ATOM     11  C5  UNL     1      -2.546  -4.140   3.440  1.00  0.00     0.025 A   
BRANCH   7  12
ATOM     12  O1  UNL     1      -2.102  -0.041   4.268  1.00  0.00    -0.347 OA  
ATOM     13  C1  UNL     1      -2.736   0.504   5.422  1.00  0.00     0.203 C   
ENDBRANCH   7  12
BRANCH  11  14
ATOM     14  N1  UNL     1      -2.570  -5.519   3.218  1.00  0.00    -0.358 N   
ATOM     15  H6  UNL     1      -2.526  -5.791   2.240  1.00  0.00     0.143 HD  
ATOM     16  H7  UNL     1      -3.304  -6.014   3.717  1.00  0.00     0.143 HD  
ENDBRANCH  11  14
ENDBRANCH   1   6
BRANCH   3  17
ATOM     17  C10 UNL     1       0.659   1.618   0.084  1.00  0.00     0.120 C   
BRANCH  17  18
ATOM     18  N3  UNL     1       1.938   1.202  -0.607  1.00  0.00     0.250 N   
ATOM     19  H11 UNL     1       2.283   1.918  -1.251  1.00  0.00     0.199 HD  
ATOM     20  H12 UNL     1       1.712   0.379  -1.186  1.00  0.00     0.199 HD  
BRANCH  18  21
ATOM     21  C11 UNL     1       3.052   0.807   0.300  1.00  0.00     0.164 C   
BRANCH  21  22
ATOM     22  C12 UNL     1       4.274   0.450  -0.495  1.00  0.00    -0.002 A   
ATOM     23  C13 UNL     1       5.260   1.427  -0.771  1.00  0.00     0.012 A   
ATOM     24  C17 UNL     1       4.420  -0.848  -1.017  1.00  0.00     0.045 A   
ATOM     25  C14 UNL     1       6.384   1.116  -1.544  1.00  0.00     0.037 A   
ATOM     26  C16 UNL     1       5.541  -1.121  -1.774  1.00  0.00     0.109 A   
ATOM     27  C15 UNL     1       6.495  -0.168  -2.031  1.00  0.00     0.108 A   
ATOM     28  O2  UNL     1       5.836  -2.317  -2.347  1.00  0.00    -0.316 OA  
ATOM     29  O3  UNL     1       7.513  -0.643  -2.795  1.00  0.00    -0.316 OA  
ATOM     30  C18 UNL     1       7.106  -2.018  -2.970  1.00  0.00     0.337 C   
ENDBRANCH  21  22
ENDBRANCH  18  21
ENDBRANCH  17  18
BRANCH  17  31
ATOM     31  C19 UNL     1      -0.251   2.438  -0.896  1.00  0.00     0.010 C   
ATOM     32  C20 UNL     1       0.456   3.748  -1.315  1.00  0.00     0.017 C   
ATOM     33  C21 UNL     1      -1.566   2.842  -0.191  1.00  0.00     0.017 C   
ATOM     34  C22 UNL     1      -0.609   1.654  -2.175  1.00  0.00     0.017 C   
ENDBRANCH  17  31
ENDBRANCH   3  17
TORSDOF 8
