REMARK SMILES Cc1ncncc1CCn1cc([C@@H]([NH2+]Cc2ccc3c(c2)OCO3)C(C)C)nn1
REMARK SMILES IDX 10 1 11 2 12 3 28 4 29 5 9 7 8 8 7 9 2 10 3 11 4 12 6 13
REMARK SMILES IDX 5 14 1 15 13 16 14 17 15 20 16 21 17 22 21 23 18 24 20 25
REMARK SMILES IDX 19 26 22 27 24 28 23 29 25 30 26 31 27 32
REMARK H PARENT 11 6 14 18 14 19
ROOT
ATOM     1   N3  UNL     1      -3.230  -0.328   0.360  1.00  0.00    -0.212 N   
ATOM     2   C8  UNL     1      -2.553   0.806  -0.004  1.00  0.00     0.045 A   
ATOM     3   C9  UNL     1      -1.484   0.853   0.865  1.00  0.00     0.127 A   
ATOM     4   N5  UNL     1      -1.641  -0.144   1.799  1.00  0.00    -0.132 NA  
ATOM     5   N6  UNL     1      -2.705  -0.862   1.475  1.00  0.00    -0.076 NA  
ATOM     6   H10 UNL     1      -2.821   1.360  -0.891  1.00  0.00     0.083 HD  
ENDROOT
BRANCH   1   7
ATOM     7   C7  UNL     1      -4.114  -1.112  -0.484  1.00  0.00     0.139 C   
BRANCH   7   8
ATOM     8   C6  UNL     1      -3.375  -2.248  -1.221  1.00  0.00     0.060 C   
BRANCH   8   9
ATOM     9   C5  UNL     1      -2.137  -1.781  -1.950  1.00  0.00    -0.007 A   
ATOM     10  C2  UNL     1      -2.129  -1.222  -3.218  1.00  0.00     0.044 A   
ATOM     11  N1  UNL     1      -1.004  -0.701  -3.760  1.00  0.00    -0.241 NA  
ATOM     12  C3  UNL     1       0.115  -0.736  -3.025  1.00  0.00     0.221 A   
ATOM     13  C4  UNL     1      -0.911  -1.775  -1.295  1.00  0.00     0.118 A   
ATOM     14  N2  UNL     1       0.213  -1.190  -1.765  1.00  0.00    -0.245 NA  
ATOM     15  C1  UNL     1      -3.361  -1.147  -4.071  1.00  0.00     0.067 C   
ENDBRANCH   8   9
ENDBRANCH   7   8
ENDBRANCH   1   7
BRANCH   3  16
ATOM     16  C10 UNL     1      -0.214   1.649   0.878  1.00  0.00     0.117 C   
BRANCH  16  17
ATOM     17  N4  UNL     1       0.958   0.789   0.449  1.00  0.00     0.249 N   
ATOM     18  H12 UNL     1       0.697   0.232  -0.386  1.00  0.00     0.199 HD  
ATOM     19  H13 UNL     1       1.745   1.378   0.160  1.00  0.00     0.199 HD  
BRANCH  17  20
ATOM     20  C11 UNL     1       1.462  -0.176   1.469  1.00  0.00     0.164 C   
BRANCH  20  21
ATOM     21  C12 UNL     1       2.838  -0.659   1.097  1.00  0.00    -0.002 A   
ATOM     22  C13 UNL     1       3.985   0.048   1.536  1.00  0.00     0.012 A   
ATOM     23  C17 UNL     1       2.994  -1.776   0.259  1.00  0.00     0.045 A   
ATOM     24  C14 UNL     1       5.268  -0.358   1.155  1.00  0.00     0.037 A   
ATOM     25  C16 UNL     1       4.273  -2.147  -0.100  1.00  0.00     0.109 A   
ATOM     26  C15 UNL     1       5.378  -1.459   0.335  1.00  0.00     0.108 A   
ATOM     27  O1  UNL     1       4.596  -3.193  -0.905  1.00  0.00    -0.316 OA  
ATOM     28  O2  UNL     1       6.537  -1.987  -0.138  1.00  0.00    -0.316 OA  
ATOM     29  C18 UNL     1       6.038  -3.096  -0.915  1.00  0.00     0.337 C   
ENDBRANCH  20  21
ENDBRANCH  17  20
ENDBRANCH  16  17
BRANCH  16  30
ATOM     30  C19 UNL     1      -0.178   2.965   0.058  1.00  0.00     0.037 C   
ATOM     31  C20 UNL     1      -1.275   3.946   0.483  1.00  0.00     0.014 C   
ATOM     32  C21 UNL     1      -0.166   2.797  -1.465  1.00  0.00     0.014 C   
ENDBRANCH  16  30
ENDBRANCH   3  16
TORSDOF 8
