REMARK SMILES COc1ccnc(CCn2cc([C@@H]([NH2+]Cc3ccc4c(c3)OCO4)C(C)(C)C)nn2)c1
REMARK SMILES IDX 10 1 11 2 12 3 29 4 30 5 9 7 8 8 7 9 3 10 4 11 31 12 5 13
REMARK SMILES IDX 6 14 2 15 1 16 13 17 14 18 15 21 16 22 17 23 21 24 18 25
REMARK SMILES IDX 20 26 19 27 22 28 24 29 23 30 25 31 26 32 27 33 28 34
REMARK H PARENT 11 6 14 19 14 20
ROOT
ATOM     1   N2  UNL     1      -2.706   2.998   0.817  1.00  0.00    -0.212 N   
ATOM     2   C8  UNL     1      -1.914   2.479   1.803  1.00  0.00     0.045 A   
ATOM     3   C9  UNL     1      -0.657   2.474   1.242  1.00  0.00     0.127 A   
ATOM     4   N4  UNL     1      -0.720   3.024  -0.014  1.00  0.00    -0.132 NA  
ATOM     5   N5  UNL     1      -1.976   3.351  -0.257  1.00  0.00    -0.076 NA  
ATOM     6   H10 UNL     1      -2.321   2.094   2.728  1.00  0.00     0.083 HD  
ENDROOT
BRANCH   1   7
ATOM     7   C7  UNL     1      -4.155   3.015   0.757  1.00  0.00     0.140 C   
BRANCH   7   8
ATOM     8   C6  UNL     1      -4.704   2.045  -0.295  1.00  0.00     0.077 C   
BRANCH   8   9
ATOM     9   C5  UNL     1      -4.250   0.617  -0.087  1.00  0.00     0.045 A   
ATOM     10  C2  UNL     1      -3.496  -1.498  -0.958  1.00  0.00     0.078 A   
ATOM     11  C3  UNL     1      -3.507  -1.993   0.343  1.00  0.00     0.053 A   
ATOM     12  C23 UNL     1      -3.878  -0.176  -1.181  1.00  0.00     0.057 A   
ATOM     13  C4  UNL     1      -3.901  -1.146   1.370  1.00  0.00     0.114 A   
ATOM     14  N1  UNL     1      -4.251   0.147   1.187  1.00  0.00    -0.261 NA  
BRANCH  10  15
ATOM     15  O1  UNL     1      -3.087  -2.392  -1.915  1.00  0.00    -0.349 OA  
ATOM     16  C1  UNL     1      -3.382  -2.057  -3.270  1.00  0.00     0.203 C   
ENDBRANCH  10  15
ENDBRANCH   8   9
ENDBRANCH   7   8
ENDBRANCH   1   7
BRANCH   3  17
ATOM     17  C10 UNL     1       0.616   1.833   1.701  1.00  0.00     0.120 C   
BRANCH  17  18
ATOM     18  N3  UNL     1       1.169   1.029   0.547  1.00  0.00     0.250 N   
ATOM     19  H12 UNL     1       2.155   0.788   0.668  1.00  0.00     0.199 HD  
ATOM     20  H13 UNL     1       1.119   1.642  -0.281  1.00  0.00     0.199 HD  
BRANCH  18  21
ATOM     21  C11 UNL     1       0.404  -0.212   0.222  1.00  0.00     0.164 C   
BRANCH  21  22
ATOM     22  C12 UNL     1       0.945  -0.853  -1.024  1.00  0.00    -0.002 A   
ATOM     23  C13 UNL     1       1.858  -1.936  -0.947  1.00  0.00     0.012 A   
ATOM     24  C17 UNL     1       0.575  -0.338  -2.281  1.00  0.00     0.045 A   
ATOM     25  C14 UNL     1       2.399  -2.499  -2.107  1.00  0.00     0.037 A   
ATOM     26  C16 UNL     1       1.125  -0.920  -3.403  1.00  0.00     0.109 A   
ATOM     27  C15 UNL     1       2.014  -1.968  -3.320  1.00  0.00     0.108 A   
ATOM     28  O2  UNL     1       0.882  -0.547  -4.686  1.00  0.00    -0.316 OA  
ATOM     29  O3  UNL     1       2.443  -2.385  -4.542  1.00  0.00    -0.316 OA  
ATOM     30  C18 UNL     1       1.692  -1.507  -5.409  1.00  0.00     0.337 C   
ENDBRANCH  21  22
ENDBRANCH  18  21
ENDBRANCH  17  18
BRANCH  17  31
ATOM     31  C19 UNL     1       1.689   2.833   2.248  1.00  0.00     0.010 C   
ATOM     32  C20 UNL     1       2.911   2.059   2.794  1.00  0.00     0.017 C   
ATOM     33  C21 UNL     1       2.188   3.829   1.181  1.00  0.00     0.017 C   
ATOM     34  C22 UNL     1       1.097   3.641   3.427  1.00  0.00     0.017 C   
ENDBRANCH  17  31
ENDBRANCH   3  17
TORSDOF 9
