REMARK SMILES CC(C)[C@H]([NH2+]Cc1ccc2c(c1)OCO2)c1cn(Cc2cccc3cn[nH]c23)nn1
REMARK SMILES IDX 16 1 17 2 18 3 29 4 30 5 4 7 2 8 1 9 3 10 5 11 6 14 7 15
REMARK SMILES IDX 8 16 12 17 9 18 11 19 10 20 13 21 15 22 14 23 19 24 20 25
REMARK SMILES IDX 21 26 28 27 22 28 24 29 27 30 23 31 25 32 26 33
REMARK H PARENT 17 6 5 12 5 13 27 34
ROOT
ATOM     1   C13 UNL     1       1.319  -0.569   1.180  1.00  0.00     0.127 A   
ATOM     2   C14 UNL     1       1.938  -0.660  -0.051  1.00  0.00     0.046 A   
ATOM     3   N2  UNL     1       2.728  -1.781   0.059  1.00  0.00    -0.208 N   
ATOM     4   N5  UNL     1       2.736  -2.224   1.335  1.00  0.00    -0.076 NA  
ATOM     5   N6  UNL     1       1.856  -1.511   2.021  1.00  0.00    -0.132 NA  
ATOM     6   H18 UNL     1       1.762  -0.177  -1.002  1.00  0.00     0.083 HD  
ENDROOT
BRANCH   1   7
ATOM     7   C4  UNL     1       0.097   0.198   1.592  1.00  0.00     0.117 C   
BRANCH   7   8
ATOM     8   C2  UNL     1       0.360   1.297   2.655  1.00  0.00     0.037 C   
ATOM     9   C1  UNL     1       1.323   2.366   2.118  1.00  0.00     0.014 C   
ATOM     10  C3  UNL     1       0.860   0.782   4.009  1.00  0.00     0.014 C   
ENDBRANCH   7   8
BRANCH   7  11
ATOM     11  N1  UNL     1      -0.945  -0.797   2.063  1.00  0.00     0.249 N   
ATOM     12  H9  UNL     1      -1.014  -1.564   1.365  1.00  0.00     0.199 HD  
ATOM     13  H10 UNL     1      -0.582  -1.282   2.890  1.00  0.00     0.199 HD  
BRANCH  11  14
ATOM     14  C5  UNL     1      -2.329  -0.322   2.317  1.00  0.00     0.164 C   
BRANCH  14  15
ATOM     15  C6  UNL     1      -2.957   0.357   1.131  1.00  0.00    -0.002 A   
ATOM     16  C7  UNL     1      -3.308  -0.390  -0.018  1.00  0.00     0.012 A   
ATOM     17  C11 UNL     1      -3.159   1.749   1.135  1.00  0.00     0.045 A   
ATOM     18  C8  UNL     1      -3.836   0.236  -1.149  1.00  0.00     0.037 A   
ATOM     19  C10 UNL     1      -3.682   2.336   0.002  1.00  0.00     0.109 A   
ATOM     20  C9  UNL     1      -4.010   1.601  -1.107  1.00  0.00     0.108 A   
ATOM     21  O1  UNL     1      -3.918   3.663  -0.163  1.00  0.00    -0.316 OA  
ATOM     22  O2  UNL     1      -4.505   2.371  -2.112  1.00  0.00    -0.316 OA  
ATOM     23  C12 UNL     1      -4.486   3.675  -1.493  1.00  0.00     0.337 C   
ENDBRANCH  14  15
ENDBRANCH  11  14
ENDBRANCH   7  11
ENDBRANCH   1   7
BRANCH   3  24
ATOM     24  C15 UNL     1       3.075  -2.704  -1.024  1.00  0.00     0.171 C   
BRANCH  24  25
ATOM     25  C16 UNL     1       1.820  -3.319  -1.629  1.00  0.00    -0.005 A   
ATOM     26  C17 UNL     1       1.771  -3.629  -3.003  1.00  0.00     0.007 A   
ATOM     27  C22 UNL     1       0.630  -3.592  -0.919  1.00  0.00     0.061 A   
ATOM     28  C18 UNL     1       0.604  -4.107  -3.613  1.00  0.00     0.001 A   
ATOM     29  C20 UNL     1      -0.564  -3.982  -1.512  1.00  0.00     0.017 A   
ATOM     30  N4  UNL     1       0.340  -3.561   0.425  1.00  0.00    -0.238 N   
ATOM     31  C19 UNL     1      -0.582  -4.269  -2.884  1.00  0.00     0.012 A   
ATOM     32  C21 UNL     1      -1.516  -3.917  -0.464  1.00  0.00     0.141 A   
ATOM     33  N3  UNL     1      -0.986  -3.467   0.686  1.00  0.00    -0.192 NA  
ATOM     34  H25 UNL     1       1.007  -3.436   1.187  1.00  0.00     0.176 HD  
ENDBRANCH  24  25
ENDBRANCH   3  24
TORSDOF 7
