REMARK SMILES CCn1nc(C)c(CCn2cc([C@@H]([NH2+]Cc3ccc4c(c3)OCO4)C(C)(C)C)nn2)c1C
REMARK SMILES IDX 10 1 11 2 12 3 29 4 30 5 9 7 8 8 7 9 3 10 4 11 31 12 5 13
REMARK SMILES IDX 32 14 6 15 2 16 1 17 13 18 14 19 15 22 16 23 17 24 21 25
REMARK SMILES IDX 18 26 20 27 19 28 22 29 24 30 23 31 25 32 26 33 27 34 28 35
REMARK H PARENT 11 6 14 20 14 21
ROOT
ATOM     1   N3  UNL     1      -1.205  -1.070   2.490  1.00  0.00    -0.212 N   
ATOM     2   C8  UNL     1      -1.152   0.081   1.752  1.00  0.00     0.045 A   
ATOM     3   C9  UNL     1      -0.073   0.764   2.275  1.00  0.00     0.127 A   
ATOM     4   N5  UNL     1       0.476   0.017   3.284  1.00  0.00    -0.132 NA  
ATOM     5   N6  UNL     1      -0.227  -1.098   3.409  1.00  0.00    -0.076 NA  
ATOM     6   H13 UNL     1      -1.845   0.272   0.944  1.00  0.00     0.083 HD  
ENDROOT
BRANCH   1   7
ATOM     7   C7  UNL     1      -2.094  -2.201   2.318  1.00  0.00     0.139 C   
BRANCH   7   8
ATOM     8   C6  UNL     1      -1.460  -3.334   1.504  1.00  0.00     0.060 C   
BRANCH   8   9
ATOM     9   C5  UNL     1      -1.008  -2.878   0.150  1.00  0.00    -0.005 A   
ATOM     10  N1  UNL     1      -0.898  -2.183  -1.933  1.00  0.00    -0.230 N   
ATOM     11  N2  UNL     1       0.358  -2.037  -1.469  1.00  0.00    -0.186 NA  
ATOM     12  C23 UNL     1      -1.776  -2.629  -0.976  1.00  0.00     0.030 A   
ATOM     13  C3  UNL     1       0.325  -2.586  -0.251  1.00  0.00     0.060 A   
ATOM     14  C24 UNL     1      -3.231  -2.805  -1.226  1.00  0.00     0.064 C   
ATOM     15  C4  UNL     1       1.582  -2.782   0.519  1.00  0.00     0.069 C   
BRANCH  10  16
ATOM     16  C2  UNL     1      -1.178  -1.848  -3.319  1.00  0.00     0.129 C   
ATOM     17  C1  UNL     1      -1.584  -0.395  -3.489  1.00  0.00     0.027 C   
ENDBRANCH  10  16
ENDBRANCH   8   9
ENDBRANCH   7   8
ENDBRANCH   1   7
BRANCH   3  18
ATOM     18  C10 UNL     1       0.571   2.060   1.887  1.00  0.00     0.120 C   
BRANCH  18  19
ATOM     19  N4  UNL     1       1.044   2.029   0.455  1.00  0.00     0.250 N   
ATOM     20  H15 UNL     1       0.278   1.726  -0.157  1.00  0.00     0.199 HD  
ATOM     21  H16 UNL     1       1.309   2.967   0.141  1.00  0.00     0.199 HD  
BRANCH  19  22
ATOM     22  C11 UNL     1       2.208   1.129   0.189  1.00  0.00     0.164 C   
BRANCH  22  23
ATOM     23  C12 UNL     1       2.812   1.455  -1.150  1.00  0.00    -0.002 A   
ATOM     24  C13 UNL     1       3.841   2.422  -1.254  1.00  0.00     0.012 A   
ATOM     25  C17 UNL     1       2.311   0.852  -2.316  1.00  0.00     0.045 A   
ATOM     26  C14 UNL     1       4.367   2.780  -2.501  1.00  0.00     0.037 A   
ATOM     27  C16 UNL     1       2.849   1.228  -3.529  1.00  0.00     0.109 A   
ATOM     28  C15 UNL     1       3.848   2.165  -3.619  1.00  0.00     0.108 A   
ATOM     29  O1  UNL     1       2.473   0.749  -4.744  1.00  0.00    -0.316 OA  
ATOM     30  O2  UNL     1       4.229   2.392  -4.904  1.00  0.00    -0.316 OA  
ATOM     31  C18 UNL     1       3.397   1.447  -5.609  1.00  0.00     0.337 C   
ENDBRANCH  22  23
ENDBRANCH  19  22
ENDBRANCH  18  19
BRANCH  18  32
ATOM     32  C19 UNL     1      -0.295   3.342   2.159  1.00  0.00     0.010 C   
ATOM     33  C20 UNL     1       0.585   4.610   2.032  1.00  0.00     0.017 C   
ATOM     34  C21 UNL     1      -1.484   3.492   1.191  1.00  0.00     0.017 C   
ATOM     35  C22 UNL     1      -0.841   3.321   3.605  1.00  0.00     0.017 C   
ENDBRANCH  18  32
ENDBRANCH   3  18
TORSDOF 9
