REMARK SMILES O=c1oc2ccccc2cc1-n1cc([C@@H]([NH2+]Cc2ccc3c(c2)OCO3)C2CCCC2)nn1
REMARK SMILES IDX 15 1 14 2 12 3 13 4 33 5 32 6 11 7 2 8 3 9 4 10 10 11 5 12
REMARK SMILES IDX 9 13 6 14 8 15 7 16 1 17 16 18 17 21 18 22 19 23 23 24 20 25
REMARK SMILES IDX 22 26 21 27 24 28 26 29 25 30 27 31 28 32 31 33 29 34 30 35
REMARK H PARENT 16 19 16 20
ROOT
ATOM     1   C12 UNL     1       1.003   0.852  -0.994  1.00  0.00     0.117 C   
ENDROOT
BRANCH   1   2
ATOM     2   C11 UNL     1       0.327   0.999   0.334  1.00  0.00     0.127 A   
ATOM     3   N1  UNL     1      -0.331   1.517   2.396  1.00  0.00    -0.174 N   
ATOM     4   C10 UNL     1       0.648   1.762   1.429  1.00  0.00     0.135 A   
ATOM     5   N4  UNL     1      -1.186   0.591   1.833  1.00  0.00    -0.071 NA  
ATOM     6   N3  UNL     1      -0.798   0.287   0.608  1.00  0.00    -0.131 NA  
BRANCH   3   7
ATOM     7   C9  UNL     1      -0.469   2.068   3.690  1.00  0.00     0.131 A   
ATOM     8   C1  UNL     1       0.538   3.019   4.246  1.00  0.00     0.314 A   
ATOM     9   O2  UNL     1       0.324   3.537   5.518  1.00  0.00    -0.273 OA  
ATOM     10  C2  UNL     1      -0.788   3.174   6.290  1.00  0.00     0.093 A   
ATOM     11  C8  UNL     1      -1.526   1.734   4.460  1.00  0.00     0.043 A   
ATOM     12  C3  UNL     1      -0.913   3.740   7.556  1.00  0.00     0.035 A   
ATOM     13  C7  UNL     1      -1.724   2.279   5.793  1.00  0.00     0.008 A   
ATOM     14  C4  UNL     1      -2.009   3.397   8.345  1.00  0.00     0.003 A   
ATOM     15  C6  UNL     1      -2.821   1.938   6.587  1.00  0.00     0.011 A   
ATOM     16  C5  UNL     1      -2.962   2.498   7.861  1.00  0.00     0.001 A   
ATOM     17  O1  UNL     1       1.540   3.346   3.618  1.00  0.00    -0.259 OA  
ENDBRANCH   3   7
ENDBRANCH   1   2
BRANCH   1  18
ATOM     18  N2  UNL     1       0.685  -0.489  -1.595  1.00  0.00     0.249 N   
ATOM     19  H8  UNL     1       0.811  -0.501  -2.611  1.00  0.00     0.199 HD  
ATOM     20  H9  UNL     1      -0.318  -0.662  -1.431  1.00  0.00     0.199 HD  
BRANCH  18  21
ATOM     21  C13 UNL     1       1.426  -1.640  -1.008  1.00  0.00     0.164 C   
BRANCH  21  22
ATOM     22  C14 UNL     1       0.955  -2.930  -1.618  1.00  0.00    -0.002 A   
ATOM     23  C15 UNL     1      -0.171  -3.599  -1.079  1.00  0.00     0.012 A   
ATOM     24  C19 UNL     1       1.589  -3.448  -2.760  1.00  0.00     0.045 A   
ATOM     25  C16 UNL     1      -0.654  -4.775  -1.662  1.00  0.00     0.037 A   
ATOM     26  C18 UNL     1       1.086  -4.609  -3.310  1.00  0.00     0.109 A   
ATOM     27  C17 UNL     1      -0.004  -5.254  -2.778  1.00  0.00     0.108 A   
ATOM     28  O3  UNL     1       1.577  -5.239  -4.409  1.00  0.00    -0.316 OA  
ATOM     29  O4  UNL     1      -0.336  -6.372  -3.474  1.00  0.00    -0.316 OA  
ATOM     30  C20 UNL     1       0.678  -6.368  -4.503  1.00  0.00     0.337 C   
ENDBRANCH  21  22
ENDBRANCH  18  21
ENDBRANCH   1  18
BRANCH   1  31
ATOM     31  C21 UNL     1       0.611   1.992  -1.955  1.00  0.00     0.043 C   
ATOM     32  C22 UNL     1       1.418   2.045  -3.255  1.00  0.00     0.010 C   
ATOM     33  C25 UNL     1      -0.846   2.005  -2.442  1.00  0.00     0.010 C   
ATOM     34  C23 UNL     1       0.634   3.047  -4.090  1.00  0.00     0.001 C   
ATOM     35  C24 UNL     1      -0.828   2.739  -3.786  1.00  0.00     0.001 C   
ENDBRANCH   1  31
TORSDOF 6
