REMARK SMILES OC[C@H](c1cc[nH]c1)n1cc([C@@H]([NH2+]Cc2ccc3c(c2)OCO3)C2CCCC2)nn1
REMARK SMILES IDX 9 1 10 2 11 3 29 4 30 5 3 7 2 8 1 9 4 11 5 12 8 13 6 14 7 15
REMARK SMILES IDX 12 17 13 18 14 21 15 22 16 23 20 24 17 25 19 26 18 27 21 28
REMARK SMILES IDX 23 29 22 30 24 31 25 32 28 33 26 34 27 35
REMARK H PARENT 10 6 1 10 7 16 13 19 13 20
ROOT
ATOM     1   N2  UNL     1       0.156  -1.649  -1.728  1.00  0.00    -0.202 N   
ATOM     2   C7  UNL     1      -1.060  -1.041  -1.545  1.00  0.00     0.046 A   
ATOM     3   C8  UNL     1      -0.834  -0.128  -0.540  1.00  0.00     0.127 A   
ATOM     4   N4  UNL     1       0.471  -0.225  -0.130  1.00  0.00    -0.132 NA  
ATOM     5   N5  UNL     1       1.066  -1.153  -0.859  1.00  0.00    -0.075 NA  
ATOM     6   H9  UNL     1      -1.929  -1.307  -2.132  1.00  0.00     0.083 HD  
ENDROOT
BRANCH   1   7
ATOM     7   C2  UNL     1       0.489  -2.701  -2.689  1.00  0.00     0.156 C   
BRANCH   7   8
ATOM     8   C1  UNL     1       1.322  -3.832  -2.067  1.00  0.00     0.185 C   
BRANCH   8   9
ATOM     9   O1  UNL     1       0.528  -4.590  -1.148  1.00  0.00    -0.394 OA  
ATOM     10  H1  UNL     1       1.096  -5.311  -0.818  1.00  0.00     0.210 HD  
ENDBRANCH   8   9
ENDBRANCH   7   8
BRANCH   7  11
ATOM     11  C3  UNL     1       1.128  -2.099  -3.914  1.00  0.00    -0.008 A   
ATOM     12  C4  UNL     1       0.591  -2.121  -5.235  1.00  0.00     0.022 A   
ATOM     13  C6  UNL     1       2.338  -1.431  -4.003  1.00  0.00     0.077 A   
ATOM     14  C5  UNL     1       1.478  -1.472  -6.063  1.00  0.00     0.072 A   
ATOM     15  N1  UNL     1       2.540  -1.056  -5.306  1.00  0.00    -0.327 N   
ATOM     16  H7  UNL     1       3.347  -0.554  -5.656  1.00  0.00     0.152 HD  
ENDBRANCH   7  11
ENDBRANCH   1   7
BRANCH   3  17
ATOM     17  C9  UNL     1      -1.755   0.814   0.162  1.00  0.00     0.117 C   
BRANCH  17  18
ATOM     18  N3  UNL     1      -1.365   0.908   1.618  1.00  0.00     0.249 N   
ATOM     19  H11 UNL     1      -0.342   1.037   1.639  1.00  0.00     0.199 HD  
ATOM     20  H12 UNL     1      -1.771   1.735   2.066  1.00  0.00     0.199 HD  
BRANCH  18  21
ATOM     21  C10 UNL     1      -1.671  -0.296   2.439  1.00  0.00     0.164 C   
BRANCH  21  22
ATOM     22  C11 UNL     1      -1.183  -0.106   3.848  1.00  0.00    -0.002 A   
ATOM     23  C12 UNL     1      -2.053   0.386   4.850  1.00  0.00     0.012 A   
ATOM     24  C16 UNL     1       0.162  -0.366   4.164  1.00  0.00     0.045 A   
ATOM     25  C13 UNL     1      -1.594   0.607   6.152  1.00  0.00     0.037 A   
ATOM     26  C15 UNL     1       0.582  -0.136   5.458  1.00  0.00     0.109 A   
ATOM     27  C14 UNL     1      -0.271   0.336   6.424  1.00  0.00     0.108 A   
ATOM     28  O2  UNL     1       1.841  -0.333   5.928  1.00  0.00    -0.316 OA  
ATOM     29  O3  UNL     1       0.342   0.495   7.625  1.00  0.00    -0.316 OA  
ATOM     30  C17 UNL     1       1.679   0.046   7.313  1.00  0.00     0.337 C   
ENDBRANCH  21  22
ENDBRANCH  18  21
ENDBRANCH  17  18
BRANCH  17  31
ATOM     31  C18 UNL     1      -1.775   2.244  -0.411  1.00  0.00     0.043 C   
ATOM     32  C19 UNL     1      -0.443   2.997  -0.415  1.00  0.00     0.010 C   
ATOM     33  C22 UNL     1      -2.250   2.355  -1.867  1.00  0.00     0.010 C   
ATOM     34  C20 UNL     1      -0.744   4.198  -1.299  1.00  0.00     0.001 C   
ATOM     35  C21 UNL     1      -1.625   3.642  -2.413  1.00  0.00     0.001 C   
ENDBRANCH  17  31
ENDBRANCH   3  17
TORSDOF 9
