REMARK SMILES COc1cc(Cn2cc([C@@H]([NH2+]Cc3ccc4c(c3)OCO4)C3CCCCC3)nn2)cc(OC)c1
REMARK SMILES IDX 7 1 8 2 9 3 28 4 29 5 6 7 5 8 3 9 4 10 34 11 31 12 30 13
REMARK SMILES IDX 2 14 1 15 32 16 33 17 10 18 11 19 12 22 13 23 14 24 18 25
REMARK SMILES IDX 15 26 17 27 16 28 19 29 21 30 20 31 22 32 23 33 27 34 24 35
REMARK SMILES IDX 26 36 25 37
REMARK H PARENT 8 6 11 20 11 21
ROOT
ATOM     1   N1  UNL     1      -2.112  -0.928  -1.796  1.00  0.00    -0.208 N   
ATOM     2   C6  UNL     1      -1.667  -0.662  -0.530  1.00  0.00     0.046 A   
ATOM     3   C7  UNL     1      -0.738  -1.650  -0.288  1.00  0.00     0.127 A   
ATOM     4   N3  UNL     1      -0.708  -2.507  -1.359  1.00  0.00    -0.132 NA  
ATOM     5   N4  UNL     1      -1.558  -2.062  -2.270  1.00  0.00    -0.076 NA  
ATOM     6   H7  UNL     1      -2.010   0.194   0.036  1.00  0.00     0.083 HD  
ENDROOT
BRANCH   1   7
ATOM     7   C5  UNL     1      -3.044  -0.160  -2.603  1.00  0.00     0.169 C   
BRANCH   7   8
ATOM     8   C4  UNL     1      -2.386   1.090  -3.128  1.00  0.00    -0.023 A   
ATOM     9   C2  UNL     1      -1.974   3.484  -2.960  1.00  0.00     0.077 A   
ATOM     10  C3  UNL     1      -2.608   2.327  -2.505  1.00  0.00     0.039 A   
ATOM     11  C26 UNL     1      -1.107   3.404  -4.048  1.00  0.00     0.066 A   
ATOM     12  C24 UNL     1      -0.875   2.181  -4.687  1.00  0.00     0.077 A   
ATOM     13  C23 UNL     1      -1.511   1.028  -4.225  1.00  0.00     0.039 A   
BRANCH   9  14
ATOM     14  O1  UNL     1      -2.278   4.614  -2.251  1.00  0.00    -0.349 OA  
ATOM     15  C1  UNL     1      -1.751   5.840  -2.744  1.00  0.00     0.203 C   
ENDBRANCH   9  14
BRANCH  12  16
ATOM     16  O4  UNL     1       0.002   2.246  -5.735  1.00  0.00    -0.349 OA  
ATOM     17  C25 UNL     1       0.164   1.071  -6.520  1.00  0.00     0.203 C   
ENDBRANCH  12  16
ENDBRANCH   7   8
ENDBRANCH   1   7
BRANCH   3  18
ATOM     18  C8  UNL     1       0.135  -1.924   0.899  1.00  0.00     0.117 C   
BRANCH  18  19
ATOM     19  N2  UNL     1       0.393  -3.416   0.940  1.00  0.00     0.249 N   
ATOM     20  H9  UNL     1       0.886  -3.671   0.074  1.00  0.00     0.199 HD  
ATOM     21  H10 UNL     1      -0.525  -3.865   0.827  1.00  0.00     0.199 HD  
BRANCH  19  22
ATOM     22  C9  UNL     1       1.062  -4.007   2.124  1.00  0.00     0.164 C   
BRANCH  22  23
ATOM     23  C10 UNL     1       0.292  -3.803   3.399  1.00  0.00    -0.002 A   
ATOM     24  C11 UNL     1      -0.892  -4.539   3.644  1.00  0.00     0.012 A   
ATOM     25  C15 UNL     1       0.721  -2.851   4.340  1.00  0.00     0.045 A   
ATOM     26  C12 UNL     1      -1.644  -4.327   4.806  1.00  0.00     0.037 A   
ATOM     27  C14 UNL     1      -0.044  -2.666   5.473  1.00  0.00     0.109 A   
ATOM     28  C13 UNL     1      -1.194  -3.381   5.699  1.00  0.00     0.108 A   
ATOM     29  O2  UNL     1       0.222  -1.782   6.470  1.00  0.00    -0.316 OA  
ATOM     30  O3  UNL     1      -1.796  -3.039   6.867  1.00  0.00    -0.316 OA  
ATOM     31  C16 UNL     1      -0.877  -2.046   7.371  1.00  0.00     0.337 C   
ENDBRANCH  22  23
ENDBRANCH  19  22
ENDBRANCH  18  19
BRANCH  18  32
ATOM     32  C17 UNL     1       1.470  -1.132   0.897  1.00  0.00     0.043 C   
ATOM     33  C18 UNL     1       1.232   0.384   1.060  1.00  0.00     0.010 C   
ATOM     34  C22 UNL     1       2.366  -1.398  -0.329  1.00  0.00     0.010 C   
ATOM     35  C19 UNL     1       2.547   1.155   1.146  1.00  0.00     0.001 C   
ATOM     36  C21 UNL     1       3.676  -0.613  -0.252  1.00  0.00     0.001 C   
ATOM     37  C20 UNL     1       3.434   0.880  -0.063  1.00  0.00     0.000 C   
ENDBRANCH  18  32
ENDBRANCH   3  18
TORSDOF 9
