REMARK SMILES Cc1cc(F)ccc1Cn1cc([C@@H]([NH2+]Cc2ccc3c(c2)OCO3)C2CCCCC2)nn1
REMARK SMILES IDX 10 1 11 2 12 3 31 4 32 5 9 7 8 8 2 9 3 10 4 11 7 12 6 13
REMARK SMILES IDX 1 14 5 15 13 16 14 17 15 20 16 21 17 22 21 23 18 24 20 25
REMARK SMILES IDX 19 26 22 27 24 28 23 29 25 30 26 31 30 32 27 33 29 34 28 35
REMARK H PARENT 11 6 14 18 14 19
ROOT
ATOM     1   N1  UNL     1      -2.514   1.489  -0.028  1.00  0.00    -0.208 N   
ATOM     2   C9  UNL     1      -1.234   1.423   0.453  1.00  0.00     0.046 A   
ATOM     3   C10 UNL     1      -0.914   0.086   0.366  1.00  0.00     0.127 A   
ATOM     4   N3  UNL     1      -2.008  -0.608  -0.088  1.00  0.00    -0.132 NA  
ATOM     5   N4  UNL     1      -2.984   0.257  -0.307  1.00  0.00    -0.076 NA  
ATOM     6   H9  UNL     1      -0.682   2.302   0.754  1.00  0.00     0.083 HD  
ENDROOT
BRANCH   1   7
ATOM     7   C8  UNL     1      -3.335   2.669  -0.255  1.00  0.00     0.169 C   
BRANCH   7   8
ATOM     8   C7  UNL     1      -2.821   3.466  -1.435  1.00  0.00    -0.025 A   
ATOM     9   C2  UNL     1      -2.187   4.721  -1.292  1.00  0.00    -0.043 A   
ATOM     10  C3  UNL     1      -1.714   5.383  -2.438  1.00  0.00     0.043 A   
ATOM     11  C4  UNL     1      -1.872   4.815  -3.697  1.00  0.00     0.123 A   
ATOM     12  C6  UNL     1      -2.973   2.918  -2.727  1.00  0.00     0.009 A   
ATOM     13  C5  UNL     1      -2.499   3.590  -3.853  1.00  0.00     0.039 A   
ATOM     14  C1  UNL     1      -1.998   5.382   0.047  1.00  0.00     0.045 C   
ATOM     15  F1  UNL     1      -1.406   5.461  -4.774  1.00  0.00    -0.207 F   
ENDBRANCH   7   8
ENDBRANCH   1   7
BRANCH   3  16
ATOM     16  C11 UNL     1       0.337  -0.659   0.703  1.00  0.00     0.117 C   
BRANCH  16  17
ATOM     17  N2  UNL     1      -0.005  -2.087   1.075  1.00  0.00     0.249 N   
ATOM     18  H11 UNL     1      -0.696  -2.401   0.378  1.00  0.00     0.199 HD  
ATOM     19  H12 UNL     1       0.816  -2.692   0.983  1.00  0.00     0.199 HD  
BRANCH  17  20
ATOM     20  C12 UNL     1      -0.618  -2.288   2.419  1.00  0.00     0.164 C   
BRANCH  20  21
ATOM     21  C13 UNL     1       0.394  -2.208   3.527  1.00  0.00    -0.002 A   
ATOM     22  C14 UNL     1       1.284  -3.285   3.759  1.00  0.00     0.012 A   
ATOM     23  C18 UNL     1       0.484  -1.053   4.325  1.00  0.00     0.045 A   
ATOM     24  C15 UNL     1       2.246  -3.217   4.772  1.00  0.00     0.037 A   
ATOM     25  C17 UNL     1       1.444  -1.018   5.314  1.00  0.00     0.109 A   
ATOM     26  C16 UNL     1       2.299  -2.071   5.534  1.00  0.00     0.108 A   
ATOM     27  O1  UNL     1       1.667   0.017   6.166  1.00  0.00    -0.316 OA  
ATOM     28  O2  UNL     1       3.160  -1.833   6.557  1.00  0.00    -0.316 OA  
ATOM     29  C19 UNL     1       2.718  -0.529   6.994  1.00  0.00     0.337 C   
ENDBRANCH  20  21
ENDBRANCH  17  20
ENDBRANCH  16  17
BRANCH  16  30
ATOM     30  C20 UNL     1       1.387  -0.694  -0.441  1.00  0.00     0.043 C   
ATOM     31  C21 UNL     1       0.883  -1.352  -1.741  1.00  0.00     0.010 C   
ATOM     32  C25 UNL     1       1.950   0.709  -0.741  1.00  0.00     0.010 C   
ATOM     33  C22 UNL     1       1.971  -1.386  -2.815  1.00  0.00     0.001 C   
ATOM     34  C24 UNL     1       3.041   0.663  -1.809  1.00  0.00     0.001 C   
ATOM     35  C23 UNL     1       2.541   0.001  -3.088  1.00  0.00     0.000 C   
ENDBRANCH  16  30
ENDBRANCH   3  16
TORSDOF 7
