REMARK SMILES NCc1cc(N)cc(Cn2cc([C@@H]([NH2+]Cc3ccc4c(c3)OCO4)C3CCCC3)nn2)c1
REMARK SMILES IDX 10 1 11 2 12 3 30 4 31 5 9 7 8 8 3 9 4 10 32 11 5 12 7 13
REMARK SMILES IDX 2 14 1 15 6 18 13 21 14 22 15 25 16 26 17 27 21 28 18 29
REMARK SMILES IDX 20 30 19 31 22 32 24 33 23 34 25 35 26 36 29 37 27 38 28 39
REMARK H PARENT 11 6 1 16 1 17 6 19 6 20 14 23 14 24
ROOT
ATOM     1   N3  UNL     1       2.072   3.291   0.605  1.00  0.00    -0.208 N   
ATOM     2   C8  UNL     1       2.729   2.085   0.498  1.00  0.00     0.046 A   
ATOM     3   C9  UNL     1       2.165   1.323   1.500  1.00  0.00     0.127 A   
ATOM     4   N5  UNL     1       1.403   2.135   2.297  1.00  0.00    -0.132 NA  
ATOM     5   N6  UNL     1       1.373   3.344   1.754  1.00  0.00    -0.076 NA  
ATOM     6   H11 UNL     1       3.340   1.851  -0.360  1.00  0.00     0.083 HD  
ENDROOT
BRANCH   1   7
ATOM     7   C7  UNL     1       1.686   4.139  -0.524  1.00  0.00     0.169 C   
BRANCH   7   8
ATOM     8   C6  UNL     1       0.490   3.481  -1.195  1.00  0.00    -0.026 A   
ATOM     9   C2  UNL     1      -0.404   1.521  -2.332  1.00  0.00    -0.032 A   
ATOM     10  C3  UNL     1      -1.696   1.913  -1.951  1.00  0.00     0.028 A   
ATOM     11  C24 UNL     1       0.677   2.342  -1.996  1.00  0.00     0.010 A   
ATOM     12  C4  UNL     1      -1.918   3.101  -1.246  1.00  0.00     0.024 A   
ATOM     13  C5  UNL     1      -0.814   3.850  -0.829  1.00  0.00     0.028 A   
BRANCH   9  14
ATOM     14  C1  UNL     1      -0.167   0.175  -2.963  1.00  0.00     0.113 C   
BRANCH  14  15
ATOM     15  N1  UNL     1      -0.067  -0.856  -1.914  1.00  0.00    -0.327 NA  
ATOM     16  H1  UNL     1      -1.023  -0.965  -1.548  1.00  0.00     0.119 HD  
ATOM     17  H2  UNL     1       0.085  -1.740  -2.415  1.00  0.00     0.119 HD  
ENDBRANCH  14  15
ENDBRANCH   9  14
BRANCH  12  18
ATOM     18  N2  UNL     1      -3.188   3.370  -0.723  1.00  0.00    -0.358 N   
ATOM     19  H6  UNL     1      -3.348   4.351  -0.509  1.00  0.00     0.143 HD  
ATOM     20  H7  UNL     1      -3.950   2.981  -1.272  1.00  0.00     0.143 HD  
ENDBRANCH  12  18
ENDBRANCH   7   8
ENDBRANCH   1   7
BRANCH   3  21
ATOM     21  C10 UNL     1       2.100  -0.158   1.688  1.00  0.00     0.117 C   
BRANCH  21  22
ATOM     22  N4  UNL     1       0.855  -0.701   1.025  1.00  0.00     0.249 N   
ATOM     23  H13 UNL     1       1.001  -1.642   0.650  1.00  0.00     0.199 HD  
ATOM     24  H14 UNL     1       0.627  -0.144   0.178  1.00  0.00     0.199 HD  
BRANCH  22  25
ATOM     25  C11 UNL     1      -0.354  -0.701   1.903  1.00  0.00     0.164 C   
BRANCH  25  26
ATOM     26  C12 UNL     1      -1.565  -1.231   1.181  1.00  0.00    -0.002 A   
ATOM     27  C13 UNL     1      -1.653  -2.606   0.841  1.00  0.00     0.012 A   
ATOM     28  C17 UNL     1      -2.605  -0.356   0.815  1.00  0.00     0.045 A   
ATOM     29  C14 UNL     1      -2.757  -3.104   0.139  1.00  0.00     0.037 A   
ATOM     30  C16 UNL     1      -3.686  -0.883   0.136  1.00  0.00     0.109 A   
ATOM     31  C15 UNL     1      -3.757  -2.216  -0.195  1.00  0.00     0.108 A   
ATOM     32  O1  UNL     1      -4.778  -0.188  -0.284  1.00  0.00    -0.316 OA  
ATOM     33  O2  UNL     1      -4.896  -2.523  -0.871  1.00  0.00    -0.316 OA  
ATOM     34  C18 UNL     1      -5.580  -1.251  -0.850  1.00  0.00     0.337 C   
ENDBRANCH  25  26
ENDBRANCH  22  25
ENDBRANCH  21  22
BRANCH  21  35
ATOM     35  C19 UNL     1       3.352  -0.924   1.215  1.00  0.00     0.043 C   
ATOM     36  C20 UNL     1       3.569  -1.055  -0.304  1.00  0.00     0.010 C   
ATOM     37  C23 UNL     1       3.408  -2.367   1.737  1.00  0.00     0.010 C   
ATOM     38  C21 UNL     1       4.034  -2.489  -0.554  1.00  0.00     0.001 C   
ATOM     39  C22 UNL     1       4.412  -3.036   0.813  1.00  0.00     0.001 C   
ENDBRANCH  21  35
ENDBRANCH   3  21
TORSDOF 10
