REMARK SMILES Cc1c(CCn2cc([C@@H]([NH2+]Cc3ccc4c(c3)OCO4)C3CCCC3)nn2)cnn1C
REMARK SMILES IDX 6 1 7 2 8 3 26 4 27 5 5 7 4 8 3 9 2 10 30 11 28 12 29 13
REMARK SMILES IDX 1 14 31 15 9 16 10 17 11 20 12 21 13 22 17 23 14 24 16 25
REMARK SMILES IDX 15 26 18 27 20 28 19 29 21 30 22 31 25 32 23 33 24 34
REMARK H PARENT 7 6 10 18 10 19
ROOT
ATOM     1   N1  UNL     1       1.007   2.076  -3.826  1.00  0.00    -0.212 N   
ATOM     2   C6  UNL     1       0.386   0.958  -3.332  1.00  0.00     0.045 A   
ATOM     3   C7  UNL     1       1.360   0.352  -2.567  1.00  0.00     0.127 A   
ATOM     4   N3  UNL     1       2.549   1.009  -2.764  1.00  0.00    -0.132 NA  
ATOM     5   N4  UNL     1       2.322   2.056  -3.545  1.00  0.00    -0.076 NA  
ATOM     6   H8  UNL     1      -0.678   0.806  -3.439  1.00  0.00     0.083 HD  
ENDROOT
BRANCH   1   7
ATOM     7   C5  UNL     1       0.354   3.309  -4.231  1.00  0.00     0.139 C   
BRANCH   7   8
ATOM     8   C4  UNL     1       0.283   4.341  -3.089  1.00  0.00     0.060 C   
BRANCH   8   9
ATOM     9   C3  UNL     1      -0.169   3.741  -1.791  1.00  0.00    -0.008 A   
ATOM     10  C2  UNL     1      -1.445   3.487  -1.322  1.00  0.00     0.029 A   
ATOM     11  N6  UNL     1      -1.276   2.846  -0.116  1.00  0.00    -0.233 N   
ATOM     12  C22 UNL     1       0.681   3.210  -0.792  1.00  0.00     0.136 A   
ATOM     13  N5  UNL     1       0.013   2.492   0.117  1.00  0.00    -0.190 NA  
ATOM     14  C1  UNL     1      -2.779   3.813  -1.888  1.00  0.00     0.064 C   
ATOM     15  C23 UNL     1      -2.303   2.475   0.834  1.00  0.00     0.159 C   
ENDBRANCH   8   9
ENDBRANCH   7   8
ENDBRANCH   1   7
BRANCH   3  16
ATOM     16  C8  UNL     1       1.280  -0.728  -1.535  1.00  0.00     0.117 C   
BRANCH  16  17
ATOM     17  N2  UNL     1       1.324  -0.152  -0.140  1.00  0.00     0.249 N   
ATOM     18  H10 UNL     1       0.764   0.727  -0.100  1.00  0.00     0.199 HD  
ATOM     19  H11 UNL     1       0.882  -0.775   0.540  1.00  0.00     0.199 HD  
BRANCH  17  20
ATOM     20  C9  UNL     1       2.685   0.197   0.360  1.00  0.00     0.164 C   
BRANCH  20  21
ATOM     21  C10 UNL     1       2.700   0.265   1.864  1.00  0.00    -0.002 A   
ATOM     22  C11 UNL     1       3.038  -0.882   2.624  1.00  0.00     0.012 A   
ATOM     23  C15 UNL     1       2.330   1.447   2.527  1.00  0.00     0.045 A   
ATOM     24  C12 UNL     1       3.020  -0.849   4.022  1.00  0.00     0.037 A   
ATOM     25  C14 UNL     1       2.320   1.445   3.906  1.00  0.00     0.109 A   
ATOM     26  C13 UNL     1       2.657   0.330   4.633  1.00  0.00     0.108 A   
ATOM     27  O1  UNL     1       1.988   2.499   4.697  1.00  0.00    -0.316 OA  
ATOM     28  O2  UNL     1       2.582   0.542   5.972  1.00  0.00    -0.316 OA  
ATOM     29  C16 UNL     1       2.188   1.930   6.011  1.00  0.00     0.337 C   
ENDBRANCH  20  21
ENDBRANCH  17  20
ENDBRANCH  16  17
BRANCH  16  30
ATOM     30  C17 UNL     1       0.062  -1.665  -1.690  1.00  0.00     0.043 C   
ATOM     31  C18 UNL     1      -1.308  -1.103  -1.258  1.00  0.00     0.010 C   
ATOM     32  C21 UNL     1       0.207  -2.984  -0.913  1.00  0.00     0.010 C   
ATOM     33  C19 UNL     1      -1.978  -2.194  -0.424  1.00  0.00     0.001 C   
ATOM     34  C20 UNL     1      -1.226  -3.468  -0.767  1.00  0.00     0.001 C   
ENDBRANCH  16  30
ENDBRANCH   3  16
TORSDOF 8
