REMARK SMILES COc1ccc(Cn2cc([C@H](CC(C)C)[NH2+]Cc3ccc4c(c3)OCO4)nn2)c(F)c1
REMARK SMILES IDX 8 1 9 2 10 3 27 4 28 5 7 7 6 8 3 9 4 10 31 11 5 12 29 13
REMARK SMILES IDX 30 14 2 15 1 16 11 17 12 18 13 19 14 20 15 21 16 22 17 25
REMARK SMILES IDX 18 26 19 27 23 28 20 29 22 30 21 31 24 32 26 33 25 34
REMARK H PARENT 9 6 16 23 16 24
ROOT
ATOM     1   N1  UNL     1       0.169  -1.246   1.389  1.00  0.00    -0.208 N   
ATOM     2   C7  UNL     1      -0.601  -0.836   0.335  1.00  0.00     0.046 A   
ATOM     3   C8  UNL     1      -0.260  -1.701  -0.680  1.00  0.00     0.127 A   
ATOM     4   N3  UNL     1       0.688  -2.583  -0.223  1.00  0.00    -0.132 NA  
ATOM     5   N4  UNL     1       0.939  -2.299   1.044  1.00  0.00    -0.076 NA  
ATOM     6   H8  UNL     1      -1.272   0.009   0.404  1.00  0.00     0.083 HD  
ENDROOT
BRANCH   1   7
ATOM     7   C6  UNL     1       0.205  -0.715   2.740  1.00  0.00     0.172 C   
BRANCH   7   8
ATOM     8   C5  UNL     1       1.227   0.378   2.864  1.00  0.00     0.007 A   
ATOM     9   C2  UNL     1       3.112   2.460   3.071  1.00  0.00     0.077 A   
ATOM     10  C3  UNL     1       3.492   1.130   3.279  1.00  0.00     0.034 A   
ATOM     11  C23 UNL     1       1.787   2.749   2.753  1.00  0.00     0.073 A   
ATOM     12  C4  UNL     1       2.560   0.093   3.182  1.00  0.00     0.011 A   
ATOM     13  C22 UNL     1       0.866   1.709   2.642  1.00  0.00     0.130 A   
ATOM     14  F1  UNL     1      -0.396   1.999   2.292  1.00  0.00    -0.207 F   
BRANCH   9  15
ATOM     15  O1  UNL     1       4.127   3.366   3.196  1.00  0.00    -0.349 OA  
ATOM     16  C1  UNL     1       3.781   4.743   3.076  1.00  0.00     0.203 C   
ENDBRANCH   9  15
ENDBRANCH   7   8
ENDBRANCH   1   7
BRANCH   3  17
ATOM     17  C9  UNL     1      -0.674  -1.772  -2.111  1.00  0.00     0.114 C   
BRANCH  17  18
ATOM     18  C10 UNL     1      -1.673  -2.913  -2.383  1.00  0.00     0.064 C   
BRANCH  18  19
ATOM     19  C11 UNL     1      -3.026  -2.788  -1.650  1.00  0.00    -0.012 C   
ATOM     20  C12 UNL     1      -3.895  -4.009  -1.963  1.00  0.00     0.007 C   
ATOM     21  C13 UNL     1      -3.779  -1.510  -2.027  1.00  0.00     0.007 C   
ENDBRANCH  18  19
ENDBRANCH  17  18
BRANCH  17  22
ATOM     22  N2  UNL     1       0.561  -2.044  -2.954  1.00  0.00     0.249 N   
ATOM     23  H19 UNL     1       0.377  -2.786  -3.636  1.00  0.00     0.199 HD  
ATOM     24  H20 UNL     1       1.262  -2.441  -2.308  1.00  0.00     0.199 HD  
BRANCH  22  25
ATOM     25  C14 UNL     1       1.160  -0.875  -3.655  1.00  0.00     0.164 C   
BRANCH  25  26
ATOM     26  C15 UNL     1       1.523   0.279  -2.763  1.00  0.00    -0.002 A   
ATOM     27  C16 UNL     1       2.518   0.143  -1.764  1.00  0.00     0.012 A   
ATOM     28  C20 UNL     1       0.868   1.514  -2.917  1.00  0.00     0.045 A   
ATOM     29  C17 UNL     1       2.851   1.215  -0.927  1.00  0.00     0.037 A   
ATOM     30  C19 UNL     1       1.224   2.552  -2.081  1.00  0.00     0.109 A   
ATOM     31  C18 UNL     1       2.188   2.409  -1.116  1.00  0.00     0.108 A   
ATOM     32  O2  UNL     1       0.690   3.801  -2.102  1.00  0.00    -0.316 OA  
ATOM     33  O3  UNL     1       2.391   3.555  -0.415  1.00  0.00    -0.316 OA  
ATOM     34  C21 UNL     1       1.453   4.442  -1.057  1.00  0.00     0.337 C   
ENDBRANCH  25  26
ENDBRANCH  22  25
ENDBRANCH  17  22
ENDBRANCH   3  17
TORSDOF 9
