REMARK SMILES Cc1cc(Cn2cc([C@@H]([NH2+]Cc3ccc4c(c3)OCO4)C3CCCC3)nn2)ccc1F
REMARK SMILES IDX 6 1 7 2 8 3 26 4 27 5 5 7 4 8 2 9 3 10 30 11 29 12 28 13
REMARK SMILES IDX 1 14 31 15 9 16 10 17 11 20 12 21 13 22 17 23 14 24 16 25
REMARK SMILES IDX 15 26 18 27 20 28 19 29 21 30 22 31 25 32 23 33 24 34
REMARK H PARENT 7 6 10 18 10 19
ROOT
ATOM     1   N1  UNL     1      -2.788   0.137   0.831  1.00  0.00    -0.208 N   
ATOM     2   C6  UNL     1      -1.478  -0.230   0.687  1.00  0.00     0.046 A   
ATOM     3   C7  UNL     1      -1.084   0.395  -0.475  1.00  0.00     0.127 A   
ATOM     4   N3  UNL     1      -2.158   1.053  -1.018  1.00  0.00    -0.132 NA  
ATOM     5   N4  UNL     1      -3.198   0.870  -0.223  1.00  0.00    -0.076 NA  
ATOM     6   H7  UNL     1      -0.963  -0.839   1.418  1.00  0.00     0.083 HD  
ENDROOT
BRANCH   1   7
ATOM     7   C5  UNL     1      -3.698  -0.174   1.921  1.00  0.00     0.169 C   
BRANCH   7   8
ATOM     8   C4  UNL     1      -3.328   0.589   3.168  1.00  0.00    -0.028 A   
ATOM     9   C2  UNL     1      -2.355   0.646   5.406  1.00  0.00    -0.015 A   
ATOM     10  C3  UNL     1      -2.725  -0.066   4.256  1.00  0.00     0.011 A   
ATOM     11  C24 UNL     1      -2.619   2.016   5.462  1.00  0.00     0.126 A   
ATOM     12  C23 UNL     1      -3.218   2.680   4.398  1.00  0.00     0.040 A   
ATOM     13  C22 UNL     1      -3.571   1.970   3.251  1.00  0.00     0.008 A   
ATOM     14  C1  UNL     1      -1.743  -0.051   6.584  1.00  0.00     0.047 C   
ATOM     15  F1  UNL     1      -2.291   2.714   6.558  1.00  0.00    -0.207 F   
ENDBRANCH   7   8
ENDBRANCH   1   7
BRANCH   3  16
ATOM     16  C8  UNL     1       0.234   0.432  -1.180  1.00  0.00     0.117 C   
BRANCH  16  17
ATOM     17  N2  UNL     1       0.011   0.498  -2.677  1.00  0.00     0.249 N   
ATOM     18  H9  UNL     1       0.874   0.754  -3.163  1.00  0.00     0.199 HD  
ATOM     19  H10 UNL     1      -0.664   1.261  -2.829  1.00  0.00     0.199 HD  
BRANCH  17  20
ATOM     20  C9  UNL     1      -0.552  -0.728  -3.317  1.00  0.00     0.164 C   
BRANCH  20  21
ATOM     21  C10 UNL     1       0.424  -1.872  -3.332  1.00  0.00    -0.002 A   
ATOM     22  C11 UNL     1       1.518  -1.870  -4.231  1.00  0.00     0.012 A   
ATOM     23  C15 UNL     1       0.275  -2.936  -2.425  1.00  0.00     0.045 A   
ATOM     24  C12 UNL     1       2.453  -2.911  -4.225  1.00  0.00     0.037 A   
ATOM     25  C14 UNL     1       1.216  -3.944  -2.445  1.00  0.00     0.109 A   
ATOM     26  C13 UNL     1       2.275  -3.932  -3.319  1.00  0.00     0.108 A   
ATOM     27  O1  UNL     1       1.224  -5.034  -1.634  1.00  0.00    -0.316 OA  
ATOM     28  O2  UNL     1       3.081  -5.015  -3.171  1.00  0.00    -0.316 OA  
ATOM     29  C16 UNL     1       2.392  -5.732  -2.124  1.00  0.00     0.337 C   
ENDBRANCH  20  21
ENDBRANCH  17  20
ENDBRANCH  16  17
BRANCH  16  30
ATOM     30  C17 UNL     1       1.073   1.659  -0.764  1.00  0.00     0.043 C   
ATOM     31  C18 UNL     1       1.440   1.675   0.724  1.00  0.00     0.010 C   
ATOM     32  C21 UNL     1       2.453   1.732  -1.433  1.00  0.00     0.010 C   
ATOM     33  C19 UNL     1       2.544   2.718   0.802  1.00  0.00     0.001 C   
ATOM     34  C20 UNL     1       3.323   2.575  -0.500  1.00  0.00     0.001 C   
ENDBRANCH  16  30
ENDBRANCH   3  16
TORSDOF 7
