REMARK SMILES CC(C)[C@H]([NH2+]Cc1ccc2c(c1)OCO2)c1cn(CCc2ccncn2)nn1
REMARK SMILES IDX 16 1 17 2 18 3 27 4 28 5 4 7 2 8 1 9 3 10 5 11 6 14 7 15
REMARK SMILES IDX 8 16 12 17 9 18 11 19 10 20 13 21 15 22 14 23 19 24 20 25
REMARK SMILES IDX 21 26 22 27 26 28 23 29 25 30 24 31
REMARK H PARENT 17 6 5 12 5 13
ROOT
ATOM     1   C13 UNL     1       1.743  -1.144  -1.036  1.00  0.00     0.127 A   
ATOM     2   C14 UNL     1       2.076  -1.284   0.292  1.00  0.00     0.045 A   
ATOM     3   N2  UNL     1       3.299  -0.686   0.392  1.00  0.00    -0.212 N   
ATOM     4   N5  UNL     1       3.694  -0.195  -0.798  1.00  0.00    -0.076 NA  
ATOM     5   N6  UNL     1       2.754  -0.481  -1.685  1.00  0.00    -0.132 NA  
ATOM     6   H18 UNL     1       1.573  -1.718   1.146  1.00  0.00     0.083 HD  
ENDROOT
BRANCH   1   7
ATOM     7   C4  UNL     1       0.504  -1.522  -1.782  1.00  0.00     0.117 C   
BRANCH   7   8
ATOM     8   C2  UNL     1       0.673  -2.857  -2.567  1.00  0.00     0.037 C   
ATOM     9   C1  UNL     1      -0.575  -3.232  -3.378  1.00  0.00     0.014 C   
ATOM     10  C3  UNL     1       0.998  -4.025  -1.622  1.00  0.00     0.014 C   
ENDBRANCH   7   8
BRANCH   7  11
ATOM     11  N1  UNL     1       0.145  -0.419  -2.761  1.00  0.00     0.249 N   
ATOM     12  H9  UNL     1       0.964  -0.299  -3.373  1.00  0.00     0.199 HD  
ATOM     13  H10 UNL     1      -0.642  -0.701  -3.348  1.00  0.00     0.199 HD  
BRANCH  11  14
ATOM     14  C5  UNL     1      -0.170   0.920  -2.175  1.00  0.00     0.164 C   
BRANCH  14  15
ATOM     15  C6  UNL     1      -1.368   0.908  -1.268  1.00  0.00    -0.002 A   
ATOM     16  C7  UNL     1      -1.209   1.145   0.119  1.00  0.00     0.012 A   
ATOM     17  C11 UNL     1      -2.650   0.651  -1.782  1.00  0.00     0.045 A   
ATOM     18  C8  UNL     1      -2.308   1.122   0.984  1.00  0.00     0.037 A   
ATOM     19  C10 UNL     1      -3.711   0.630  -0.901  1.00  0.00     0.109 A   
ATOM     20  C9  UNL     1      -3.546   0.858   0.443  1.00  0.00     0.108 A   
ATOM     21  O1  UNL     1      -5.007   0.391  -1.232  1.00  0.00    -0.316 OA  
ATOM     22  O2  UNL     1      -4.717   0.792   1.127  1.00  0.00    -0.316 OA  
ATOM     23  C12 UNL     1      -5.649   0.526   0.057  1.00  0.00     0.337 C   
ENDBRANCH  14  15
ENDBRANCH  11  14
ENDBRANCH   7  11
ENDBRANCH   1   7
BRANCH   3  24
ATOM     24  C15 UNL     1       4.127  -0.526   1.569  1.00  0.00     0.140 C   
BRANCH  24  25
ATOM     25  C16 UNL     1       4.126   0.905   2.107  1.00  0.00     0.077 C   
BRANCH  25  26
ATOM     26  C17 UNL     1       2.776   1.375   2.597  1.00  0.00     0.045 A   
ATOM     27  C18 UNL     1       2.462   2.721   2.578  1.00  0.00     0.044 A   
ATOM     28  N4  UNL     1       1.930   0.449   3.098  1.00  0.00    -0.241 NA  
ATOM     29  C19 UNL     1       1.222   3.067   3.067  1.00  0.00     0.115 A   
ATOM     30  C20 UNL     1       0.759   0.902   3.576  1.00  0.00     0.221 A   
ATOM     31  N3  UNL     1       0.343   2.174   3.553  1.00  0.00    -0.245 NA  
ENDBRANCH  25  26
ENDBRANCH  24  25
ENDBRANCH   3  24
TORSDOF 8
