REMARK SMILES COc1ncc(F)cc1Cn1cc([C@@H]([NH2+]Cc2ccc3c(c2)OCO3)C2CCCC2)nn1
REMARK SMILES IDX 11 1 12 2 13 3 31 4 32 5 10 7 9 8 3 9 4 10 5 11 8 12 6 13
REMARK SMILES IDX 7 14 2 15 1 16 14 17 15 18 16 21 17 22 18 23 22 24 19 25
REMARK SMILES IDX 21 26 20 27 23 28 25 29 24 30 26 31 27 32 30 33 28 34 29 35
REMARK H PARENT 12 6 15 19 15 20
ROOT
ATOM     1   N2  UNL     1       0.005  -2.180   0.537  1.00  0.00    -0.208 N   
ATOM     2   C8  UNL     1      -0.365  -1.586  -0.639  1.00  0.00     0.046 A   
ATOM     3   C9  UNL     1      -0.624  -0.281  -0.285  1.00  0.00     0.127 A   
ATOM     4   N4  UNL     1      -0.463  -0.143   1.071  1.00  0.00    -0.132 NA  
ATOM     5   N5  UNL     1      -0.101  -1.315   1.565  1.00  0.00    -0.076 NA  
ATOM     6   H8  UNL     1      -0.372  -2.121  -1.579  1.00  0.00     0.083 HD  
ENDROOT
BRANCH   1   7
ATOM     7   C7  UNL     1       0.435  -3.550   0.763  1.00  0.00     0.174 C   
BRANCH   7   8
ATOM     8   C6  UNL     1       1.932  -3.656   0.722  1.00  0.00     0.024 A   
ATOM     9   C2  UNL     1       2.624  -3.805  -0.482  1.00  0.00     0.171 A   
ATOM     10  N1  UNL     1       3.970  -3.876  -0.573  1.00  0.00    -0.229 NA  
ATOM     11  C3  UNL     1       4.668  -3.804   0.586  1.00  0.00     0.153 A   
ATOM     12  C5  UNL     1       2.691  -3.574   1.899  1.00  0.00     0.050 A   
ATOM     13  C4  UNL     1       4.074  -3.653   1.824  1.00  0.00     0.142 A   
ATOM     14  F1  UNL     1       4.815  -3.576   2.936  1.00  0.00    -0.205 F   
BRANCH   9  15
ATOM     15  O1  UNL     1       1.870  -3.855  -1.640  1.00  0.00    -0.332 OA  
ATOM     16  C1  UNL     1       2.648  -4.149  -2.800  1.00  0.00     0.205 C   
ENDBRANCH   9  15
ENDBRANCH   7   8
ENDBRANCH   1   7
BRANCH   3  17
ATOM     17  C10 UNL     1      -1.051   0.902  -1.096  1.00  0.00     0.117 C   
BRANCH  17  18
ATOM     18  N3  UNL     1      -1.855   1.836  -0.223  1.00  0.00     0.249 N   
ATOM     19  H10 UNL     1      -1.351   1.902   0.676  1.00  0.00     0.199 HD  
ATOM     20  H11 UNL     1      -1.890   2.786  -0.599  1.00  0.00     0.199 HD  
BRANCH  18  21
ATOM     21  C11 UNL     1      -3.243   1.389   0.080  1.00  0.00     0.164 C   
BRANCH  21  22
ATOM     22  C12 UNL     1      -3.884   2.316   1.074  1.00  0.00    -0.002 A   
ATOM     23  C13 UNL     1      -3.809   2.032   2.459  1.00  0.00     0.012 A   
ATOM     24  C17 UNL     1      -4.504   3.502   0.641  1.00  0.00     0.045 A   
ATOM     25  C14 UNL     1      -4.357   2.909   3.402  1.00  0.00     0.037 A   
ATOM     26  C16 UNL     1      -5.027   4.347   1.598  1.00  0.00     0.109 A   
ATOM     27  C15 UNL     1      -4.958   4.059   2.939  1.00  0.00     0.108 A   
ATOM     28  O2  UNL     1      -5.644   5.534   1.351  1.00  0.00    -0.316 OA  
ATOM     29  O3  UNL     1      -5.529   5.024   3.705  1.00  0.00    -0.316 OA  
ATOM     30  C18 UNL     1      -5.967   5.958   2.695  1.00  0.00     0.337 C   
ENDBRANCH  21  22
ENDBRANCH  18  21
ENDBRANCH  17  18
BRANCH  17  31
ATOM     31  C19 UNL     1       0.154   1.680  -1.665  1.00  0.00     0.043 C   
ATOM     32  C20 UNL     1      -0.224   2.882  -2.539  1.00  0.00     0.010 C   
ATOM     33  C23 UNL     1       1.009   0.855  -2.634  1.00  0.00     0.010 C   
ATOM     34  C21 UNL     1       1.056   3.204  -3.297  1.00  0.00     0.001 C   
ATOM     35  C22 UNL     1       1.802   1.880  -3.440  1.00  0.00     0.001 C   
ENDBRANCH  17  31
ENDBRANCH   3  17
TORSDOF 8
