REMARK SMILES COc1ccccc1[C@H](CO)n1cc([C@@H]([NH2+]Cc2ccc3c(c2)OCO3)C(C)(C)C)nn1
REMARK SMILES IDX 12 1 13 2 14 3 31 4 32 5 9 7 8 8 3 9 4 10 5 11 7 12 6 13
REMARK SMILES IDX 2 14 1 15 10 16 11 17 15 19 16 20 17 23 18 24 19 25 23 26
REMARK SMILES IDX 20 27 22 28 21 29 24 30 26 31 25 32 27 33 28 34 29 35 30 36
REMARK H PARENT 13 6 11 18 16 21 16 22
ROOT
ATOM     1   N1  UNL     1       0.342   0.549   1.763  1.00  0.00    -0.202 N   
ATOM     2   C10 UNL     1       0.971  -0.223   0.821  1.00  0.00     0.046 A   
ATOM     3   C11 UNL     1       0.182  -0.099  -0.298  1.00  0.00     0.127 A   
ATOM     4   N3  UNL     1      -0.913   0.670   0.006  1.00  0.00    -0.132 NA  
ATOM     5   N4  UNL     1      -0.817   1.041   1.272  1.00  0.00    -0.075 NA  
ATOM     6   H12 UNL     1       1.893  -0.748   1.032  1.00  0.00     0.083 HD  
ENDROOT
BRANCH   1   7
ATOM     7   C8  UNL     1       0.738   0.826   3.145  1.00  0.00     0.158 C   
BRANCH   7   8
ATOM     8   C7  UNL     1       2.237   1.120   3.243  1.00  0.00     0.007 A   
ATOM     9   C2  UNL     1       2.740   2.348   2.751  1.00  0.00     0.080 A   
ATOM     10  C3  UNL     1       4.109   2.628   2.826  1.00  0.00     0.034 A   
ATOM     11  C4  UNL     1       4.989   1.702   3.387  1.00  0.00     0.003 A   
ATOM     12  C6  UNL     1       3.145   0.200   3.798  1.00  0.00     0.008 A   
ATOM     13  C5  UNL     1       4.508   0.490   3.871  1.00  0.00     0.001 A   
BRANCH   9  14
ATOM     14  O1  UNL     1       1.809   3.195   2.206  1.00  0.00    -0.349 OA  
ATOM     15  C1  UNL     1       2.246   4.492   1.817  1.00  0.00     0.203 C   
ENDBRANCH   9  14
ENDBRANCH   7   8
BRANCH   7  16
ATOM     16  C9  UNL     1       0.163  -0.247   4.094  1.00  0.00     0.186 C   
BRANCH  16  17
ATOM     17  O2  UNL     1       0.556  -1.577   3.744  1.00  0.00    -0.394 OA  
ATOM     18  H11 UNL     1       0.190  -2.167   4.429  1.00  0.00     0.210 HD  
ENDBRANCH  16  17
ENDBRANCH   7  16
ENDBRANCH   1   7
BRANCH   3  19
ATOM     19  C12 UNL     1       0.305  -0.700  -1.664  1.00  0.00     0.120 C   
BRANCH  19  20
ATOM     20  N2  UNL     1      -1.083  -0.959  -2.202  1.00  0.00     0.250 N   
ATOM     21  H14 UNL     1      -1.635  -0.112  -1.998  1.00  0.00     0.199 HD  
ATOM     22  H15 UNL     1      -1.097  -1.074  -3.218  1.00  0.00     0.199 HD  
BRANCH  20  23
ATOM     23  C13 UNL     1      -1.804  -2.105  -1.581  1.00  0.00     0.164 C   
BRANCH  23  24
ATOM     24  C14 UNL     1      -3.185  -2.225  -2.162  1.00  0.00    -0.002 A   
ATOM     25  C15 UNL     1      -3.429  -3.076  -3.265  1.00  0.00     0.012 A   
ATOM     26  C19 UNL     1      -4.231  -1.436  -1.650  1.00  0.00     0.045 A   
ATOM     27  C16 UNL     1      -4.700  -3.152  -3.846  1.00  0.00     0.037 A   
ATOM     28  C18 UNL     1      -5.471  -1.536  -2.245  1.00  0.00     0.109 A   
ATOM     29  C17 UNL     1      -5.699  -2.367  -3.313  1.00  0.00     0.108 A   
ATOM     30  O3  UNL     1      -6.583  -0.847  -1.876  1.00  0.00    -0.316 OA  
ATOM     31  O4  UNL     1      -6.983  -2.308  -3.752  1.00  0.00    -0.316 OA  
ATOM     32  C20 UNL     1      -7.549  -1.362  -2.821  1.00  0.00     0.337 C   
ENDBRANCH  23  24
ENDBRANCH  20  23
ENDBRANCH  19  20
BRANCH  19  33
ATOM     33  C21 UNL     1       1.128   0.174  -2.675  1.00  0.00     0.010 C   
ATOM     34  C22 UNL     1       0.452   1.527  -2.976  1.00  0.00     0.017 C   
ATOM     35  C23 UNL     1       1.316  -0.583  -4.011  1.00  0.00     0.017 C   
ATOM     36  C24 UNL     1       2.543   0.452  -2.117  1.00  0.00     0.017 C   
ENDBRANCH  19  33
ENDBRANCH   3  19
TORSDOF 10
