REMARK SMILES COc1ccccc1[C@@H](CO)n1cc([C@@H]([NH2+]Cc2ccc3c(c2)OCO3)C(C)(C)C)nn1
REMARK SMILES IDX 12 1 13 2 14 3 31 4 32 5 9 7 8 8 3 9 4 10 5 11 7 12 6 13
REMARK SMILES IDX 2 14 1 15 10 16 11 17 15 19 16 20 17 23 18 24 19 25 23 26
REMARK SMILES IDX 20 27 22 28 21 29 24 30 26 31 25 32 27 33 28 34 29 35 30 36
REMARK H PARENT 13 6 11 18 16 21 16 22
ROOT
ATOM     1   N1  UNL     1      -2.678   0.796  -0.371  1.00  0.00    -0.202 N   
ATOM     2   C10 UNL     1      -1.957  -0.150   0.308  1.00  0.00     0.046 A   
ATOM     3   C11 UNL     1      -1.461   0.521   1.400  1.00  0.00     0.127 A   
ATOM     4   N3  UNL     1      -1.880   1.825   1.357  1.00  0.00    -0.132 NA  
ATOM     5   N4  UNL     1      -2.634   1.979   0.281  1.00  0.00    -0.075 NA  
ATOM     6   H12 UNL     1      -1.865  -1.167  -0.050  1.00  0.00     0.083 HD  
ENDROOT
BRANCH   1   7
ATOM     7   C8  UNL     1      -3.419   0.664  -1.626  1.00  0.00     0.158 C   
BRANCH   7   8
ATOM     8   C7  UNL     1      -2.540   0.040  -2.712  1.00  0.00     0.007 A   
ATOM     9   C2  UNL     1      -1.565   0.830  -3.364  1.00  0.00     0.080 A   
ATOM     10  C3  UNL     1      -0.746   0.266  -4.348  1.00  0.00     0.034 A   
ATOM     11  C4  UNL     1      -0.885  -1.077  -4.698  1.00  0.00     0.003 A   
ATOM     12  C6  UNL     1      -2.658  -1.313  -3.079  1.00  0.00     0.008 A   
ATOM     13  C5  UNL     1      -1.838  -1.865  -4.065  1.00  0.00     0.001 A   
BRANCH   9  14
ATOM     14  O1  UNL     1      -1.469   2.134  -2.947  1.00  0.00    -0.349 OA  
ATOM     15  C1  UNL     1      -0.790   3.040  -3.810  1.00  0.00     0.203 C   
ENDBRANCH   9  14
ENDBRANCH   7   8
BRANCH   7  16
ATOM     16  C9  UNL     1      -4.804   0.030  -1.381  1.00  0.00     0.186 C   
BRANCH  16  17
ATOM     17  O2  UNL     1      -4.739  -1.251  -0.748  1.00  0.00    -0.394 OA  
ATOM     18  H11 UNL     1      -5.659  -1.559  -0.636  1.00  0.00     0.210 HD  
ENDBRANCH  16  17
ENDBRANCH   7  16
ENDBRANCH   1   7
BRANCH   3  19
ATOM     19  C12 UNL     1      -0.514   0.082   2.471  1.00  0.00     0.120 C   
BRANCH  19  20
ATOM     20  N2  UNL     1       0.515   1.177   2.678  1.00  0.00     0.250 N   
ATOM     21  H14 UNL     1      -0.022   2.048   2.799  1.00  0.00     0.199 HD  
ATOM     22  H15 UNL     1       1.053   1.024   3.533  1.00  0.00     0.199 HD  
BRANCH  20  23
ATOM     23  C13 UNL     1       1.466   1.408   1.546  1.00  0.00     0.164 C   
BRANCH  23  24
ATOM     24  C14 UNL     1       2.432   0.271   1.361  1.00  0.00    -0.002 A   
ATOM     25  C15 UNL     1       3.527   0.110   2.244  1.00  0.00     0.012 A   
ATOM     26  C19 UNL     1       2.226  -0.668   0.334  1.00  0.00     0.045 A   
ATOM     27  C16 UNL     1       4.403  -0.973   2.113  1.00  0.00     0.037 A   
ATOM     28  C18 UNL     1       3.103  -1.728   0.238  1.00  0.00     0.109 A   
ATOM     29  C17 UNL     1       4.160  -1.877   1.101  1.00  0.00     0.108 A   
ATOM     30  O3  UNL     1       3.034  -2.731  -0.677  1.00  0.00    -0.316 OA  
ATOM     31  O4  UNL     1       4.895  -2.989   0.835  1.00  0.00    -0.316 OA  
ATOM     32  C20 UNL     1       4.190  -3.517  -0.309  1.00  0.00     0.337 C   
ENDBRANCH  23  24
ENDBRANCH  20  23
ENDBRANCH  19  20
BRANCH  19  33
ATOM     33  C21 UNL     1      -1.203  -0.292   3.831  1.00  0.00     0.010 C   
ATOM     34  C22 UNL     1      -1.904   0.905   4.503  1.00  0.00     0.017 C   
ATOM     35  C23 UNL     1      -0.159  -0.858   4.822  1.00  0.00     0.017 C   
ATOM     36  C24 UNL     1      -2.254  -1.402   3.599  1.00  0.00     0.017 C   
ENDBRANCH  19  33
ENDBRANCH   3  19
TORSDOF 10
