REMARK SMILES CC(C)[C@H]([NH2+]Cc1ccc2c(c1)OCO2)c1cn([C@H](CO)c2ccc(O)cc2)nn1
REMARK SMILES IDX 16 1 17 2 18 3 29 4 30 5 4 7 2 8 1 9 3 10 5 11 6 14 7 15
REMARK SMILES IDX 8 16 12 17 9 18 11 19 10 20 13 21 15 22 14 23 19 24 20 25
REMARK SMILES IDX 21 26 22 28 23 29 28 30 24 31 27 32 25 33 26 34
REMARK H PARENT 17 6 5 12 5 13 21 27 26 35
ROOT
ATOM     1   C13 UNL     1      -1.120   0.237   1.054  1.00  0.00     0.127 A   
ATOM     2   C14 UNL     1      -0.591   1.341   0.427  1.00  0.00     0.046 A   
ATOM     3   N2  UNL     1      -0.211   2.164   1.453  1.00  0.00    -0.202 N   
ATOM     4   N3  UNL     1      -0.467   1.581   2.645  1.00  0.00    -0.075 NA  
ATOM     5   N4  UNL     1      -1.026   0.405   2.412  1.00  0.00    -0.132 NA  
ATOM     6   H18 UNL     1      -0.458   1.616  -0.611  1.00  0.00     0.083 HD  
ENDROOT
BRANCH   1   7
ATOM     7   C4  UNL     1      -1.667  -1.036   0.500  1.00  0.00     0.117 C   
BRANCH   7   8
ATOM     8   C2  UNL     1      -3.204  -1.028   0.289  1.00  0.00     0.037 C   
ATOM     9   C1  UNL     1      -3.615  -0.037  -0.807  1.00  0.00     0.014 C   
ATOM     10  C3  UNL     1      -4.017  -0.760   1.560  1.00  0.00     0.014 C   
ENDBRANCH   7   8
BRANCH   7  11
ATOM     11  N1  UNL     1      -1.316  -2.188   1.418  1.00  0.00     0.249 N   
ATOM     12  H9  UNL     1      -1.887  -3.008   1.193  1.00  0.00     0.199 HD  
ATOM     13  H10 UNL     1      -1.570  -1.883   2.368  1.00  0.00     0.199 HD  
BRANCH  11  14
ATOM     14  C5  UNL     1       0.123  -2.583   1.456  1.00  0.00     0.164 C   
BRANCH  14  15
ATOM     15  C6  UNL     1       0.578  -3.247   0.186  1.00  0.00    -0.002 A   
ATOM     16  C7  UNL     1       0.196  -4.580  -0.104  1.00  0.00     0.012 A   
ATOM     17  C11 UNL     1       1.358  -2.534  -0.742  1.00  0.00     0.045 A   
ATOM     18  C8  UNL     1       0.579  -5.192  -1.302  1.00  0.00     0.037 A   
ATOM     19  C10 UNL     1       1.716  -3.167  -1.913  1.00  0.00     0.109 A   
ATOM     20  C9  UNL     1       1.337  -4.457  -2.187  1.00  0.00     0.108 A   
ATOM     21  O1  UNL     1       2.451  -2.617  -2.914  1.00  0.00    -0.316 OA  
ATOM     22  O2  UNL     1       1.788  -4.885  -3.394  1.00  0.00    -0.316 OA  
ATOM     23  C12 UNL     1       2.514  -3.721  -3.845  1.00  0.00     0.337 C   
ENDBRANCH  14  15
ENDBRANCH  11  14
ENDBRANCH   7  11
ENDBRANCH   1   7
BRANCH   3  24
ATOM     24  C15 UNL     1       0.424   3.480   1.394  1.00  0.00     0.155 C   
BRANCH  24  25
ATOM     25  C16 UNL     1      -0.564   4.576   0.942  1.00  0.00     0.185 C   
BRANCH  25  26
ATOM     26  O3  UNL     1      -1.172   4.306  -0.321  1.00  0.00    -0.394 OA  
ATOM     27  H22 UNL     1      -1.717   5.084  -0.546  1.00  0.00     0.210 HD  
ENDBRANCH  25  26
ENDBRANCH  24  25
BRANCH  24  28
ATOM     28  C17 UNL     1       1.751   3.397   0.648  1.00  0.00    -0.023 A   
ATOM     29  C18 UNL     1       2.913   3.029   1.357  1.00  0.00     0.008 A   
ATOM     30  C22 UNL     1       1.866   3.641  -0.729  1.00  0.00     0.008 A   
ATOM     31  C19 UNL     1       4.149   2.926   0.713  1.00  0.00     0.033 A   
ATOM     32  C21 UNL     1       3.101   3.529  -1.373  1.00  0.00     0.033 A   
ATOM     33  C20 UNL     1       4.231   3.179  -0.649  1.00  0.00     0.071 A   
BRANCH  33  34
ATOM     34  O4  UNL     1       5.413   3.093  -1.320  1.00  0.00    -0.361 OA  
ATOM     35  H25 UNL     1       6.133   2.967  -0.680  1.00  0.00     0.218 HD  
ENDBRANCH  33  34
ENDBRANCH  24  28
ENDBRANCH   3  24
TORSDOF 10
