REMARK SMILES CC(C)[C@H]([NH2+]Cc1ccc2c(c1)OCO2)c1cn([C@@H](CO)c2ccc(O)cc2)nn1
REMARK SMILES IDX 16 1 17 2 18 3 29 4 30 5 4 7 2 8 1 9 3 10 5 11 6 14 7 15
REMARK SMILES IDX 8 16 12 17 9 18 11 19 10 20 13 21 15 22 14 23 19 24 20 25
REMARK SMILES IDX 21 26 22 28 23 29 28 30 24 31 27 32 25 33 26 34
REMARK H PARENT 17 6 5 12 5 13 21 27 26 35
ROOT
ATOM     1   C13 UNL     1       1.021   0.866   0.838  1.00  0.00     0.127 A   
ATOM     2   C14 UNL     1       1.555   1.956   0.187  1.00  0.00     0.046 A   
ATOM     3   N2  UNL     1       2.238   1.412  -0.870  1.00  0.00    -0.202 N   
ATOM     4   N3  UNL     1       2.107   0.067  -0.877  1.00  0.00    -0.075 NA  
ATOM     5   N4  UNL     1       1.365  -0.276   0.162  1.00  0.00    -0.132 NA  
ATOM     6   H18 UNL     1       1.525   3.022   0.368  1.00  0.00     0.083 HD  
ENDROOT
BRANCH   1   7
ATOM     7   C4  UNL     1       0.135   0.767   2.037  1.00  0.00     0.117 C   
BRANCH   7   8
ATOM     8   C2  UNL     1       0.894   0.577   3.376  1.00  0.00     0.037 C   
ATOM     9   C1  UNL     1       1.760  -0.686   3.435  1.00  0.00     0.014 C   
ATOM     10  C3  UNL     1       1.744   1.805   3.722  1.00  0.00     0.014 C   
ENDBRANCH   7   8
BRANCH   7  11
ATOM     11  N1  UNL     1      -0.829  -0.382   1.864  1.00  0.00     0.249 N   
ATOM     12  H9  UNL     1      -0.275  -1.184   1.525  1.00  0.00     0.199 HD  
ATOM     13  H10 UNL     1      -1.240  -0.669   2.757  1.00  0.00     0.199 HD  
BRANCH  11  14
ATOM     14  C5  UNL     1      -1.915  -0.152   0.870  1.00  0.00     0.164 C   
BRANCH  14  15
ATOM     15  C6  UNL     1      -2.777  -1.376   0.731  1.00  0.00    -0.002 A   
ATOM     16  C7  UNL     1      -3.991  -1.485   1.450  1.00  0.00     0.012 A   
ATOM     17  C11 UNL     1      -2.359  -2.438  -0.089  1.00  0.00     0.045 A   
ATOM     18  C8  UNL     1      -4.788  -2.630   1.342  1.00  0.00     0.037 A   
ATOM     19  C10 UNL     1      -3.169  -3.552  -0.172  1.00  0.00     0.109 A   
ATOM     20  C9  UNL     1      -4.349  -3.645   0.522  1.00  0.00     0.108 A   
ATOM     21  O1  UNL     1      -2.920  -4.657  -0.921  1.00  0.00    -0.316 OA  
ATOM     22  O2  UNL     1      -4.994  -4.820   0.296  1.00  0.00    -0.316 OA  
ATOM     23  C12 UNL     1      -4.092  -5.454  -0.636  1.00  0.00     0.337 C   
ENDBRANCH  14  15
ENDBRANCH  11  14
ENDBRANCH   7  11
ENDBRANCH   1   7
BRANCH   3  24
ATOM     24  C15 UNL     1       3.007   2.118  -1.898  1.00  0.00     0.155 C   
BRANCH  24  25
ATOM     25  C16 UNL     1       4.477   1.663  -1.917  1.00  0.00     0.185 C   
BRANCH  25  26
ATOM     26  O3  UNL     1       5.156   2.166  -0.763  1.00  0.00    -0.394 OA  
ATOM     27  H22 UNL     1       6.081   1.861  -0.820  1.00  0.00     0.210 HD  
ENDBRANCH  25  26
ENDBRANCH  24  25
BRANCH  24  28
ATOM     28  C17 UNL     1       2.307   2.018  -3.246  1.00  0.00    -0.023 A   
ATOM     29  C18 UNL     1       1.562   3.111  -3.726  1.00  0.00     0.008 A   
ATOM     30  C22 UNL     1       2.364   0.851  -4.028  1.00  0.00     0.008 A   
ATOM     31  C19 UNL     1       0.900   3.035  -4.953  1.00  0.00     0.033 A   
ATOM     32  C21 UNL     1       1.702   0.778  -5.257  1.00  0.00     0.033 A   
ATOM     33  C20 UNL     1       0.974   1.872  -5.708  1.00  0.00     0.071 A   
BRANCH  33  34
ATOM     34  O4  UNL     1       0.305   1.845  -6.894  1.00  0.00    -0.361 OA  
ATOM     35  H25 UNL     1       0.465   0.992  -7.331  1.00  0.00     0.218 HD  
ENDBRANCH  33  34
ENDBRANCH  24  28
ENDBRANCH   3  24
TORSDOF 10
