REMARK SMILES Cc1n[nH]c(C2CC2)c1Cn1cc([C@@H]([NH2+]Cc2ccc3c(c2)OCO3)C(C)(C)C)nn1
REMARK SMILES IDX 11 1 12 2 13 3 30 4 31 5 10 7 9 8 2 9 3 10 4 11 5 12 1 13
REMARK SMILES IDX 6 15 7 16 8 17 14 18 15 19 16 22 17 23 18 24 22 25 19 26
REMARK SMILES IDX 21 27 20 28 23 29 25 30 24 31 26 32 27 33 28 34 29 35
REMARK H PARENT 12 6 4 14 15 20 15 21
ROOT
ATOM     1   N3  UNL     1      -0.449  -2.153   1.536  1.00  0.00    -0.208 N   
ATOM     2   C9  UNL     1       0.647  -1.384   1.823  1.00  0.00     0.046 A   
ATOM     3   C10 UNL     1       0.202  -0.093   1.650  1.00  0.00     0.127 A   
ATOM     4   N5  UNL     1      -1.126  -0.116   1.306  1.00  0.00    -0.132 NA  
ATOM     5   N6  UNL     1      -1.512  -1.379   1.238  1.00  0.00    -0.076 NA  
ATOM     6   H12 UNL     1       1.609  -1.817   2.061  1.00  0.00     0.083 HD  
ENDROOT
BRANCH   1   7
ATOM     7   C8  UNL     1      -0.527  -3.602   1.433  1.00  0.00     0.173 C   
BRANCH   7   8
ATOM     8   C7  UNL     1       0.293  -4.069   0.282  1.00  0.00     0.013 A   
ATOM     9   C2  UNL     1       0.014  -3.903  -1.108  1.00  0.00     0.062 A   
ATOM     10  N1  UNL     1       1.006  -4.374  -1.875  1.00  0.00    -0.189 NA  
ATOM     11  N2  UNL     1       1.868  -4.916  -1.005  1.00  0.00    -0.242 N   
ATOM     12  C3  UNL     1       1.501  -4.736   0.296  1.00  0.00     0.035 A   
ATOM     13  C1  UNL     1      -1.170  -3.268  -1.744  1.00  0.00     0.069 C   
ATOM     14  H4  UNL     1       2.691  -5.386  -1.368  1.00  0.00     0.175 HD  
BRANCH  12  15
ATOM     15  C4  UNL     1       2.308  -5.185   1.536  1.00  0.00     0.036 C   
ATOM     16  C5  UNL     1       3.013  -6.515   1.522  1.00  0.00     0.010 C   
ATOM     17  C6  UNL     1       1.781  -6.329   2.361  1.00  0.00     0.010 C   
ENDBRANCH  12  15
ENDBRANCH   7   8
ENDBRANCH   1   7
BRANCH   3  18
ATOM     18  C11 UNL     1       0.937   1.213   1.666  1.00  0.00     0.120 C   
BRANCH  18  19
ATOM     19  N4  UNL     1       0.408   2.080   0.547  1.00  0.00     0.250 N   
ATOM     20  H14 UNL     1       0.701   3.057   0.638  1.00  0.00     0.199 HD  
ATOM     21  H15 UNL     1      -0.619   2.075   0.627  1.00  0.00     0.199 HD  
BRANCH  19  22
ATOM     22  C12 UNL     1       0.739   1.616  -0.833  1.00  0.00     0.164 C   
BRANCH  22  23
ATOM     23  C13 UNL     1       0.137   2.543  -1.851  1.00  0.00    -0.002 A   
ATOM     24  C14 UNL     1      -1.220   2.394  -2.230  1.00  0.00     0.012 A   
ATOM     25  C18 UNL     1       0.896   3.593  -2.391  1.00  0.00     0.045 A   
ATOM     26  C15 UNL     1      -1.810   3.275  -3.143  1.00  0.00     0.037 A   
ATOM     27  C17 UNL     1       0.286   4.439  -3.293  1.00  0.00     0.109 A   
ATOM     28  C16 UNL     1      -1.029   4.287  -3.658  1.00  0.00     0.108 A   
ATOM     29  O1  UNL     1       0.874   5.496  -3.909  1.00  0.00    -0.316 OA  
ATOM     30  O2  UNL     1      -1.433   5.229  -4.549  1.00  0.00    -0.316 OA  
ATOM     31  C19 UNL     1      -0.210   5.975  -4.736  1.00  0.00     0.337 C   
ENDBRANCH  22  23
ENDBRANCH  19  22
ENDBRANCH  18  19
BRANCH  18  32
ATOM     32  C20 UNL     1       0.863   1.975   3.034  1.00  0.00     0.010 C   
ATOM     33  C21 UNL     1       1.760   3.234   2.997  1.00  0.00     0.017 C   
ATOM     34  C22 UNL     1      -0.569   2.417   3.398  1.00  0.00     0.017 C   
ATOM     35  C23 UNL     1       1.398   1.076   4.172  1.00  0.00     0.017 C   
ENDBRANCH  18  32
ENDBRANCH   3  18
TORSDOF 8
