REMARK SMILES CC(C)(C)[C@H]([NH2+]Cc1ccc2c(c1)OCO2)c1cn(Cc2cn[nH]c2C2CCC2)nn1
REMARK SMILES IDX 17 1 18 2 19 3 30 4 31 5 5 7 2 8 1 9 3 10 4 11 6 12 7 15
REMARK SMILES IDX 8 16 9 17 13 18 10 19 12 20 11 21 14 22 16 23 15 24 20 25
REMARK SMILES IDX 21 26 22 27 25 28 23 29 24 30 26 32 27 33 29 34 28 35
REMARK H PARENT 18 6 6 13 6 14 24 31
ROOT
ATOM     1   C14 UNL     1       0.343  -0.594  -0.325  1.00  0.00     0.127 A   
ATOM     2   C15 UNL     1      -0.270   0.589   0.024  1.00  0.00     0.046 A   
ATOM     3   N2  UNL     1      -1.240   0.216   0.917  1.00  0.00    -0.208 N   
ATOM     4   N5  UNL     1      -1.216  -1.118   1.110  1.00  0.00    -0.076 NA  
ATOM     5   N6  UNL     1      -0.257  -1.624   0.353  1.00  0.00    -0.132 NA  
ATOM     6   H20 UNL     1      -0.109   1.619  -0.262  1.00  0.00     0.083 HD  
ENDROOT
BRANCH   1   7
ATOM     7   C5  UNL     1       1.519  -0.879  -1.212  1.00  0.00     0.120 C   
BRANCH   7   8
ATOM     8   C2  UNL     1       1.162  -1.032  -2.732  1.00  0.00     0.010 C   
ATOM     9   C1  UNL     1       0.452   0.240  -3.251  1.00  0.00     0.017 C   
ATOM     10  C3  UNL     1       2.450  -1.197  -3.572  1.00  0.00     0.017 C   
ATOM     11  C4  UNL     1       0.246  -2.242  -3.003  1.00  0.00     0.017 C   
ENDBRANCH   7   8
BRANCH   7  12
ATOM     12  N1  UNL     1       2.207  -2.127  -0.708  1.00  0.00     0.250 N   
ATOM     13  H11 UNL     1       2.776  -2.583  -1.425  1.00  0.00     0.199 HD  
ATOM     14  H12 UNL     1       1.459  -2.797  -0.470  1.00  0.00     0.199 HD  
BRANCH  12  15
ATOM     15  C6  UNL     1       3.035  -1.953   0.518  1.00  0.00     0.164 C   
BRANCH  15  16
ATOM     16  C7  UNL     1       3.575  -3.279   0.970  1.00  0.00    -0.002 A   
ATOM     17  C8  UNL     1       2.820  -4.091   1.849  1.00  0.00     0.012 A   
ATOM     18  C12 UNL     1       4.800  -3.753   0.472  1.00  0.00     0.045 A   
ATOM     19  C9  UNL     1       3.282  -5.352   2.240  1.00  0.00     0.037 A   
ATOM     20  C11 UNL     1       5.222  -5.005   0.871  1.00  0.00     0.109 A   
ATOM     21  C10 UNL     1       4.487  -5.781   1.732  1.00  0.00     0.108 A   
ATOM     22  O1  UNL     1       6.366  -5.615   0.468  1.00  0.00    -0.316 OA  
ATOM     23  O2  UNL     1       5.080  -6.975   1.986  1.00  0.00    -0.316 OA  
ATOM     24  C13 UNL     1       6.269  -6.871   1.176  1.00  0.00     0.337 C   
ENDBRANCH  15  16
ENDBRANCH  12  15
ENDBRANCH   7  12
ENDBRANCH   1   7
BRANCH   3  25
ATOM     25  C16 UNL     1      -2.236   1.034   1.601  1.00  0.00     0.172 C   
BRANCH  25  26
ATOM     26  C17 UNL     1      -1.701   2.375   1.961  1.00  0.00     0.010 A   
ATOM     27  C18 UNL     1      -0.716   2.664   2.936  1.00  0.00     0.138 A   
ATOM     28  C19 UNL     1      -2.028   3.619   1.454  1.00  0.00     0.034 A   
ATOM     29  N3  UNL     1      -0.420   3.960   3.001  1.00  0.00    -0.192 NA  
ATOM     30  N4  UNL     1      -1.266   4.530   2.127  1.00  0.00    -0.242 N   
ATOM     31  H24 UNL     1      -1.258   5.541   2.040  1.00  0.00     0.175 HD  
BRANCH  28  32
ATOM     32  C20 UNL     1      -3.093   3.927   0.368  1.00  0.00     0.035 C   
ATOM     33  C21 UNL     1      -3.162   5.386  -0.150  1.00  0.00     0.010 C   
ATOM     34  C23 UNL     1      -2.685   3.533  -1.075  1.00  0.00     0.010 C   
ATOM     35  C22 UNL     1      -3.446   4.789  -1.545  1.00  0.00     0.001 C   
ENDBRANCH  28  32
ENDBRANCH  25  26
ENDBRANCH   3  25
TORSDOF 8
