REMARK SMILES CC(C)[C@H]([NH2+]Cc1ccc2c(c1)OCO2)c1cn([C@@H](CO)c2ncc[nH]2)nn1
REMARK SMILES IDX 16 1 17 2 18 3 27 4 28 5 4 7 2 8 1 9 3 10 5 11 6 14 7 15
REMARK SMILES IDX 8 16 12 17 9 18 11 19 10 20 13 21 15 22 14 23 19 24 20 25
REMARK SMILES IDX 21 26 22 28 23 29 26 30 24 31 25 32
REMARK H PARENT 17 6 5 12 5 13 21 27 26 33
ROOT
ATOM     1   C13 UNL     1       0.357   1.048  -0.535  1.00  0.00     0.127 A   
ATOM     2   C14 UNL     1       1.280   0.045  -0.713  1.00  0.00     0.046 A   
ATOM     3   N2  UNL     1       2.491   0.676  -0.603  1.00  0.00    -0.199 N   
ATOM     4   N5  UNL     1       2.318   1.996  -0.380  1.00  0.00    -0.075 NA  
ATOM     5   N6  UNL     1       1.017   2.234  -0.331  1.00  0.00    -0.132 NA  
ATOM     6   H18 UNL     1       1.201  -1.022  -0.876  1.00  0.00     0.083 HD  
ENDROOT
BRANCH   1   7
ATOM     7   C4  UNL     1      -1.133   0.998  -0.451  1.00  0.00     0.117 C   
BRANCH   7   8
ATOM     8   C2  UNL     1      -1.857   1.333  -1.781  1.00  0.00     0.037 C   
ATOM     9   C1  UNL     1      -1.549   2.727  -2.339  1.00  0.00     0.014 C   
ATOM     10  C3  UNL     1      -1.575   0.274  -2.853  1.00  0.00     0.014 C   
ENDBRANCH   7   8
BRANCH   7  11
ATOM     11  N1  UNL     1      -1.623   1.953   0.617  1.00  0.00     0.249 N   
ATOM     12  H9  UNL     1      -2.634   2.088   0.532  1.00  0.00     0.199 HD  
ATOM     13  H10 UNL     1      -1.172   2.858   0.428  1.00  0.00     0.199 HD  
BRANCH  11  14
ATOM     14  C5  UNL     1      -1.293   1.585   2.028  1.00  0.00     0.164 C   
BRANCH  14  15
ATOM     15  C6  UNL     1      -2.041   0.372   2.506  1.00  0.00    -0.002 A   
ATOM     16  C7  UNL     1      -1.370  -0.864   2.668  1.00  0.00     0.012 A   
ATOM     17  C11 UNL     1      -3.420   0.451   2.769  1.00  0.00     0.045 A   
ATOM     18  C8  UNL     1      -2.061  -2.009   3.083  1.00  0.00     0.037 A   
ATOM     19  C10 UNL     1      -4.070  -0.697   3.176  1.00  0.00     0.109 A   
ATOM     20  C9  UNL     1      -3.411  -1.892   3.328  1.00  0.00     0.108 A   
ATOM     21  O1  UNL     1      -5.395  -0.792   3.465  1.00  0.00    -0.316 OA  
ATOM     22  O2  UNL     1      -4.238  -2.891   3.733  1.00  0.00    -0.316 OA  
ATOM     23  C12 UNL     1      -5.491  -2.184   3.847  1.00  0.00     0.337 C   
ENDBRANCH  14  15
ENDBRANCH  11  14
ENDBRANCH   7  11
ENDBRANCH   1   7
BRANCH   3  24
ATOM     24  C15 UNL     1       3.836   0.111  -0.650  1.00  0.00     0.189 C   
BRANCH  24  25
ATOM     25  C16 UNL     1       4.135  -0.731   0.603  1.00  0.00     0.189 C   
BRANCH  25  26
ATOM     26  O3  UNL     1       3.285  -1.875   0.730  1.00  0.00    -0.394 OA  
ATOM     27  H22 UNL     1       3.442  -2.422  -0.072  1.00  0.00     0.210 HD  
ENDBRANCH  25  26
ENDBRANCH  24  25
BRANCH  24  28
ATOM     28  C17 UNL     1       4.018  -0.679  -1.912  1.00  0.00     0.123 A   
ATOM     29  N3  UNL     1       3.757  -1.964  -2.076  1.00  0.00    -0.242 NA  
ATOM     30  N4  UNL     1       4.495  -0.126  -3.078  1.00  0.00    -0.306 N   
ATOM     31  C18 UNL     1       4.082  -2.246  -3.379  1.00  0.00     0.128 A   
ATOM     32  C19 UNL     1       4.538  -1.119  -4.017  1.00  0.00     0.093 A   
ATOM     33  H25 UNL     1       4.770   0.838  -3.220  1.00  0.00     0.154 HD  
ENDBRANCH  24  28
ENDBRANCH   3  24
TORSDOF 9
