REMARK SMILES CC(C)[C@H]([NH2+]Cc1ccc2c(c1)OCO2)c1cn([C@H](CO)c2ncc[nH]2)nn1
REMARK SMILES IDX 16 1 17 2 18 3 27 4 28 5 4 7 2 8 1 9 3 10 5 11 6 14 7 15
REMARK SMILES IDX 8 16 12 17 9 18 11 19 10 20 13 21 15 22 14 23 19 24 20 25
REMARK SMILES IDX 21 26 22 28 23 29 26 30 24 31 25 32
REMARK H PARENT 17 6 5 12 5 13 21 27 26 33
ROOT
ATOM     1   C13 UNL     1      -1.016   1.507  -0.756  1.00  0.00     0.127 A   
ATOM     2   C14 UNL     1       0.211   2.059  -1.043  1.00  0.00     0.046 A   
ATOM     3   N2  UNL     1       0.146   3.315  -0.500  1.00  0.00    -0.199 N   
ATOM     4   N5  UNL     1      -1.098   3.566  -0.045  1.00  0.00    -0.075 NA  
ATOM     5   N6  UNL     1      -1.809   2.458  -0.174  1.00  0.00    -0.132 NA  
ATOM     6   H18 UNL     1       1.127   1.655  -1.454  1.00  0.00     0.083 HD  
ENDROOT
BRANCH   1   7
ATOM     7   C4  UNL     1      -1.487   0.094  -0.842  1.00  0.00     0.117 C   
BRANCH   7   8
ATOM     8   C2  UNL     1      -2.433  -0.199  -2.033  1.00  0.00     0.037 C   
ATOM     9   C1  UNL     1      -1.708  -0.031  -3.373  1.00  0.00     0.014 C   
ATOM     10  C3  UNL     1      -3.726   0.624  -2.040  1.00  0.00     0.014 C   
ENDBRANCH   7   8
BRANCH   7  11
ATOM     11  N1  UNL     1      -2.188  -0.289   0.444  1.00  0.00     0.249 N   
ATOM     12  H9  UNL     1      -2.650  -1.198   0.338  1.00  0.00     0.199 HD  
ATOM     13  H10 UNL     1      -2.921   0.416   0.597  1.00  0.00     0.199 HD  
BRANCH  11  14
ATOM     14  C5  UNL     1      -1.342  -0.299   1.679  1.00  0.00     0.164 C   
BRANCH  14  15
ATOM     15  C6  UNL     1      -0.280  -1.362   1.663  1.00  0.00    -0.002 A   
ATOM     16  C7  UNL     1       1.074  -1.016   1.441  1.00  0.00     0.012 A   
ATOM     17  C11 UNL     1      -0.626  -2.708   1.857  1.00  0.00     0.045 A   
ATOM     18  C8  UNL     1       2.070  -1.998   1.397  1.00  0.00     0.037 A   
ATOM     19  C10 UNL     1       0.382  -3.648   1.822  1.00  0.00     0.109 A   
ATOM     20  C9  UNL     1       1.693  -3.305   1.593  1.00  0.00     0.108 A   
ATOM     21  O1  UNL     1       0.217  -4.984   2.005  1.00  0.00    -0.316 OA  
ATOM     22  O2  UNL     1       2.515  -4.387   1.589  1.00  0.00    -0.316 OA  
ATOM     23  C12 UNL     1       1.591  -5.435   1.938  1.00  0.00     0.337 C   
ENDBRANCH  14  15
ENDBRANCH  11  14
ENDBRANCH   7  11
ENDBRANCH   1   7
BRANCH   3  24
ATOM     24  C15 UNL     1       1.202   4.310  -0.338  1.00  0.00     0.189 C   
BRANCH  24  25
ATOM     25  C16 UNL     1       1.504   4.999  -1.676  1.00  0.00     0.189 C   
BRANCH  25  26
ATOM     26  O3  UNL     1       2.346   6.141  -1.470  1.00  0.00    -0.394 OA  
ATOM     27  H22 UNL     1       2.335   6.664  -2.298  1.00  0.00     0.210 HD  
ENDBRANCH  25  26
ENDBRANCH  24  25
BRANCH  24  28
ATOM     28  C17 UNL     1       2.430   3.696   0.288  1.00  0.00     0.123 A   
ATOM     29  N3  UNL     1       2.587   2.473   0.765  1.00  0.00    -0.242 NA  
ATOM     30  N4  UNL     1       3.583   4.431   0.468  1.00  0.00    -0.306 N   
ATOM     31  C18 UNL     1       3.865   2.424   1.260  1.00  0.00     0.128 A   
ATOM     32  C19 UNL     1       4.508   3.621   1.062  1.00  0.00     0.093 A   
ATOM     33  H25 UNL     1       3.712   5.394   0.169  1.00  0.00     0.154 HD  
ENDBRANCH  24  28
ENDBRANCH   3  24
TORSDOF 9
