REMARK SMILES COc1cccc(Cn2cc([C@@H]([NH2+]Cc3ccc4c(c3)OCO4)C3CCCCC3)nn2)c1
REMARK SMILES IDX 9 1 10 2 11 3 30 4 31 5 8 7 7 8 3 9 4 10 32 11 5 12 6 13
REMARK SMILES IDX 2 14 1 15 12 16 13 17 14 20 15 21 16 22 20 23 17 24 19 25
REMARK SMILES IDX 18 26 21 27 23 28 22 29 24 30 25 31 29 32 26 33 28 34 27 35
REMARK H PARENT 10 6 13 18 13 19
ROOT
ATOM     1   N1  UNL     1      -1.379   2.161  -0.557  1.00  0.00    -0.208 N   
ATOM     2   C8  UNL     1      -0.404   1.270  -0.913  1.00  0.00     0.046 A   
ATOM     3   C9  UNL     1      -1.084   0.089  -1.105  1.00  0.00     0.127 A   
ATOM     4   N3  UNL     1      -2.422   0.301  -0.889  1.00  0.00    -0.132 NA  
ATOM     5   N4  UNL     1      -2.590   1.571  -0.558  1.00  0.00    -0.076 NA  
ATOM     6   H9  UNL     1       0.644   1.537  -0.933  1.00  0.00     0.083 HD  
ENDROOT
BRANCH   1   7
ATOM     7   C7  UNL     1      -1.217   3.530  -0.090  1.00  0.00     0.169 C   
BRANCH   7   8
ATOM     8   C6  UNL     1      -0.371   3.570   1.160  1.00  0.00    -0.026 A   
ATOM     9   C2  UNL     1      -0.004   2.905   3.482  1.00  0.00     0.075 A   
ATOM     10  C3  UNL     1       1.224   3.563   3.472  1.00  0.00     0.033 A   
ATOM     11  C25 UNL     1      -0.797   2.920   2.331  1.00  0.00     0.038 A   
ATOM     12  C4  UNL     1       1.650   4.232   2.321  1.00  0.00     0.003 A   
ATOM     13  C5  UNL     1       0.859   4.237   1.172  1.00  0.00     0.005 A   
BRANCH   9  14
ATOM     14  O1  UNL     1      -0.530   2.199   4.527  1.00  0.00    -0.349 OA  
ATOM     15  C1  UNL     1       0.146   2.308   5.775  1.00  0.00     0.203 C   
ENDBRANCH   9  14
ENDBRANCH   7   8
ENDBRANCH   1   7
BRANCH   3  16
ATOM     16  C10 UNL     1      -0.581  -1.294  -1.326  1.00  0.00     0.117 C   
BRANCH  16  17
ATOM     17  N2  UNL     1      -1.369  -2.277  -0.474  1.00  0.00     0.249 N   
ATOM     18  H11 UNL     1      -1.118  -3.237  -0.722  1.00  0.00     0.199 HD  
ATOM     19  H12 UNL     1      -2.360  -2.142  -0.715  1.00  0.00     0.199 HD  
BRANCH  17  20
ATOM     20  C11 UNL     1      -1.273  -2.106   1.011  1.00  0.00     0.164 C   
BRANCH  20  21
ATOM     21  C12 UNL     1       0.130  -2.185   1.543  1.00  0.00    -0.002 A   
ATOM     22  C13 UNL     1       0.734  -1.038   2.114  1.00  0.00     0.012 A   
ATOM     23  C17 UNL     1       0.860  -3.383   1.466  1.00  0.00     0.045 A   
ATOM     24  C14 UNL     1       2.047  -1.077   2.593  1.00  0.00     0.037 A   
ATOM     25  C16 UNL     1       2.152  -3.388   1.949  1.00  0.00     0.109 A   
ATOM     26  C15 UNL     1       2.730  -2.268   2.495  1.00  0.00     0.108 A   
ATOM     27  O2  UNL     1       2.990  -4.457   1.947  1.00  0.00    -0.316 OA  
ATOM     28  O3  UNL     1       4.004  -2.492   2.908  1.00  0.00    -0.316 OA  
ATOM     29  C18 UNL     1       4.155  -3.893   2.591  1.00  0.00     0.337 C   
ENDBRANCH  20  21
ENDBRANCH  17  20
ENDBRANCH  16  17
BRANCH  16  30
ATOM     30  C19 UNL     1      -0.584  -1.806  -2.795  1.00  0.00     0.043 C   
ATOM     31  C20 UNL     1       0.465  -1.102  -3.684  1.00  0.00     0.010 C   
ATOM     32  C24 UNL     1      -1.957  -1.893  -3.491  1.00  0.00     0.010 C   
ATOM     33  C21 UNL     1      -0.024   0.159  -4.388  1.00  0.00     0.001 C   
ATOM     34  C23 UNL     1      -2.406  -0.617  -4.197  1.00  0.00     0.001 C   
ATOM     35  C22 UNL     1      -1.332  -0.077  -5.130  1.00  0.00     0.000 C   
ENDBRANCH  16  30
ENDBRANCH   3  16
TORSDOF 8
