REMARK SMILES COc1ncc(Cn2cc([C@H](CC(C)C)[NH2+]Cc3ccc4c(c3)OCO4)nn2)cc1C
REMARK SMILES IDX 8 1 9 2 10 3 27 4 28 5 7 7 6 8 3 9 4 10 30 11 5 12 29 13
REMARK SMILES IDX 31 14 2 15 1 16 11 17 12 18 13 19 14 20 15 21 16 22 17 25
REMARK SMILES IDX 18 26 19 27 23 28 20 29 22 30 21 31 24 32 26 33 25 34
REMARK H PARENT 9 6 16 23 16 24
ROOT
ATOM     1   N2  UNL     1      -1.195  -3.075  -1.655  1.00  0.00    -0.208 N   
ATOM     2   C6  UNL     1      -0.092  -2.920  -0.860  1.00  0.00     0.046 A   
ATOM     3   C7  UNL     1       0.451  -1.723  -1.274  1.00  0.00     0.127 A   
ATOM     4   N4  UNL     1      -0.279  -1.246  -2.334  1.00  0.00    -0.132 NA  
ATOM     5   N5  UNL     1      -1.279  -2.080  -2.558  1.00  0.00    -0.076 NA  
ATOM     6   H7  UNL     1       0.155  -3.619  -0.074  1.00  0.00     0.083 HD  
ENDROOT
BRANCH   1   7
ATOM     7   C5  UNL     1      -2.241  -4.080  -1.558  1.00  0.00     0.171 C   
BRANCH   7   8
ATOM     8   C4  UNL     1      -3.162  -3.764  -0.414  1.00  0.00    -0.010 A   
ATOM     9   C2  UNL     1      -4.837  -3.058   1.647  1.00  0.00     0.169 A   
ATOM     10  N1  UNL     1      -4.843  -2.297   0.529  1.00  0.00    -0.232 NA  
ATOM     11  C22 UNL     1      -4.019  -4.175   1.817  1.00  0.00    -0.001 A   
ATOM     12  C3  UNL     1      -4.020  -2.669  -0.473  1.00  0.00     0.119 A   
ATOM     13  C21 UNL     1      -3.172  -4.526   0.759  1.00  0.00     0.014 A   
ATOM     14  C23 UNL     1      -4.058  -4.984   3.079  1.00  0.00     0.049 C   
BRANCH   9  15
ATOM     15  O1  UNL     1      -5.674  -2.724   2.693  1.00  0.00    -0.332 OA  
ATOM     16  C1  UNL     1      -6.518  -1.612   2.413  1.00  0.00     0.205 C   
ENDBRANCH   9  15
ENDBRANCH   7   8
ENDBRANCH   1   7
BRANCH   3  17
ATOM     17  C8  UNL     1       1.624  -0.931  -0.789  1.00  0.00     0.114 C   
BRANCH  17  18
ATOM     18  C9  UNL     1       1.766  -0.863   0.745  1.00  0.00     0.064 C   
BRANCH  18  19
ATOM     19  C10 UNL     1       0.849   0.102   1.532  1.00  0.00    -0.012 C   
ATOM     20  C11 UNL     1       1.219   0.054   3.019  1.00  0.00     0.007 C   
ATOM     21  C12 UNL     1      -0.642  -0.196   1.373  1.00  0.00     0.007 C   
ENDBRANCH  18  19
ENDBRANCH  17  18
BRANCH  17  22
ATOM     22  N3  UNL     1       1.584   0.445  -1.389  1.00  0.00     0.249 N   
ATOM     23  H18 UNL     1       0.837   0.999  -0.953  1.00  0.00     0.199 HD  
ATOM     24  H19 UNL     1       1.241   0.328  -2.356  1.00  0.00     0.199 HD  
BRANCH  22  25
ATOM     25  C13 UNL     1       2.852   1.207  -1.423  1.00  0.00     0.164 C   
BRANCH  25  26
ATOM     26  C14 UNL     1       2.635   2.569  -2.018  1.00  0.00    -0.002 A   
ATOM     27  C15 UNL     1       2.603   2.740  -3.424  1.00  0.00     0.012 A   
ATOM     28  C19 UNL     1       2.410   3.676  -1.180  1.00  0.00     0.045 A   
ATOM     29  C16 UNL     1       2.355   3.997  -3.989  1.00  0.00     0.037 A   
ATOM     30  C18 UNL     1       2.174   4.900  -1.769  1.00  0.00     0.109 A   
ATOM     31  C17 UNL     1       2.146   5.056  -3.134  1.00  0.00     0.108 A   
ATOM     32  O2  UNL     1       1.943   6.064  -1.107  1.00  0.00    -0.316 OA  
ATOM     33  O3  UNL     1       1.891   6.338  -3.504  1.00  0.00    -0.316 OA  
ATOM     34  C20 UNL     1       1.791   6.983  -2.214  1.00  0.00     0.337 C   
ENDBRANCH  25  26
ENDBRANCH  22  25
ENDBRANCH  17  22
ENDBRANCH   3  17
TORSDOF 9
