REMARK SMILES CCOc1cccc(Cn2cc([C@@H]([NH2+]Cc3ccc4c(c3)OCO4)C3CCCC3)nn2)c1O
REMARK SMILES IDX 10 1 11 2 12 3 30 4 31 5 9 7 8 8 4 9 5 10 32 11 6 12 7 13
REMARK SMILES IDX 3 14 2 15 1 16 33 17 13 19 14 20 15 23 16 24 17 25 21 26
REMARK SMILES IDX 18 27 20 28 19 29 22 30 24 31 23 32 25 33 26 34 29 35 27 36
REMARK SMILES IDX 28 37
REMARK H PARENT 11 6 33 18 14 21 14 22
ROOT
ATOM     1   N1  UNL     1      -2.782  -1.369  -0.271  1.00  0.00    -0.208 N   
ATOM     2   C9  UNL     1      -1.558  -1.241  -0.873  1.00  0.00     0.046 A   
ATOM     3   C10 UNL     1      -0.817  -2.270  -0.340  1.00  0.00     0.127 A   
ATOM     4   N3  UNL     1      -1.611  -3.022   0.483  1.00  0.00    -0.132 NA  
ATOM     5   N4  UNL     1      -2.814  -2.471   0.506  1.00  0.00    -0.076 NA  
ATOM     6   H11 UNL     1      -1.320  -0.421  -1.538  1.00  0.00     0.083 HD  
ENDROOT
BRANCH   1   7
ATOM     7   C8  UNL     1      -3.949  -0.502  -0.366  1.00  0.00     0.172 C   
BRANCH   7   8
ATOM     8   C7  UNL     1      -3.582   0.958  -0.455  1.00  0.00     0.004 A   
ATOM     9   C3  UNL     1      -2.608   2.975   0.542  1.00  0.00     0.105 A   
ATOM     10  C4  UNL     1      -2.880   3.686  -0.624  1.00  0.00     0.036 A   
ATOM     11  C25 UNL     1      -2.967   1.622   0.612  1.00  0.00     0.106 A   
ATOM     12  C5  UNL     1      -3.502   3.044  -1.699  1.00  0.00     0.003 A   
ATOM     13  C6  UNL     1      -3.850   1.692  -1.618  1.00  0.00     0.008 A   
BRANCH   9  14
ATOM     14  O1  UNL     1      -2.003   3.463   1.671  1.00  0.00    -0.344 OA  
BRANCH  14  15
ATOM     15  C2  UNL     1      -1.630   4.842   1.660  1.00  0.00     0.164 C   
ATOM     16  C1  UNL     1      -0.973   5.154   2.992  1.00  0.00     0.035 C   
ENDBRANCH  14  15
ENDBRANCH   9  14
BRANCH  11  17
ATOM     17  O4  UNL     1      -2.695   0.929   1.765  1.00  0.00    -0.358 OA  
ATOM     18  H31 UNL     1      -2.418   1.618   2.404  1.00  0.00     0.218 HD  
ENDBRANCH  11  17
ENDBRANCH   7   8
ENDBRANCH   1   7
BRANCH   3  19
ATOM     19  C11 UNL     1       0.639  -2.571  -0.439  1.00  0.00     0.117 C   
BRANCH  19  20
ATOM     20  N2  UNL     1       1.209  -2.787   0.950  1.00  0.00     0.249 N   
ATOM     21  H13 UNL     1       2.182  -3.095   0.892  1.00  0.00     0.199 HD  
ATOM     22  H14 UNL     1       0.663  -3.555   1.366  1.00  0.00     0.199 HD  
BRANCH  20  23
ATOM     23  C12 UNL     1       1.118  -1.629   1.893  1.00  0.00     0.164 C   
BRANCH  23  24
ATOM     24  C13 UNL     1       1.836  -0.400   1.406  1.00  0.00    -0.002 A   
ATOM     25  C14 UNL     1       3.248  -0.378   1.309  1.00  0.00     0.012 A   
ATOM     26  C18 UNL     1       1.100   0.734   1.021  1.00  0.00     0.045 A   
ATOM     27  C15 UNL     1       3.916   0.752   0.824  1.00  0.00     0.037 A   
ATOM     28  C17 UNL     1       1.788   1.832   0.550  1.00  0.00     0.109 A   
ATOM     29  C16 UNL     1       3.157   1.839   0.450  1.00  0.00     0.108 A   
ATOM     30  O2  UNL     1       1.232   3.000   0.136  1.00  0.00    -0.316 OA  
ATOM     31  O3  UNL     1       3.635   3.011  -0.042  1.00  0.00    -0.316 OA  
ATOM     32  C19 UNL     1       2.412   3.757  -0.211  1.00  0.00     0.337 C   
ENDBRANCH  23  24
ENDBRANCH  20  23
ENDBRANCH  19  20
BRANCH  19  33
ATOM     33  C20 UNL     1       0.917  -3.834  -1.278  1.00  0.00     0.043 C   
ATOM     34  C21 UNL     1       2.404  -4.180  -1.421  1.00  0.00     0.010 C   
ATOM     35  C24 UNL     1       0.480  -3.699  -2.740  1.00  0.00     0.010 C   
ATOM     36  C22 UNL     1       2.511  -5.019  -2.693  1.00  0.00     0.001 C   
ATOM     37  C23 UNL     1       1.183  -4.858  -3.428  1.00  0.00     0.001 C   
ENDBRANCH  19  33
ENDBRANCH   3  19
TORSDOF 10
