REMARK SMILES Cc1cc(O)c(Cn2cc([C@@H]([NH2+]Cc3ccc4c(c3)OCO4)C3CCCC3)nn2)cc1C
REMARK SMILES IDX 8 1 9 2 10 3 28 4 29 5 7 7 6 8 2 9 3 10 31 11 4 12 30 13
REMARK SMILES IDX 1 14 32 15 5 16 11 18 12 19 13 22 14 23 15 24 19 25 16 26
REMARK SMILES IDX 18 27 17 28 20 29 22 30 21 31 23 32 24 33 27 34 25 35 26 36
REMARK H PARENT 9 6 5 17 12 20 12 21
ROOT
ATOM     1   N1  UNL     1      -2.356  -0.567   1.697  1.00  0.00    -0.208 N   
ATOM     2   C7  UNL     1      -1.097  -0.338   2.184  1.00  0.00     0.046 A   
ATOM     3   C8  UNL     1      -0.595   0.641   1.359  1.00  0.00     0.127 A   
ATOM     4   N3  UNL     1      -1.546   0.981   0.430  1.00  0.00    -0.132 NA  
ATOM     5   N4  UNL     1      -2.617   0.237   0.646  1.00  0.00    -0.076 NA  
ATOM     6   H8  UNL     1      -0.698  -0.891   3.023  1.00  0.00     0.083 HD  
ENDROOT
BRANCH   1   7
ATOM     7   C6  UNL     1      -3.351  -1.507   2.182  1.00  0.00     0.172 C   
BRANCH   7   8
ATOM     8   C5  UNL     1      -3.156  -2.864   1.560  1.00  0.00     0.002 A   
ATOM     9   C2  UNL     1      -2.797  -5.394   0.353  1.00  0.00    -0.046 A   
ATOM     10  C3  UNL     1      -2.169  -5.084   1.569  1.00  0.00     0.037 A   
ATOM     11  C24 UNL     1      -3.614  -4.429  -0.267  1.00  0.00    -0.048 A   
ATOM     12  C4  UNL     1      -2.347  -3.832   2.155  1.00  0.00     0.076 A   
ATOM     13  C23 UNL     1      -3.779  -3.174   0.341  1.00  0.00     0.011 A   
ATOM     14  C1  UNL     1      -2.598  -6.757  -0.255  1.00  0.00     0.045 C   
ATOM     15  C25 UNL     1      -4.312  -4.713  -1.571  1.00  0.00     0.044 C   
BRANCH  12  16
ATOM     16  O1  UNL     1      -1.719  -3.531   3.332  1.00  0.00    -0.361 OA  
ATOM     17  H5  UNL     1      -1.375  -4.361   3.711  1.00  0.00     0.218 HD  
ENDBRANCH  12  16
ENDBRANCH   7   8
ENDBRANCH   1   7
BRANCH   3  18
ATOM     18  C9  UNL     1       0.746   1.298   1.306  1.00  0.00     0.117 C   
BRANCH  18  19
ATOM     19  N2  UNL     1       1.046   1.722  -0.107  1.00  0.00     0.249 N   
ATOM     20  H10 UNL     1       0.171   2.118  -0.484  1.00  0.00     0.199 HD  
ATOM     21  H11 UNL     1       1.741   2.473  -0.153  1.00  0.00     0.199 HD  
BRANCH  19  22
ATOM     22  C10 UNL     1       1.447   0.620  -1.024  1.00  0.00     0.164 C   
BRANCH  22  23
ATOM     23  C11 UNL     1       1.579   1.127  -2.431  1.00  0.00    -0.002 A   
ATOM     24  C12 UNL     1       0.444   1.174  -3.275  1.00  0.00     0.012 A   
ATOM     25  C16 UNL     1       2.813   1.606  -2.901  1.00  0.00     0.045 A   
ATOM     26  C13 UNL     1       0.537   1.678  -4.577  1.00  0.00     0.037 A   
ATOM     27  C15 UNL     1       2.870   2.097  -4.189  1.00  0.00     0.109 A   
ATOM     28  C14 UNL     1       1.766   2.131  -5.004  1.00  0.00     0.108 A   
ATOM     29  O2  UNL     1       3.978   2.596  -4.796  1.00  0.00    -0.316 OA  
ATOM     30  O3  UNL     1       2.040   2.651  -6.228  1.00  0.00    -0.316 OA  
ATOM     31  C17 UNL     1       3.451   2.926  -6.102  1.00  0.00     0.337 C   
ENDBRANCH  22  23
ENDBRANCH  19  22
ENDBRANCH  18  19
BRANCH  18  32
ATOM     32  C18 UNL     1       0.832   2.504   2.261  1.00  0.00     0.043 C   
ATOM     33  C19 UNL     1       2.251   3.078   2.431  1.00  0.00     0.010 C   
ATOM     34  C22 UNL     1      -0.034   3.717   1.901  1.00  0.00     0.010 C   
ATOM     35  C20 UNL     1       2.091   4.595   2.534  1.00  0.00     0.001 C   
ATOM     36  C21 UNL     1       0.600   4.838   2.708  1.00  0.00     0.001 C   
ENDBRANCH  18  32
ENDBRANCH   3  18
TORSDOF 8
