REMARK SMILES COc1ccc(C(=O)n2cc([C@H](CC(C)C)[NH2+]Cc3ccc4c(c3)OCO4)nn2)cn1
REMARK SMILES IDX 9 1 10 2 11 3 28 4 29 5 7 6 8 7 6 8 3 9 4 10 31 11 5 12
REMARK SMILES IDX 30 13 2 14 1 15 12 16 13 17 14 18 15 19 16 20 17 21 18 24
REMARK SMILES IDX 19 25 20 26 24 27 21 28 23 29 22 30 25 31 27 32 26 33
REMARK H PARENT 17 22 17 23
ROOT
ATOM     1   N1  UNL     1      -0.830   0.731   0.542  1.00  0.00    -0.143 N   
ATOM     2   C7  UNL     1      -1.273   0.068  -0.587  1.00  0.00     0.139 A   
ATOM     3   C8  UNL     1      -1.543  -1.214  -0.166  1.00  0.00     0.127 A   
ATOM     4   N3  UNL     1      -1.313  -1.294   1.182  1.00  0.00    -0.131 NA  
ATOM     5   N4  UNL     1      -0.900  -0.108   1.605  1.00  0.00    -0.068 NA  
ENDROOT
BRANCH   1   6
ATOM     6   C6  UNL     1      -0.366   2.050   0.649  1.00  0.00     0.272 C   
ATOM     7   O2  UNL     1      -0.430   2.726  -0.377  1.00  0.00    -0.269 OA  
BRANCH   6   8
ATOM     8   C5  UNL     1       0.185   2.680   1.870  1.00  0.00     0.058 A   
ATOM     9   C2  UNL     1       1.283   3.872   4.083  1.00  0.00     0.166 A   
ATOM     10  C3  UNL     1       0.595   4.664   3.176  1.00  0.00     0.055 A   
ATOM     11  N5  UNL     1       1.449   2.540   3.933  1.00  0.00    -0.232 NA  
ATOM     12  C4  UNL     1       0.042   4.058   2.050  1.00  0.00     0.020 A   
ATOM     13  C22 UNL     1       0.903   1.975   2.828  1.00  0.00     0.127 A   
BRANCH   9  14
ATOM     14  O1  UNL     1       1.825   4.521   5.170  1.00  0.00    -0.333 OA  
ATOM     15  C1  UNL     1       2.489   3.646   6.076  1.00  0.00     0.205 C   
ENDBRANCH   9  14
ENDBRANCH   6   8
ENDBRANCH   1   6
BRANCH   3  16
ATOM     16  C9  UNL     1      -1.890  -2.451  -0.932  1.00  0.00     0.114 C   
BRANCH  16  17
ATOM     17  C10 UNL     1      -3.307  -2.979  -0.618  1.00  0.00     0.064 C   
BRANCH  17  18
ATOM     18  C11 UNL     1      -4.453  -2.311  -1.415  1.00  0.00    -0.012 C   
ATOM     19  C12 UNL     1      -4.683  -0.844  -1.053  1.00  0.00     0.007 C   
ATOM     20  C13 UNL     1      -5.753  -3.093  -1.189  1.00  0.00     0.007 C   
ENDBRANCH  17  18
ENDBRANCH  16  17
BRANCH  16  21
ATOM     21  N2  UNL     1      -0.909  -3.555  -0.552  1.00  0.00     0.249 N   
ATOM     22  H17 UNL     1      -1.345  -4.473  -0.680  1.00  0.00     0.199 HD  
ATOM     23  H18 UNL     1      -0.739  -3.458   0.460  1.00  0.00     0.199 HD  
BRANCH  21  24
ATOM     24  C14 UNL     1       0.405  -3.569  -1.266  1.00  0.00     0.164 C   
BRANCH  24  25
ATOM     25  C15 UNL     1       1.310  -2.423  -0.909  1.00  0.00    -0.002 A   
ATOM     26  C16 UNL     1       1.885  -2.341   0.384  1.00  0.00     0.012 A   
ATOM     27  C20 UNL     1       1.551  -1.394  -1.836  1.00  0.00     0.045 A   
ATOM     28  C17 UNL     1       2.651  -1.233   0.763  1.00  0.00     0.037 A   
ATOM     29  C19 UNL     1       2.305  -0.313  -1.427  1.00  0.00     0.109 A   
ATOM     30  C18 UNL     1       2.830  -0.229  -0.162  1.00  0.00     0.108 A   
ATOM     31  O3  UNL     1       2.585   0.782  -2.179  1.00  0.00    -0.316 OA  
ATOM     32  O4  UNL     1       3.498   0.934   0.046  1.00  0.00    -0.316 OA  
ATOM     33  C21 UNL     1       3.378   1.558  -1.251  1.00  0.00     0.337 C   
ENDBRANCH  24  25
ENDBRANCH  21  24
ENDBRANCH  16  21
ENDBRANCH   3  16
TORSDOF 9
