REMARK SMILES CC(C)C[C@H]([NH2+]Cc1ccc2c(c1)OCO2)c1cn(Cc2ccccc2CN)nn1
REMARK SMILES IDX 17 1 18 2 19 3 29 4 30 5 5 7 4 8 2 9 1 10 3 11 6 12 7 15
REMARK SMILES IDX 8 16 9 17 13 18 10 19 12 20 11 21 14 22 16 23 15 24 20 25
REMARK SMILES IDX 21 26 22 27 26 28 23 29 25 30 24 31 27 32 28 33
REMARK H PARENT 18 6 6 13 6 14 28 34 28 35
ROOT
ATOM     1   C14 UNL     1      -0.902  -0.163   1.403  1.00  0.00     0.127 A   
ATOM     2   C15 UNL     1      -0.512  -1.142   0.518  1.00  0.00     0.046 A   
ATOM     3   N2  UNL     1      -1.625  -1.926   0.386  1.00  0.00    -0.208 N   
ATOM     4   N4  UNL     1      -2.607  -1.507   1.209  1.00  0.00    -0.076 NA  
ATOM     5   N5  UNL     1      -2.181  -0.415   1.825  1.00  0.00    -0.132 NA  
ATOM     6   H20 UNL     1       0.388  -1.308  -0.056  1.00  0.00     0.083 HD  
ENDROOT
BRANCH   1   7
ATOM     7   C5  UNL     1      -0.215   1.087   1.825  1.00  0.00     0.114 C   
BRANCH   7   8
ATOM     8   C4  UNL     1       0.191   1.074   3.312  1.00  0.00     0.064 C   
BRANCH   8   9
ATOM     9   C2  UNL     1       1.210  -0.020   3.699  1.00  0.00    -0.012 C   
ATOM     10  C1  UNL     1       2.532   0.120   2.944  1.00  0.00     0.007 C   
ATOM     11  C3  UNL     1       1.470   0.030   5.208  1.00  0.00     0.007 C   
ENDBRANCH   8   9
ENDBRANCH   7   8
BRANCH   7  12
ATOM     12  N1  UNL     1      -1.138   2.274   1.630  1.00  0.00     0.249 N   
ATOM     13  H11 UNL     1      -0.710   3.118   2.019  1.00  0.00     0.199 HD  
ATOM     14  H12 UNL     1      -1.986   2.072   2.177  1.00  0.00     0.199 HD  
BRANCH  12  15
ATOM     15  C6  UNL     1      -1.579   2.540   0.225  1.00  0.00     0.164 C   
BRANCH  15  16
ATOM     16  C7  UNL     1      -0.442   2.851  -0.708  1.00  0.00    -0.002 A   
ATOM     17  C8  UNL     1      -0.057   1.912  -1.696  1.00  0.00     0.012 A   
ATOM     18  C12 UNL     1       0.267   4.059  -0.591  1.00  0.00     0.045 A   
ATOM     19  C9  UNL     1       1.021   2.165  -2.551  1.00  0.00     0.037 A   
ATOM     20  C11 UNL     1       1.325   4.277  -1.449  1.00  0.00     0.109 A   
ATOM     21  C10 UNL     1       1.693   3.357  -2.400  1.00  0.00     0.108 A   
ATOM     22  O1  UNL     1       2.114   5.383  -1.463  1.00  0.00    -0.316 OA  
ATOM     23  O2  UNL     1       2.758   3.769  -3.134  1.00  0.00    -0.316 OA  
ATOM     24  C13 UNL     1       3.007   5.068  -2.555  1.00  0.00     0.337 C   
ENDBRANCH  15  16
ENDBRANCH  12  15
ENDBRANCH   7  12
ENDBRANCH   1   7
BRANCH   3  25
ATOM     25  C16 UNL     1      -1.825  -3.073  -0.484  1.00  0.00     0.169 C   
BRANCH  25  26
ATOM     26  C17 UNL     1      -1.417  -2.780  -1.913  1.00  0.00    -0.024 A   
ATOM     27  C18 UNL     1      -0.211  -3.339  -2.383  1.00  0.00     0.006 A   
ATOM     28  C22 UNL     1      -2.180  -1.967  -2.784  1.00  0.00    -0.030 A   
ATOM     29  C19 UNL     1       0.241  -3.097  -3.679  1.00  0.00     0.000 A   
ATOM     30  C21 UNL     1      -1.703  -1.736  -4.090  1.00  0.00     0.005 A   
ATOM     31  C20 UNL     1      -0.504  -2.294  -4.532  1.00  0.00     0.000 A   
BRANCH  28  32
ATOM     32  C23 UNL     1      -3.490  -1.322  -2.390  1.00  0.00     0.113 C   
BRANCH  32  33
ATOM     33  N3  UNL     1      -3.324   0.109  -2.123  1.00  0.00    -0.326 NA  
ATOM     34  H29 UNL     1      -4.250   0.478  -1.903  1.00  0.00     0.119 HD  
ATOM     35  H30 UNL     1      -3.067   0.556  -3.005  1.00  0.00     0.119 HD  
ENDBRANCH  32  33
ENDBRANCH  28  32
ENDBRANCH  25  26
ENDBRANCH   3  25
TORSDOF 10
