REMARK SMILES Cc1ccc(N([O-])[O-])cc1-n1cc([C@H](CC(C)C)[NH2+]Cc2ccc3c(c2)OCO3)nn1
REMARK SMILES IDX 11 1 12 2 13 3 30 4 31 5 10 6 2 7 3 8 4 9 9 10 5 11 1 12
REMARK SMILES IDX 6 13 7 14 8 15 14 16 15 17 16 18 17 19 18 20 19 21 20 24
REMARK SMILES IDX 21 25 22 26 26 27 23 28 25 29 24 30 27 31 29 32 28 33
REMARK H PARENT 19 22 19 23
ROOT
ATOM     1   N2  UNL     1      -1.950  -1.833   0.813  1.00  0.00    -0.180 N   
ATOM     2   C8  UNL     1      -1.764  -0.495   0.497  1.00  0.00     0.135 A   
ATOM     3   C9  UNL     1      -0.426  -0.370   0.194  1.00  0.00     0.127 A   
ATOM     4   N4  UNL     1       0.176  -1.582   0.353  1.00  0.00    -0.131 NA  
ATOM     5   N5  UNL     1      -0.744  -2.448   0.739  1.00  0.00    -0.071 NA  
ENDROOT
BRANCH   1   6
ATOM     6   C7  UNL     1      -3.158  -2.506   1.181  1.00  0.00     0.063 A   
ATOM     7   C2  UNL     1      -3.208  -3.892   1.481  1.00  0.00    -0.027 A   
ATOM     8   C3  UNL     1      -4.445  -4.471   1.842  1.00  0.00     0.007 A   
ATOM     9   C4  UNL     1      -5.616  -3.719   1.909  1.00  0.00     0.031 A   
ATOM     10  C6  UNL     1      -4.350  -1.753   1.247  1.00  0.00     0.057 A   
ATOM     11  C5  UNL     1      -5.564  -2.361   1.609  1.00  0.00     0.120 A   
ATOM     12  C1  UNL     1      -2.021  -4.823   1.444  1.00  0.00     0.046 C   
BRANCH  11  13
ATOM     13  N1  UNL     1      -6.788  -1.550   1.676  1.00  0.00     0.092 N   
ATOM     14  O1  UNL     1      -6.685  -0.344   1.406  1.00  0.00    -0.138 OA  
ATOM     15  O2  UNL     1      -7.841  -2.115   1.998  1.00  0.00    -0.138 OA  
ENDBRANCH  11  13
ENDBRANCH   1   6
BRANCH   3  16
ATOM     16  C10 UNL     1       0.393   0.814  -0.205  1.00  0.00     0.114 C   
BRANCH  16  17
ATOM     17  C11 UNL     1       0.537   0.947  -1.734  1.00  0.00     0.064 C   
BRANCH  17  18
ATOM     18  C12 UNL     1      -0.777   1.204  -2.503  1.00  0.00    -0.012 C   
ATOM     19  C13 UNL     1      -0.491   1.254  -4.007  1.00  0.00     0.007 C   
ATOM     20  C14 UNL     1      -1.464   2.499  -2.068  1.00  0.00     0.007 C   
ENDBRANCH  17  18
ENDBRANCH  16  17
BRANCH  16  21
ATOM     21  N3  UNL     1       1.791   0.687   0.354  1.00  0.00     0.249 N   
ATOM     22  H18 UNL     1       2.440   1.325  -0.119  1.00  0.00     0.199 HD  
ATOM     23  H19 UNL     1       2.118  -0.267   0.139  1.00  0.00     0.199 HD  
BRANCH  21  24
ATOM     24  C15 UNL     1       1.915   0.881   1.826  1.00  0.00     0.164 C   
BRANCH  24  25
ATOM     25  C16 UNL     1       3.341   0.691   2.259  1.00  0.00    -0.002 A   
ATOM     26  C17 UNL     1       3.823  -0.604   2.568  1.00  0.00     0.012 A   
ATOM     27  C21 UNL     1       4.221   1.786   2.301  1.00  0.00     0.045 A   
ATOM     28  C18 UNL     1       5.159  -0.806   2.928  1.00  0.00     0.037 A   
ATOM     29  C20 UNL     1       5.532   1.551   2.659  1.00  0.00     0.109 A   
ATOM     30  C19 UNL     1       5.989   0.293   2.965  1.00  0.00     0.108 A   
ATOM     31  O3  UNL     1       6.507   2.493   2.745  1.00  0.00    -0.316 OA  
ATOM     32  O4  UNL     1       7.308   0.285   3.288  1.00  0.00    -0.316 OA  
ATOM     33  C22 UNL     1       7.631   1.687   3.167  1.00  0.00     0.337 C   
ENDBRANCH  24  25
ENDBRANCH  21  24
ENDBRANCH  16  21
ENDBRANCH   3  16
TORSDOF 8
