REMARK SMILES CC(C)C[C@H]([NH2+]Cc1ccc2c(c1)OCO2)c1cn(Cc2ncoc2C(C)C)nn1
REMARK SMILES IDX 17 1 18 2 19 3 29 4 30 5 5 7 4 8 2 9 1 10 3 11 6 12 7 15
REMARK SMILES IDX 8 16 9 17 13 18 10 19 12 20 11 21 14 22 16 23 15 24 20 25
REMARK SMILES IDX 21 26 22 27 25 28 23 29 24 30 26 31 27 32 28 33
REMARK H PARENT 18 6 6 13 6 14
ROOT
ATOM     1   C14 UNL     1       1.447  -0.737  -1.600  1.00  0.00     0.127 A   
ATOM     2   C15 UNL     1       1.104   0.562  -1.304  1.00  0.00     0.046 A   
ATOM     3   N2  UNL     1      -0.116   0.726  -1.900  1.00  0.00    -0.206 N   
ATOM     4   N4  UNL     1      -0.488  -0.396  -2.548  1.00  0.00    -0.076 NA  
ATOM     5   N5  UNL     1       0.466  -1.298  -2.376  1.00  0.00    -0.132 NA  
ATOM     6   H20 UNL     1       1.562   1.339  -0.706  1.00  0.00     0.083 HD  
ENDROOT
BRANCH   1   7
ATOM     7   C5  UNL     1       2.594  -1.567  -1.137  1.00  0.00     0.114 C   
BRANCH   7   8
ATOM     8   C4  UNL     1       3.650  -1.788  -2.238  1.00  0.00     0.064 C   
BRANCH   8   9
ATOM     9   C2  UNL     1       4.346  -0.506  -2.744  1.00  0.00    -0.012 C   
ATOM     10  C1  UNL     1       5.104   0.224  -1.635  1.00  0.00     0.007 C   
ATOM     11  C3  UNL     1       5.310  -0.858  -3.881  1.00  0.00     0.007 C   
ENDBRANCH   8   9
ENDBRANCH   7   8
BRANCH   7  12
ATOM     12  N1  UNL     1       2.113  -2.941  -0.710  1.00  0.00     0.249 N   
ATOM     13  H11 UNL     1       2.917  -3.534  -0.487  1.00  0.00     0.199 HD  
ATOM     14  H12 UNL     1       1.642  -3.351  -1.528  1.00  0.00     0.199 HD  
BRANCH  12  15
ATOM     15  C6  UNL     1       1.137  -2.985   0.424  1.00  0.00     0.164 C   
BRANCH  15  16
ATOM     16  C7  UNL     1       1.661  -2.374   1.693  1.00  0.00    -0.002 A   
ATOM     17  C8  UNL     1       2.685  -3.014   2.432  1.00  0.00     0.012 A   
ATOM     18  C12 UNL     1       1.152  -1.141   2.140  1.00  0.00     0.045 A   
ATOM     19  C9  UNL     1       3.203  -2.432   3.594  1.00  0.00     0.037 A   
ATOM     20  C11 UNL     1       1.684  -0.595   3.289  1.00  0.00     0.109 A   
ATOM     21  C10 UNL     1       2.683  -1.221   3.994  1.00  0.00     0.108 A   
ATOM     22  O1  UNL     1       1.310   0.584   3.852  1.00  0.00    -0.316 OA  
ATOM     23  O2  UNL     1       3.065  -0.514   5.089  1.00  0.00    -0.316 OA  
ATOM     24  C13 UNL     1       2.176   0.622   5.010  1.00  0.00     0.337 C   
ENDBRANCH  15  16
ENDBRANCH  12  15
ENDBRANCH   7  12
ENDBRANCH   1   7
BRANCH   3  25
ATOM     25  C16 UNL     1      -0.998   1.877  -1.826  1.00  0.00     0.192 C   
BRANCH  25  26
ATOM     26  C17 UNL     1      -1.714   1.858  -0.526  1.00  0.00     0.089 A   
ATOM     27  N3  UNL     1      -1.086   2.268   0.635  1.00  0.00    -0.232 NA  
ATOM     28  C19 UNL     1      -2.999   1.447  -0.231  1.00  0.00     0.086 A   
ATOM     29  C18 UNL     1      -2.006   2.114   1.560  1.00  0.00     0.247 A   
ATOM     30  O3  UNL     1      -3.186   1.607   1.115  1.00  0.00    -0.301 OA  
BRANCH  28  31
ATOM     31  C20 UNL     1      -4.135   0.894  -1.024  1.00  0.00     0.039 C   
ATOM     32  C21 UNL     1      -4.447  -0.541  -0.600  1.00  0.00     0.015 C   
ATOM     33  C22 UNL     1      -5.373   1.781  -0.908  1.00  0.00     0.015 C   
ENDBRANCH  28  31
ENDBRANCH  25  26
ENDBRANCH   3  25
TORSDOF 9
