REMARK SMILES c1cc2c(cc1C[NH2+][C@H](c1cn(Cc3ccc4c(c3)OCCO4)nn1)C1CCCC1)OCO2
REMARK SMILES IDX 9 1 8 2 7 5 6 6 1 7 2 8 3 9 5 10 4 11 33 12 31 13 32 14
REMARK SMILES IDX 10 15 11 16 25 17 12 18 24 19 13 21 14 22 15 23 19 24 16 25
REMARK SMILES IDX 18 26 17 27 20 28 23 29 21 30 22 31 26 32 27 33 30 34 28 35
REMARK SMILES IDX 29 36
REMARK H PARENT 8 3 8 4 11 20
ROOT
ATOM     1   C8  UNL     1      -1.298   1.754  -1.037  1.00  0.00     0.117 C   
ENDROOT
BRANCH   1   2
ATOM     2   N1  UNL     1      -1.202   0.677  -2.082  1.00  0.00     0.249 N   
ATOM     3   H6  UNL     1      -1.444   1.016  -3.018  1.00  0.00     0.199 HD  
ATOM     4   H7  UNL     1      -1.913  -0.030  -1.840  1.00  0.00     0.199 HD  
BRANCH   2   5
ATOM     5   C7  UNL     1       0.106  -0.034  -2.143  1.00  0.00     0.164 C   
BRANCH   5   6
ATOM     6   C6  UNL     1       0.041  -1.161  -3.135  1.00  0.00    -0.002 A   
ATOM     7   C1  UNL     1      -0.538  -2.398  -2.762  1.00  0.00     0.012 A   
ATOM     8   C2  UNL     1      -0.657  -3.443  -3.683  1.00  0.00     0.037 A   
ATOM     9   C3  UNL     1      -0.197  -3.228  -4.962  1.00  0.00     0.108 A   
ATOM     10  C5  UNL     1       0.496  -0.979  -4.451  1.00  0.00     0.045 A   
ATOM     11  C4  UNL     1       0.368  -2.032  -5.333  1.00  0.00     0.109 A   
ATOM     12  O4  UNL     1      -0.237  -4.122  -5.984  1.00  0.00    -0.316 OA  
ATOM     13  O3  UNL     1       0.768  -2.026  -6.632  1.00  0.00    -0.316 OA  
ATOM     14  C25 UNL     1       0.425  -3.374  -7.028  1.00  0.00     0.337 C   
ENDBRANCH   5   6
ENDBRANCH   2   5
ENDBRANCH   1   2
BRANCH   1  15
ATOM     15  C9  UNL     1      -1.422   1.137   0.319  1.00  0.00     0.127 A   
ATOM     16  C10 UNL     1      -1.009   1.574   1.558  1.00  0.00     0.046 A   
ATOM     17  N4  UNL     1      -1.996  -0.102   0.446  1.00  0.00    -0.132 NA  
ATOM     18  N2  UNL     1      -1.348   0.548   2.399  1.00  0.00    -0.208 N   
ATOM     19  N3  UNL     1      -1.945  -0.451   1.720  1.00  0.00    -0.076 NA  
ATOM     20  H9  UNL     1      -0.512   2.468   1.908  1.00  0.00     0.083 HD  
BRANCH  18  21
ATOM     21  C11 UNL     1      -1.126   0.451   3.832  1.00  0.00     0.169 C   
BRANCH  21  22
ATOM     22  C12 UNL     1       0.238  -0.121   4.124  1.00  0.00    -0.026 A   
ATOM     23  C13 UNL     1       0.423  -1.510   4.205  1.00  0.00     0.008 A   
ATOM     24  C17 UNL     1       1.347   0.725   4.292  1.00  0.00     0.041 A   
ATOM     25  C14 UNL     1       1.691  -2.043   4.450  1.00  0.00     0.036 A   
ATOM     26  C16 UNL     1       2.609   0.189   4.544  1.00  0.00     0.106 A   
ATOM     27  C15 UNL     1       2.784  -1.196   4.606  1.00  0.00     0.105 A   
ATOM     28  O1  UNL     1       3.634   1.085   4.710  1.00  0.00    -0.341 OA  
ATOM     29  O2  UNL     1       3.998  -1.791   4.824  1.00  0.00    -0.341 OA  
ATOM     30  C18 UNL     1       4.778   0.461   5.309  1.00  0.00     0.197 C   
ATOM     31  C19 UNL     1       5.079  -0.869   4.636  1.00  0.00     0.197 C   
ENDBRANCH  21  22
ENDBRANCH  18  21
ENDBRANCH   1  15
BRANCH   1  32
ATOM     32  C20 UNL     1      -2.476   2.700  -1.340  1.00  0.00     0.043 C   
ATOM     33  C21 UNL     1      -2.295   3.564  -2.600  1.00  0.00     0.010 C   
ATOM     34  C24 UNL     1      -3.846   2.039  -1.533  1.00  0.00     0.010 C   
ATOM     35  C22 UNL     1      -3.694   3.756  -3.191  1.00  0.00     0.001 C   
ATOM     36  C23 UNL     1      -4.659   3.145  -2.185  1.00  0.00     0.001 C   
ENDBRANCH   1  32
TORSDOF 7
