REMARK SMILES Cc1ccc([C@@H](CO)n2cc([C@@H]([NH2+]Cc3ccc4c(c3)OCO4)C(C)(C)C)nn2)s1
REMARK SMILES IDX 9 1 10 2 11 3 28 4 29 5 6 7 5 8 2 9 3 10 30 11 4 12 1 13
REMARK SMILES IDX 7 14 8 15 12 17 13 18 14 21 15 22 16 23 20 24 17 25 19 26
REMARK SMILES IDX 18 27 21 28 23 29 22 30 24 31 25 32 26 33 27 34
REMARK H PARENT 10 6 8 16 13 19 13 20
ROOT
ATOM     1   N1  UNL     1      -0.607  -2.834  -0.046  1.00  0.00    -0.202 N   
ATOM     2   C8  UNL     1      -0.618  -1.599  -0.642  1.00  0.00     0.046 A   
ATOM     3   C9  UNL     1      -0.087  -0.760   0.312  1.00  0.00     0.127 A   
ATOM     4   N3  UNL     1       0.197  -1.485   1.441  1.00  0.00    -0.132 NA  
ATOM     5   N4  UNL     1      -0.129  -2.747   1.215  1.00  0.00    -0.075 NA  
ATOM     6   H10 UNL     1      -0.984  -1.447  -1.648  1.00  0.00     0.083 HD  
ENDROOT
BRANCH   1   7
ATOM     7   C6  UNL     1      -1.053  -4.104  -0.620  1.00  0.00     0.162 C   
BRANCH   7   8
ATOM     8   C5  UNL     1       0.144  -4.951  -0.984  1.00  0.00     0.014 A   
ATOM     9   C2  UNL     1       1.862  -6.205  -2.249  1.00  0.00    -0.014 A   
ATOM     10  C3  UNL     1       2.058  -6.282  -0.888  1.00  0.00     0.011 A   
ATOM     11  S1  UNL     1       0.488  -5.265  -2.635  1.00  0.00    -0.097 S   
ATOM     12  C4  UNL     1       1.071  -5.559  -0.158  1.00  0.00     0.014 A   
ATOM     13  C1  UNL     1       2.671  -6.825  -3.337  1.00  0.00     0.052 C   
ENDBRANCH   7   8
BRANCH   7  14
ATOM     14  C7  UNL     1      -2.036  -4.845   0.299  1.00  0.00     0.186 C   
BRANCH  14  15
ATOM     15  O1  UNL     1      -3.277  -4.136   0.374  1.00  0.00    -0.394 OA  
ATOM     16  H9  UNL     1      -3.880  -4.684   0.910  1.00  0.00     0.210 HD  
ENDBRANCH  14  15
ENDBRANCH   7  14
ENDBRANCH   1   7
BRANCH   3  17
ATOM     17  C10 UNL     1       0.125   0.723   0.315  1.00  0.00     0.120 C   
BRANCH  17  18
ATOM     18  N2  UNL     1      -0.177   1.252   1.704  1.00  0.00     0.250 N   
ATOM     19  H12 UNL     1       0.193   2.195   1.834  1.00  0.00     0.199 HD  
ATOM     20  H13 UNL     1       0.327   0.635   2.357  1.00  0.00     0.199 HD  
BRANCH  18  21
ATOM     21  C11 UNL     1      -1.613   1.239   2.117  1.00  0.00     0.164 C   
BRANCH  21  22
ATOM     22  C12 UNL     1      -2.451   2.217   1.341  1.00  0.00    -0.002 A   
ATOM     23  C13 UNL     1      -3.396   1.753   0.395  1.00  0.00     0.012 A   
ATOM     24  C17 UNL     1      -2.285   3.600   1.532  1.00  0.00     0.045 A   
ATOM     25  C14 UNL     1      -4.162   2.650  -0.357  1.00  0.00     0.037 A   
ATOM     26  C16 UNL     1      -3.056   4.457   0.774  1.00  0.00     0.109 A   
ATOM     27  C15 UNL     1      -3.967   3.997  -0.144  1.00  0.00     0.108 A   
ATOM     28  O2  UNL     1      -3.017   5.814   0.832  1.00  0.00    -0.316 OA  
ATOM     29  O3  UNL     1      -4.617   5.006  -0.780  1.00  0.00    -0.316 OA  
ATOM     30  C18 UNL     1      -4.036   6.159  -0.134  1.00  0.00     0.337 C   
ENDBRANCH  21  22
ENDBRANCH  18  21
ENDBRANCH  17  18
BRANCH  17  31
ATOM     31  C19 UNL     1       1.561   1.168  -0.136  1.00  0.00     0.010 C   
ATOM     32  C20 UNL     1       2.664   0.709   0.838  1.00  0.00     0.017 C   
ATOM     33  C21 UNL     1       1.882   0.597  -1.536  1.00  0.00     0.017 C   
ATOM     34  C22 UNL     1       1.630   2.709  -0.255  1.00  0.00     0.017 C   
ENDBRANCH  17  31
ENDBRANCH   3  17
TORSDOF 9
