REMARK SMILES Cc1ccc([C@H](CO)n2cc([C@@H]([NH2+]Cc3ccc4c(c3)OCO4)C(C)(C)C)nn2)s1
REMARK SMILES IDX 9 1 10 2 11 3 28 4 29 5 6 7 5 8 2 9 3 10 30 11 4 12 1 13
REMARK SMILES IDX 7 14 8 15 12 17 13 18 14 21 15 22 16 23 20 24 17 25 19 26
REMARK SMILES IDX 18 27 21 28 23 29 22 30 24 31 25 32 26 33 27 34
REMARK H PARENT 10 6 8 16 13 19 13 20
ROOT
ATOM     1   N1  UNL     1      -0.005  -0.907  -0.326  1.00  0.00    -0.202 N   
ATOM     2   C8  UNL     1      -0.274   0.432  -0.216  1.00  0.00     0.046 A   
ATOM     3   C9  UNL     1       0.968   1.020  -0.149  1.00  0.00     0.127 A   
ATOM     4   N3  UNL     1       1.932   0.045  -0.190  1.00  0.00    -0.132 NA  
ATOM     5   N4  UNL     1       1.328  -1.127  -0.292  1.00  0.00    -0.075 NA  
ATOM     6   H10 UNL     1      -1.284   0.815  -0.179  1.00  0.00     0.083 HD  
ENDROOT
BRANCH   1   7
ATOM     7   C6  UNL     1      -0.933  -2.033  -0.419  1.00  0.00     0.162 C   
BRANCH   7   8
ATOM     8   C5  UNL     1      -1.994  -1.776  -1.470  1.00  0.00     0.014 A   
ATOM     9   C2  UNL     1      -3.182  -1.619  -3.642  1.00  0.00    -0.014 A   
ATOM     10  C3  UNL     1      -3.953  -1.171  -2.591  1.00  0.00     0.011 A   
ATOM     11  S1  UNL     1      -1.647  -2.148  -3.114  1.00  0.00    -0.097 S   
ATOM     12  C4  UNL     1      -3.271  -1.260  -1.343  1.00  0.00     0.014 A   
ATOM     13  C1  UNL     1      -3.544  -1.694  -5.087  1.00  0.00     0.052 C   
ENDBRANCH   7   8
BRANCH   7  14
ATOM     14  C7  UNL     1      -1.484  -2.418   0.966  1.00  0.00     0.186 C   
BRANCH  14  15
ATOM     15  O1  UNL     1      -2.183  -1.351   1.609  1.00  0.00    -0.394 OA  
ATOM     16  H9  UNL     1      -2.397  -1.657   2.511  1.00  0.00     0.210 HD  
ENDBRANCH  14  15
ENDBRANCH   7  14
ENDBRANCH   1   7
BRANCH   3  17
ATOM     17  C10 UNL     1       1.375   2.447   0.048  1.00  0.00     0.120 C   
BRANCH  17  18
ATOM     18  N2  UNL     1       2.571   2.473   0.984  1.00  0.00     0.250 N   
ATOM     19  H12 UNL     1       3.021   1.549   0.881  1.00  0.00     0.199 HD  
ATOM     20  H13 UNL     1       3.273   3.150   0.678  1.00  0.00     0.199 HD  
BRANCH  18  21
ATOM     21  C11 UNL     1       2.277   2.691   2.429  1.00  0.00     0.164 C   
BRANCH  21  22
ATOM     22  C12 UNL     1       1.469   1.594   3.063  1.00  0.00    -0.002 A   
ATOM     23  C13 UNL     1       0.103   1.797   3.373  1.00  0.00     0.012 A   
ATOM     24  C17 UNL     1       2.055   0.342   3.320  1.00  0.00     0.045 A   
ATOM     25  C14 UNL     1      -0.674   0.767   3.915  1.00  0.00     0.037 A   
ATOM     26  C16 UNL     1       1.264  -0.650   3.861  1.00  0.00     0.109 A   
ATOM     27  C15 UNL     1      -0.064  -0.447   4.144  1.00  0.00     0.108 A   
ATOM     28  O2  UNL     1       1.672  -1.909   4.165  1.00  0.00    -0.316 OA  
ATOM     29  O3  UNL     1      -0.664  -1.560   4.643  1.00  0.00    -0.316 OA  
ATOM     30  C18 UNL     1       0.464  -2.460   4.729  1.00  0.00     0.337 C   
ENDBRANCH  21  22
ENDBRANCH  18  21
ENDBRANCH  17  18
BRANCH  17  31
ATOM     31  C19 UNL     1       1.697   3.213  -1.282  1.00  0.00     0.010 C   
ATOM     32  C20 UNL     1       1.972   4.705  -0.982  1.00  0.00     0.017 C   
ATOM     33  C21 UNL     1       0.477   3.164  -2.232  1.00  0.00     0.017 C   
ATOM     34  C22 UNL     1       2.913   2.631  -2.030  1.00  0.00     0.017 C   
ENDBRANCH  17  31
ENDBRANCH   3  17
TORSDOF 9
