REMARK SMILES CC(C)(C)[C@H]([NH2+]Cc1ccc2c(c1)OCO2)c1cn(CCc2c(O)cccc2Cl)nn1
REMARK SMILES IDX 17 1 18 2 19 3 30 4 31 5 5 7 2 8 1 9 3 10 4 11 6 12 7 15
REMARK SMILES IDX 8 16 9 17 13 18 10 19 12 20 11 21 14 22 16 23 15 24 20 25
REMARK SMILES IDX 21 26 22 27 23 28 28 29 25 30 27 31 26 32 29 33 24 34
REMARK H PARENT 18 6 6 13 6 14 24 35
ROOT
ATOM     1   C14 UNL     1       0.648   0.700   1.854  1.00  0.00     0.127 A   
ATOM     2   C15 UNL     1       0.745   1.729   0.943  1.00  0.00     0.045 A   
ATOM     3   N2  UNL     1       2.028   2.174   1.084  1.00  0.00    -0.212 N   
ATOM     4   N3  UNL     1       2.686   1.461   2.018  1.00  0.00    -0.076 NA  
ATOM     5   N4  UNL     1       1.850   0.557   2.501  1.00  0.00    -0.132 NA  
ATOM     6   H20 UNL     1       0.057   2.162   0.230  1.00  0.00     0.083 HD  
ENDROOT
BRANCH   1   7
ATOM     7   C5  UNL     1      -0.466  -0.258   2.153  1.00  0.00     0.120 C   
BRANCH   7   8
ATOM     8   C2  UNL     1      -1.459   0.230   3.265  1.00  0.00     0.010 C   
ATOM     9   C1  UNL     1      -2.639  -0.762   3.401  1.00  0.00     0.017 C   
ATOM     10  C3  UNL     1      -0.785   0.375   4.644  1.00  0.00     0.017 C   
ATOM     11  C4  UNL     1      -2.067   1.597   2.875  1.00  0.00     0.017 C   
ENDBRANCH   7   8
BRANCH   7  12
ATOM     12  N1  UNL     1       0.139  -1.596   2.539  1.00  0.00     0.250 N   
ATOM     13  H11 UNL     1       0.905  -1.380   3.195  1.00  0.00     0.199 HD  
ATOM     14  H12 UNL     1      -0.530  -2.182   3.040  1.00  0.00     0.199 HD  
BRANCH  12  15
ATOM     15  C6  UNL     1       0.737  -2.390   1.422  1.00  0.00     0.164 C   
BRANCH  15  16
ATOM     16  C7  UNL     1      -0.299  -2.911   0.463  1.00  0.00    -0.002 A   
ATOM     17  C8  UNL     1      -0.384  -2.380  -0.849  1.00  0.00     0.012 A   
ATOM     18  C12 UNL     1      -1.207  -3.909   0.868  1.00  0.00     0.045 A   
ATOM     19  C9  UNL     1      -1.362  -2.828  -1.745  1.00  0.00     0.037 A   
ATOM     20  C11 UNL     1      -2.161  -4.325  -0.038  1.00  0.00     0.109 A   
ATOM     21  C10 UNL     1      -2.237  -3.801  -1.307  1.00  0.00     0.108 A   
ATOM     22  O1  UNL     1      -3.113  -5.268   0.194  1.00  0.00    -0.316 OA  
ATOM     23  O2  UNL     1      -3.244  -4.349  -2.035  1.00  0.00    -0.316 OA  
ATOM     24  C13 UNL     1      -3.786  -5.300  -1.086  1.00  0.00     0.337 C   
ENDBRANCH  15  16
ENDBRANCH  12  15
ENDBRANCH   7  12
ENDBRANCH   1   7
BRANCH   3  25
ATOM     25  C16 UNL     1       2.686   3.255   0.379  1.00  0.00     0.139 C   
BRANCH  25  26
ATOM     26  C17 UNL     1       3.438   2.787  -0.869  1.00  0.00     0.061 C   
BRANCH  26  27
ATOM     27  C18 UNL     1       2.525   2.338  -1.994  1.00  0.00     0.002 A   
ATOM     28  C19 UNL     1       1.831   3.302  -2.744  1.00  0.00     0.076 A   
ATOM     29  C23 UNL     1       2.330   0.987  -2.329  1.00  0.00     0.046 A   
ATOM     30  C20 UNL     1       0.982   2.948  -3.793  1.00  0.00     0.033 A   
ATOM     31  C22 UNL     1       1.482   0.626  -3.382  1.00  0.00     0.021 A   
ATOM     32  C21 UNL     1       0.810   1.605  -4.114  1.00  0.00     0.004 A   
ATOM     33  CL1 UNL     1       3.088  -0.300  -1.457  1.00  0.00    -0.084 Cl  
BRANCH  28  34
ATOM     34  O3  UNL     1       1.994   4.621  -2.420  1.00  0.00    -0.361 OA  
ATOM     35  H25 UNL     1       1.560   5.175  -3.095  1.00  0.00     0.218 HD  
ENDBRANCH  28  34
ENDBRANCH  26  27
ENDBRANCH  25  26
ENDBRANCH   3  25
TORSDOF 9
