REMARK SMILES CC(C)[C@H]([NH2+]Cc1ccc2c(c1)OCO2)c1cn(Cc2cccc(N([O-])[O-])c2)nn1
REMARK SMILES IDX 16 1 17 2 18 3 29 4 30 5 4 7 2 8 1 9 3 10 5 11 6 14 7 15
REMARK SMILES IDX 8 16 12 17 9 18 11 19 10 20 13 21 15 22 14 23 19 24 20 25
REMARK SMILES IDX 21 26 28 27 22 28 24 29 23 30 25 31 26 32 27 33
REMARK H PARENT 17 6 5 12 5 13
ROOT
ATOM     1   C13 UNL     1       0.071  -1.080   0.959  1.00  0.00     0.127 A   
ATOM     2   C14 UNL     1      -0.664  -0.072   1.544  1.00  0.00     0.046 A   
ATOM     3   N2  UNL     1       0.215   0.511   2.419  1.00  0.00    -0.208 N   
ATOM     4   N4  UNL     1       1.398  -0.134   2.411  1.00  0.00    -0.076 NA  
ATOM     5   N5  UNL     1       1.323  -1.107   1.518  1.00  0.00    -0.132 NA  
ATOM     6   H18 UNL     1      -1.662   0.314   1.384  1.00  0.00     0.083 HD  
ENDROOT
BRANCH   1   7
ATOM     7   C4  UNL     1      -0.246  -1.994  -0.180  1.00  0.00     0.117 C   
BRANCH   7   8
ATOM     8   C2  UNL     1      -0.785  -3.370   0.294  1.00  0.00     0.037 C   
ATOM     9   C1  UNL     1       0.258  -4.250   0.993  1.00  0.00     0.014 C   
ATOM     10  C3  UNL     1      -1.425  -4.152  -0.861  1.00  0.00     0.014 C   
ENDBRANCH   7   8
BRANCH   7  11
ATOM     11  N1  UNL     1       0.973  -2.177  -1.057  1.00  0.00     0.249 N   
ATOM     12  H9  UNL     1       1.750  -2.419  -0.426  1.00  0.00     0.199 HD  
ATOM     13  H10 UNL     1       0.846  -2.964  -1.699  1.00  0.00     0.199 HD  
BRANCH  11  14
ATOM     14  C5  UNL     1       1.412  -0.979  -1.841  1.00  0.00     0.164 C   
BRANCH  14  15
ATOM     15  C6  UNL     1       0.422  -0.585  -2.902  1.00  0.00    -0.002 A   
ATOM     16  C7  UNL     1       0.270  -1.370  -4.071  1.00  0.00     0.012 A   
ATOM     17  C11 UNL     1      -0.380   0.556  -2.725  1.00  0.00     0.045 A   
ATOM     18  C8  UNL     1      -0.675  -1.028  -5.046  1.00  0.00     0.037 A   
ATOM     19  C10 UNL     1      -1.302   0.863  -3.704  1.00  0.00     0.109 A   
ATOM     20  C9  UNL     1      -1.446   0.093  -4.831  1.00  0.00     0.108 A   
ATOM     21  O1  UNL     1      -2.156   1.920  -3.682  1.00  0.00    -0.316 OA  
ATOM     22  O2  UNL     1      -2.408   0.569  -5.664  1.00  0.00    -0.316 OA  
ATOM     23  C12 UNL     1      -2.829   1.753  -4.951  1.00  0.00     0.337 C   
ENDBRANCH  14  15
ENDBRANCH  11  14
ENDBRANCH   7  11
ENDBRANCH   1   7
BRANCH   3  24
ATOM     24  C15 UNL     1       0.067   1.772   3.136  1.00  0.00     0.169 C   
BRANCH  24  25
ATOM     25  C16 UNL     1       0.027   2.949   2.182  1.00  0.00    -0.026 A   
ATOM     26  C17 UNL     1      -0.876   4.003   2.400  1.00  0.00     0.005 A   
ATOM     27  C21 UNL     1       0.899   3.029   1.082  1.00  0.00     0.036 A   
ATOM     28  C18 UNL     1      -0.933   5.092   1.520  1.00  0.00     0.003 A   
ATOM     29  C20 UNL     1       0.809   4.104   0.187  1.00  0.00     0.118 A   
ATOM     30  C19 UNL     1      -0.097   5.144   0.403  1.00  0.00     0.031 A   
BRANCH  29  31
ATOM     31  N3  UNL     1       1.638   4.088  -1.019  1.00  0.00     0.092 N   
ATOM     32  O3  UNL     1       1.984   2.973  -1.445  1.00  0.00    -0.138 OA  
ATOM     33  O4  UNL     1       1.915   5.173  -1.546  1.00  0.00    -0.138 OA  
ENDBRANCH  29  31
ENDBRANCH  24  25
ENDBRANCH   3  24
TORSDOF 8
