REMARK SMILES CC(C)C[C@H]([NH2+]Cc1ccc2c(c1)OCO2)c1cn(CCc2ccc[nH]2)nn1
REMARK SMILES IDX 17 1 18 2 19 3 27 4 28 5 5 7 4 8 2 9 1 10 3 11 6 12 7 15
REMARK SMILES IDX 8 16 9 17 13 18 10 19 12 20 11 21 14 22 16 23 15 24 20 25
REMARK SMILES IDX 21 26 22 27 23 28 26 29 24 30 25 31
REMARK H PARENT 18 6 6 13 6 14 26 32
ROOT
ATOM     1   C14 UNL     1       1.153  -1.727  -0.689  1.00  0.00     0.127 A   
ATOM     2   C15 UNL     1       0.537  -2.916  -1.009  1.00  0.00     0.045 A   
ATOM     3   N2  UNL     1       1.004  -3.787  -0.065  1.00  0.00    -0.212 N   
ATOM     4   N4  UNL     1       1.911  -3.193   0.734  1.00  0.00    -0.076 NA  
ATOM     5   N5  UNL     1       2.007  -1.928   0.365  1.00  0.00    -0.132 NA  
ATOM     6   H20 UNL     1      -0.217  -3.193  -1.733  1.00  0.00     0.083 HD  
ENDROOT
BRANCH   1   7
ATOM     7   C5  UNL     1       0.932  -0.340  -1.187  1.00  0.00     0.114 C   
BRANCH   7   8
ATOM     8   C4  UNL     1       2.112   0.194  -2.017  1.00  0.00     0.064 C   
BRANCH   8   9
ATOM     9   C2  UNL     1       2.398  -0.584  -3.320  1.00  0.00    -0.012 C   
ATOM     10  C1  UNL     1       1.211  -0.562  -4.285  1.00  0.00     0.007 C   
ATOM     11  C3  UNL     1       3.634   0.002  -4.009  1.00  0.00     0.007 C   
ENDBRANCH   8   9
ENDBRANCH   7   8
BRANCH   7  12
ATOM     12  N1  UNL     1       0.765   0.583  -0.002  1.00  0.00     0.249 N   
ATOM     13  H11 UNL     1       0.853   1.567  -0.274  1.00  0.00     0.199 HD  
ATOM     14  H12 UNL     1       1.548   0.385   0.639  1.00  0.00     0.199 HD  
BRANCH  12  15
ATOM     15  C6  UNL     1      -0.495   0.394   0.775  1.00  0.00     0.164 C   
BRANCH  15  16
ATOM     16  C7  UNL     1      -0.504   1.280   1.987  1.00  0.00    -0.002 A   
ATOM     17  C8  UNL     1       0.028   0.808   3.212  1.00  0.00     0.012 A   
ATOM     18  C12 UNL     1      -0.991   2.595   1.903  1.00  0.00     0.045 A   
ATOM     19  C9  UNL     1       0.065   1.630   4.343  1.00  0.00     0.037 A   
ATOM     20  C11 UNL     1      -0.938   3.379   3.037  1.00  0.00     0.109 A   
ATOM     21  C10 UNL     1      -0.426   2.911   4.222  1.00  0.00     0.108 A   
ATOM     22  O1  UNL     1      -1.365   4.666   3.127  1.00  0.00    -0.316 OA  
ATOM     23  O2  UNL     1      -0.467   3.844   5.209  1.00  0.00    -0.316 OA  
ATOM     24  C13 UNL     1      -1.083   4.951   4.517  1.00  0.00     0.337 C   
ENDBRANCH  15  16
ENDBRANCH  12  15
ENDBRANCH   7  12
ENDBRANCH   1   7
BRANCH   3  25
ATOM     25  C16 UNL     1       0.545  -5.127   0.233  1.00  0.00     0.140 C   
BRANCH  25  26
ATOM     26  C17 UNL     1      -0.947  -5.206   0.573  1.00  0.00     0.072 C   
BRANCH  26  27
ATOM     27  C18 UNL     1      -1.410  -4.191   1.575  1.00  0.00     0.008 A   
ATOM     28  C19 UNL     1      -2.442  -3.273   1.495  1.00  0.00     0.020 A   
ATOM     29  N3  UNL     1      -0.829  -4.046   2.815  1.00  0.00    -0.324 N   
ATOM     30  C20 UNL     1      -2.462  -2.540   2.704  1.00  0.00     0.017 A   
ATOM     31  C21 UNL     1      -1.446  -3.027   3.492  1.00  0.00     0.071 A   
ATOM     32  H28 UNL     1      -0.061  -4.598   3.179  1.00  0.00     0.152 HD  
ENDBRANCH  26  27
ENDBRANCH  25  26
ENDBRANCH   3  25
TORSDOF 9
