REMARK SMILES CC(C)(C)c1nc(Cn2cc([C@@H]([NH2+]Cc3ccc4c(c3)OCO4)C3CCCC3)nn2)co1
REMARK SMILES IDX 9 1 10 2 11 3 29 4 30 5 8 7 7 8 5 9 6 10 32 11 31 12 2 13
REMARK SMILES IDX 1 14 3 15 4 16 12 17 13 18 14 21 15 22 16 23 20 24 17 25
REMARK SMILES IDX 19 26 18 27 21 28 23 29 22 30 24 31 25 32 28 33 26 34 27 35
REMARK H PARENT 10 6 13 19 13 20
ROOT
ATOM     1   N2  UNL     1       3.037  -0.450   0.594  1.00  0.00    -0.206 N   
ATOM     2   C8  UNL     1       1.993   0.105   1.284  1.00  0.00     0.046 A   
ATOM     3   C9  UNL     1       1.391  -0.968   1.899  1.00  0.00     0.127 A   
ATOM     4   N4  UNL     1       2.082  -2.112   1.589  1.00  0.00    -0.132 NA  
ATOM     5   N5  UNL     1       3.081  -1.784   0.785  1.00  0.00    -0.076 NA  
ATOM     6   H12 UNL     1       1.772   1.164   1.238  1.00  0.00     0.083 HD  
ENDROOT
BRANCH   1   7
ATOM     7   C7  UNL     1       3.990   0.212  -0.277  1.00  0.00     0.192 C   
BRANCH   7   8
ATOM     8   C6  UNL     1       3.346   0.521  -1.575  1.00  0.00     0.086 A   
ATOM     9   C5  UNL     1       2.138   1.568  -2.986  1.00  0.00     0.153 A   
ATOM     10  N1  UNL     1       2.489   1.594  -1.713  1.00  0.00    -0.229 NA  
ATOM     11  O3  UNL     1       2.671   0.516  -3.684  1.00  0.00    -0.301 OA  
ATOM     12  C24 UNL     1       3.450  -0.134  -2.779  1.00  0.00     0.163 A   
BRANCH   9  13
ATOM     13  C2  UNL     1       1.219   2.499  -3.733  1.00  0.00     0.027 C   
ATOM     14  C1  UNL     1       1.669   2.664  -5.195  1.00  0.00     0.020 C   
ATOM     15  C3  UNL     1       1.226   3.884  -3.060  1.00  0.00     0.020 C   
ATOM     16  C4  UNL     1      -0.208   1.929  -3.698  1.00  0.00     0.020 C   
ENDBRANCH   9  13
ENDBRANCH   7   8
ENDBRANCH   1   7
BRANCH   3  17
ATOM     17  C10 UNL     1       0.148  -1.057   2.722  1.00  0.00     0.117 C   
BRANCH  17  18
ATOM     18  N3  UNL     1      -0.632  -2.298   2.336  1.00  0.00     0.249 N   
ATOM     19  H14 UNL     1       0.020  -3.089   2.425  1.00  0.00     0.199 HD  
ATOM     20  H15 UNL     1      -1.399  -2.458   2.994  1.00  0.00     0.199 HD  
BRANCH  18  21
ATOM     21  C11 UNL     1      -1.179  -2.329   0.945  1.00  0.00     0.164 C   
BRANCH  21  22
ATOM     22  C12 UNL     1      -2.201  -1.256   0.692  1.00  0.00    -0.002 A   
ATOM     23  C13 UNL     1      -1.895  -0.167  -0.160  1.00  0.00     0.012 A   
ATOM     24  C17 UNL     1      -3.456  -1.308   1.323  1.00  0.00     0.045 A   
ATOM     25  C14 UNL     1      -2.821   0.859  -0.377  1.00  0.00     0.037 A   
ATOM     26  C16 UNL     1      -4.344  -0.278   1.091  1.00  0.00     0.109 A   
ATOM     27  C15 UNL     1      -4.037   0.775   0.265  1.00  0.00     0.108 A   
ATOM     28  O1  UNL     1      -5.587  -0.171   1.630  1.00  0.00    -0.316 OA  
ATOM     29  O2  UNL     1      -5.049   1.675   0.174  1.00  0.00    -0.316 OA  
ATOM     30  C18 UNL     1      -6.041   1.064   1.028  1.00  0.00     0.337 C   
ENDBRANCH  21  22
ENDBRANCH  18  21
ENDBRANCH  17  18
BRANCH  17  31
ATOM     31  C19 UNL     1       0.458  -1.130   4.230  1.00  0.00     0.043 C   
ATOM     32  C20 UNL     1       1.163   0.118   4.770  1.00  0.00     0.010 C   
ATOM     33  C23 UNL     1      -0.787  -1.227   5.126  1.00  0.00     0.010 C   
ATOM     34  C21 UNL     1       1.000  -0.022   6.274  1.00  0.00     0.001 C   
ATOM     35  C22 UNL     1      -0.411  -0.568   6.455  1.00  0.00     0.001 C   
ENDBRANCH  17  31
ENDBRANCH   3  17
TORSDOF 8
