REMARK SMILES Clc1cccc(CCn2cc([C@@H]([NH2+]Cc3ccc4c(c3)OCO4)C3CCCC3)nn2)n1
REMARK SMILES IDX 9 1 10 2 11 3 29 4 30 5 8 7 7 8 6 9 2 10 3 11 31 12 4 13
REMARK SMILES IDX 5 14 1 15 12 16 13 17 14 20 15 21 16 22 20 23 17 24 19 25
REMARK SMILES IDX 18 26 21 27 23 28 22 29 24 30 25 31 28 32 26 33 27 34
REMARK H PARENT 10 6 13 18 13 19
ROOT
ATOM     1   N1  UNL     1      -1.899   3.050   0.376  1.00  0.00    -0.212 N   
ATOM     2   C8  UNL     1      -0.767   2.484   0.889  1.00  0.00     0.045 A   
ATOM     3   C9  UNL     1      -0.206   1.840  -0.189  1.00  0.00     0.127 A   
ATOM     4   N3  UNL     1      -0.957   2.094  -1.309  1.00  0.00    -0.132 NA  
ATOM     5   N4  UNL     1      -1.985   2.845  -0.952  1.00  0.00    -0.076 NA  
ATOM     6   H8  UNL     1      -0.525   2.525   1.942  1.00  0.00     0.083 HD  
ENDROOT
BRANCH   1   7
ATOM     7   C7  UNL     1      -2.941   3.767   1.081  1.00  0.00     0.140 C   
BRANCH   7   8
ATOM     8   C6  UNL     1      -4.265   3.005   1.162  1.00  0.00     0.077 C   
BRANCH   8   9
ATOM     9   C5  UNL     1      -4.255   1.865   2.157  1.00  0.00     0.044 A   
ATOM     10  C1  UNL     1      -3.212  -0.004   3.020  1.00  0.00     0.129 A   
ATOM     11  C2  UNL     1      -4.241  -0.270   3.901  1.00  0.00     0.041 A   
ATOM     12  N5  UNL     1      -3.189   1.029   2.150  1.00  0.00    -0.241 NA  
ATOM     13  C3  UNL     1      -5.334   0.587   3.885  1.00  0.00     0.005 A   
ATOM     14  C4  UNL     1      -5.347   1.664   3.001  1.00  0.00     0.024 A   
ATOM     15  CL1 UNL     1      -1.817  -1.002   2.946  1.00  0.00    -0.062 Cl  
ENDBRANCH   8   9
ENDBRANCH   7   8
ENDBRANCH   1   7
BRANCH   3  16
ATOM     16  C10 UNL     1       0.941   0.890  -0.273  1.00  0.00     0.117 C   
BRANCH  16  17
ATOM     17  N2  UNL     1       0.547  -0.279  -1.140  1.00  0.00     0.249 N   
ATOM     18  H10 UNL     1       1.356  -0.840  -1.420  1.00  0.00     0.199 HD  
ATOM     19  H11 UNL     1       0.147   0.115  -2.005  1.00  0.00     0.199 HD  
BRANCH  17  20
ATOM     20  C11 UNL     1      -0.481  -1.184  -0.550  1.00  0.00     0.164 C   
BRANCH  20  21
ATOM     21  C12 UNL     1      -0.829  -2.278  -1.519  1.00  0.00    -0.002 A   
ATOM     22  C13 UNL     1      -1.826  -2.064  -2.501  1.00  0.00     0.012 A   
ATOM     23  C17 UNL     1      -0.130  -3.496  -1.495  1.00  0.00     0.045 A   
ATOM     24  C14 UNL     1      -2.132  -3.054  -3.442  1.00  0.00     0.037 A   
ATOM     25  C16 UNL     1      -0.456  -4.450  -2.436  1.00  0.00     0.109 A   
ATOM     26  C15 UNL     1      -1.428  -4.236  -3.382  1.00  0.00     0.108 A   
ATOM     27  O1  UNL     1       0.121  -5.675  -2.552  1.00  0.00    -0.316 OA  
ATOM     28  O2  UNL     1      -1.587  -5.301  -4.211  1.00  0.00    -0.316 OA  
ATOM     29  C18 UNL     1      -0.617  -6.221  -3.668  1.00  0.00     0.337 C   
ENDBRANCH  20  21
ENDBRANCH  17  20
ENDBRANCH  16  17
BRANCH  16  30
ATOM     30  C19 UNL     1       2.196   1.549  -0.875  1.00  0.00     0.043 C   
ATOM     31  C20 UNL     1       3.411   0.617  -0.976  1.00  0.00     0.010 C   
ATOM     32  C23 UNL     1       2.745   2.698  -0.024  1.00  0.00     0.010 C   
ATOM     33  C21 UNL     1       4.634   1.533  -0.993  1.00  0.00     0.001 C   
ATOM     34  C22 UNL     1       4.141   2.918  -0.588  1.00  0.00     0.001 C   
ENDBRANCH  16  30
ENDBRANCH   3  16
TORSDOF 8
