REMARK SMILES CC(C)[C@H]([NH2+]Cc1ccc2c(c1)OCO2)c1cn(C[C@@H](O)c2ccccc2F)nn1
REMARK SMILES IDX 16 1 17 2 18 3 29 4 30 5 4 7 2 8 1 9 3 10 5 11 6 14 7 15
REMARK SMILES IDX 8 16 12 17 9 18 11 19 10 20 13 21 15 22 14 23 19 24 20 25
REMARK SMILES IDX 21 26 22 28 23 29 27 30 24 31 26 32 25 33 28 34
REMARK H PARENT 17 6 5 12 5 13 21 27
ROOT
ATOM     1   C13 UNL     1      -1.268   1.752   1.215  1.00  0.00     0.127 A   
ATOM     2   C14 UNL     1      -0.978   1.315  -0.057  1.00  0.00     0.045 A   
ATOM     3   N2  UNL     1       0.377   1.463  -0.152  1.00  0.00    -0.209 N   
ATOM     4   N3  UNL     1       0.889   1.980   0.980  1.00  0.00    -0.076 NA  
ATOM     5   N4  UNL     1      -0.109   2.159   1.829  1.00  0.00    -0.132 NA  
ATOM     6   H18 UNL     1      -1.570   0.887  -0.856  1.00  0.00     0.083 HD  
ENDROOT
BRANCH   1   7
ATOM     7   C4  UNL     1      -2.542   1.763   1.996  1.00  0.00     0.117 C   
BRANCH   7   8
ATOM     8   C2  UNL     1      -3.308   3.105   1.865  1.00  0.00     0.037 C   
ATOM     9   C1  UNL     1      -2.584   4.311   2.477  1.00  0.00     0.014 C   
ATOM     10  C3  UNL     1      -4.724   3.001   2.446  1.00  0.00     0.014 C   
ENDBRANCH   7   8
BRANCH   7  11
ATOM     11  N1  UNL     1      -2.237   1.460   3.449  1.00  0.00     0.249 N   
ATOM     12  H9  UNL     1      -2.768   2.071   4.075  1.00  0.00     0.199 HD  
ATOM     13  H10 UNL     1      -1.246   1.721   3.581  1.00  0.00     0.199 HD  
BRANCH  11  14
ATOM     14  C5  UNL     1      -2.411   0.046   3.887  1.00  0.00     0.164 C   
BRANCH  14  15
ATOM     15  C6  UNL     1      -1.616  -0.956   3.096  1.00  0.00    -0.002 A   
ATOM     16  C7  UNL     1      -0.205  -0.998   3.194  1.00  0.00     0.012 A   
ATOM     17  C11 UNL     1      -2.272  -1.838   2.220  1.00  0.00     0.045 A   
ATOM     18  C8  UNL     1       0.545  -1.889   2.416  1.00  0.00     0.037 A   
ATOM     19  C10 UNL     1      -1.504  -2.704   1.469  1.00  0.00     0.109 A   
ATOM     20  C9  UNL     1      -0.135  -2.725   1.559  1.00  0.00     0.108 A   
ATOM     21  O1  UNL     1      -1.982  -3.602   0.569  1.00  0.00    -0.316 OA  
ATOM     22  O2  UNL     1       0.426  -3.629   0.712  1.00  0.00    -0.316 OA  
ATOM     23  C12 UNL     1      -0.755  -4.221   0.124  1.00  0.00     0.337 C   
ENDBRANCH  14  15
ENDBRANCH  11  14
ENDBRANCH   7  11
ENDBRANCH   1   7
BRANCH   3  24
ATOM     24  C15 UNL     1       1.247   1.110  -1.258  1.00  0.00     0.170 C   
BRANCH  24  25
ATOM     25  C16 UNL     1       1.810  -0.301  -1.083  1.00  0.00     0.167 C   
BRANCH  25  26
ATOM     26  O3  UNL     1       0.771  -1.261  -1.323  1.00  0.00    -0.387 OA  
ATOM     27  H22 UNL     1       1.154  -2.131  -1.097  1.00  0.00     0.211 HD  
ENDBRANCH  25  26
BRANCH  25  28
ATOM     28  C17 UNL     1       2.952  -0.556  -2.036  1.00  0.00     0.018 A   
ATOM     29  C18 UNL     1       2.745  -0.992  -3.353  1.00  0.00     0.009 A   
ATOM     30  C22 UNL     1       4.264  -0.313  -1.616  1.00  0.00     0.129 A   
ATOM     31  C19 UNL     1       3.830  -1.193  -4.210  1.00  0.00     0.001 A   
ATOM     32  C21 UNL     1       5.349  -0.511  -2.463  1.00  0.00     0.039 A   
ATOM     33  C20 UNL     1       5.131  -0.956  -3.765  1.00  0.00     0.003 A   
ATOM     34  F1  UNL     1       4.488   0.129  -0.370  1.00  0.00    -0.207 F   
ENDBRANCH  25  28
ENDBRANCH  24  25
ENDBRANCH   3  24
TORSDOF 9
