REMARK SMILES CC(C)[C@H]([NH2+]Cc1ccc2c(c1)OCO2)c1cn(C[C@H](O)c2ccccc2F)nn1
REMARK SMILES IDX 16 1 17 2 18 3 29 4 30 5 4 7 2 8 1 9 3 10 5 11 6 14 7 15
REMARK SMILES IDX 8 16 12 17 9 18 11 19 10 20 13 21 15 22 14 23 19 24 20 25
REMARK SMILES IDX 21 26 22 28 23 29 27 30 24 31 26 32 25 33 28 34
REMARK H PARENT 17 6 5 12 5 13 21 27
ROOT
ATOM     1   C13 UNL     1       0.947   0.145  -2.157  1.00  0.00     0.127 A   
ATOM     2   C14 UNL     1       1.980   1.040  -2.003  1.00  0.00     0.045 A   
ATOM     3   N2  UNL     1       1.357   2.190  -1.605  1.00  0.00    -0.209 N   
ATOM     4   N3  UNL     1       0.021   2.032  -1.575  1.00  0.00    -0.076 NA  
ATOM     5   N4  UNL     1      -0.242   0.778  -1.898  1.00  0.00    -0.132 NA  
ATOM     6   H18 UNL     1       3.057   0.961  -2.065  1.00  0.00     0.083 HD  
ENDROOT
BRANCH   1   7
ATOM     7   C4  UNL     1       0.944  -1.328  -2.412  1.00  0.00     0.117 C   
BRANCH   7   8
ATOM     8   C2  UNL     1       0.742  -1.679  -3.907  1.00  0.00     0.037 C   
ATOM     9   C1  UNL     1      -0.652  -1.347  -4.452  1.00  0.00     0.014 C   
ATOM     10  C3  UNL     1       1.064  -3.153  -4.183  1.00  0.00     0.014 C   
ENDBRANCH   7   8
BRANCH   7  11
ATOM     11  N1  UNL     1      -0.126  -1.963  -1.563  1.00  0.00     0.249 N   
ATOM     12  H9  UNL     1      -0.944  -1.335  -1.625  1.00  0.00     0.199 HD  
ATOM     13  H10 UNL     1      -0.435  -2.871  -1.921  1.00  0.00     0.199 HD  
BRANCH  11  14
ATOM     14  C5  UNL     1       0.225  -2.083  -0.120  1.00  0.00     0.164 C   
BRANCH  14  15
ATOM     15  C6  UNL     1      -1.003  -2.265   0.726  1.00  0.00    -0.002 A   
ATOM     16  C7  UNL     1      -1.428  -3.555   1.117  1.00  0.00     0.012 A   
ATOM     17  C11 UNL     1      -1.748  -1.137   1.119  1.00  0.00     0.045 A   
ATOM     18  C8  UNL     1      -2.570  -3.722   1.909  1.00  0.00     0.037 A   
ATOM     19  C10 UNL     1      -2.861  -1.337   1.909  1.00  0.00     0.109 A   
ATOM     20  C9  UNL     1      -3.260  -2.592   2.294  1.00  0.00     0.108 A   
ATOM     21  O1  UNL     1      -3.669  -0.361   2.401  1.00  0.00    -0.316 OA  
ATOM     22  O2  UNL     1      -4.374  -2.566   3.072  1.00  0.00    -0.316 OA  
ATOM     23  C12 UNL     1      -4.603  -1.143   3.177  1.00  0.00     0.337 C   
ENDBRANCH  14  15
ENDBRANCH  11  14
ENDBRANCH   7  11
ENDBRANCH   1   7
BRANCH   3  24
ATOM     24  C15 UNL     1       1.958   3.446  -1.210  1.00  0.00     0.170 C   
BRANCH  24  25
ATOM     25  C16 UNL     1       2.512   3.436   0.222  1.00  0.00     0.167 C   
BRANCH  25  26
ATOM     26  O3  UNL     1       3.664   2.587   0.292  1.00  0.00    -0.387 OA  
ATOM     27  H22 UNL     1       3.882   2.469   1.234  1.00  0.00     0.211 HD  
ENDBRANCH  25  26
BRANCH  25  28
ATOM     28  C17 UNL     1       1.486   3.123   1.292  1.00  0.00     0.018 A   
ATOM     29  C18 UNL     1       0.661   4.157   1.780  1.00  0.00     0.009 A   
ATOM     30  C22 UNL     1       1.288   1.830   1.797  1.00  0.00     0.129 A   
ATOM     31  C19 UNL     1      -0.310   3.896   2.752  1.00  0.00     0.001 A   
ATOM     32  C21 UNL     1       0.331   1.570   2.777  1.00  0.00     0.039 A   
ATOM     33  C20 UNL     1      -0.472   2.604   3.255  1.00  0.00     0.003 A   
ATOM     34  F1  UNL     1       2.009   0.794   1.331  1.00  0.00    -0.207 F   
ENDBRANCH  25  28
ENDBRANCH  24  25
ENDBRANCH   3  24
TORSDOF 9
