REMARK SMILES c1cc2c(c(Cn3cc([C@@H]([NH2+]Cc4ccc5c(c4)OCO5)C4CCCC4)nn3)c1)OCC2
REMARK SMILES IDX 10 1 9 2 7 3 8 4 28 5 27 6 6 8 5 9 1 10 2 11 29 12 3 13 4 14
REMARK SMILES IDX 32 15 30 16 31 17 11 18 12 21 13 22 14 23 18 24 15 25 17 26
REMARK SMILES IDX 16 27 19 28 21 29 20 30 22 31 23 32 26 33 24 34 25 35
REMARK H PARENT 8 7 11 19 11 20
ROOT
ATOM     1   C9  UNL     1       1.825  -0.491  -1.249  1.00  0.00     0.117 C   
ENDROOT
BRANCH   1   2
ATOM     2   C8  UNL     1       1.051   0.725  -0.870  1.00  0.00     0.127 A   
ATOM     3   N1  UNL     1      -0.356   2.181  -0.118  1.00  0.00    -0.208 N   
ATOM     4   C7  UNL     1       0.127   0.926   0.129  1.00  0.00     0.046 A   
ATOM     5   N4  UNL     1       0.271   2.738  -1.174  1.00  0.00    -0.076 NA  
ATOM     6   N3  UNL     1       1.137   1.854  -1.642  1.00  0.00    -0.132 NA  
ATOM     7   H5  UNL     1      -0.261   0.304   0.925  1.00  0.00     0.083 HD  
BRANCH   3   8
ATOM     8   C6  UNL     1      -1.438   2.874   0.559  1.00  0.00     0.172 C   
BRANCH   8   9
ATOM     9   C5  UNL     1      -2.760   2.522  -0.061  1.00  0.00     0.002 A   
ATOM     10  C1  UNL     1      -4.576   2.989  -1.628  1.00  0.00     0.001 A   
ATOM     11  C2  UNL     1      -5.236   1.815  -1.258  1.00  0.00     0.006 A   
ATOM     12  C23 UNL     1      -3.349   3.339  -1.040  1.00  0.00     0.008 A   
ATOM     13  C3  UNL     1      -4.650   1.014  -0.296  1.00  0.00    -0.015 A   
ATOM     14  C4  UNL     1      -3.438   1.362   0.282  1.00  0.00     0.083 A   
ATOM     15  C25 UNL     1      -5.093  -0.296   0.232  1.00  0.00     0.067 C   
ATOM     16  O3  UNL     1      -2.986   0.434   1.188  1.00  0.00    -0.345 OA  
ATOM     17  C24 UNL     1      -4.144  -0.406   1.424  1.00  0.00     0.173 C   
ENDBRANCH   8   9
ENDBRANCH   3   8
ENDBRANCH   1   2
BRANCH   1  18
ATOM     18  N2  UNL     1       1.755  -0.696  -2.749  1.00  0.00     0.249 N   
ATOM     19  H7  UNL     1       2.131   0.164  -3.173  1.00  0.00     0.199 HD  
ATOM     20  H8  UNL     1       2.359  -1.470  -3.031  1.00  0.00     0.199 HD  
BRANCH  18  21
ATOM     21  C10 UNL     1       0.392  -0.905  -3.331  1.00  0.00     0.164 C   
BRANCH  21  22
ATOM     22  C11 UNL     1      -0.297  -2.135  -2.808  1.00  0.00    -0.002 A   
ATOM     23  C12 UNL     1       0.147  -3.423  -3.192  1.00  0.00     0.012 A   
ATOM     24  C16 UNL     1      -1.376  -2.013  -1.912  1.00  0.00     0.045 A   
ATOM     25  C13 UNL     1      -0.468  -4.574  -2.688  1.00  0.00     0.037 A   
ATOM     26  C15 UNL     1      -1.959  -3.167  -1.433  1.00  0.00     0.109 A   
ATOM     27  C14 UNL     1      -1.517  -4.412  -1.809  1.00  0.00     0.108 A   
ATOM     28  O1  UNL     1      -3.000  -3.228  -0.562  1.00  0.00    -0.316 OA  
ATOM     29  O2  UNL     1      -2.225  -5.412  -1.224  1.00  0.00    -0.316 OA  
ATOM     30  C17 UNL     1      -3.190  -4.658  -0.462  1.00  0.00     0.337 C   
ENDBRANCH  21  22
ENDBRANCH  18  21
ENDBRANCH   1  18
BRANCH   1  31
ATOM     31  C18 UNL     1       3.308  -0.380  -0.844  1.00  0.00     0.043 C   
ATOM     32  C19 UNL     1       3.519  -0.252   0.668  1.00  0.00     0.010 C   
ATOM     33  C22 UNL     1       4.145  -1.622  -1.175  1.00  0.00     0.010 C   
ATOM     34  C20 UNL     1       5.001  -0.543   0.845  1.00  0.00     0.001 C   
ATOM     35  C21 UNL     1       5.349  -1.562  -0.235  1.00  0.00     0.001 C   
ENDBRANCH   1  31
TORSDOF 7
