REMARK SMILES Cc1ccc(N([O-])[O-])c(-n2cc([C@@H]([NH2+]Cc3ccc4c(c3)OCO4)C3CCCCC3)nn2)c1
REMARK SMILES IDX 10 1 11 2 12 3 31 4 32 5 9 6 2 7 3 8 33 9 4 10 5 11 1 12
REMARK SMILES IDX 6 13 7 14 8 15 13 16 14 17 15 20 16 21 17 22 21 23 18 24
REMARK SMILES IDX 20 25 19 26 22 27 24 28 23 29 25 30 26 31 30 32 27 33 29 34
REMARK SMILES IDX 28 35
REMARK H PARENT 14 18 14 19
ROOT
ATOM     1   N2  UNL     1       0.946  -0.673  -2.006  1.00  0.00    -0.178 N   
ATOM     2   C7  UNL     1      -0.085  -0.695  -1.086  1.00  0.00     0.135 A   
ATOM     3   C8  UNL     1      -0.234   0.609  -0.668  1.00  0.00     0.127 A   
ATOM     4   N4  UNL     1       0.741   1.371  -1.238  1.00  0.00    -0.131 NA  
ATOM     5   N5  UNL     1       1.467   0.587  -2.017  1.00  0.00    -0.071 NA  
ENDROOT
BRANCH   1   6
ATOM     6   C6  UNL     1       1.515  -1.704  -2.805  1.00  0.00     0.086 A   
ATOM     7   C2  UNL     1       3.420  -2.436  -4.174  1.00  0.00    -0.049 A   
ATOM     8   C3  UNL     1       2.819  -3.685  -4.353  1.00  0.00     0.006 A   
ATOM     9   C24 UNL     1       2.762  -1.452  -3.413  1.00  0.00     0.031 A   
ATOM     10  C4  UNL     1       1.575  -3.952  -3.786  1.00  0.00     0.033 A   
ATOM     11  C5  UNL     1       0.933  -2.962  -3.026  1.00  0.00     0.141 A   
ATOM     12  C1  UNL     1       4.745  -2.125  -4.809  1.00  0.00     0.044 C   
BRANCH  11  13
ATOM     13  N1  UNL     1      -0.401  -3.285  -2.581  1.00  0.00     0.094 N   
ATOM     14  O1  UNL     1      -1.336  -2.683  -3.124  1.00  0.00    -0.138 OA  
ATOM     15  O2  UNL     1      -0.500  -4.098  -1.655  1.00  0.00    -0.138 OA  
ENDBRANCH  11  13
ENDBRANCH   1   6
BRANCH   3  16
ATOM     16  C9  UNL     1      -1.188   1.217   0.308  1.00  0.00     0.117 C   
BRANCH  16  17
ATOM     17  N3  UNL     1      -0.490   2.254   1.166  1.00  0.00     0.249 N   
ATOM     18  H8  UNL     1      -0.028   2.908   0.521  1.00  0.00     0.199 HD  
ATOM     19  H9  UNL     1      -1.184   2.788   1.698  1.00  0.00     0.199 HD  
BRANCH  17  20
ATOM     20  C10 UNL     1       0.562   1.752   2.101  1.00  0.00     0.164 C   
BRANCH  20  21
ATOM     21  C11 UNL     1       0.045   0.757   3.103  1.00  0.00    -0.002 A   
ATOM     22  C12 UNL     1      -0.825   1.163   4.143  1.00  0.00     0.012 A   
ATOM     23  C16 UNL     1       0.402  -0.598   2.990  1.00  0.00     0.045 A   
ATOM     24  C13 UNL     1      -1.343   0.231   5.050  1.00  0.00     0.037 A   
ATOM     25  C15 UNL     1      -0.127  -1.490   3.899  1.00  0.00     0.109 A   
ATOM     26  C14 UNL     1      -0.978  -1.088   4.899  1.00  0.00     0.108 A   
ATOM     27  O3  UNL     1       0.108  -2.827   3.922  1.00  0.00    -0.316 OA  
ATOM     28  O4  UNL     1      -1.385  -2.123   5.679  1.00  0.00    -0.316 OA  
ATOM     29  C17 UNL     1      -0.677  -3.225   5.070  1.00  0.00     0.337 C   
ENDBRANCH  20  21
ENDBRANCH  17  20
ENDBRANCH  16  17
BRANCH  16  30
ATOM     30  C18 UNL     1      -2.429   1.885  -0.348  1.00  0.00     0.043 C   
ATOM     31  C19 UNL     1      -2.098   3.040  -1.313  1.00  0.00     0.010 C   
ATOM     32  C23 UNL     1      -3.323   0.846  -1.054  1.00  0.00     0.010 C   
ATOM     33  C20 UNL     1      -3.365   3.672  -1.889  1.00  0.00     0.001 C   
ATOM     34  C22 UNL     1      -4.585   1.482  -1.634  1.00  0.00     0.001 C   
ATOM     35  C21 UNL     1      -4.252   2.637  -2.571  1.00  0.00     0.000 C   
ENDBRANCH  16  30
ENDBRANCH   3  16
TORSDOF 7
