REMARK SMILES c1nc(C2CC2)c(Cn2cc([C@@H]([NH2+]Cc3ccc4c(c3)OCO4)C3CCCC3)nn2)s1
REMARK SMILES IDX 9 1 10 2 11 3 29 4 30 5 8 7 7 8 1 9 2 10 31 11 3 12 4 13
REMARK SMILES IDX 5 14 6 15 12 16 13 17 14 20 15 21 16 22 20 23 17 24 19 25
REMARK SMILES IDX 18 26 21 27 23 28 22 29 24 30 25 31 28 32 26 33 27 34
REMARK H PARENT 10 6 13 18 13 19
ROOT
ATOM     1   N2  UNL     1       1.618  -0.808   2.283  1.00  0.00    -0.207 N   
ATOM     2   C8  UNL     1       1.243  -1.897   1.542  1.00  0.00     0.046 A   
ATOM     3   C9  UNL     1       1.197  -1.423   0.249  1.00  0.00     0.127 A   
ATOM     4   N4  UNL     1       1.537  -0.093   0.248  1.00  0.00    -0.132 NA  
ATOM     5   N5  UNL     1       1.793   0.269   1.494  1.00  0.00    -0.076 NA  
ATOM     6   H9  UNL     1       1.040  -2.860   1.990  1.00  0.00     0.083 HD  
ENDROOT
BRANCH   1   7
ATOM     7   C7  UNL     1       1.811  -0.719   3.723  1.00  0.00     0.178 C   
BRANCH   7   8
ATOM     8   C6  UNL     1       0.494  -0.710   4.419  1.00  0.00     0.032 A   
ATOM     9   C1  UNL     1      -1.508  -1.253   5.666  1.00  0.00     0.157 A   
ATOM     10  N1  UNL     1      -1.588  -0.016   5.231  1.00  0.00    -0.253 NA  
ATOM     11  S1  UNL     1      -0.086  -2.108   5.237  1.00  0.00    -0.079 S   
ATOM     12  C2  UNL     1      -0.435   0.305   4.550  1.00  0.00     0.056 A   
BRANCH  12  13
ATOM     13  C3  UNL     1      -0.238   1.731   3.955  1.00  0.00     0.039 C   
ATOM     14  C4  UNL     1      -0.696   2.920   4.760  1.00  0.00     0.011 C   
ATOM     15  C5  UNL     1       0.770   2.656   4.586  1.00  0.00     0.011 C   
ENDBRANCH  12  13
ENDBRANCH   7   8
ENDBRANCH   1   7
BRANCH   3  16
ATOM     16  C10 UNL     1       0.793  -2.076  -1.034  1.00  0.00     0.117 C   
BRANCH  16  17
ATOM     17  N3  UNL     1       0.166  -1.052  -1.949  1.00  0.00     0.249 N   
ATOM     18  H11 UNL     1       0.774  -0.220  -1.923  1.00  0.00     0.199 HD  
ATOM     19  H12 UNL     1       0.154  -1.371  -2.923  1.00  0.00     0.199 HD  
BRANCH  17  20
ATOM     20  C11 UNL     1      -1.204  -0.606  -1.567  1.00  0.00     0.164 C   
BRANCH  20  21
ATOM     21  C12 UNL     1      -1.666   0.494  -2.479  1.00  0.00    -0.002 A   
ATOM     22  C13 UNL     1      -1.328   1.839  -2.193  1.00  0.00     0.012 A   
ATOM     23  C17 UNL     1      -2.383   0.193  -3.648  1.00  0.00     0.045 A   
ATOM     24  C14 UNL     1      -1.710   2.874  -3.054  1.00  0.00     0.037 A   
ATOM     25  C16 UNL     1      -2.743   1.237  -4.476  1.00  0.00     0.109 A   
ATOM     26  C15 UNL     1      -2.417   2.539  -4.188  1.00  0.00     0.108 A   
ATOM     27  O1  UNL     1      -3.434   1.119  -5.640  1.00  0.00    -0.316 OA  
ATOM     28  O2  UNL     1      -2.863   3.406  -5.133  1.00  0.00    -0.316 OA  
ATOM     29  C18 UNL     1      -3.529   2.505  -6.043  1.00  0.00     0.337 C   
ENDBRANCH  20  21
ENDBRANCH  17  20
ENDBRANCH  16  17
BRANCH  16  30
ATOM     30  C19 UNL     1       1.941  -2.752  -1.806  1.00  0.00     0.043 C   
ATOM     31  C20 UNL     1       2.650  -3.882  -1.057  1.00  0.00     0.010 C   
ATOM     32  C23 UNL     1       3.111  -1.853  -2.212  1.00  0.00     0.010 C   
ATOM     33  C21 UNL     1       3.900  -4.145  -1.892  1.00  0.00     0.001 C   
ATOM     34  C22 UNL     1       4.207  -2.836  -2.620  1.00  0.00     0.001 C   
ENDBRANCH  16  30
ENDBRANCH   3  16
TORSDOF 8
