REMARK SMILES Cc1cccc(N([O-])[O-])c1Cn1cc([C@H](CC(C)C)[NH2+]Cc2ccc3c(c2)OCO3)nn1
REMARK SMILES IDX 12 1 13 2 14 3 31 4 32 5 11 7 10 8 2 9 3 10 4 11 6 12 5 13
REMARK SMILES IDX 1 14 7 15 8 16 9 17 15 18 16 19 17 20 18 21 19 22 20 23
REMARK SMILES IDX 21 26 22 27 23 28 27 29 24 30 26 31 25 32 28 33 30 34 29 35
REMARK H PARENT 13 6 20 24 20 25
ROOT
ATOM     1   N2  UNL     1      -1.853   1.017   1.566  1.00  0.00    -0.208 N   
ATOM     2   C9  UNL     1      -1.562   0.089   0.604  1.00  0.00     0.046 A   
ATOM     3   C10 UNL     1      -0.397  -0.494   1.047  1.00  0.00     0.127 A   
ATOM     4   N4  UNL     1      -0.047   0.058   2.252  1.00  0.00    -0.132 NA  
ATOM     5   N5  UNL     1      -0.951   0.972   2.564  1.00  0.00    -0.076 NA  
ATOM     6   H9  UNL     1      -2.160  -0.030  -0.290  1.00  0.00     0.083 HD  
ENDROOT
BRANCH   1   7
ATOM     7   C8  UNL     1      -2.924   2.006   1.563  1.00  0.00     0.172 C   
BRANCH   7   8
ATOM     8   C7  UNL     1      -2.415   3.432   1.713  1.00  0.00     0.003 A   
ATOM     9   C2  UNL     1      -2.819   4.232   2.812  1.00  0.00    -0.044 A   
ATOM     10  C3  UNL     1      -2.336   5.551   2.933  1.00  0.00     0.004 A   
ATOM     11  C4  UNL     1      -1.463   6.097   1.993  1.00  0.00     0.002 A   
ATOM     12  C6  UNL     1      -1.526   4.022   0.779  1.00  0.00     0.123 A   
ATOM     13  C5  UNL     1      -1.049   5.333   0.910  1.00  0.00     0.031 A   
ATOM     14  C1  UNL     1      -3.747   3.724   3.887  1.00  0.00     0.045 C   
BRANCH  12  15
ATOM     15  N1  UNL     1      -1.040   3.274  -0.370  1.00  0.00     0.092 N   
ATOM     16  O1  UNL     1       0.185   3.112  -0.471  1.00  0.00    -0.138 OA  
ATOM     17  O2  UNL     1      -1.883   2.802  -1.143  1.00  0.00    -0.138 OA  
ENDBRANCH  12  15
ENDBRANCH   7   8
ENDBRANCH   1   7
BRANCH   3  18
ATOM     18  C11 UNL     1       0.505  -1.496   0.410  1.00  0.00     0.114 C   
BRANCH  18  19
ATOM     19  C12 UNL     1       0.385  -2.892   1.050  1.00  0.00     0.064 C   
BRANCH  19  20
ATOM     20  C13 UNL     1      -0.999  -3.561   0.907  1.00  0.00    -0.012 C   
ATOM     21  C14 UNL     1      -0.998  -4.908   1.637  1.00  0.00     0.007 C   
ATOM     22  C15 UNL     1      -1.398  -3.769  -0.554  1.00  0.00     0.007 C   
ENDBRANCH  19  20
ENDBRANCH  18  19
BRANCH  18  23
ATOM     23  N3  UNL     1       1.947  -1.058   0.579  1.00  0.00     0.249 N   
ATOM     24  H20 UNL     1       2.054  -0.797   1.571  1.00  0.00     0.199 HD  
ATOM     25  H21 UNL     1       2.580  -1.842   0.401  1.00  0.00     0.199 HD  
BRANCH  23  26
ATOM     26  C16 UNL     1       2.375   0.115  -0.243  1.00  0.00     0.164 C   
BRANCH  26  27
ATOM     27  C17 UNL     1       2.441  -0.202  -1.712  1.00  0.00    -0.002 A   
ATOM     28  C18 UNL     1       1.514   0.380  -2.610  1.00  0.00     0.012 A   
ATOM     29  C22 UNL     1       3.408  -1.096  -2.202  1.00  0.00     0.045 A   
ATOM     30  C19 UNL     1       1.540   0.069  -3.974  1.00  0.00     0.037 A   
ATOM     31  C21 UNL     1       3.404  -1.383  -3.551  1.00  0.00     0.109 A   
ATOM     32  C20 UNL     1       2.497  -0.818  -4.413  1.00  0.00     0.108 A   
ATOM     33  O3  UNL     1       4.261  -2.230  -4.180  1.00  0.00    -0.316 OA  
ATOM     34  O4  UNL     1       2.669  -1.236  -5.694  1.00  0.00    -0.316 OA  
ATOM     35  C23 UNL     1       3.802  -2.118  -5.547  1.00  0.00     0.337 C   
ENDBRANCH  26  27
ENDBRANCH  23  26
ENDBRANCH  18  23
ENDBRANCH   3  18
TORSDOF 9
