REMARK SMILES CC(C)(C)[C@H]([NH2+]Cc1ccc2c(c1)OCO2)c1cn(C[C@H]2Cc3cc(F)ccc3O2)nn1
REMARK SMILES IDX 17 1 18 2 19 3 31 4 32 5 5 7 2 8 1 9 3 10 4 11 6 12 7 15
REMARK SMILES IDX 8 16 9 17 13 18 10 19 12 20 11 21 14 22 16 23 15 24 20 25
REMARK SMILES IDX 21 26 22 27 30 28 23 29 29 30 24 31 28 32 25 33 27 34 26 35
REMARK H PARENT 18 6 6 13 6 14
ROOT
ATOM     1   C14 UNL     1      -0.196  -0.453  -2.356  1.00  0.00     0.127 A   
ATOM     2   C15 UNL     1       0.901  -0.507  -3.186  1.00  0.00     0.045 A   
ATOM     3   N2  UNL     1       1.271   0.799  -3.328  1.00  0.00    -0.210 N   
ATOM     4   N3  UNL     1       0.438   1.611  -2.651  1.00  0.00    -0.076 NA  
ATOM     5   N4  UNL     1      -0.450   0.855  -2.032  1.00  0.00    -0.132 NA  
ATOM     6   H20 UNL     1       1.448  -1.314  -3.648  1.00  0.00     0.083 HD  
ENDROOT
BRANCH   1   7
ATOM     7   C5  UNL     1      -1.015  -1.539  -1.729  1.00  0.00     0.120 C   
BRANCH   7   8
ATOM     8   C2  UNL     1      -2.343  -1.872  -2.499  1.00  0.00     0.010 C   
ATOM     9   C1  UNL     1      -3.331  -0.688  -2.518  1.00  0.00     0.017 C   
ATOM     10  C3  UNL     1      -2.026  -2.271  -3.960  1.00  0.00     0.017 C   
ATOM     11  C4  UNL     1      -3.051  -3.084  -1.851  1.00  0.00     0.017 C   
ENDBRANCH   7   8
BRANCH   7  12
ATOM     12  N1  UNL     1      -1.319  -1.155  -0.299  1.00  0.00     0.250 N   
ATOM     13  H11 UNL     1      -2.085  -1.700   0.100  1.00  0.00     0.199 HD  
ATOM     14  H12 UNL     1      -1.640  -0.175  -0.314  1.00  0.00     0.199 HD  
BRANCH  12  15
ATOM     15  C6  UNL     1      -0.156  -1.210   0.633  1.00  0.00     0.164 C   
BRANCH  15  16
ATOM     16  C7  UNL     1      -0.596  -0.882   2.031  1.00  0.00    -0.002 A   
ATOM     17  C8  UNL     1      -1.007  -1.910   2.912  1.00  0.00     0.012 A   
ATOM     18  C12 UNL     1      -0.662   0.462   2.451  1.00  0.00     0.045 A   
ATOM     19  C9  UNL     1      -1.478  -1.609   4.195  1.00  0.00     0.037 A   
ATOM     20  C11 UNL     1      -1.131   0.725   3.721  1.00  0.00     0.109 A   
ATOM     21  C10 UNL     1      -1.528  -0.280   4.568  1.00  0.00     0.108 A   
ATOM     22  O1  UNL     1      -1.266   1.960   4.278  1.00  0.00    -0.316 OA  
ATOM     23  O2  UNL     1      -1.960   0.197   5.767  1.00  0.00    -0.316 OA  
ATOM     24  C13 UNL     1      -1.779   1.621   5.584  1.00  0.00     0.337 C   
ENDBRANCH  15  16
ENDBRANCH  12  15
ENDBRANCH   7  12
ENDBRANCH   1   7
BRANCH   3  25
ATOM     25  C16 UNL     1       2.396   1.337  -4.064  1.00  0.00     0.166 C   
BRANCH  25  26
ATOM     26  C17 UNL     1       3.646   1.588  -3.208  1.00  0.00     0.149 C   
ATOM     27  C18 UNL     1       3.458   2.615  -2.074  1.00  0.00     0.072 C   
ATOM     28  O3  UNL     1       4.117   0.328  -2.641  1.00  0.00    -0.341 OA  
ATOM     29  C19 UNL     1       3.425   1.698  -0.911  1.00  0.00    -0.012 A   
ATOM     30  C24 UNL     1       3.859   0.437  -1.298  1.00  0.00     0.079 A   
ATOM     31  C20 UNL     1       3.098   1.964   0.407  1.00  0.00     0.045 A   
ATOM     32  C23 UNL     1       4.007  -0.597  -0.392  1.00  0.00     0.037 A   
ATOM     33  C21 UNL     1       3.228   0.927   1.329  1.00  0.00     0.123 A   
ATOM     34  C22 UNL     1       3.685  -0.342   0.948  1.00  0.00     0.042 A   
ATOM     35  F1  UNL     1       2.894   1.146   2.607  1.00  0.00    -0.207 F   
ENDBRANCH  25  26
ENDBRANCH   3  25
TORSDOF 7
