REMARK SMILES CC(C)(C)[C@H]([NH2+]Cc1ccc2c(c1)OCO2)c1cn(C[C@@H]2Cc3cc(F)ccc3O2)nn1
REMARK SMILES IDX 17 1 18 2 19 3 31 4 32 5 5 7 2 8 1 9 3 10 4 11 6 12 7 15
REMARK SMILES IDX 8 16 9 17 13 18 10 19 12 20 11 21 14 22 16 23 15 24 20 25
REMARK SMILES IDX 21 26 22 27 30 28 23 29 29 30 24 31 28 32 25 33 27 34 26 35
REMARK H PARENT 18 6 6 13 6 14
ROOT
ATOM     1   C14 UNL     1      -0.322  -1.774  -0.273  1.00  0.00     0.127 A   
ATOM     2   C15 UNL     1      -1.268  -1.313   0.616  1.00  0.00     0.045 A   
ATOM     3   N2  UNL     1      -2.442  -1.829   0.141  1.00  0.00    -0.210 N   
ATOM     4   N3  UNL     1      -2.220  -2.643  -0.908  1.00  0.00    -0.076 NA  
ATOM     5   N4  UNL     1      -0.927  -2.611  -1.178  1.00  0.00    -0.132 NA  
ATOM     6   H20 UNL     1      -1.229  -0.660   1.478  1.00  0.00     0.083 HD  
ENDROOT
BRANCH   1   7
ATOM     7   C5  UNL     1       1.160  -1.561  -0.354  1.00  0.00     0.120 C   
BRANCH   7   8
ATOM     8   C2  UNL     1       1.589  -0.360  -1.267  1.00  0.00     0.010 C   
ATOM     9   C1  UNL     1       3.116  -0.129  -1.163  1.00  0.00     0.017 C   
ATOM     10  C3  UNL     1       1.229  -0.581  -2.750  1.00  0.00     0.017 C   
ATOM     11  C4  UNL     1       0.905   0.941  -0.790  1.00  0.00     0.017 C   
ENDBRANCH   7   8
BRANCH   7  12
ATOM     12  N1  UNL     1       1.791  -2.849  -0.846  1.00  0.00     0.250 N   
ATOM     13  H11 UNL     1       2.676  -2.678  -1.327  1.00  0.00     0.199 HD  
ATOM     14  H12 UNL     1       1.142  -3.223  -1.555  1.00  0.00     0.199 HD  
BRANCH  12  15
ATOM     15  C6  UNL     1       1.993  -3.911   0.182  1.00  0.00     0.164 C   
BRANCH  15  16
ATOM     16  C7  UNL     1       3.215  -3.655   1.021  1.00  0.00    -0.002 A   
ATOM     17  C8  UNL     1       4.505  -3.935   0.502  1.00  0.00     0.012 A   
ATOM     18  C12 UNL     1       3.093  -3.101   2.305  1.00  0.00     0.045 A   
ATOM     19  C9  UNL     1       5.655  -3.663   1.251  1.00  0.00     0.037 A   
ATOM     20  C11 UNL     1       4.247  -2.837   3.012  1.00  0.00     0.109 A   
ATOM     21  C10 UNL     1       5.492  -3.111   2.502  1.00  0.00     0.108 A   
ATOM     22  O1  UNL     1       4.301  -2.295   4.257  1.00  0.00    -0.316 OA  
ATOM     23  O2  UNL     1       6.489  -2.777   3.360  1.00  0.00    -0.316 OA  
ATOM     24  C13 UNL     1       5.731  -2.272   4.480  1.00  0.00     0.337 C   
ENDBRANCH  15  16
ENDBRANCH  12  15
ENDBRANCH   7  12
ENDBRANCH   1   7
BRANCH   3  25
ATOM     25  C16 UNL     1      -3.785  -1.630   0.641  1.00  0.00     0.166 C   
BRANCH  25  26
ATOM     26  C17 UNL     1      -4.406  -0.280   0.261  1.00  0.00     0.149 C   
ATOM     27  C18 UNL     1      -4.405   0.043  -1.246  1.00  0.00     0.072 C   
ATOM     28  O3  UNL     1      -3.731   0.778   0.999  1.00  0.00    -0.341 OA  
ATOM     29  C19 UNL     1      -3.554   1.254  -1.255  1.00  0.00    -0.012 A   
ATOM     30  C24 UNL     1      -3.244   1.626   0.043  1.00  0.00     0.079 A   
ATOM     31  C20 UNL     1      -3.113   2.006  -2.331  1.00  0.00     0.045 A   
ATOM     32  C23 UNL     1      -2.497   2.754   0.326  1.00  0.00     0.037 A   
ATOM     33  C21 UNL     1      -2.354   3.142  -2.062  1.00  0.00     0.123 A   
ATOM     34  C22 UNL     1      -2.048   3.524  -0.749  1.00  0.00     0.042 A   
ATOM     35  F1  UNL     1      -1.904   3.887  -3.081  1.00  0.00    -0.207 F   
ENDBRANCH  25  26
ENDBRANCH   3  25
TORSDOF 7
