REMARK SMILES Cc1ccc(O)c([C@@H](CO)n2cc([C@@H]([NH2+]Cc3ccc4c(c3)OCO4)C3CCCC3)nn2)c1
REMARK SMILES IDX 11 1 12 2 13 3 31 4 32 5 8 7 7 8 2 9 3 10 33 11 4 12 5 13
REMARK SMILES IDX 1 14 6 15 9 17 10 18 14 20 15 21 16 24 17 25 18 26 22 27
REMARK SMILES IDX 19 28 21 29 20 30 23 31 25 32 24 33 26 34 27 35 30 36 28 37
REMARK SMILES IDX 29 38
REMARK H PARENT 12 6 6 16 10 19 15 22 15 23
ROOT
ATOM     1   N1  UNL     1      -2.211   0.455  -1.348  1.00  0.00    -0.202 N   
ATOM     2   C9  UNL     1      -1.443  -0.345  -0.544  1.00  0.00     0.046 A   
ATOM     3   C10 UNL     1      -0.466   0.494  -0.065  1.00  0.00     0.127 A   
ATOM     4   N3  UNL     1      -0.670   1.757  -0.562  1.00  0.00    -0.132 NA  
ATOM     5   N4  UNL     1      -1.738   1.724  -1.341  1.00  0.00    -0.075 NA  
ATOM     6   H11 UNL     1      -1.657  -1.396  -0.404  1.00  0.00     0.083 HD  
ENDROOT
BRANCH   1   7
ATOM     7   C7  UNL     1      -3.426   0.126  -2.096  1.00  0.00     0.158 C   
BRANCH   7   8
ATOM     8   C6  UNL     1      -3.331  -1.251  -2.748  1.00  0.00     0.007 A   
ATOM     9   C2  UNL     1      -3.850  -3.645  -2.833  1.00  0.00    -0.051 A   
ATOM     10  C3  UNL     1      -3.089  -3.770  -3.998  1.00  0.00     0.006 A   
ATOM     11  C25 UNL     1      -3.957  -2.391  -2.212  1.00  0.00     0.012 A   
ATOM     12  C4  UNL     1      -2.455  -2.657  -4.543  1.00  0.00     0.034 A   
ATOM     13  C5  UNL     1      -2.571  -1.418  -3.915  1.00  0.00     0.076 A   
ATOM     14  C1  UNL     1      -4.506  -4.849  -2.221  1.00  0.00     0.044 C   
BRANCH  13  15
ATOM     15  O1  UNL     1      -1.928  -0.333  -4.441  1.00  0.00    -0.361 OA  
ATOM     16  H6  UNL     1      -1.338  -0.634  -5.156  1.00  0.00     0.218 HD  
ENDBRANCH  13  15
ENDBRANCH   7   8
BRANCH   7  17
ATOM     17  C8  UNL     1      -4.679   0.409  -1.241  1.00  0.00     0.186 C   
BRANCH  17  18
ATOM     18  O2  UNL     1      -4.684  -0.298   0.001  1.00  0.00    -0.394 OA  
ATOM     19  H10 UNL     1      -5.490  -0.023   0.477  1.00  0.00     0.210 HD  
ENDBRANCH  17  18
ENDBRANCH   7  17
ENDBRANCH   1   7
BRANCH   3  20
ATOM     20  C11 UNL     1       0.717   0.240   0.811  1.00  0.00     0.117 C   
BRANCH  20  21
ATOM     21  N2  UNL     1       1.825   1.202   0.436  1.00  0.00     0.249 N   
ATOM     22  H13 UNL     1       2.242   1.635   1.264  1.00  0.00     0.199 HD  
ATOM     23  H14 UNL     1       1.354   1.973  -0.067  1.00  0.00     0.199 HD  
BRANCH  21  24
ATOM     24  C12 UNL     1       2.903   0.667  -0.442  1.00  0.00     0.164 C   
BRANCH  24  25
ATOM     25  C13 UNL     1       2.418   0.101  -1.748  1.00  0.00    -0.002 A   
ATOM     26  C14 UNL     1       1.849   0.945  -2.733  1.00  0.00     0.012 A   
ATOM     27  C18 UNL     1       2.501  -1.282  -1.991  1.00  0.00     0.045 A   
ATOM     28  C15 UNL     1       1.351   0.421  -3.932  1.00  0.00     0.037 A   
ATOM     29  C17 UNL     1       2.005  -1.764  -3.184  1.00  0.00     0.109 A   
ATOM     30  C16 UNL     1       1.440  -0.939  -4.125  1.00  0.00     0.108 A   
ATOM     31  O3  UNL     1       2.000  -3.068  -3.566  1.00  0.00    -0.316 OA  
ATOM     32  O4  UNL     1       0.989  -1.623  -5.211  1.00  0.00    -0.316 OA  
ATOM     33  C19 UNL     1       1.418  -2.965  -4.883  1.00  0.00     0.337 C   
ENDBRANCH  24  25
ENDBRANCH  21  24
ENDBRANCH  20  21
BRANCH  20  34
ATOM     34  C20 UNL     1       0.359   0.360   2.304  1.00  0.00     0.043 C   
ATOM     35  C21 UNL     1      -0.053   1.754   2.798  1.00  0.00     0.010 C   
ATOM     36  C24 UNL     1       1.487  -0.033   3.262  1.00  0.00     0.010 C   
ATOM     37  C22 UNL     1       0.248   1.765   4.299  1.00  0.00     0.001 C   
ATOM     38  C23 UNL     1       0.970   0.456   4.607  1.00  0.00     0.001 C   
ENDBRANCH  20  34
ENDBRANCH   3  20
TORSDOF 10
