REMARK SMILES Cc1ccc(O)c([C@H](CO)n2cc([C@@H]([NH2+]Cc3ccc4c(c3)OCO4)C3CCCC3)nn2)c1
REMARK SMILES IDX 11 1 12 2 13 3 31 4 32 5 8 7 7 8 2 9 3 10 33 11 4 12 5 13
REMARK SMILES IDX 1 14 6 15 9 17 10 18 14 20 15 21 16 24 17 25 18 26 22 27
REMARK SMILES IDX 19 28 21 29 20 30 23 31 25 32 24 33 26 34 27 35 30 36 28 37
REMARK SMILES IDX 29 38
REMARK H PARENT 12 6 6 16 10 19 15 22 15 23
ROOT
ATOM     1   N1  UNL     1      -0.162  -1.004  -0.645  1.00  0.00    -0.202 N   
ATOM     2   C9  UNL     1      -0.651   0.040   0.096  1.00  0.00     0.046 A   
ATOM     3   C10 UNL     1      -0.219   1.159  -0.576  1.00  0.00     0.127 A   
ATOM     4   N3  UNL     1       0.515   0.777  -1.667  1.00  0.00    -0.132 NA  
ATOM     5   N4  UNL     1       0.534  -0.544  -1.709  1.00  0.00    -0.075 NA  
ATOM     6   H11 UNL     1      -1.223  -0.118   0.999  1.00  0.00     0.083 HD  
ENDROOT
BRANCH   1   7
ATOM     7   C7  UNL     1      -0.320  -2.437  -0.389  1.00  0.00     0.158 C   
BRANCH   7   8
ATOM     8   C6  UNL     1       1.040  -3.081  -0.162  1.00  0.00     0.007 A   
ATOM     9   C2  UNL     1       3.085  -4.127  -1.013  1.00  0.00    -0.051 A   
ATOM     10  C3  UNL     1       3.584  -4.202   0.291  1.00  0.00     0.006 A   
ATOM     11  C25 UNL     1       1.823  -3.556  -1.231  1.00  0.00     0.012 A   
ATOM     12  C4  UNL     1       2.834  -3.718   1.361  1.00  0.00     0.034 A   
ATOM     13  C5  UNL     1       1.579  -3.160   1.127  1.00  0.00     0.076 A   
ATOM     14  C1  UNL     1       3.918  -4.601  -2.169  1.00  0.00     0.044 C   
BRANCH  13  15
ATOM     15  O1  UNL     1       0.855  -2.664   2.176  1.00  0.00    -0.361 OA  
ATOM     16  H6  UNL     1       1.453  -2.580   2.941  1.00  0.00     0.218 HD  
ENDBRANCH  13  15
ENDBRANCH   7   8
BRANCH   7  17
ATOM     17  C8  UNL     1      -1.175  -3.105  -1.480  1.00  0.00     0.186 C   
BRANCH  17  18
ATOM     18  O2  UNL     1      -2.539  -2.684  -1.369  1.00  0.00    -0.394 OA  
ATOM     19  H10 UNL     1      -3.063  -3.253  -1.964  1.00  0.00     0.210 HD  
ENDBRANCH  17  18
ENDBRANCH   7  17
ENDBRANCH   1   7
BRANCH   3  20
ATOM     20  C11 UNL     1      -0.334   2.613  -0.256  1.00  0.00     0.117 C   
BRANCH  20  21
ATOM     21  N2  UNL     1       1.060   3.215  -0.366  1.00  0.00     0.249 N   
ATOM     22  H13 UNL     1       1.615   2.529  -0.904  1.00  0.00     0.199 HD  
ATOM     23  H14 UNL     1       1.050   4.053  -0.955  1.00  0.00     0.199 HD  
BRANCH  21  24
ATOM     24  C12 UNL     1       1.765   3.504   0.910  1.00  0.00     0.164 C   
BRANCH  24  25
ATOM     25  C13 UNL     1       1.967   2.301   1.788  1.00  0.00    -0.002 A   
ATOM     26  C14 UNL     1       2.856   1.269   1.401  1.00  0.00     0.012 A   
ATOM     27  C18 UNL     1       1.251   2.179   2.992  1.00  0.00     0.045 A   
ATOM     28  C15 UNL     1       3.020   0.128   2.193  1.00  0.00     0.037 A   
ATOM     29  C17 UNL     1       1.432   1.040   3.747  1.00  0.00     0.109 A   
ATOM     30  C16 UNL     1       2.288   0.040   3.357  1.00  0.00     0.108 A   
ATOM     31  O3  UNL     1       0.800   0.759   4.916  1.00  0.00    -0.316 OA  
ATOM     32  O4  UNL     1       2.287  -1.011   4.222  1.00  0.00    -0.316 OA  
ATOM     33  C19 UNL     1       1.368  -0.530   5.233  1.00  0.00     0.337 C   
ENDBRANCH  24  25
ENDBRANCH  21  24
ENDBRANCH  20  21
BRANCH  20  34
ATOM     34  C20 UNL     1      -1.268   3.373  -1.231  1.00  0.00     0.043 C   
ATOM     35  C21 UNL     1      -1.502   4.833  -0.815  1.00  0.00     0.010 C   
ATOM     36  C24 UNL     1      -2.708   2.843  -1.248  1.00  0.00     0.010 C   
ATOM     37  C22 UNL     1      -2.629   4.783   0.214  1.00  0.00     0.001 C   
ATOM     38  C23 UNL     1      -3.367   3.467  -0.025  1.00  0.00     0.001 C   
ENDBRANCH  20  34
ENDBRANCH   3  20
TORSDOF 10
