REMARK SMILES CC(C)C[C@H]([NH2+]Cc1ccc2c(c1)OCO2)c1cn(C[C@@H](O)c2ccc(Cl)cc2)nn1
REMARK SMILES IDX 17 1 18 2 19 3 30 4 31 5 5 7 4 8 2 9 1 10 3 11 6 12 7 15
REMARK SMILES IDX 8 16 9 17 13 18 10 19 12 20 11 21 14 22 16 23 15 24 20 25
REMARK SMILES IDX 21 26 22 27 23 29 24 30 29 31 25 32 28 33 26 34 27 35
REMARK H PARENT 18 6 6 13 6 14 22 28
ROOT
ATOM     1   C14 UNL     1      -0.784   0.951   1.675  1.00  0.00     0.127 A   
ATOM     2   C15 UNL     1      -1.008   0.620   0.356  1.00  0.00     0.045 A   
ATOM     3   N2  UNL     1      -0.471   1.668  -0.337  1.00  0.00    -0.209 N   
ATOM     4   N3  UNL     1       0.052   2.587   0.498  1.00  0.00    -0.076 NA  
ATOM     5   N4  UNL     1      -0.140   2.163   1.736  1.00  0.00    -0.132 NA  
ATOM     6   H20 UNL     1      -1.461  -0.229  -0.139  1.00  0.00     0.083 HD  
ENDROOT
BRANCH   1   7
ATOM     7   C5  UNL     1      -1.075   0.219   2.945  1.00  0.00     0.114 C   
BRANCH   7   8
ATOM     8   C4  UNL     1      -2.468   0.600   3.486  1.00  0.00     0.064 C   
BRANCH   8   9
ATOM     9   C2  UNL     1      -2.951  -0.178   4.729  1.00  0.00    -0.012 C   
ATOM     10  C1  UNL     1      -3.008  -1.686   4.490  1.00  0.00     0.007 C   
ATOM     11  C3  UNL     1      -4.336   0.331   5.142  1.00  0.00     0.007 C   
ENDBRANCH   8   9
ENDBRANCH   7   8
BRANCH   7  12
ATOM     12  N1  UNL     1      -0.025   0.576   3.974  1.00  0.00     0.249 N   
ATOM     13  H11 UNL     1       0.344   1.496   3.681  1.00  0.00     0.199 HD  
ATOM     14  H12 UNL     1      -0.443   0.731   4.897  1.00  0.00     0.199 HD  
BRANCH  12  15
ATOM     15  C6  UNL     1       1.125  -0.364   4.100  1.00  0.00     0.164 C   
BRANCH  15  16
ATOM     16  C7  UNL     1       1.943  -0.502   2.847  1.00  0.00    -0.002 A   
ATOM     17  C8  UNL     1       2.798   0.547   2.428  1.00  0.00     0.012 A   
ATOM     18  C12 UNL     1       1.836  -1.660   2.058  1.00  0.00     0.045 A   
ATOM     19  C9  UNL     1       3.535   0.448   1.241  1.00  0.00     0.037 A   
ATOM     20  C11 UNL     1       2.580  -1.728   0.897  1.00  0.00     0.109 A   
ATOM     21  C10 UNL     1       3.407  -0.706   0.500  1.00  0.00     0.108 A   
ATOM     22  O1  UNL     1       2.574  -2.757   0.012  1.00  0.00    -0.316 OA  
ATOM     23  O2  UNL     1       4.043  -0.979  -0.671  1.00  0.00    -0.316 OA  
ATOM     24  C13 UNL     1       3.580  -2.322  -0.928  1.00  0.00     0.337 C   
ENDBRANCH  15  16
ENDBRANCH  12  15
ENDBRANCH   7  12
ENDBRANCH   1   7
BRANCH   3  25
ATOM     25  C16 UNL     1      -0.460   1.886  -1.770  1.00  0.00     0.170 C   
BRANCH  25  26
ATOM     26  C17 UNL     1       0.760   1.240  -2.431  1.00  0.00     0.164 C   
BRANCH  26  27
ATOM     27  O3  UNL     1       0.570  -0.178  -2.517  1.00  0.00    -0.387 OA  
ATOM     28  H24 UNL     1       1.147  -0.502  -3.234  1.00  0.00     0.211 HD  
ENDBRANCH  26  27
BRANCH  26  29
ATOM     29  C18 UNL     1       0.979   1.794  -3.825  1.00  0.00    -0.018 A   
ATOM     30  C19 UNL     1       0.057   1.546  -4.855  1.00  0.00     0.008 A   
ATOM     31  C23 UNL     1       2.096   2.601  -4.096  1.00  0.00     0.008 A   
ATOM     32  C20 UNL     1       0.241   2.105  -6.123  1.00  0.00     0.021 A   
ATOM     33  C22 UNL     1       2.282   3.156  -5.366  1.00  0.00     0.021 A   
ATOM     34  C21 UNL     1       1.352   2.911  -6.372  1.00  0.00     0.041 A   
ATOM     35  CL1 UNL     1       1.571   3.611  -7.929  1.00  0.00    -0.084 Cl  
ENDBRANCH  26  29
ENDBRANCH  25  26
ENDBRANCH   3  25
TORSDOF 10
