REMARK SMILES CC(C)C[C@H]([NH2+]Cc1ccc2c(c1)OCO2)c1cn(C[C@H](O)c2ccc(Cl)cc2)nn1
REMARK SMILES IDX 17 1 18 2 19 3 30 4 31 5 5 7 4 8 2 9 1 10 3 11 6 12 7 15
REMARK SMILES IDX 8 16 9 17 13 18 10 19 12 20 11 21 14 22 16 23 15 24 20 25
REMARK SMILES IDX 21 26 22 27 23 29 24 30 29 31 25 32 28 33 26 34 27 35
REMARK H PARENT 18 6 6 13 6 14 22 28
ROOT
ATOM     1   C14 UNL     1      -0.412  -0.438   0.044  1.00  0.00     0.127 A   
ATOM     2   C15 UNL     1      -0.970  -1.453  -0.700  1.00  0.00     0.045 A   
ATOM     3   N2  UNL     1      -0.973  -0.965  -1.978  1.00  0.00    -0.209 N   
ATOM     4   N3  UNL     1      -0.395   0.249  -2.025  1.00  0.00    -0.076 NA  
ATOM     5   N4  UNL     1      -0.051   0.586  -0.792  1.00  0.00    -0.132 NA  
ATOM     6   H20 UNL     1      -1.375  -2.425  -0.452  1.00  0.00     0.083 HD  
ENDROOT
BRANCH   1   7
ATOM     7   C5  UNL     1      -0.140  -0.322   1.510  1.00  0.00     0.114 C   
BRANCH   7   8
ATOM     8   C4  UNL     1      -1.343   0.314   2.234  1.00  0.00     0.064 C   
BRANCH   8   9
ATOM     9   C2  UNL     1      -1.244   0.418   3.771  1.00  0.00    -0.012 C   
ATOM     10  C1  UNL     1      -1.014  -0.940   4.436  1.00  0.00     0.007 C   
ATOM     11  C3  UNL     1      -2.523   1.056   4.325  1.00  0.00     0.007 C   
ENDBRANCH   8   9
ENDBRANCH   7   8
BRANCH   7  12
ATOM     12  N1  UNL     1       1.079   0.529   1.739  1.00  0.00     0.249 N   
ATOM     13  H11 UNL     1       0.988   1.350   1.120  1.00  0.00     0.199 HD  
ATOM     14  H12 UNL     1       1.126   0.893   2.695  1.00  0.00     0.199 HD  
BRANCH  12  15
ATOM     15  C6  UNL     1       2.379  -0.124   1.416  1.00  0.00     0.164 C   
BRANCH  15  16
ATOM     16  C7  UNL     1       3.511   0.839   1.630  1.00  0.00    -0.002 A   
ATOM     17  C8  UNL     1       3.874   1.747   0.604  1.00  0.00     0.012 A   
ATOM     18  C12 UNL     1       4.171   0.892   2.869  1.00  0.00     0.045 A   
ATOM     19  C9  UNL     1       4.890   2.688   0.805  1.00  0.00     0.037 A   
ATOM     20  C11 UNL     1       5.166   1.834   3.034  1.00  0.00     0.109 A   
ATOM     21  C10 UNL     1       5.516   2.706   2.032  1.00  0.00     0.108 A   
ATOM     22  O1  UNL     1       5.896   2.020   4.164  1.00  0.00    -0.316 OA  
ATOM     23  O2  UNL     1       6.512   3.551   2.405  1.00  0.00    -0.316 OA  
ATOM     24  C13 UNL     1       6.763   3.106   3.754  1.00  0.00     0.337 C   
ENDBRANCH  15  16
ENDBRANCH  12  15
ENDBRANCH   7  12
ENDBRANCH   1   7
BRANCH   3  25
ATOM     25  C16 UNL     1      -1.421  -1.610  -3.200  1.00  0.00     0.170 C   
BRANCH  25  26
ATOM     26  C17 UNL     1      -2.901  -2.010  -3.152  1.00  0.00     0.164 C   
BRANCH  26  27
ATOM     27  O3  UNL     1      -3.066  -3.172  -2.327  1.00  0.00    -0.387 OA  
ATOM     28  H24 UNL     1      -3.890  -3.616  -2.612  1.00  0.00     0.211 HD  
ENDBRANCH  26  27
BRANCH  26  29
ATOM     29  C18 UNL     1      -3.449  -2.311  -4.532  1.00  0.00    -0.018 A   
ATOM     30  C19 UNL     1      -4.458  -1.502  -5.079  1.00  0.00     0.008 A   
ATOM     31  C23 UNL     1      -2.961  -3.394  -5.287  1.00  0.00     0.008 A   
ATOM     32  C20 UNL     1      -4.961  -1.761  -6.357  1.00  0.00     0.021 A   
ATOM     33  C22 UNL     1      -3.464  -3.652  -6.564  1.00  0.00     0.021 A   
ATOM     34  C21 UNL     1      -4.460  -2.831  -7.096  1.00  0.00     0.041 A   
ATOM     35  CL1 UNL     1      -5.073  -3.143  -8.671  1.00  0.00    -0.084 Cl  
ENDBRANCH  26  29
ENDBRANCH  25  26
ENDBRANCH   3  25
TORSDOF 10
