REMARK SMILES CC(C)C[C@H]([NH2+]Cc1ccc2c(c1)OCO2)c1cn(CCc2cc(F)cc(F)c2O)nn1
REMARK SMILES IDX 17 1 18 2 19 3 31 4 32 5 5 7 4 8 2 9 1 10 3 11 6 12 7 15
REMARK SMILES IDX 8 16 9 17 13 18 10 19 12 20 11 21 14 22 16 23 15 24 20 25
REMARK SMILES IDX 21 26 22 27 23 28 29 29 24 30 27 31 26 32 25 33 28 34 30 35
REMARK H PARENT 18 6 6 13 6 14 30 36
ROOT
ATOM     1   C14 UNL     1      -0.910   0.146  -1.075  1.00  0.00     0.127 A   
ATOM     2   C15 UNL     1      -0.891  -0.938  -1.926  1.00  0.00     0.045 A   
ATOM     3   N2  UNL     1      -1.722  -1.843  -1.327  1.00  0.00    -0.212 N   
ATOM     4   N3  UNL     1      -2.244  -1.342  -0.193  1.00  0.00    -0.076 NA  
ATOM     5   N4  UNL     1      -1.749  -0.127  -0.024  1.00  0.00    -0.132 NA  
ATOM     6   H20 UNL     1      -0.383  -1.149  -2.857  1.00  0.00     0.083 HD  
ENDROOT
BRANCH   1   7
ATOM     7   C5  UNL     1      -0.230   1.473  -1.155  1.00  0.00     0.114 C   
BRANCH   7   8
ATOM     8   C4  UNL     1       1.306   1.402  -1.029  1.00  0.00     0.064 C   
BRANCH   8   9
ATOM     9   C2  UNL     1       1.925   1.216   0.376  1.00  0.00    -0.012 C   
ATOM     10  C1  UNL     1       1.547  -0.105   1.040  1.00  0.00     0.007 C   
ATOM     11  C3  UNL     1       3.453   1.305   0.267  1.00  0.00     0.007 C   
ENDBRANCH   8   9
ENDBRANCH   7   8
BRANCH   7  12
ATOM     12  N1  UNL     1      -0.770   2.440  -0.141  1.00  0.00     0.249 N   
ATOM     13  H11 UNL     1      -0.107   3.195   0.056  1.00  0.00     0.199 HD  
ATOM     14  H12 UNL     1      -0.888   1.914   0.738  1.00  0.00     0.199 HD  
BRANCH  12  15
ATOM     15  C6  UNL     1      -2.095   3.037  -0.472  1.00  0.00     0.164 C   
BRANCH  15  16
ATOM     16  C7  UNL     1      -2.594   3.869   0.675  1.00  0.00    -0.002 A   
ATOM     17  C8  UNL     1      -2.321   5.256   0.730  1.00  0.00     0.012 A   
ATOM     18  C12 UNL     1      -3.291   3.256   1.731  1.00  0.00     0.045 A   
ATOM     19  C9  UNL     1      -2.745   6.027   1.817  1.00  0.00     0.037 A   
ATOM     20  C11 UNL     1      -3.695   4.046   2.788  1.00  0.00     0.109 A   
ATOM     21  C10 UNL     1      -3.429   5.392   2.830  1.00  0.00     0.108 A   
ATOM     22  O1  UNL     1      -4.375   3.616   3.882  1.00  0.00    -0.316 OA  
ATOM     23  O2  UNL     1      -3.910   5.979   3.956  1.00  0.00    -0.316 OA  
ATOM     24  C13 UNL     1      -4.533   4.853   4.611  1.00  0.00     0.337 C   
ENDBRANCH  15  16
ENDBRANCH  12  15
ENDBRANCH   7  12
ENDBRANCH   1   7
BRANCH   3  25
ATOM     25  C16 UNL     1      -2.079  -3.172  -1.781  1.00  0.00     0.139 C   
BRANCH  25  26
ATOM     26  C17 UNL     1      -1.421  -4.280  -0.958  1.00  0.00     0.060 C   
BRANCH  26  27
ATOM     27  C18 UNL     1       0.087  -4.296  -1.049  1.00  0.00    -0.010 A   
ATOM     28  C19 UNL     1       0.864  -3.943   0.066  1.00  0.00     0.046 A   
ATOM     29  C23 UNL     1       0.752  -4.660  -2.223  1.00  0.00     0.111 A   
ATOM     30  C20 UNL     1       2.258  -3.959  -0.013  1.00  0.00     0.126 A   
ATOM     31  C22 UNL     1       2.147  -4.675  -2.282  1.00  0.00     0.156 A   
ATOM     32  C21 UNL     1       2.912  -4.325  -1.180  1.00  0.00     0.081 A   
ATOM     33  F1  UNL     1       2.975  -3.596   1.058  1.00  0.00    -0.207 F   
ATOM     34  F2  UNL     1       2.749  -5.022  -3.428  1.00  0.00    -0.204 F   
BRANCH  29  35
ATOM     35  O3  UNL     1       0.021  -4.997  -3.329  1.00  0.00    -0.358 OA  
ATOM     36  H27 UNL     1       0.650  -5.337  -3.997  1.00  0.00     0.218 HD  
ENDBRANCH  29  35
ENDBRANCH  26  27
ENDBRANCH  25  26
ENDBRANCH   3  25
TORSDOF 10
