REMARK SMILES CC(C)[C@H]([NH2+]Cc1ccc2c(c1)OCO2)c1cn(-c2ccc(OCCO)cc2)nn1
REMARK SMILES IDX 19 1 20 2 21 3 22 4 27 5 28 6 18 7 16 8 17 9 30 10 29 11
REMARK SMILES IDX 4 12 2 13 1 14 3 15 5 16 6 19 7 20 8 21 12 22 9 23 11 24
REMARK SMILES IDX 10 25 13 26 15 27 14 28 23 29 24 30 25 31 26 32
REMARK H PARENT 5 17 5 18 26 33
ROOT
ATOM     1   C15 UNL     1       0.366  -1.702  -2.428  1.00  0.00     0.058 A   
ATOM     2   C16 UNL     1       0.973  -2.814  -1.829  1.00  0.00     0.028 A   
ATOM     3   C17 UNL     1       1.358  -3.913  -2.610  1.00  0.00     0.035 A   
ATOM     4   C18 UNL     1       1.143  -3.912  -3.987  1.00  0.00     0.075 A   
ATOM     5   C21 UNL     1       0.533  -2.805  -4.580  1.00  0.00     0.035 A   
ATOM     6   C22 UNL     1       0.144  -1.704  -3.811  1.00  0.00     0.028 A   
ENDROOT
BRANCH   1   7
ATOM     7   N2  UNL     1      -0.026  -0.577  -1.660  1.00  0.00    -0.181 N   
ATOM     8   C13 UNL     1      -0.447   0.886  -0.085  1.00  0.00     0.127 A   
ATOM     9   C14 UNL     1       0.100  -0.359  -0.301  1.00  0.00     0.135 A   
ATOM     10  N4  UNL     1      -0.872   1.400  -1.277  1.00  0.00    -0.131 NA  
ATOM     11  N3  UNL     1      -0.608   0.514  -2.222  1.00  0.00    -0.071 NA  
BRANCH   8  12
ATOM     12  C4  UNL     1      -0.604   1.695   1.165  1.00  0.00     0.117 C   
BRANCH  12  13
ATOM     13  C2  UNL     1      -1.812   1.223   2.019  1.00  0.00     0.037 C   
ATOM     14  C1  UNL     1      -1.770   1.815   3.433  1.00  0.00     0.014 C   
ATOM     15  C3  UNL     1      -3.176   1.507   1.379  1.00  0.00     0.014 C   
ENDBRANCH  12  13
BRANCH  12  16
ATOM     16  N1  UNL     1      -0.746   3.162   0.829  1.00  0.00     0.249 N   
ATOM     17  H9  UNL     1      -1.387   3.211   0.024  1.00  0.00     0.199 HD  
ATOM     18  H10 UNL     1      -1.188   3.675   1.595  1.00  0.00     0.199 HD  
BRANCH  16  19
ATOM     19  C5  UNL     1       0.508   3.870   0.435  1.00  0.00     0.164 C   
BRANCH  19  20
ATOM     20  C6  UNL     1       1.426   4.105   1.603  1.00  0.00    -0.002 A   
ATOM     21  C7  UNL     1       1.109   5.083   2.577  1.00  0.00     0.012 A   
ATOM     22  C11 UNL     1       2.591   3.332   1.752  1.00  0.00     0.045 A   
ATOM     23  C8  UNL     1       1.934   5.282   3.690  1.00  0.00     0.037 A   
ATOM     24  C10 UNL     1       3.380   3.553   2.862  1.00  0.00     0.109 A   
ATOM     25  C9  UNL     1       3.061   4.499   3.804  1.00  0.00     0.108 A   
ATOM     26  O1  UNL     1       4.526   2.888   3.161  1.00  0.00    -0.316 OA  
ATOM     27  O2  UNL     1       3.967   4.551   4.814  1.00  0.00    -0.316 OA  
ATOM     28  C12 UNL     1       4.915   3.549   4.387  1.00  0.00     0.337 C   
ENDBRANCH  19  20
ENDBRANCH  16  19
ENDBRANCH  12  16
ENDBRANCH   8  12
ENDBRANCH   1   7
BRANCH   4  29
ATOM     29  O3  UNL     1       1.474  -4.912  -4.857  1.00  0.00    -0.344 OA  
BRANCH  29  30
ATOM     30  C19 UNL     1       2.151  -6.048  -4.323  1.00  0.00     0.196 C   
BRANCH  30  31
ATOM     31  C20 UNL     1       2.503  -6.991  -5.468  1.00  0.00     0.185 C   
BRANCH  31  32
ATOM     32  O4  UNL     1       3.154  -8.156  -4.979  1.00  0.00    -0.394 OA  
ATOM     33  H25 UNL     1       2.470  -8.755  -4.634  1.00  0.00     0.210 HD  
ENDBRANCH  31  32
ENDBRANCH  30  31
ENDBRANCH  29  30
ENDBRANCH   4  29
TORSDOF 10
