REMARK SMILES Cc1cnn(CCn2cc([C@@H]([NH2+]Cc3ccc4c(c3)OCO4)C3CCCC3)nn2)c1
REMARK SMILES IDX 8 1 9 2 10 3 28 4 29 5 7 7 6 8 5 9 2 10 3 11 30 12 4 13 1 14
REMARK SMILES IDX 11 15 12 16 13 19 14 20 15 21 19 22 16 23 18 24 17 25 20 26
REMARK SMILES IDX 22 27 21 28 23 29 24 30 27 31 25 32 26 33
REMARK H PARENT 9 6 12 17 12 18
ROOT
ATOM     1   N3  UNL     1      -0.862   1.807  -2.257  1.00  0.00    -0.210 N   
ATOM     2   C6  UNL     1       0.054   1.079  -1.555  1.00  0.00     0.045 A   
ATOM     3   C7  UNL     1      -0.183  -0.217  -1.952  1.00  0.00     0.127 A   
ATOM     4   N5  UNL     1      -1.175  -0.226  -2.899  1.00  0.00    -0.132 NA  
ATOM     5   N6  UNL     1      -1.581   1.020  -3.078  1.00  0.00    -0.076 NA  
ATOM     6   H9  UNL     1       0.714   1.526  -0.824  1.00  0.00     0.083 HD  
ENDROOT
BRANCH   1   7
ATOM     7   C5  UNL     1      -1.124   3.230  -2.195  1.00  0.00     0.155 C   
BRANCH   7   8
ATOM     8   C4  UNL     1      -2.331   3.563  -1.332  1.00  0.00     0.153 C   
BRANCH   8   9
ATOM     9   N2  UNL     1      -2.013   3.555   0.085  1.00  0.00    -0.231 N   
ATOM     10  C2  UNL     1      -1.584   4.169   2.150  1.00  0.00    -0.015 A   
ATOM     11  C3  UNL     1      -1.554   2.767   1.985  1.00  0.00     0.136 A   
ATOM     12  C22 UNL     1      -1.881   4.646   0.892  1.00  0.00     0.100 A   
ATOM     13  N1  UNL     1      -1.797   2.388   0.725  1.00  0.00    -0.190 NA  
ATOM     14  C1  UNL     1      -1.357   4.936   3.396  1.00  0.00     0.047 C   
ENDBRANCH   8   9
ENDBRANCH   7   8
ENDBRANCH   1   7
BRANCH   3  15
ATOM     15  C8  UNL     1       0.379  -1.509  -1.462  1.00  0.00     0.117 C   
BRANCH  15  16
ATOM     16  N4  UNL     1      -0.736  -2.527  -1.332  1.00  0.00     0.249 N   
ATOM     17  H11 UNL     1      -0.357  -3.466  -1.193  1.00  0.00     0.199 HD  
ATOM     18  H12 UNL     1      -1.231  -2.521  -2.235  1.00  0.00     0.199 HD  
BRANCH  16  19
ATOM     19  C9  UNL     1      -1.753  -2.255  -0.271  1.00  0.00     0.164 C   
BRANCH  19  20
ATOM     20  C10 UNL     1      -1.190  -2.378   1.117  1.00  0.00    -0.002 A   
ATOM     21  C11 UNL     1      -0.890  -3.647   1.666  1.00  0.00     0.012 A   
ATOM     22  C15 UNL     1      -0.929  -1.220   1.870  1.00  0.00     0.045 A   
ATOM     23  C12 UNL     1      -0.332  -3.762   2.944  1.00  0.00     0.037 A   
ATOM     24  C14 UNL     1      -0.380  -1.367   3.126  1.00  0.00     0.109 A   
ATOM     25  C13 UNL     1      -0.088  -2.603   3.647  1.00  0.00     0.108 A   
ATOM     26  O1  UNL     1      -0.066  -0.355   3.976  1.00  0.00    -0.316 OA  
ATOM     27  O2  UNL     1       0.449  -2.526   4.893  1.00  0.00    -0.316 OA  
ATOM     28  C16 UNL     1       0.436  -1.099   5.111  1.00  0.00     0.337 C   
ENDBRANCH  19  20
ENDBRANCH  16  19
ENDBRANCH  15  16
BRANCH  15  29
ATOM     29  C17 UNL     1       1.443  -2.079  -2.421  1.00  0.00     0.043 C   
ATOM     30  C18 UNL     1       2.074  -3.397  -1.947  1.00  0.00     0.010 C   
ATOM     31  C21 UNL     1       2.662  -1.167  -2.594  1.00  0.00     0.010 C   
ATOM     32  C19 UNL     1       3.493  -3.423  -2.517  1.00  0.00     0.001 C   
ATOM     33  C20 UNL     1       3.692  -2.090  -3.225  1.00  0.00     0.001 C   
ENDBRANCH  15  29
ENDBRANCH   3  15
TORSDOF 8
