REMARK SMILES c1cc(Cn2cc([C@@H]([NH2+]Cc3ccc4c(c3)OCO4)C3CCCC3)nn2)c2c(c1)OCCO2
REMARK SMILES IDX 8 1 7 2 5 3 6 4 26 5 25 6 4 8 3 9 1 10 2 11 29 12 28 13
REMARK SMILES IDX 27 14 30 15 33 16 31 17 32 18 9 19 10 22 11 23 12 24 16 25
REMARK SMILES IDX 13 26 15 27 14 28 17 29 19 30 18 31 20 32 21 33 24 34 22 35
REMARK SMILES IDX 23 36
REMARK H PARENT 6 7 9 20 9 21
ROOT
ATOM     1   C7  UNL     1      -2.633  -0.604  -0.322  1.00  0.00     0.117 C   
ENDROOT
BRANCH   1   2
ATOM     2   C6  UNL     1      -1.391  -1.294  -0.777  1.00  0.00     0.127 A   
ATOM     3   N1  UNL     1       0.591  -2.100  -1.081  1.00  0.00    -0.208 N   
ATOM     4   C5  UNL     1      -0.219  -1.574  -0.112  1.00  0.00     0.046 A   
ATOM     5   N4  UNL     1      -0.054  -2.163  -2.264  1.00  0.00    -0.076 NA  
ATOM     6   N3  UNL     1      -1.271  -1.676  -2.088  1.00  0.00    -0.132 NA  
ATOM     7   H5  UNL     1       0.119  -1.421   0.904  1.00  0.00     0.083 HD  
BRANCH   3   8
ATOM     8   C4  UNL     1       1.983  -2.501  -0.970  1.00  0.00     0.172 C   
BRANCH   8   9
ATOM     9   C3  UNL     1       2.888  -1.305  -1.124  1.00  0.00     0.004 A   
ATOM     10  C1  UNL     1       4.130   0.205  -2.576  1.00  0.00     0.003 A   
ATOM     11  C2  UNL     1       3.306  -0.909  -2.407  1.00  0.00     0.008 A   
ATOM     12  C23 UNL     1       4.534   0.948  -1.468  1.00  0.00     0.036 A   
ATOM     13  C22 UNL     1       4.113   0.579  -0.193  1.00  0.00     0.106 A   
ATOM     14  C21 UNL     1       3.307  -0.553  -0.016  1.00  0.00     0.110 A   
ATOM     15  O3  UNL     1       4.541   1.375   0.838  1.00  0.00    -0.341 OA  
ATOM     16  O4  UNL     1       2.885  -0.962   1.227  1.00  0.00    -0.341 OA  
ATOM     17  C24 UNL     1       3.858   1.092   2.063  1.00  0.00     0.197 C   
ATOM     18  C25 UNL     1       3.710  -0.406   2.262  1.00  0.00     0.197 C   
ENDBRANCH   8   9
ENDBRANCH   3   8
ENDBRANCH   1   2
BRANCH   1  19
ATOM     19  N2  UNL     1      -3.082   0.391  -1.374  1.00  0.00     0.249 N   
ATOM     20  H7  UNL     1      -3.197  -0.143  -2.246  1.00  0.00     0.199 HD  
ATOM     21  H8  UNL     1      -3.995   0.783  -1.130  1.00  0.00     0.199 HD  
BRANCH  19  22
ATOM     22  C8  UNL     1      -2.138   1.514  -1.670  1.00  0.00     0.164 C   
BRANCH  22  23
ATOM     23  C9  UNL     1      -1.847   2.375  -0.472  1.00  0.00    -0.002 A   
ATOM     24  C10 UNL     1      -0.552   2.381   0.102  1.00  0.00     0.012 A   
ATOM     25  C14 UNL     1      -2.863   3.157   0.106  1.00  0.00     0.045 A   
ATOM     26  C11 UNL     1      -0.272   3.143   1.240  1.00  0.00     0.037 A   
ATOM     27  C13 UNL     1      -2.555   3.893   1.232  1.00  0.00     0.109 A   
ATOM     28  C12 UNL     1      -1.298   3.884   1.785  1.00  0.00     0.108 A   
ATOM     29  O1  UNL     1      -3.418   4.691   1.912  1.00  0.00    -0.316 OA  
ATOM     30  O2  UNL     1      -1.211   4.675   2.885  1.00  0.00    -0.316 OA  
ATOM     31  C15 UNL     1      -2.560   5.185   2.967  1.00  0.00     0.337 C   
ENDBRANCH  22  23
ENDBRANCH  19  22
ENDBRANCH   1  19
BRANCH   1  32
ATOM     32  C16 UNL     1      -3.786  -1.596  -0.070  1.00  0.00     0.043 C   
ATOM     33  C17 UNL     1      -5.074  -0.945   0.445  1.00  0.00     0.010 C   
ATOM     34  C20 UNL     1      -3.485  -2.604   1.046  1.00  0.00     0.010 C   
ATOM     35  C18 UNL     1      -5.868  -2.095   1.054  1.00  0.00     0.001 C   
ATOM     36  C19 UNL     1      -4.848  -3.170   1.424  1.00  0.00     0.001 C   
ENDBRANCH   1  32
TORSDOF 7
