REMARK SMILES COc1ccccc1C(=O)Cn1cc([C@@H]([NH2+]Cc2ccc3c(c2)OCO3)C(C)(C)C)nn1
REMARK SMILES IDX 12 1 13 2 14 3 31 4 32 5 11 7 9 8 10 9 8 10 3 11 4 12 5 13
REMARK SMILES IDX 7 14 6 15 2 16 1 17 15 18 16 19 17 22 18 23 19 24 23 25
REMARK SMILES IDX 20 26 22 27 21 28 24 29 26 30 25 31 27 32 28 33 29 34 30 35
REMARK H PARENT 13 6 16 20 16 21
ROOT
ATOM     1   N1  UNL     1       0.793   1.112   0.650  1.00  0.00    -0.204 N   
ATOM     2   C10 UNL     1       0.706  -0.212   0.323  1.00  0.00     0.046 A   
ATOM     3   C11 UNL     1       0.674  -0.208  -1.053  1.00  0.00     0.127 A   
ATOM     4   N3  UNL     1       0.808   1.080  -1.505  1.00  0.00    -0.132 NA  
ATOM     5   N4  UNL     1       0.888   1.878  -0.453  1.00  0.00    -0.076 NA  
ATOM     6   H10 UNL     1       0.588  -0.987   1.067  1.00  0.00     0.083 HD  
ENDROOT
BRANCH   1   7
ATOM     7   C9  UNL     1       0.677   1.715   1.964  1.00  0.00     0.215 C   
BRANCH   7   8
ATOM     8   C8  UNL     1      -0.780   1.897   2.330  1.00  0.00     0.184 C   
ATOM     9   O2  UNL     1      -1.669   1.176   1.868  1.00  0.00    -0.292 OA  
BRANCH   8  10
ATOM     10  C7  UNL     1      -1.157   2.997   3.262  1.00  0.00     0.050 A   
ATOM     11  C2  UNL     1      -0.328   3.434   4.312  1.00  0.00     0.085 A   
ATOM     12  C3  UNL     1      -0.765   4.493   5.118  1.00  0.00     0.034 A   
ATOM     13  C4  UNL     1      -2.008   5.093   4.898  1.00  0.00     0.003 A   
ATOM     14  C6  UNL     1      -2.412   3.594   3.059  1.00  0.00     0.014 A   
ATOM     15  C5  UNL     1      -2.835   4.641   3.875  1.00  0.00     0.001 A   
BRANCH  11  16
ATOM     16  O1  UNL     1       0.858   2.773   4.493  1.00  0.00    -0.349 OA  
ATOM     17  C1  UNL     1       1.654   3.143   5.616  1.00  0.00     0.203 C   
ENDBRANCH  11  16
ENDBRANCH   8  10
ENDBRANCH   7   8
ENDBRANCH   1   7
BRANCH   3  18
ATOM     18  C12 UNL     1       0.377  -1.308  -2.021  1.00  0.00     0.120 C   
BRANCH  18  19
ATOM     19  N2  UNL     1      -0.648  -0.814  -3.025  1.00  0.00     0.250 N   
ATOM     20  H12 UNL     1      -0.263   0.049  -3.430  1.00  0.00     0.199 HD  
ATOM     21  H13 UNL     1      -0.772  -1.485  -3.784  1.00  0.00     0.199 HD  
BRANCH  19  22
ATOM     22  C13 UNL     1      -1.996  -0.460  -2.473  1.00  0.00     0.164 C   
BRANCH  22  23
ATOM     23  C14 UNL     1      -2.706  -1.628  -1.846  1.00  0.00    -0.002 A   
ATOM     24  C15 UNL     1      -2.914  -1.662  -0.446  1.00  0.00     0.012 A   
ATOM     25  C19 UNL     1      -3.141  -2.706  -2.636  1.00  0.00     0.045 A   
ATOM     26  C16 UNL     1      -3.534  -2.758   0.163  1.00  0.00     0.037 A   
ATOM     27  C18 UNL     1      -3.747  -3.771  -2.003  1.00  0.00     0.109 A   
ATOM     28  C17 UNL     1      -3.934  -3.800  -0.644  1.00  0.00     0.108 A   
ATOM     29  O3  UNL     1      -4.215  -4.891  -2.616  1.00  0.00    -0.316 OA  
ATOM     30  O4  UNL     1      -4.542  -4.941  -0.229  1.00  0.00    -0.316 OA  
ATOM     31  C20 UNL     1      -4.743  -5.621  -1.486  1.00  0.00     0.337 C   
ENDBRANCH  22  23
ENDBRANCH  19  22
ENDBRANCH  18  19
BRANCH  18  32
ATOM     32  C21 UNL     1       1.637  -1.882  -2.759  1.00  0.00     0.010 C   
ATOM     33  C22 UNL     1       1.244  -3.109  -3.614  1.00  0.00     0.017 C   
ATOM     34  C23 UNL     1       2.676  -2.369  -1.722  1.00  0.00     0.017 C   
ATOM     35  C24 UNL     1       2.320  -0.853  -3.681  1.00  0.00     0.017 C   
ENDBRANCH  18  32
ENDBRANCH   3  18
TORSDOF 9
