REMARK SMILES CC(C)C[C@H]([NH2+]Cc1ccc2c(c1)OCO2)c1cn(CC(=O)c2ccc(F)cc2F)nn1
REMARK SMILES IDX 17 1 18 2 19 3 31 4 32 5 5 7 4 8 2 9 1 10 3 11 6 12 7 15
REMARK SMILES IDX 8 16 9 17 13 18 10 19 12 20 11 21 14 22 16 23 15 24 20 25
REMARK SMILES IDX 21 26 22 27 23 28 24 29 29 30 25 31 28 32 26 33 30 34 27 35
REMARK H PARENT 18 6 6 13 6 14
ROOT
ATOM     1   C14 UNL     1      -1.607  -0.687   0.699  1.00  0.00     0.127 A   
ATOM     2   C15 UNL     1      -0.427  -1.116   1.266  1.00  0.00     0.046 A   
ATOM     3   N2  UNL     1      -0.785  -2.232   1.971  1.00  0.00    -0.204 N   
ATOM     4   N3  UNL     1      -2.075  -2.547   1.737  1.00  0.00    -0.076 NA  
ATOM     5   N4  UNL     1      -2.597  -1.590   0.988  1.00  0.00    -0.132 NA  
ATOM     6   H20 UNL     1       0.579  -0.717   1.279  1.00  0.00     0.083 HD  
ENDROOT
BRANCH   1   7
ATOM     7   C5  UNL     1      -1.914   0.500  -0.149  1.00  0.00     0.114 C   
BRANCH   7   8
ATOM     8   C4  UNL     1      -2.527   1.661   0.661  1.00  0.00     0.064 C   
BRANCH   8   9
ATOM     9   C2  UNL     1      -1.617   2.256   1.757  1.00  0.00    -0.012 C   
ATOM     10  C1  UNL     1      -0.323   2.837   1.188  1.00  0.00     0.007 C   
ATOM     11  C3  UNL     1      -2.377   3.344   2.522  1.00  0.00     0.007 C   
ENDBRANCH   8   9
ENDBRANCH   7   8
BRANCH   7  12
ATOM     12  N1  UNL     1      -2.933   0.133  -1.211  1.00  0.00     0.249 N   
ATOM     13  H11 UNL     1      -3.724  -0.298  -0.711  1.00  0.00     0.199 HD  
ATOM     14  H12 UNL     1      -3.286   0.980  -1.666  1.00  0.00     0.199 HD  
BRANCH  12  15
ATOM     15  C6  UNL     1      -2.488  -0.837  -2.254  1.00  0.00     0.164 C   
BRANCH  15  16
ATOM     16  C7  UNL     1      -1.407  -0.290  -3.144  1.00  0.00    -0.002 A   
ATOM     17  C8  UNL     1      -0.073  -0.744  -3.008  1.00  0.00     0.012 A   
ATOM     18  C12 UNL     1      -1.708   0.694  -4.101  1.00  0.00     0.045 A   
ATOM     19  C9  UNL     1       0.949  -0.226  -3.811  1.00  0.00     0.037 A   
ATOM     20  C11 UNL     1      -0.678   1.182  -4.878  1.00  0.00     0.109 A   
ATOM     21  C10 UNL     1       0.613   0.736  -4.737  1.00  0.00     0.108 A   
ATOM     22  O1  UNL     1      -0.798   2.128  -5.845  1.00  0.00    -0.316 OA  
ATOM     23  O2  UNL     1       1.468   1.344  -5.599  1.00  0.00    -0.316 OA  
ATOM     24  C13 UNL     1       0.565   2.208  -6.322  1.00  0.00     0.337 C   
ENDBRANCH  15  16
ENDBRANCH  12  15
ENDBRANCH   7  12
ENDBRANCH   1   7
BRANCH   3  25
ATOM     25  C16 UNL     1       0.044  -3.111   2.779  1.00  0.00     0.215 C   
BRANCH  25  26
ATOM     26  C17 UNL     1       0.967  -2.350   3.704  1.00  0.00     0.185 C   
ATOM     27  O3  UNL     1       0.731  -1.214   4.107  1.00  0.00    -0.292 OA  
BRANCH  26  28
ATOM     28  C18 UNL     1       2.178  -3.031   4.214  1.00  0.00     0.055 A   
ATOM     29  C19 UNL     1       2.509  -2.897   5.570  1.00  0.00     0.018 A   
ATOM     30  C23 UNL     1       3.020  -3.756   3.366  1.00  0.00     0.136 A   
ATOM     31  C20 UNL     1       3.658  -3.520   6.066  1.00  0.00     0.040 A   
ATOM     32  C22 UNL     1       4.164  -4.378   3.856  1.00  0.00     0.079 A   
ATOM     33  C21 UNL     1       4.471  -4.257   5.206  1.00  0.00     0.126 A   
ATOM     34  F2  UNL     1       2.765  -3.831   2.053  1.00  0.00    -0.206 F   
ATOM     35  F1  UNL     1       5.571  -4.851   5.686  1.00  0.00    -0.207 F   
ENDBRANCH  26  28
ENDBRANCH  25  26
ENDBRANCH   3  25
TORSDOF 9
