REMARK SMILES OC[C@H](c1ccccn1)n1cc([C@@H]([NH2+]Cc2ccc3c(c2)OCO3)C2CCCC2)nn1
REMARK SMILES IDX 10 1 11 2 12 3 30 4 31 5 3 7 2 8 1 9 4 11 5 12 9 13 6 14
REMARK SMILES IDX 8 15 7 16 13 17 14 18 15 21 16 22 17 23 21 24 18 25 20 26
REMARK SMILES IDX 19 27 22 28 24 29 23 30 25 31 26 32 29 33 27 34 28 35
REMARK H PARENT 11 6 1 10 14 19 14 20
ROOT
ATOM     1   N2  UNL     1       0.681  -2.419  -1.226  1.00  0.00    -0.201 N   
ATOM     2   C8  UNL     1       1.394  -2.208  -0.076  1.00  0.00     0.046 A   
ATOM     3   C9  UNL     1       0.502  -1.596   0.772  1.00  0.00     0.127 A   
ATOM     4   N4  UNL     1      -0.699  -1.446   0.129  1.00  0.00    -0.132 NA  
ATOM     5   N5  UNL     1      -0.580  -1.947  -1.089  1.00  0.00    -0.075 NA  
ATOM     6   H9  UNL     1       2.433  -2.490   0.026  1.00  0.00     0.083 HD  
ENDROOT
BRANCH   1   7
ATOM     7   C2  UNL     1       1.097  -3.002  -2.494  1.00  0.00     0.174 C   
BRANCH   7   8
ATOM     8   C1  UNL     1       2.082  -4.181  -2.351  1.00  0.00     0.187 C   
BRANCH   8   9
ATOM     9   O1  UNL     1       3.361  -3.814  -1.832  1.00  0.00    -0.394 OA  
ATOM     10  H1  UNL     1       3.692  -3.091  -2.412  1.00  0.00     0.210 HD  
ENDBRANCH   8   9
ENDBRANCH   7   8
BRANCH   7  11
ATOM     11  C3  UNL     1       1.610  -1.905  -3.412  1.00  0.00     0.065 A   
ATOM     12  C4  UNL     1       0.734  -1.244  -4.273  1.00  0.00     0.026 A   
ATOM     13  N1  UNL     1       2.932  -1.581  -3.339  1.00  0.00    -0.259 NA  
ATOM     14  C5  UNL     1       1.230  -0.238  -5.099  1.00  0.00     0.004 A   
ATOM     15  C7  UNL     1       3.385  -0.602  -4.159  1.00  0.00     0.111 A   
ATOM     16  C6  UNL     1       2.581   0.090  -5.046  1.00  0.00     0.020 A   
ENDBRANCH   7  11
ENDBRANCH   1   7
BRANCH   3  17
ATOM     17  C10 UNL     1       0.673  -1.059   2.155  1.00  0.00     0.117 C   
BRANCH  17  18
ATOM     18  N3  UNL     1      -0.153   0.188   2.319  1.00  0.00     0.249 N   
ATOM     19  H11 UNL     1      -1.057   0.004   1.858  1.00  0.00     0.199 HD  
ATOM     20  H12 UNL     1      -0.369   0.384   3.300  1.00  0.00     0.199 HD  
BRANCH  18  21
ATOM     21  C11 UNL     1       0.417   1.410   1.686  1.00  0.00     0.164 C   
BRANCH  21  22
ATOM     22  C12 UNL     1      -0.542   2.558   1.817  1.00  0.00    -0.002 A   
ATOM     23  C13 UNL     1      -1.528   2.774   0.825  1.00  0.00     0.012 A   
ATOM     24  C17 UNL     1      -0.511   3.381   2.956  1.00  0.00     0.045 A   
ATOM     25  C14 UNL     1      -2.464   3.806   0.957  1.00  0.00     0.037 A   
ATOM     26  C16 UNL     1      -1.451   4.385   3.057  1.00  0.00     0.109 A   
ATOM     27  C15 UNL     1      -2.399   4.595   2.085  1.00  0.00     0.108 A   
ATOM     28  O2  UNL     1      -1.571   5.254   4.094  1.00  0.00    -0.316 OA  
ATOM     29  O3  UNL     1      -3.229   5.627   2.384  1.00  0.00    -0.316 OA  
ATOM     30  C18 UNL     1      -2.681   6.065   3.646  1.00  0.00     0.337 C   
ENDBRANCH  21  22
ENDBRANCH  18  21
ENDBRANCH  17  18
BRANCH  17  31
ATOM     31  C19 UNL     1       0.295  -2.100   3.229  1.00  0.00     0.043 C   
ATOM     32  C20 UNL     1       0.670  -1.686   4.668  1.00  0.00     0.010 C   
ATOM     33  C23 UNL     1      -1.190  -2.486   3.303  1.00  0.00     0.010 C   
ATOM     34  C21 UNL     1      -0.524  -2.061   5.544  1.00  0.00     0.001 C   
ATOM     35  C22 UNL     1      -1.336  -3.040   4.711  1.00  0.00     0.001 C   
ENDBRANCH  17  31
ENDBRANCH   3  17
TORSDOF 9
