REMARK SMILES OC[C@@H](c1ccccn1)n1cc([C@@H]([NH2+]Cc2ccc3c(c2)OCO3)C2CCCC2)nn1
REMARK SMILES IDX 10 1 11 2 12 3 30 4 31 5 3 7 2 8 1 9 4 11 5 12 9 13 6 14
REMARK SMILES IDX 8 15 7 16 13 17 14 18 15 21 16 22 17 23 21 24 18 25 20 26
REMARK SMILES IDX 19 27 22 28 24 29 23 30 25 31 26 32 29 33 27 34 28 35
REMARK H PARENT 11 6 1 10 14 19 14 20
ROOT
ATOM     1   N2  UNL     1       0.664  -2.512  -1.817  1.00  0.00    -0.201 N   
ATOM     2   C8  UNL     1       0.861  -2.082  -0.531  1.00  0.00     0.046 A   
ATOM     3   C9  UNL     1       0.045  -0.982  -0.412  1.00  0.00     0.127 A   
ATOM     4   N4  UNL     1      -0.598  -0.770  -1.604  1.00  0.00    -0.132 NA  
ATOM     5   N5  UNL     1      -0.216  -1.710  -2.453  1.00  0.00    -0.075 NA  
ATOM     6   H9  UNL     1       1.558  -2.569   0.138  1.00  0.00     0.083 HD  
ENDROOT
BRANCH   1   7
ATOM     7   C2  UNL     1       1.311  -3.605  -2.536  1.00  0.00     0.174 C   
BRANCH   7   8
ATOM     8   C1  UNL     1       2.733  -3.213  -2.974  1.00  0.00     0.187 C   
BRANCH   8   9
ATOM     9   O1  UNL     1       3.604  -2.931  -1.875  1.00  0.00    -0.394 OA  
ATOM     10  H1  UNL     1       3.636  -3.759  -1.346  1.00  0.00     0.210 HD  
ENDBRANCH   8   9
ENDBRANCH   7   8
BRANCH   7  11
ATOM     11  C3  UNL     1       1.256  -4.888  -1.726  1.00  0.00     0.065 A   
ATOM     12  C4  UNL     1       0.118  -5.694  -1.769  1.00  0.00     0.026 A   
ATOM     13  N1  UNL     1       2.330  -5.195  -0.947  1.00  0.00    -0.259 NA  
ATOM     14  C5  UNL     1       0.089  -6.861  -1.010  1.00  0.00     0.004 A   
ATOM     15  C7  UNL     1       2.274  -6.341  -0.228  1.00  0.00     0.111 A   
ATOM     16  C6  UNL     1       1.187  -7.196  -0.227  1.00  0.00     0.020 A   
ENDBRANCH   7  11
ENDBRANCH   1   7
BRANCH   3  17
ATOM     17  C10 UNL     1      -0.137  -0.016   0.712  1.00  0.00     0.117 C   
BRANCH  17  18
ATOM     18  N3  UNL     1      -0.305   1.378   0.160  1.00  0.00     0.249 N   
ATOM     19  H11 UNL     1      -0.974   1.309  -0.622  1.00  0.00     0.199 HD  
ATOM     20  H12 UNL     1      -0.732   2.006   0.849  1.00  0.00     0.199 HD  
BRANCH  18  21
ATOM     21  C11 UNL     1       0.936   2.004  -0.374  1.00  0.00     0.164 C   
BRANCH  21  22
ATOM     22  C12 UNL     1       0.637   3.378  -0.903  1.00  0.00    -0.002 A   
ATOM     23  C13 UNL     1       0.221   3.549  -2.245  1.00  0.00     0.012 A   
ATOM     24  C17 UNL     1       0.712   4.495  -0.054  1.00  0.00     0.045 A   
ATOM     25  C14 UNL     1      -0.104   4.816  -2.741  1.00  0.00     0.037 A   
ATOM     26  C16 UNL     1       0.382   5.729  -0.575  1.00  0.00     0.109 A   
ATOM     27  C15 UNL     1      -0.013   5.887  -1.880  1.00  0.00     0.108 A   
ATOM     28  O2  UNL     1       0.398   6.904   0.109  1.00  0.00    -0.316 OA  
ATOM     29  O3  UNL     1      -0.290   7.181  -2.185  1.00  0.00    -0.316 OA  
ATOM     30  C18 UNL     1      -0.019   7.827  -0.922  1.00  0.00     0.337 C   
ENDBRANCH  21  22
ENDBRANCH  18  21
ENDBRANCH  17  18
BRANCH  17  31
ATOM     31  C19 UNL     1      -1.337  -0.308   1.630  1.00  0.00     0.043 C   
ATOM     32  C20 UNL     1      -2.721  -0.309   0.975  1.00  0.00     0.010 C   
ATOM     33  C23 UNL     1      -1.311  -1.673   2.320  1.00  0.00     0.010 C   
ATOM     34  C21 UNL     1      -3.627  -0.978   2.008  1.00  0.00     0.001 C   
ATOM     35  C22 UNL     1      -2.707  -1.789   2.923  1.00  0.00     0.001 C   
ENDBRANCH  17  31
ENDBRANCH   3  17
TORSDOF 9
