REMARK SMILES Cc1cccnc1CCn1cc([C@@H]([NH2+]Cc2ccc3c(c2)OCO3)C2CCCC2)nn1
REMARK SMILES IDX 10 1 11 2 12 3 30 4 31 5 9 7 8 8 7 9 2 10 3 11 4 12 6 13
REMARK SMILES IDX 5 14 1 15 13 16 14 17 15 20 16 21 17 22 21 23 18 24 20 25
REMARK SMILES IDX 19 26 22 27 24 28 23 29 25 30 26 31 29 32 27 33 28 34
REMARK H PARENT 11 6 14 18 14 19
ROOT
ATOM     1   N2  UNL     1       0.565   2.408  -1.010  1.00  0.00    -0.212 N   
ATOM     2   C9  UNL     1       1.634   1.905  -0.324  1.00  0.00     0.045 A   
ATOM     3   C10 UNL     1       1.385   0.554  -0.266  1.00  0.00     0.127 A   
ATOM     4   N4  UNL     1       0.209   0.285  -0.921  1.00  0.00    -0.132 NA  
ATOM     5   N5  UNL     1      -0.276   1.424  -1.381  1.00  0.00    -0.076 NA  
ATOM     6   H11 UNL     1       2.409   2.543   0.079  1.00  0.00     0.083 HD  
ENDROOT
BRANCH   1   7
ATOM     7   C8  UNL     1       0.274   3.788  -1.337  1.00  0.00     0.140 C   
BRANCH   7   8
ATOM     8   C7  UNL     1      -0.976   4.321  -0.636  1.00  0.00     0.078 C   
BRANCH   8   9
ATOM     9   C6  UNL     1      -0.861   4.455   0.868  1.00  0.00     0.045 A   
ATOM     10  C2  UNL     1      -1.992   4.728   1.651  1.00  0.00    -0.029 A   
ATOM     11  C3  UNL     1      -1.814   4.883   3.031  1.00  0.00     0.007 A   
ATOM     12  C4  UNL     1      -0.544   4.793   3.583  1.00  0.00     0.020 A   
ATOM     13  N1  UNL     1       0.385   4.354   1.403  1.00  0.00    -0.261 NA  
ATOM     14  C5  UNL     1       0.515   4.539   2.735  1.00  0.00     0.111 A   
ATOM     15  C1  UNL     1      -3.370   4.844   1.064  1.00  0.00     0.046 C   
ENDBRANCH   8   9
ENDBRANCH   7   8
ENDBRANCH   1   7
BRANCH   3  16
ATOM     16  C11 UNL     1       2.090  -0.548   0.451  1.00  0.00     0.117 C   
BRANCH  16  17
ATOM     17  N3  UNL     1       1.062  -1.476   1.054  1.00  0.00     0.249 N   
ATOM     18  H13 UNL     1       1.464  -2.388   1.290  1.00  0.00     0.199 HD  
ATOM     19  H14 UNL     1       0.360  -1.648   0.317  1.00  0.00     0.199 HD  
BRANCH  17  20
ATOM     20  C12 UNL     1       0.335  -0.932   2.235  1.00  0.00     0.164 C   
BRANCH  20  21
ATOM     21  C13 UNL     1      -0.760  -1.871   2.653  1.00  0.00    -0.002 A   
ATOM     22  C14 UNL     1      -0.534  -2.842   3.658  1.00  0.00     0.012 A   
ATOM     23  C18 UNL     1      -2.006  -1.822   2.001  1.00  0.00     0.045 A   
ATOM     24  C15 UNL     1      -1.538  -3.749   4.017  1.00  0.00     0.037 A   
ATOM     25  C17 UNL     1      -2.972  -2.730   2.379  1.00  0.00     0.109 A   
ATOM     26  C16 UNL     1      -2.745  -3.667   3.358  1.00  0.00     0.108 A   
ATOM     27  O1  UNL     1      -4.220  -2.821   1.853  1.00  0.00    -0.316 OA  
ATOM     28  O2  UNL     1      -3.823  -4.465   3.571  1.00  0.00    -0.316 OA  
ATOM     29  C19 UNL     1      -4.763  -3.919   2.620  1.00  0.00     0.337 C   
ENDBRANCH  20  21
ENDBRANCH  17  20
ENDBRANCH  16  17
BRANCH  16  30
ATOM     30  C20 UNL     1       3.035  -1.394  -0.420  1.00  0.00     0.043 C   
ATOM     31  C21 UNL     1       4.216  -0.625  -1.024  1.00  0.00     0.010 C   
ATOM     32  C24 UNL     1       2.415  -2.081  -1.638  1.00  0.00     0.010 C   
ATOM     33  C22 UNL     1       4.674  -1.457  -2.224  1.00  0.00     0.001 C   
ATOM     34  C23 UNL     1       3.637  -2.561  -2.406  1.00  0.00     0.001 C   
ENDBRANCH  16  30
ENDBRANCH   3  16
TORSDOF 8
