REMARK SMILES CC(C)[C@H]([NH2+]Cc1ccc2c(c1)OCO2)c1cn(CCc2ccn(C)n2)nn1
REMARK SMILES IDX 16 1 17 2 18 3 27 4 28 5 4 7 2 8 1 9 3 10 5 11 6 14 7 15
REMARK SMILES IDX 8 16 12 17 9 18 11 19 10 20 13 21 15 22 14 23 19 24 20 25
REMARK SMILES IDX 21 26 22 27 26 28 23 29 24 30 25 31
REMARK H PARENT 17 6 5 12 5 13
ROOT
ATOM     1   C13 UNL     1       0.439  -0.838   1.868  1.00  0.00     0.127 A   
ATOM     2   C14 UNL     1      -0.651  -0.002   1.947  1.00  0.00     0.045 A   
ATOM     3   N2  UNL     1      -0.182   1.082   2.632  1.00  0.00    -0.212 N   
ATOM     4   N5  UNL     1       1.102   0.905   2.997  1.00  0.00    -0.076 NA  
ATOM     5   N6  UNL     1       1.496  -0.267   2.530  1.00  0.00    -0.132 NA  
ATOM     6   H18 UNL     1      -1.654  -0.041   1.546  1.00  0.00     0.083 HD  
ENDROOT
BRANCH   1   7
ATOM     7   C4  UNL     1       0.644  -2.116   1.129  1.00  0.00     0.117 C   
BRANCH   7   8
ATOM     8   C2  UNL     1       0.440  -3.392   1.987  1.00  0.00     0.037 C   
ATOM     9   C1  UNL     1      -1.016  -3.530   2.447  1.00  0.00     0.014 C   
ATOM     10  C3  UNL     1       1.377  -3.501   3.196  1.00  0.00     0.014 C   
ENDBRANCH   7   8
BRANCH   7  11
ATOM     11  N1  UNL     1       2.044  -2.145   0.549  1.00  0.00     0.249 N   
ATOM     12  H9  UNL     1       2.294  -3.094   0.260  1.00  0.00     0.199 HD  
ATOM     13  H10 UNL     1       2.673  -1.876   1.318  1.00  0.00     0.199 HD  
BRANCH  11  14
ATOM     14  C5  UNL     1       2.307  -1.193  -0.573  1.00  0.00     0.164 C   
BRANCH  14  15
ATOM     15  C6  UNL     1       1.607  -1.585  -1.844  1.00  0.00    -0.002 A   
ATOM     16  C7  UNL     1       2.078  -2.676  -2.614  1.00  0.00     0.012 A   
ATOM     17  C11 UNL     1       0.460  -0.887  -2.261  1.00  0.00     0.045 A   
ATOM     18  C8  UNL     1       1.415  -3.072  -3.780  1.00  0.00     0.037 A   
ATOM     19  C10 UNL     1      -0.171  -1.304  -3.415  1.00  0.00     0.109 A   
ATOM     20  C9  UNL     1       0.292  -2.366  -4.152  1.00  0.00     0.108 A   
ATOM     21  O1  UNL     1      -1.289  -0.749  -3.953  1.00  0.00    -0.316 OA  
ATOM     22  O2  UNL     1      -0.473  -2.613  -5.246  1.00  0.00    -0.316 OA  
ATOM     23  C12 UNL     1      -1.460  -1.567  -5.134  1.00  0.00     0.337 C   
ENDBRANCH  14  15
ENDBRANCH  11  14
ENDBRANCH   7  11
ENDBRANCH   1   7
BRANCH   3  24
ATOM     24  C15 UNL     1      -0.875   2.308   2.967  1.00  0.00     0.140 C   
BRANCH  24  25
ATOM     25  C16 UNL     1      -0.585   3.433   1.979  1.00  0.00     0.079 C   
BRANCH  25  26
ATOM     26  C17 UNL     1      -1.453   3.383   0.764  1.00  0.00     0.062 A   
ATOM     27  C18 UNL     1      -2.466   4.301   0.403  1.00  0.00     0.042 A   
ATOM     28  N4  UNL     1      -1.328   2.401  -0.142  1.00  0.00    -0.187 NA  
ATOM     29  C19 UNL     1      -2.959   3.839  -0.791  1.00  0.00     0.097 A   
ATOM     30  N3  UNL     1      -2.245   2.717  -1.084  1.00  0.00    -0.236 N   
ATOM     31  C20 UNL     1      -2.386   1.890  -2.258  1.00  0.00     0.159 C   
ENDBRANCH  25  26
ENDBRANCH  24  25
ENDBRANCH   3  24
TORSDOF 8
