REMARK SMILES O=C(c1ccc2[nH]ncc2c1)n1cc([C@@H]([NH2+]Cc2ccc3c(c2)OCO3)C2CCCCC2)nn1
REMARK SMILES IDX 12 1 13 2 14 3 33 4 34 5 2 6 1 7 3 8 4 9 11 10 5 11 10 12
REMARK SMILES IDX 6 13 9 14 7 15 8 16 15 18 16 19 17 22 18 23 19 24 23 25
REMARK SMILES IDX 20 26 22 27 21 28 24 29 26 30 25 31 27 32 28 33 32 34 29 35
REMARK SMILES IDX 31 36 30 37
REMARK H PARENT 7 17 16 20 16 21
ROOT
ATOM     1   N3  UNL     1      -0.899   0.260  -1.018  1.00  0.00    -0.143 N   
ATOM     2   C9  UNL     1       0.250   0.805  -0.471  1.00  0.00     0.139 A   
ATOM     3   C10 UNL     1      -0.010   0.905   0.878  1.00  0.00     0.128 A   
ATOM     4   N5  UNL     1      -1.301   0.519   1.105  1.00  0.00    -0.131 NA  
ATOM     5   N6  UNL     1      -1.831   0.133  -0.046  1.00  0.00    -0.068 NA  
ENDROOT
BRANCH   1   6
ATOM     6   C1  UNL     1      -1.092  -0.202  -2.329  1.00  0.00     0.271 C   
ATOM     7   O1  UNL     1      -0.117  -0.101  -3.075  1.00  0.00    -0.269 OA  
BRANCH   6   8
ATOM     8   C2  UNL     1      -2.333  -0.831  -2.856  1.00  0.00     0.040 A   
ATOM     9   C3  UNL     1      -2.193  -1.808  -3.855  1.00  0.00     0.016 A   
ATOM     10  C8  UNL     1      -3.609  -0.458  -2.404  1.00  0.00     0.025 A   
ATOM     11  C4  UNL     1      -3.304  -2.454  -4.410  1.00  0.00     0.027 A   
ATOM     12  C7  UNL     1      -4.734  -1.102  -2.951  1.00  0.00     0.018 A   
ATOM     13  C5  UNL     1      -4.559  -2.074  -3.929  1.00  0.00     0.056 A   
ATOM     14  C6  UNL     1      -6.133  -1.027  -2.773  1.00  0.00     0.141 A   
ATOM     15  N1  UNL     1      -5.825  -2.492  -4.253  1.00  0.00    -0.238 N   
ATOM     16  N2  UNL     1      -6.797  -1.878  -3.558  1.00  0.00    -0.192 NA  
ATOM     17  H3  UNL     1      -6.093  -3.190  -4.938  1.00  0.00     0.176 HD  
ENDBRANCH   6   8
ENDBRANCH   1   6
BRANCH   3  18
ATOM     18  C11 UNL     1       0.878   1.258   2.030  1.00  0.00     0.117 C   
BRANCH  18  19
ATOM     19  N4  UNL     1       2.199   0.518   2.010  1.00  0.00     0.249 N   
ATOM     20  H8  UNL     1       2.610   0.599   1.073  1.00  0.00     0.199 HD  
ATOM     21  H9  UNL     1       2.851   0.979   2.651  1.00  0.00     0.199 HD  
BRANCH  19  22
ATOM     22  C12 UNL     1       2.156  -0.932   2.394  1.00  0.00     0.164 C   
BRANCH  22  23
ATOM     23  C13 UNL     1       1.581  -1.830   1.335  1.00  0.00    -0.002 A   
ATOM     24  C14 UNL     1       2.276  -2.050   0.119  1.00  0.00     0.012 A   
ATOM     25  C18 UNL     1       0.323  -2.428   1.525  1.00  0.00     0.045 A   
ATOM     26  C15 UNL     1       1.710  -2.818  -0.905  1.00  0.00     0.037 A   
ATOM     27  C17 UNL     1      -0.205  -3.182   0.497  1.00  0.00     0.109 A   
ATOM     28  C16 UNL     1       0.464  -3.363  -0.687  1.00  0.00     0.108 A   
ATOM     29  O2  UNL     1      -1.416  -3.796   0.509  1.00  0.00    -0.316 OA  
ATOM     30  O3  UNL     1      -0.246  -4.107  -1.574  1.00  0.00    -0.316 OA  
ATOM     31  C19 UNL     1      -1.428  -4.408  -0.799  1.00  0.00     0.337 C   
ENDBRANCH  22  23
ENDBRANCH  19  22
ENDBRANCH  18  19
BRANCH  18  32
ATOM     32  C20 UNL     1       1.111   2.792   2.148  1.00  0.00     0.043 C   
ATOM     33  C21 UNL     1       2.071   3.375   1.092  1.00  0.00     0.010 C   
ATOM     34  C25 UNL     1       1.585   3.184   3.564  1.00  0.00     0.010 C   
ATOM     35  C22 UNL     1       2.228   4.888   1.245  1.00  0.00     0.001 C   
ATOM     36  C24 UNL     1       1.739   4.697   3.710  1.00  0.00     0.001 C   
ATOM     37  C23 UNL     1       2.674   5.270   2.651  1.00  0.00     0.000 C   
ENDBRANCH  18  32
ENDBRANCH   3  18
TORSDOF 7
