REMARK SMILES Fc1cccc(F)c1CCn1cc([C@@H]([NH2+]Cc2ccc3c(c2)OCO3)C2CCCCC2)nn1
REMARK SMILES IDX 11 1 12 2 13 3 32 4 33 5 10 7 9 8 8 9 2 10 3 11 4 12 6 13
REMARK SMILES IDX 5 14 1 15 7 16 14 17 15 18 16 21 17 22 18 23 22 24 19 25
REMARK SMILES IDX 21 26 20 27 23 28 25 29 24 30 26 31 27 32 31 33 28 34 30 35
REMARK SMILES IDX 29 36
REMARK H PARENT 12 6 15 19 15 20
ROOT
ATOM     1   N1  UNL     1       1.497   0.244   2.737  1.00  0.00    -0.212 N   
ATOM     2   C9  UNL     1       2.356  -0.131   1.741  1.00  0.00     0.045 A   
ATOM     3   C10 UNL     1       1.774   0.373   0.600  1.00  0.00     0.127 A   
ATOM     4   N3  UNL     1       0.630   1.052   0.938  1.00  0.00    -0.132 NA  
ATOM     5   N4  UNL     1       0.474   0.966   2.248  1.00  0.00    -0.076 NA  
ATOM     6   H8  UNL     1       3.231  -0.736   1.927  1.00  0.00     0.083 HD  
ENDROOT
BRANCH   1   7
ATOM     7   C8  UNL     1       1.538  -0.128   4.136  1.00  0.00     0.139 C   
BRANCH   7   8
ATOM     8   C7  UNL     1       1.055  -1.561   4.375  1.00  0.00     0.063 C   
BRANCH   8   9
ATOM     9   C6  UNL     1      -0.418  -1.743   4.122  1.00  0.00     0.025 A   
ATOM     10  C1  UNL     1      -0.896  -2.248   2.912  1.00  0.00     0.129 A   
ATOM     11  C2  UNL     1      -2.261  -2.404   2.680  1.00  0.00     0.040 A   
ATOM     12  C3  UNL     1      -3.177  -2.037   3.664  1.00  0.00     0.006 A   
ATOM     13  C5  UNL     1      -1.353  -1.373   5.089  1.00  0.00     0.129 A   
ATOM     14  C4  UNL     1      -2.720  -1.516   4.873  1.00  0.00     0.040 A   
ATOM     15  F1  UNL     1      -0.035  -2.577   1.936  1.00  0.00    -0.207 F   
ATOM     16  F2  UNL     1      -0.930  -0.860   6.251  1.00  0.00    -0.207 F   
ENDBRANCH   8   9
ENDBRANCH   7   8
ENDBRANCH   1   7
BRANCH   3  17
ATOM     17  C11 UNL     1       2.128   0.216  -0.843  1.00  0.00     0.117 C   
BRANCH  17  18
ATOM     18  N2  UNL     1       0.869   0.179  -1.665  1.00  0.00     0.249 N   
ATOM     19  H10 UNL     1       1.036   0.392  -2.652  1.00  0.00     0.199 HD  
ATOM     20  H11 UNL     1       0.264   0.933  -1.303  1.00  0.00     0.199 HD  
BRANCH  18  21
ATOM     21  C12 UNL     1       0.088  -1.086  -1.560  1.00  0.00     0.164 C   
BRANCH  21  22
ATOM     22  C13 UNL     1      -1.274  -0.918  -2.169  1.00  0.00    -0.002 A   
ATOM     23  C14 UNL     1      -2.343  -0.424  -1.379  1.00  0.00     0.012 A   
ATOM     24  C18 UNL     1      -1.486  -1.195  -3.530  1.00  0.00     0.045 A   
ATOM     25  C15 UNL     1      -3.609  -0.218  -1.934  1.00  0.00     0.037 A   
ATOM     26  C17 UNL     1      -2.749  -0.984  -4.044  1.00  0.00     0.109 A   
ATOM     27  C16 UNL     1      -3.779  -0.508  -3.271  1.00  0.00     0.108 A   
ATOM     28  O1  UNL     1      -3.123  -1.203  -5.333  1.00  0.00    -0.316 OA  
ATOM     29  O2  UNL     1      -4.931  -0.367  -3.977  1.00  0.00    -0.316 OA  
ATOM     30  C19 UNL     1      -4.519  -0.829  -5.280  1.00  0.00     0.337 C   
ENDBRANCH  21  22
ENDBRANCH  18  21
ENDBRANCH  17  18
BRANCH  17  31
ATOM     31  C20 UNL     1       3.081   1.331  -1.345  1.00  0.00     0.043 C   
ATOM     32  C21 UNL     1       3.719   0.962  -2.700  1.00  0.00     0.010 C   
ATOM     33  C25 UNL     1       2.432   2.727  -1.426  1.00  0.00     0.010 C   
ATOM     34  C22 UNL     1       4.716   2.025  -3.158  1.00  0.00     0.001 C   
ATOM     35  C24 UNL     1       3.427   3.788  -1.899  1.00  0.00     0.001 C   
ATOM     36  C23 UNL     1       4.072   3.406  -3.227  1.00  0.00     0.000 C   
ENDBRANCH  17  31
ENDBRANCH   3  17
TORSDOF 8
