REMARK SMILES COc1cc(Cn2cc([C@H](CC(C)C)[NH2+]Cc3ccc4c(c3)OCO4)nn2)ccn1
REMARK SMILES IDX 7 1 8 2 9 3 26 4 27 5 6 7 5 8 3 9 4 10 30 11 29 12 28 13
REMARK SMILES IDX 2 14 1 15 10 16 11 17 12 18 13 19 14 20 15 21 16 24 17 25
REMARK SMILES IDX 18 26 22 27 19 28 21 29 20 30 23 31 25 32 24 33
REMARK H PARENT 8 6 15 22 15 23
ROOT
ATOM     1   N1  UNL     1       0.803  -0.934  -2.396  1.00  0.00    -0.208 N   
ATOM     2   C6  UNL     1       1.454  -0.414  -1.310  1.00  0.00     0.046 A   
ATOM     3   C7  UNL     1       0.437  -0.069  -0.447  1.00  0.00     0.127 A   
ATOM     4   N3  UNL     1      -0.769  -0.347  -1.040  1.00  0.00    -0.132 NA  
ATOM     5   N4  UNL     1      -0.533  -0.855  -2.238  1.00  0.00    -0.076 NA  
ATOM     6   H7  UNL     1       2.532  -0.373  -1.247  1.00  0.00     0.083 HD  
ENDROOT
BRANCH   1   7
ATOM     7   C5  UNL     1       1.377  -1.508  -3.602  1.00  0.00     0.169 C   
BRANCH   7   8
ATOM     8   C4  UNL     1       1.891  -2.898  -3.343  1.00  0.00    -0.023 A   
ATOM     9   C2  UNL     1       3.677  -4.427  -2.875  1.00  0.00     0.166 A   
ATOM     10  C3  UNL     1       3.255  -3.134  -3.143  1.00  0.00     0.060 A   
ATOM     11  N5  UNL     1       2.843  -5.482  -2.788  1.00  0.00    -0.233 NA  
ATOM     12  C22 UNL     1       1.532  -5.241  -2.993  1.00  0.00     0.114 A   
ATOM     13  C21 UNL     1       1.013  -3.985  -3.266  1.00  0.00     0.026 A   
BRANCH   9  14
ATOM     14  O1  UNL     1       5.032  -4.593  -2.672  1.00  0.00    -0.333 OA  
ATOM     15  C1  UNL     1       5.403  -5.955  -2.480  1.00  0.00     0.205 C   
ENDBRANCH   9  14
ENDBRANCH   7   8
ENDBRANCH   1   7
BRANCH   3  16
ATOM     16  C8  UNL     1       0.466   0.523   0.928  1.00  0.00     0.114 C   
BRANCH  16  17
ATOM     17  C9  UNL     1       0.709  -0.573   1.985  1.00  0.00     0.064 C   
BRANCH  17  18
ATOM     18  C10 UNL     1       0.836  -0.104   3.450  1.00  0.00    -0.012 C   
ATOM     19  C11 UNL     1       1.113  -1.310   4.353  1.00  0.00     0.007 C   
ATOM     20  C12 UNL     1       1.933   0.944   3.639  1.00  0.00     0.007 C   
ENDBRANCH  17  18
ENDBRANCH  16  17
BRANCH  16  21
ATOM     21  N2  UNL     1      -0.835   1.217   1.224  1.00  0.00     0.249 N   
ATOM     22  H18 UNL     1      -0.979   1.363   2.227  1.00  0.00     0.199 HD  
ATOM     23  H19 UNL     1      -1.587   0.583   0.913  1.00  0.00     0.199 HD  
BRANCH  21  24
ATOM     24  C13 UNL     1      -1.036   2.517   0.525  1.00  0.00     0.164 C   
BRANCH  24  25
ATOM     25  C14 UNL     1      -2.398   3.070   0.833  1.00  0.00    -0.002 A   
ATOM     26  C15 UNL     1      -3.513   2.686   0.050  1.00  0.00     0.012 A   
ATOM     27  C19 UNL     1      -2.585   3.923   1.934  1.00  0.00     0.045 A   
ATOM     28  C16 UNL     1      -4.797   3.155   0.350  1.00  0.00     0.037 A   
ATOM     29  C18 UNL     1      -3.863   4.366   2.202  1.00  0.00     0.109 A   
ATOM     30  C17 UNL     1      -4.938   3.994   1.433  1.00  0.00     0.108 A   
ATOM     31  O2  UNL     1      -4.215   5.190   3.223  1.00  0.00    -0.316 OA  
ATOM     32  O3  UNL     1      -6.102   4.539   1.871  1.00  0.00    -0.316 OA  
ATOM     33  C20 UNL     1      -5.638   5.316   2.996  1.00  0.00     0.337 C   
ENDBRANCH  24  25
ENDBRANCH  21  24
ENDBRANCH  16  21
ENDBRANCH   3  16
TORSDOF 9
