REMARK SMILES CN(C)c1ccccc1-n1cc([C@@H]([NH2+]Cc2ccc3c(c2)OCO3)C2CCCC2)nn1
REMARK SMILES IDX 10 1 11 2 12 3 30 4 31 5 9 6 4 7 5 8 6 9 8 10 7 11 2 12 1 13
REMARK SMILES IDX 3 14 13 15 14 16 15 19 16 20 17 21 21 22 18 23 20 24 19 25
REMARK SMILES IDX 22 26 24 27 23 28 25 29 26 30 29 31 27 32 28 33
REMARK H PARENT 14 17 14 18
ROOT
ATOM     1   N2  UNL     1       0.971   2.275   2.314  1.00  0.00    -0.179 N   
ATOM     2   C9  UNL     1       0.195   1.362   1.622  1.00  0.00     0.135 A   
ATOM     3   C10 UNL     1       1.079   0.476   1.053  1.00  0.00     0.127 A   
ATOM     4   N4  UNL     1       2.351   0.853   1.362  1.00  0.00    -0.131 NA  
ATOM     5   N5  UNL     1       2.282   1.946   2.102  1.00  0.00    -0.071 NA  
ENDROOT
BRANCH   1   6
ATOM     6   C8  UNL     1       0.616   3.411   3.098  1.00  0.00     0.079 A   
ATOM     7   C3  UNL     1      -0.718   3.760   3.409  1.00  0.00     0.052 A   
ATOM     8   C4  UNL     1      -0.933   4.928   4.176  1.00  0.00     0.025 A   
ATOM     9   C5  UNL     1       0.121   5.725   4.621  1.00  0.00     0.002 A   
ATOM     10  C7  UNL     1       1.674   4.223   3.568  1.00  0.00     0.028 A   
ATOM     11  C6  UNL     1       1.427   5.370   4.320  1.00  0.00     0.002 A   
BRANCH   7  12
ATOM     12  N1  UNL     1      -1.821   2.954   3.029  1.00  0.00    -0.335 N   
ATOM     13  C1  UNL     1      -2.350   2.215   4.189  1.00  0.00     0.129 C   
ATOM     14  C2  UNL     1      -2.858   3.699   2.298  1.00  0.00     0.129 C   
ENDBRANCH   7  12
ENDBRANCH   1   6
BRANCH   3  15
ATOM     15  C11 UNL     1       0.854  -0.704   0.166  1.00  0.00     0.117 C   
BRANCH  15  16
ATOM     16  N3  UNL     1       1.964  -0.774  -0.862  1.00  0.00     0.249 N   
ATOM     17  H13 UNL     1       1.992  -1.692  -1.312  1.00  0.00     0.199 HD  
ATOM     18  H14 UNL     1       2.845  -0.664  -0.338  1.00  0.00     0.199 HD  
BRANCH  16  19
ATOM     19  C12 UNL     1       1.943   0.276  -1.924  1.00  0.00     0.164 C   
BRANCH  19  20
ATOM     20  C13 UNL     1       0.842   0.055  -2.924  1.00  0.00    -0.002 A   
ATOM     21  C14 UNL     1       0.963  -0.954  -3.910  1.00  0.00     0.012 A   
ATOM     22  C18 UNL     1      -0.334   0.823  -2.862  1.00  0.00     0.045 A   
ATOM     23  C15 UNL     1      -0.072  -1.199  -4.819  1.00  0.00     0.037 A   
ATOM     24  C17 UNL     1      -1.336   0.553  -3.771  1.00  0.00     0.109 A   
ATOM     25  C16 UNL     1      -1.209  -0.429  -4.722  1.00  0.00     0.108 A   
ATOM     26  O1  UNL     1      -2.534   1.192  -3.841  1.00  0.00    -0.316 OA  
ATOM     27  O2  UNL     1      -2.308  -0.530  -5.513  1.00  0.00    -0.316 OA  
ATOM     28  C19 UNL     1      -3.137   0.520  -4.970  1.00  0.00     0.337 C   
ENDBRANCH  19  20
ENDBRANCH  16  19
ENDBRANCH  15  16
BRANCH  15  29
ATOM     29  C20 UNL     1       0.837  -2.028   0.958  1.00  0.00     0.043 C   
ATOM     30  C21 UNL     1       0.581  -3.272   0.099  1.00  0.00     0.010 C   
ATOM     31  C24 UNL     1      -0.313  -2.111   1.969  1.00  0.00     0.010 C   
ATOM     32  C22 UNL     1       0.112  -4.339   1.083  1.00  0.00     0.001 C   
ATOM     33  C23 UNL     1      -0.410  -3.593   2.308  1.00  0.00     0.001 C   
ENDBRANCH  15  29
ENDBRANCH   3  15
TORSDOF 7
