REMARK SMILES CC(C)(C)[C@H]([NH2+]Cc1ccc2c(c1)OCO2)c1cn(-c2ccc(OCCO)cc2)nn1
REMARK SMILES IDX 20 1 21 2 22 3 23 4 28 5 29 6 19 7 17 8 18 9 31 10 30 11
REMARK SMILES IDX 5 12 2 13 1 14 3 15 4 16 6 17 7 20 8 21 9 22 13 23 10 24
REMARK SMILES IDX 12 25 11 26 14 27 16 28 15 29 24 30 25 31 26 32 27 33
REMARK H PARENT 6 18 6 19 27 34
ROOT
ATOM     1   C16 UNL     1       1.851  -0.224  -2.262  1.00  0.00     0.058 A   
ATOM     2   C17 UNL     1       1.107  -0.429  -3.433  1.00  0.00     0.028 A   
ATOM     3   C18 UNL     1       1.756  -0.826  -4.606  1.00  0.00     0.035 A   
ATOM     4   C19 UNL     1       3.133  -1.037  -4.613  1.00  0.00     0.075 A   
ATOM     5   C22 UNL     1       3.881  -0.813  -3.460  1.00  0.00     0.035 A   
ATOM     6   C23 UNL     1       3.243  -0.412  -2.284  1.00  0.00     0.028 A   
ENDROOT
BRANCH   1   7
ATOM     7   N2  UNL     1       1.222   0.183  -1.060  1.00  0.00    -0.181 N   
ATOM     8   C14 UNL     1      -0.175   0.807   0.509  1.00  0.00     0.128 A   
ATOM     9   C15 UNL     1      -0.122   0.375  -0.798  1.00  0.00     0.135 A   
ATOM     10  N4  UNL     1       1.091   0.825   1.022  1.00  0.00    -0.131 NA  
ATOM     11  N3  UNL     1       1.926   0.435   0.074  1.00  0.00    -0.071 NA  
BRANCH   8  12
ATOM     12  C5  UNL     1      -1.333   1.161   1.397  1.00  0.00     0.120 C   
BRANCH  12  13
ATOM     13  C2  UNL     1      -1.769   2.667   1.313  1.00  0.00     0.010 C   
ATOM     14  C1  UNL     1      -3.047   2.906   2.151  1.00  0.00     0.017 C   
ATOM     15  C3  UNL     1      -0.673   3.630   1.814  1.00  0.00     0.017 C   
ATOM     16  C4  UNL     1      -2.118   3.046  -0.144  1.00  0.00     0.017 C   
ENDBRANCH  12  13
BRANCH  12  17
ATOM     17  N1  UNL     1      -0.978   0.801   2.821  1.00  0.00     0.250 N   
ATOM     18  H11 UNL     1      -1.559   1.289   3.508  1.00  0.00     0.199 HD  
ATOM     19  H12 UNL     1      -0.013   1.132   2.980  1.00  0.00     0.199 HD  
BRANCH  17  20
ATOM     20  C6  UNL     1      -0.997  -0.655   3.143  1.00  0.00     0.164 C   
BRANCH  20  21
ATOM     21  C7  UNL     1      -0.540  -0.876   4.558  1.00  0.00    -0.002 A   
ATOM     22  C8  UNL     1       0.842  -0.990   4.850  1.00  0.00     0.012 A   
ATOM     23  C12 UNL     1      -1.473  -0.903   5.607  1.00  0.00     0.045 A   
ATOM     24  C9  UNL     1       1.287  -1.141   6.167  1.00  0.00     0.037 A   
ATOM     25  C11 UNL     1      -0.999  -1.049   6.894  1.00  0.00     0.109 A   
ATOM     26  C10 UNL     1       0.341  -1.164   7.168  1.00  0.00     0.108 A   
ATOM     27  O1  UNL     1      -1.764  -1.092   8.017  1.00  0.00    -0.316 OA  
ATOM     28  O2  UNL     1       0.590  -1.290   8.496  1.00  0.00    -0.316 OA  
ATOM     29  C13 UNL     1      -0.750  -1.254   9.034  1.00  0.00     0.337 C   
ENDBRANCH  20  21
ENDBRANCH  17  20
ENDBRANCH  12  17
ENDBRANCH   8  12
ENDBRANCH   1   7
BRANCH   4  30
ATOM     30  O3  UNL     1       3.703  -1.396  -5.804  1.00  0.00    -0.344 OA  
BRANCH  30  31
ATOM     31  C20 UNL     1       4.454  -2.613  -5.704  1.00  0.00     0.196 C   
BRANCH  31  32
ATOM     32  C21 UNL     1       4.860  -3.053  -7.107  1.00  0.00     0.185 C   
BRANCH  32  33
ATOM     33  O4  UNL     1       5.513  -4.317  -7.050  1.00  0.00    -0.394 OA  
ATOM     34  H27 UNL     1       5.750  -4.558  -7.964  1.00  0.00     0.210 HD  
ENDBRANCH  32  33
ENDBRANCH  31  32
ENDBRANCH  30  31
ENDBRANCH   4  30
TORSDOF 10
