REMARK SMILES Nc1ccc(-n2cc([C@@H]([NH2+]Cc3ccc4c(c3)OCO4)C3CCCC3)nn2)cc1
REMARK SMILES IDX 6 1 7 2 8 3 26 4 27 5 5 6 2 7 3 8 29 9 4 10 28 11 1 12 9 15
REMARK SMILES IDX 10 16 11 19 12 20 13 21 17 22 14 23 16 24 15 25 18 26 20 27
REMARK SMILES IDX 19 28 21 29 22 30 25 31 23 32 24 33
REMARK H PARENT 1 13 1 14 10 17 10 18
ROOT
ATOM     1   N2  UNL     1      -2.421   0.797   1.016  1.00  0.00    -0.181 N   
ATOM     2   C5  UNL     1      -1.340   0.359   1.759  1.00  0.00     0.135 A   
ATOM     3   C6  UNL     1      -0.332   0.158   0.842  1.00  0.00     0.127 A   
ATOM     4   N4  UNL     1      -0.800   0.450  -0.407  1.00  0.00    -0.131 NA  
ATOM     5   N5  UNL     1      -2.065   0.819  -0.295  1.00  0.00    -0.071 NA  
ENDROOT
BRANCH   1   6
ATOM     6   C4  UNL     1      -3.714   1.171   1.454  1.00  0.00     0.058 A   
ATOM     7   C1  UNL     1      -6.310   1.900   2.282  1.00  0.00     0.023 A   
ATOM     8   C2  UNL     1      -5.340   1.526   3.215  1.00  0.00     0.025 A   
ATOM     9   C22 UNL     1      -5.945   1.976   0.937  1.00  0.00     0.025 A   
ATOM     10  C3  UNL     1      -4.056   1.144   2.811  1.00  0.00     0.028 A   
ATOM     11  C21 UNL     1      -4.666   1.596   0.517  1.00  0.00     0.028 A   
BRANCH   7  12
ATOM     12  N1  UNL     1      -7.539   2.405   2.708  1.00  0.00    -0.358 N   
ATOM     13  H1  UNL     1      -7.856   2.056   3.607  1.00  0.00     0.143 HD  
ATOM     14  H2  UNL     1      -8.273   2.381   2.007  1.00  0.00     0.143 HD  
ENDBRANCH   7  12
ENDBRANCH   1   6
BRANCH   3  15
ATOM     15  C7  UNL     1       1.080  -0.309   1.009  1.00  0.00     0.117 C   
BRANCH  15  16
ATOM     16  N3  UNL     1       1.615  -0.840  -0.294  1.00  0.00     0.249 N   
ATOM     17  H7  UNL     1       1.283  -0.203  -1.034  1.00  0.00     0.199 HD  
ATOM     18  H8  UNL     1       2.638  -0.811  -0.335  1.00  0.00     0.199 HD  
BRANCH  16  19
ATOM     19  C8  UNL     1       1.153  -2.207  -0.663  1.00  0.00     0.164 C   
BRANCH  19  20
ATOM     20  C9  UNL     1       1.725  -2.610  -1.993  1.00  0.00    -0.002 A   
ATOM     21  C10 UNL     1       2.916  -3.371  -2.061  1.00  0.00     0.012 A   
ATOM     22  C14 UNL     1       1.105  -2.182  -3.181  1.00  0.00     0.045 A   
ATOM     23  C11 UNL     1       3.479  -3.713  -3.296  1.00  0.00     0.037 A   
ATOM     24  C13 UNL     1       1.688  -2.535  -4.380  1.00  0.00     0.109 A   
ATOM     25  C12 UNL     1       2.841  -3.279  -4.437  1.00  0.00     0.108 A   
ATOM     26  O1  UNL     1       1.223  -2.204  -5.613  1.00  0.00    -0.316 OA  
ATOM     27  O2  UNL     1       3.245  -3.513  -5.712  1.00  0.00    -0.316 OA  
ATOM     28  C15 UNL     1       2.205  -2.845  -6.458  1.00  0.00     0.337 C   
ENDBRANCH  19  20
ENDBRANCH  16  19
ENDBRANCH  15  16
BRANCH  15  29
ATOM     29  C16 UNL     1       1.992   0.813   1.544  1.00  0.00     0.043 C   
ATOM     30  C17 UNL     1       2.235   1.994   0.595  1.00  0.00     0.010 C   
ATOM     31  C20 UNL     1       3.401   0.345   1.958  1.00  0.00     0.010 C   
ATOM     32  C18 UNL     1       3.491   2.634   1.164  1.00  0.00     0.001 C   
ATOM     33  C19 UNL     1       4.367   1.437   1.498  1.00  0.00     0.001 C   
ENDBRANCH  15  29
ENDBRANCH   3  15
TORSDOF 7
