REMARK SMILES CC(C)(C)[C@H]([NH2+]Cc1ccc2c(c1)OCO2)c1cn([C@H](CO)c2ccco2)nn1
REMARK SMILES IDX 17 1 18 2 19 3 28 4 29 5 5 7 2 8 1 9 3 10 4 11 6 12 7 15
REMARK SMILES IDX 8 16 9 17 13 18 10 19 12 20 11 21 14 22 16 23 15 24 20 25
REMARK SMILES IDX 21 26 22 27 23 29 24 30 27 31 25 32 26 33
REMARK H PARENT 18 6 6 13 6 14 22 28
ROOT
ATOM     1   C14 UNL     1      -0.287  -0.490  -0.166  1.00  0.00     0.127 A   
ATOM     2   C15 UNL     1      -0.740  -1.591   0.525  1.00  0.00     0.046 A   
ATOM     3   N2  UNL     1      -0.949  -2.534  -0.448  1.00  0.00    -0.200 N   
ATOM     4   N3  UNL     1      -0.587  -2.054  -1.659  1.00  0.00    -0.075 NA  
ATOM     5   N4  UNL     1      -0.199  -0.800  -1.500  1.00  0.00    -0.132 NA  
ATOM     6   H20 UNL     1      -0.932  -1.790   1.570  1.00  0.00     0.083 HD  
ENDROOT
BRANCH   1   7
ATOM     7   C5  UNL     1       0.173   0.856   0.307  1.00  0.00     0.120 C   
BRANCH   7   8
ATOM     8   C2  UNL     1      -0.949   1.953   0.311  1.00  0.00     0.010 C   
ATOM     9   C1  UNL     1      -2.136   1.496   1.190  1.00  0.00     0.017 C   
ATOM     10  C3  UNL     1      -1.482   2.265  -1.101  1.00  0.00     0.017 C   
ATOM     11  C4  UNL     1      -0.414   3.268   0.928  1.00  0.00     0.017 C   
ENDBRANCH   7   8
BRANCH   7  12
ATOM     12  N1  UNL     1       1.336   1.294  -0.554  1.00  0.00     0.250 N   
ATOM     13  H11 UNL     1       1.059   1.116  -1.531  1.00  0.00     0.199 HD  
ATOM     14  H12 UNL     1       1.522   2.299  -0.486  1.00  0.00     0.199 HD  
BRANCH  12  15
ATOM     15  C6  UNL     1       2.611   0.556  -0.325  1.00  0.00     0.164 C   
BRANCH  15  16
ATOM     16  C7  UNL     1       3.677   1.049  -1.263  1.00  0.00    -0.002 A   
ATOM     17  C8  UNL     1       4.615   2.019  -0.840  1.00  0.00     0.012 A   
ATOM     18  C12 UNL     1       3.710   0.582  -2.590  1.00  0.00     0.045 A   
ATOM     19  C9  UNL     1       5.583   2.512  -1.722  1.00  0.00     0.037 A   
ATOM     20  C11 UNL     1       4.675   1.091  -3.433  1.00  0.00     0.109 A   
ATOM     21  C10 UNL     1       5.586   2.028  -3.011  1.00  0.00     0.108 A   
ATOM     22  O1  UNL     1       4.840   0.757  -4.740  1.00  0.00    -0.316 OA  
ATOM     23  O2  UNL     1       6.444   2.397  -3.997  1.00  0.00    -0.316 OA  
ATOM     24  C13 UNL     1       5.984   1.571  -5.088  1.00  0.00     0.337 C   
ENDBRANCH  15  16
ENDBRANCH  12  15
ENDBRANCH   7  12
ENDBRANCH   1   7
BRANCH   3  25
ATOM     25  C16 UNL     1      -1.442  -3.898  -0.275  1.00  0.00     0.179 C   
BRANCH  25  26
ATOM     26  C17 UNL     1      -0.467  -4.940  -0.839  1.00  0.00     0.188 C   
BRANCH  26  27
ATOM     27  O3  UNL     1       0.727  -4.982  -0.050  1.00  0.00    -0.394 OA  
ATOM     28  H24 UNL     1       1.258  -5.729  -0.381  1.00  0.00     0.210 HD  
ENDBRANCH  26  27
ENDBRANCH  25  26
BRANCH  25  29
ATOM     29  C18 UNL     1      -2.811  -4.017  -0.860  1.00  0.00     0.083 A   
ATOM     30  C19 UNL     1      -3.305  -4.139  -2.145  1.00  0.00     0.033 A   
ATOM     31  O4  UNL     1      -3.844  -4.013   0.035  1.00  0.00    -0.320 OA  
ATOM     32  C20 UNL     1      -4.713  -4.226  -2.024  1.00  0.00     0.028 A   
ATOM     33  C21 UNL     1      -4.990  -4.145  -0.679  1.00  0.00     0.136 A   
ENDBRANCH  25  29
ENDBRANCH   3  25
TORSDOF 9
