REMARK SMILES CC(C)(C)[C@H]([NH2+]Cc1ccc2c(c1)OCO2)c1cn([C@@H](CO)c2ccco2)nn1
REMARK SMILES IDX 17 1 18 2 19 3 28 4 29 5 5 7 2 8 1 9 3 10 4 11 6 12 7 15
REMARK SMILES IDX 8 16 9 17 13 18 10 19 12 20 11 21 14 22 16 23 15 24 20 25
REMARK SMILES IDX 21 26 22 27 23 29 24 30 27 31 25 32 26 33
REMARK H PARENT 18 6 6 13 6 14 22 28
ROOT
ATOM     1   C14 UNL     1      -0.730  -0.877  -0.946  1.00  0.00     0.127 A   
ATOM     2   C15 UNL     1      -0.083  -0.597   0.234  1.00  0.00     0.046 A   
ATOM     3   N2  UNL     1       0.806  -1.627   0.386  1.00  0.00    -0.200 N   
ATOM     4   N3  UNL     1       0.713  -2.487  -0.653  1.00  0.00    -0.075 NA  
ATOM     5   N4  UNL     1      -0.222  -2.038  -1.473  1.00  0.00    -0.132 NA  
ATOM     6   H20 UNL     1      -0.148   0.216   0.945  1.00  0.00     0.083 HD  
ENDROOT
BRANCH   1   7
ATOM     7   C5  UNL     1      -1.754  -0.105  -1.721  1.00  0.00     0.120 C   
BRANCH   7   8
ATOM     8   C2  UNL     1      -3.234  -0.551  -1.452  1.00  0.00     0.010 C   
ATOM     9   C1  UNL     1      -4.215   0.387  -2.194  1.00  0.00     0.017 C   
ATOM     10  C3  UNL     1      -3.557  -0.436   0.056  1.00  0.00     0.017 C   
ATOM     11  C4  UNL     1      -3.513  -2.001  -1.896  1.00  0.00     0.017 C   
ENDBRANCH   7   8
BRANCH   7  12
ATOM     12  N1  UNL     1      -1.420  -0.225  -3.199  1.00  0.00     0.250 N   
ATOM     13  H11 UNL     1      -2.259  -0.364  -3.765  1.00  0.00     0.199 HD  
ATOM     14  H12 UNL     1      -0.880  -1.101  -3.289  1.00  0.00     0.199 HD  
BRANCH  12  15
ATOM     15  C6  UNL     1      -0.613   0.882  -3.788  1.00  0.00     0.164 C   
BRANCH  15  16
ATOM     16  C7  UNL     1       0.750   1.036  -3.175  1.00  0.00    -0.002 A   
ATOM     17  C8  UNL     1       1.765   0.084  -3.435  1.00  0.00     0.012 A   
ATOM     18  C12 UNL     1       1.012   2.101  -2.297  1.00  0.00     0.045 A   
ATOM     19  C9  UNL     1       3.017   0.179  -2.817  1.00  0.00     0.037 A   
ATOM     20  C11 UNL     1       2.254   2.163  -1.700  1.00  0.00     0.109 A   
ATOM     21  C10 UNL     1       3.227   1.228  -1.950  1.00  0.00     0.108 A   
ATOM     22  O1  UNL     1       2.657   3.112  -0.817  1.00  0.00    -0.316 OA  
ATOM     23  O2  UNL     1       4.367   1.466  -1.251  1.00  0.00    -0.316 OA  
ATOM     24  C13 UNL     1       3.996   2.655  -0.519  1.00  0.00     0.337 C   
ENDBRANCH  15  16
ENDBRANCH  12  15
ENDBRANCH   7  12
ENDBRANCH   1   7
BRANCH   3  25
ATOM     25  C16 UNL     1       1.769  -1.871   1.455  1.00  0.00     0.179 C   
BRANCH  25  26
ATOM     26  C17 UNL     1       2.894  -0.822   1.483  1.00  0.00     0.188 C   
BRANCH  26  27
ATOM     27  O3  UNL     1       2.444   0.505   1.768  1.00  0.00    -0.394 OA  
ATOM     28  H24 UNL     1       2.064   0.486   2.670  1.00  0.00     0.210 HD  
ENDBRANCH  26  27
ENDBRANCH  25  26
BRANCH  25  29
ATOM     29  C18 UNL     1       1.064  -2.027   2.766  1.00  0.00     0.083 A   
ATOM     30  C19 UNL     1       0.607  -3.130   3.460  1.00  0.00     0.033 A   
ATOM     31  O4  UNL     1       0.785  -0.890   3.473  1.00  0.00    -0.320 OA  
ATOM     32  C20 UNL     1       0.023  -2.641   4.653  1.00  0.00     0.028 A   
ATOM     33  C21 UNL     1       0.157  -1.274   4.615  1.00  0.00     0.136 A   
ENDBRANCH  25  29
ENDBRANCH   3  25
TORSDOF 9
