REMARK SMILES Cc1cncc(CCn2cc([C@@H]([NH2+]Cc3ccc4c(c3)OCO4)C3CCCC3)nn2)n1
REMARK SMILES IDX 9 1 10 2 11 3 29 4 30 5 8 7 7 8 6 9 2 10 3 11 31 12 4 13
REMARK SMILES IDX 5 14 1 15 12 16 13 17 14 20 15 21 16 22 20 23 17 24 19 25
REMARK SMILES IDX 18 26 21 27 23 28 22 29 24 30 25 31 28 32 26 33 27 34
REMARK H PARENT 10 6 13 18 13 19
ROOT
ATOM     1   N2  UNL     1      -1.348   3.535  -1.782  1.00  0.00    -0.212 N   
ATOM     2   C8  UNL     1      -0.124   2.955  -1.590  1.00  0.00     0.045 A   
ATOM     3   C9  UNL     1      -0.324   1.639  -1.944  1.00  0.00     0.127 A   
ATOM     4   N4  UNL     1      -1.624   1.471  -2.344  1.00  0.00    -0.132 NA  
ATOM     5   N5  UNL     1      -2.239   2.638  -2.244  1.00  0.00    -0.076 NA  
ATOM     6   H10 UNL     1       0.719   3.503  -1.189  1.00  0.00     0.083 HD  
ENDROOT
BRANCH   1   7
ATOM     7   C7  UNL     1      -1.780   4.857  -1.375  1.00  0.00     0.140 C   
BRANCH   7   8
ATOM     8   C6  UNL     1      -2.776   4.816  -0.215  1.00  0.00     0.079 C   
BRANCH   8   9
ATOM     9   C5  UNL     1      -2.216   4.066   0.964  1.00  0.00     0.061 A   
ATOM     10  C2  UNL     1      -0.718   3.961   2.716  1.00  0.00     0.056 A   
ATOM     11  C3  UNL     1      -1.139   2.663   2.983  1.00  0.00     0.134 A   
ATOM     12  N6  UNL     1      -1.228   4.665   1.673  1.00  0.00    -0.255 NA  
ATOM     13  N1  UNL     1      -2.071   2.023   2.236  1.00  0.00    -0.261 NA  
ATOM     14  C4  UNL     1      -2.628   2.768   1.252  1.00  0.00     0.134 A   
ATOM     15  C1  UNL     1       0.319   4.621   3.569  1.00  0.00     0.068 C   
ENDBRANCH   8   9
ENDBRANCH   7   8
ENDBRANCH   1   7
BRANCH   3  16
ATOM     16  C10 UNL     1       0.578   0.451  -1.866  1.00  0.00     0.117 C   
BRANCH  16  17
ATOM     17  N3  UNL     1      -0.164  -0.691  -1.216  1.00  0.00     0.249 N   
ATOM     18  H12 UNL     1       0.256  -1.597  -1.435  1.00  0.00     0.199 HD  
ATOM     19  H13 UNL     1      -1.110  -0.707  -1.629  1.00  0.00     0.199 HD  
BRANCH  17  20
ATOM     20  C11 UNL     1      -0.327  -0.576   0.263  1.00  0.00     0.164 C   
BRANCH  20  21
ATOM     21  C12 UNL     1      -1.093  -1.747   0.811  1.00  0.00    -0.002 A   
ATOM     22  C13 UNL     1      -0.485  -3.024   0.904  1.00  0.00     0.012 A   
ATOM     23  C17 UNL     1      -2.429  -1.585   1.216  1.00  0.00     0.045 A   
ATOM     24  C14 UNL     1      -1.200  -4.125   1.389  1.00  0.00     0.037 A   
ATOM     25  C16 UNL     1      -3.104  -2.689   1.693  1.00  0.00     0.109 A   
ATOM     26  C15 UNL     1      -2.507  -3.924   1.777  1.00  0.00     0.108 A   
ATOM     27  O1  UNL     1      -4.393  -2.704   2.126  1.00  0.00    -0.316 OA  
ATOM     28  O2  UNL     1      -3.344  -4.871   2.275  1.00  0.00    -0.316 OA  
ATOM     29  C18 UNL     1      -4.536  -4.090   2.511  1.00  0.00     0.337 C   
ENDBRANCH  20  21
ENDBRANCH  17  20
ENDBRANCH  16  17
BRANCH  16  30
ATOM     30  C19 UNL     1       1.065  -0.001  -3.256  1.00  0.00     0.043 C   
ATOM     31  C20 UNL     1       1.865   1.081  -4.000  1.00  0.00     0.010 C   
ATOM     32  C23 UNL     1       2.048  -1.176  -3.232  1.00  0.00     0.010 C   
ATOM     33  C21 UNL     1       2.810   0.339  -4.946  1.00  0.00     0.001 C   
ATOM     34  C22 UNL     1       2.653  -1.143  -4.627  1.00  0.00     0.001 C   
ENDBRANCH  16  30
ENDBRANCH   3  16
TORSDOF 8
