REMARK SMILES Cc1cc(C)cc([C@@H](CO)n2cc([C@H](CC(C)C)[NH2+]Cc3ccc4c(c3)OCO4)nn2)c1
REMARK SMILES IDX 11 1 12 2 13 3 30 4 31 5 8 7 7 8 2 9 3 10 32 11 4 12 6 13
REMARK SMILES IDX 1 14 5 15 9 16 10 17 14 19 15 20 16 21 17 22 18 23 19 24
REMARK SMILES IDX 20 27 21 28 22 29 26 30 23 31 25 32 24 33 27 34 29 35 28 36
REMARK H PARENT 12 6 10 18 19 25 19 26
ROOT
ATOM     1   N1  UNL     1      -2.324   0.765  -0.746  1.00  0.00    -0.202 N   
ATOM     2   C10 UNL     1      -1.015   1.100  -0.966  1.00  0.00     0.046 A   
ATOM     3   C11 UNL     1      -0.587   0.189  -1.903  1.00  0.00     0.127 A   
ATOM     4   N3  UNL     1      -1.630  -0.629  -2.249  1.00  0.00    -0.132 NA  
ATOM     5   N4  UNL     1      -2.685  -0.274  -1.532  1.00  0.00    -0.075 NA  
ATOM     6   H13 UNL     1      -0.522   1.889  -0.413  1.00  0.00     0.083 HD  
ENDROOT
BRANCH   1   7
ATOM     7   C8  UNL     1      -3.226   1.255   0.296  1.00  0.00     0.155 C   
BRANCH   7   8
ATOM     8   C7  UNL     1      -2.651   0.905   1.667  1.00  0.00    -0.023 A   
ATOM     9   C2  UNL     1      -2.255  -0.807   3.373  1.00  0.00    -0.051 A   
ATOM     10  C3  UNL     1      -1.550   0.129   4.136  1.00  0.00     0.006 A   
ATOM     11  C25 UNL     1      -2.810  -0.409   2.151  1.00  0.00     0.009 A   
ATOM     12  C4  UNL     1      -1.375   1.440   3.679  1.00  0.00    -0.051 A   
ATOM     13  C6  UNL     1      -1.920   1.816   2.444  1.00  0.00     0.009 A   
ATOM     14  C1  UNL     1      -2.471  -2.199   3.891  1.00  0.00     0.044 C   
ATOM     15  C5  UNL     1      -0.603   2.422   4.513  1.00  0.00     0.044 C   
ENDBRANCH   7   8
BRANCH   7  16
ATOM     16  C9  UNL     1      -3.657   2.716   0.052  1.00  0.00     0.185 C   
BRANCH  16  17
ATOM     17  O1  UNL     1      -2.562   3.627  -0.045  1.00  0.00    -0.394 OA  
ATOM     18  H12 UNL     1      -2.944   4.517  -0.168  1.00  0.00     0.210 HD  
ENDBRANCH  16  17
ENDBRANCH   7  16
ENDBRANCH   1   7
BRANCH   3  19
ATOM     19  C12 UNL     1       0.778  -0.062  -2.449  1.00  0.00     0.114 C   
BRANCH  19  20
ATOM     20  C13 UNL     1       0.887   0.443  -3.902  1.00  0.00     0.064 C   
BRANCH  20  21
ATOM     21  C14 UNL     1       2.262   0.284  -4.585  1.00  0.00    -0.012 C   
ATOM     22  C15 UNL     1       3.385   0.976  -3.812  1.00  0.00     0.007 C   
ATOM     23  C16 UNL     1       2.193   0.843  -6.010  1.00  0.00     0.007 C   
ENDBRANCH  20  21
ENDBRANCH  19  20
BRANCH  19  24
ATOM     24  N2  UNL     1       1.109  -1.536  -2.412  1.00  0.00     0.249 N   
ATOM     25  H24 UNL     1       2.034  -1.697  -2.817  1.00  0.00     0.199 HD  
ATOM     26  H25 UNL     1       0.419  -2.007  -3.011  1.00  0.00     0.199 HD  
BRANCH  24  27
ATOM     27  C17 UNL     1       1.052  -2.200  -1.071  1.00  0.00     0.164 C   
BRANCH  27  28
ATOM     28  C18 UNL     1       1.955  -1.573  -0.046  1.00  0.00    -0.002 A   
ATOM     29  C19 UNL     1       1.401  -0.887   1.064  1.00  0.00     0.012 A   
ATOM     30  C23 UNL     1       3.352  -1.637  -0.190  1.00  0.00     0.045 A   
ATOM     31  C20 UNL     1       2.222  -0.261   2.008  1.00  0.00     0.037 A   
ATOM     32  C22 UNL     1       4.132  -1.010   0.760  1.00  0.00     0.109 A   
ATOM     33  C21 UNL     1       3.584  -0.339   1.827  1.00  0.00     0.108 A   
ATOM     34  O2  UNL     1       5.490  -0.969   0.763  1.00  0.00    -0.316 OA  
ATOM     35  O3  UNL     1       4.529   0.208   2.636  1.00  0.00    -0.316 OA  
ATOM     36  C24 UNL     1       5.739  -0.213   1.971  1.00  0.00     0.337 C   
ENDBRANCH  27  28
ENDBRANCH  24  27
ENDBRANCH  19  24
ENDBRANCH   3  19
TORSDOF 10
