REMARK SMILES Cc1cc(C)cc([C@H](CO)n2cc([C@H](CC(C)C)[NH2+]Cc3ccc4c(c3)OCO4)nn2)c1
REMARK SMILES IDX 11 1 12 2 13 3 30 4 31 5 8 7 7 8 2 9 3 10 32 11 4 12 6 13
REMARK SMILES IDX 1 14 5 15 9 16 10 17 14 19 15 20 16 21 17 22 18 23 19 24
REMARK SMILES IDX 20 27 21 28 22 29 26 30 23 31 25 32 24 33 27 34 29 35 28 36
REMARK H PARENT 12 6 10 18 19 25 19 26
ROOT
ATOM     1   N1  UNL     1      -0.267  -2.506  -1.376  1.00  0.00    -0.202 N   
ATOM     2   C10 UNL     1      -0.095  -1.188  -1.047  1.00  0.00     0.046 A   
ATOM     3   C11 UNL     1      -0.982  -0.976  -0.017  1.00  0.00     0.127 A   
ATOM     4   N3  UNL     1      -1.692  -2.129   0.206  1.00  0.00    -0.132 NA  
ATOM     5   N4  UNL     1      -1.245  -3.057  -0.624  1.00  0.00    -0.075 NA  
ATOM     6   H13 UNL     1       0.630  -0.561  -1.549  1.00  0.00     0.083 HD  
ENDROOT
BRANCH   1   7
ATOM     7   C8  UNL     1       0.465  -3.318  -2.348  1.00  0.00     0.155 C   
BRANCH   7   8
ATOM     8   C7  UNL     1       1.969  -3.137  -2.170  1.00  0.00    -0.023 A   
ATOM     9   C2  UNL     1       4.132  -2.200  -2.814  1.00  0.00    -0.051 A   
ATOM     10  C3  UNL     1       4.730  -2.832  -1.718  1.00  0.00     0.006 A   
ATOM     11  C25 UNL     1       2.752  -2.344  -3.021  1.00  0.00     0.009 A   
ATOM     12  C4  UNL     1       3.970  -3.612  -0.840  1.00  0.00    -0.051 A   
ATOM     13  C6  UNL     1       2.601  -3.771  -1.081  1.00  0.00     0.009 A   
ATOM     14  C1  UNL     1       4.950  -1.333  -3.725  1.00  0.00     0.044 C   
ATOM     15  C5  UNL     1       4.631  -4.323   0.304  1.00  0.00     0.044 C   
ENDBRANCH   7   8
BRANCH   7  16
ATOM     16  C9  UNL     1      -0.113  -3.137  -3.766  1.00  0.00     0.185 C   
BRANCH  16  17
ATOM     17  O1  UNL     1      -0.123  -1.776  -4.201  1.00  0.00    -0.394 OA  
ATOM     18  H12 UNL     1      -0.494  -1.772  -5.105  1.00  0.00     0.210 HD  
ENDBRANCH  16  17
ENDBRANCH   7  16
ENDBRANCH   1   7
BRANCH   3  19
ATOM     19  C12 UNL     1      -1.268   0.242   0.799  1.00  0.00     0.114 C   
BRANCH  19  20
ATOM     20  C13 UNL     1      -0.054   0.759   1.596  1.00  0.00     0.064 C   
BRANCH  20  21
ATOM     21  C14 UNL     1       0.391  -0.017   2.858  1.00  0.00    -0.012 C   
ATOM     22  C15 UNL     1       0.880  -1.436   2.564  1.00  0.00     0.007 C   
ATOM     23  C16 UNL     1       1.508   0.766   3.559  1.00  0.00     0.007 C   
ENDBRANCH  20  21
ENDBRANCH  19  20
BRANCH  19  24
ATOM     24  N2  UNL     1      -2.447  -0.022   1.697  1.00  0.00     0.249 N   
ATOM     25  H24 UNL     1      -2.188  -0.771   2.350  1.00  0.00     0.199 HD  
ATOM     26  H25 UNL     1      -3.155  -0.468   1.097  1.00  0.00     0.199 HD  
BRANCH  24  27
ATOM     27  C17 UNL     1      -3.074   1.117   2.414  1.00  0.00     0.164 C   
BRANCH  27  28
ATOM     28  C18 UNL     1      -3.601   2.185   1.497  1.00  0.00    -0.002 A   
ATOM     29  C19 UNL     1      -4.734   1.942   0.683  1.00  0.00     0.012 A   
ATOM     30  C23 UNL     1      -2.951   3.429   1.421  1.00  0.00     0.045 A   
ATOM     31  C20 UNL     1      -5.208   2.919  -0.201  1.00  0.00     0.037 A   
ATOM     32  C22 UNL     1      -3.441   4.369   0.536  1.00  0.00     0.109 A   
ATOM     33  C21 UNL     1      -4.537   4.121  -0.252  1.00  0.00     0.108 A   
ATOM     34  O2  UNL     1      -2.928   5.611   0.337  1.00  0.00    -0.316 OA  
ATOM     35  O3  UNL     1      -4.856   5.177  -1.044  1.00  0.00    -0.316 OA  
ATOM     36  C24 UNL     1      -3.847   6.133  -0.650  1.00  0.00     0.337 C   
ENDBRANCH  27  28
ENDBRANCH  24  27
ENDBRANCH  19  24
ENDBRANCH   3  19
TORSDOF 10
