REMARK SMILES COc1cccc(C)c1CCn1cc([C@@H]([NH2+]Cc2ccc3c(c2)OCO3)C2CCCC2)nn1
REMARK SMILES IDX 12 1 13 2 14 3 32 4 33 5 11 7 10 8 9 9 3 10 4 11 5 12 7 13
REMARK SMILES IDX 6 14 8 15 2 16 1 17 15 18 16 19 17 22 18 23 19 24 23 25
REMARK SMILES IDX 20 26 22 27 21 28 24 29 26 30 25 31 27 32 28 33 31 34 29 35
REMARK SMILES IDX 30 36
REMARK H PARENT 13 6 16 20 16 21
ROOT
ATOM     1   N1  UNL     1       0.608   2.750  -1.292  1.00  0.00    -0.212 N   
ATOM     2   C11 UNL     1       0.738   1.746  -0.374  1.00  0.00     0.045 A   
ATOM     3   C12 UNL     1      -0.541   1.259  -0.236  1.00  0.00     0.127 A   
ATOM     4   N3  UNL     1      -1.396   2.008  -1.005  1.00  0.00    -0.132 NA  
ATOM     5   N4  UNL     1      -0.682   2.931  -1.631  1.00  0.00    -0.076 NA  
ATOM     6   H14 UNL     1       1.698   1.452   0.029  1.00  0.00     0.083 HD  
ENDROOT
BRANCH   1   7
ATOM     7   C10 UNL     1       1.655   3.551  -1.889  1.00  0.00     0.139 C   
BRANCH   7   8
ATOM     8   C9  UNL     1       2.135   2.999  -3.235  1.00  0.00     0.060 C   
BRANCH   8   9
ATOM     9   C8  UNL     1       2.702   1.589  -3.162  1.00  0.00    -0.013 A   
ATOM     10  C2  UNL     1       3.942   1.373  -2.519  1.00  0.00     0.078 A   
ATOM     11  C3  UNL     1       4.469   0.084  -2.416  1.00  0.00     0.034 A   
ATOM     12  C4  UNL     1       3.790  -0.997  -2.972  1.00  0.00     0.003 A   
ATOM     13  C6  UNL     1       2.018   0.486  -3.729  1.00  0.00    -0.045 A   
ATOM     14  C5  UNL     1       2.579  -0.796  -3.628  1.00  0.00     0.004 A   
ATOM     15  C7  UNL     1       0.715   0.636  -4.469  1.00  0.00     0.045 C   
BRANCH  10  16
ATOM     16  O1  UNL     1       4.552   2.479  -1.981  1.00  0.00    -0.349 OA  
ATOM     17  C1  UNL     1       5.974   2.429  -1.907  1.00  0.00     0.203 C   
ENDBRANCH  10  16
ENDBRANCH   8   9
ENDBRANCH   7   8
ENDBRANCH   1   7
BRANCH   3  18
ATOM     18  C13 UNL     1      -1.075   0.118   0.566  1.00  0.00     0.117 C   
BRANCH  18  19
ATOM     19  N2  UNL     1      -2.535   0.342   0.876  1.00  0.00     0.249 N   
ATOM     20  H16 UNL     1      -2.963   0.665  -0.004  1.00  0.00     0.199 HD  
ATOM     21  H17 UNL     1      -3.001  -0.531   1.134  1.00  0.00     0.199 HD  
BRANCH  19  22
ATOM     22  C14 UNL     1      -2.835   1.380   1.905  1.00  0.00     0.164 C   
BRANCH  22  23
ATOM     23  C15 UNL     1      -2.421   0.965   3.290  1.00  0.00    -0.002 A   
ATOM     24  C16 UNL     1      -1.307   1.578   3.914  1.00  0.00     0.012 A   
ATOM     25  C20 UNL     1      -3.121  -0.050   3.965  1.00  0.00     0.045 A   
ATOM     26  C17 UNL     1      -0.889   1.182   5.189  1.00  0.00     0.037 A   
ATOM     27  C19 UNL     1      -2.684  -0.414   5.222  1.00  0.00     0.109 A   
ATOM     28  C18 UNL     1      -1.599   0.182   5.817  1.00  0.00     0.108 A   
ATOM     29  O2  UNL     1      -3.243  -1.374   6.006  1.00  0.00    -0.316 OA  
ATOM     30  O3  UNL     1      -1.338  -0.327   7.049  1.00  0.00    -0.316 OA  
ATOM     31  C21 UNL     1      -2.420  -1.273   7.191  1.00  0.00     0.337 C   
ENDBRANCH  22  23
ENDBRANCH  19  22
ENDBRANCH  18  19
BRANCH  18  32
ATOM     32  C22 UNL     1      -0.872  -1.222  -0.173  1.00  0.00     0.043 C   
ATOM     33  C23 UNL     1      -1.159  -2.469   0.669  1.00  0.00     0.010 C   
ATOM     34  C26 UNL     1      -1.736  -1.453  -1.414  1.00  0.00     0.010 C   
ATOM     35  C24 UNL     1      -1.334  -3.600  -0.346  1.00  0.00     0.001 C   
ATOM     36  C25 UNL     1      -1.534  -2.934  -1.708  1.00  0.00     0.001 C   
ENDBRANCH  18  32
ENDBRANCH   3  18
TORSDOF 9
