REMARK SMILES Cc1ccc(F)cc1[C@@H](CO)n1cc([C@@H]([NH2+]Cc2ccc3c(c2)OCO3)C2CCCC2)nn1
REMARK SMILES IDX 12 1 13 2 14 3 32 4 33 5 9 7 8 8 2 9 3 10 4 11 7 12 5 13
REMARK SMILES IDX 1 14 6 15 10 16 11 17 15 19 16 20 17 23 18 24 19 25 23 26
REMARK SMILES IDX 20 27 22 28 21 29 24 30 26 31 25 32 27 33 28 34 31 35 29 36
REMARK SMILES IDX 30 37
REMARK H PARENT 13 6 11 18 16 21 16 22
ROOT
ATOM     1   N1  UNL     1       1.182  -2.594  -1.698  1.00  0.00    -0.202 N   
ATOM     2   C10 UNL     1       1.446  -1.902  -0.545  1.00  0.00     0.046 A   
ATOM     3   C11 UNL     1       0.242  -1.879   0.120  1.00  0.00     0.127 A   
ATOM     4   N3  UNL     1      -0.696  -2.546  -0.622  1.00  0.00    -0.132 NA  
ATOM     5   N4  UNL     1      -0.115  -2.974  -1.730  1.00  0.00    -0.075 NA  
ATOM     6   H11 UNL     1       2.423  -1.495  -0.324  1.00  0.00     0.083 HD  
ENDROOT
BRANCH   1   7
ATOM     7   C8  UNL     1       2.061  -2.881  -2.832  1.00  0.00     0.155 C   
BRANCH   7   8
ATOM     8   C7  UNL     1       2.332  -1.604  -3.632  1.00  0.00    -0.017 A   
ATOM     9   C2  UNL     1       1.579  -1.275  -4.790  1.00  0.00    -0.046 A   
ATOM     10  C3  UNL     1       1.847  -0.077  -5.483  1.00  0.00     0.007 A   
ATOM     11  C4  UNL     1       2.835   0.800  -5.042  1.00  0.00     0.039 A   
ATOM     12  C6  UNL     1       3.325  -0.698  -3.211  1.00  0.00     0.045 A   
ATOM     13  C5  UNL     1       3.561   0.483  -3.908  1.00  0.00     0.123 A   
ATOM     14  C1  UNL     1       0.489  -2.167  -5.329  1.00  0.00     0.045 C   
ATOM     15  F1  UNL     1       4.503   1.327  -3.467  1.00  0.00    -0.207 F   
ENDBRANCH   7   8
BRANCH   7  16
ATOM     16  C9  UNL     1       3.300  -3.717  -2.440  1.00  0.00     0.185 C   
BRANCH  16  17
ATOM     17  O1  UNL     1       4.121  -3.108  -1.444  1.00  0.00    -0.394 OA  
ATOM     18  H10 UNL     1       4.905  -3.679  -1.333  1.00  0.00     0.210 HD  
ENDBRANCH  16  17
ENDBRANCH   7  16
ENDBRANCH   1   7
BRANCH   3  19
ATOM     19  C12 UNL     1      -0.159  -1.225   1.401  1.00  0.00     0.117 C   
BRANCH  19  20
ATOM     20  N2  UNL     1      -1.560  -0.679   1.272  1.00  0.00     0.249 N   
ATOM     21  H13 UNL     1      -2.108  -1.417   0.806  1.00  0.00     0.199 HD  
ATOM     22  H14 UNL     1      -1.985  -0.523   2.190  1.00  0.00     0.199 HD  
BRANCH  20  23
ATOM     23  C13 UNL     1      -1.704   0.554   0.444  1.00  0.00     0.164 C   
BRANCH  23  24
ATOM     24  C14 UNL     1      -1.136   1.774   1.117  1.00  0.00    -0.002 A   
ATOM     25  C15 UNL     1       0.080   2.338   0.662  1.00  0.00     0.012 A   
ATOM     26  C19 UNL     1      -1.795   2.347   2.219  1.00  0.00     0.045 A   
ATOM     27  C16 UNL     1       0.637   3.454   1.297  1.00  0.00     0.037 A   
ATOM     28  C18 UNL     1      -1.221   3.449   2.818  1.00  0.00     0.109 A   
ATOM     29  C17 UNL     1      -0.039   3.986   2.372  1.00  0.00     0.108 A   
ATOM     30  O2  UNL     1      -1.728   4.124   3.882  1.00  0.00    -0.316 OA  
ATOM     31  O3  UNL     1       0.348   5.065   3.099  1.00  0.00    -0.316 OA  
ATOM     32  C20 UNL     1      -0.749   5.177   4.031  1.00  0.00     0.337 C   
ENDBRANCH  23  24
ENDBRANCH  20  23
ENDBRANCH  19  20
BRANCH  19  33
ATOM     33  C21 UNL     1      -0.052  -2.194   2.596  1.00  0.00     0.043 C   
ATOM     34  C22 UNL     1      -1.057  -3.356   2.637  1.00  0.00     0.010 C   
ATOM     35  C25 UNL     1      -0.213  -1.531   3.967  1.00  0.00     0.010 C   
ATOM     36  C23 UNL     1      -1.246  -3.696   4.118  1.00  0.00     0.001 C   
ATOM     37  C24 UNL     1      -0.367  -2.724   4.896  1.00  0.00     0.001 C   
ENDBRANCH  19  33
ENDBRANCH   3  19
TORSDOF 9
