REMARK SMILES Cc1ccc(F)cc1[C@H](CO)n1cc([C@@H]([NH2+]Cc2ccc3c(c2)OCO3)C2CCCC2)nn1
REMARK SMILES IDX 12 1 13 2 14 3 32 4 33 5 9 7 8 8 2 9 3 10 4 11 7 12 5 13
REMARK SMILES IDX 1 14 6 15 10 16 11 17 15 19 16 20 17 23 18 24 19 25 23 26
REMARK SMILES IDX 20 27 22 28 21 29 24 30 26 31 25 32 27 33 28 34 31 35 29 36
REMARK SMILES IDX 30 37
REMARK H PARENT 13 6 11 18 16 21 16 22
ROOT
ATOM     1   N1  UNL     1      -0.534  -2.126  -0.766  1.00  0.00    -0.202 N   
ATOM     2   C10 UNL     1       0.822  -1.955  -0.874  1.00  0.00     0.046 A   
ATOM     3   C11 UNL     1       1.097  -0.900  -0.036  1.00  0.00     0.127 A   
ATOM     4   N3  UNL     1      -0.068  -0.468   0.543  1.00  0.00    -0.132 NA  
ATOM     5   N4  UNL     1      -1.055  -1.220   0.091  1.00  0.00    -0.075 NA  
ATOM     6   H11 UNL     1       1.432  -2.586  -1.504  1.00  0.00     0.083 HD  
ENDROOT
BRANCH   1   7
ATOM     7   C8  UNL     1      -1.375  -3.121  -1.438  1.00  0.00     0.155 C   
BRANCH   7   8
ATOM     8   C7  UNL     1      -2.329  -2.437  -2.417  1.00  0.00    -0.017 A   
ATOM     9   C2  UNL     1      -2.075  -2.393  -3.811  1.00  0.00    -0.046 A   
ATOM     10  C3  UNL     1      -2.987  -1.742  -4.665  1.00  0.00     0.007 A   
ATOM     11  C4  UNL     1      -4.131  -1.130  -4.159  1.00  0.00     0.039 A   
ATOM     12  C6  UNL     1      -3.493  -1.805  -1.930  1.00  0.00     0.045 A   
ATOM     13  C5  UNL     1      -4.375  -1.168  -2.796  1.00  0.00     0.123 A   
ATOM     14  C1  UNL     1      -0.867  -3.045  -4.434  1.00  0.00     0.045 C   
ATOM     15  F1  UNL     1      -5.471  -0.582  -2.304  1.00  0.00    -0.207 F   
ENDBRANCH   7   8
BRANCH   7  16
ATOM     16  C9  UNL     1      -2.069  -4.044  -0.418  1.00  0.00     0.185 C   
BRANCH  16  17
ATOM     17  O1  UNL     1      -1.116  -4.950   0.150  1.00  0.00    -0.394 OA  
ATOM     18  H10 UNL     1      -1.583  -5.462   0.835  1.00  0.00     0.210 HD  
ENDBRANCH  16  17
ENDBRANCH   7  16
ENDBRANCH   1   7
BRANCH   3  19
ATOM     19  C12 UNL     1       2.376  -0.194   0.284  1.00  0.00     0.117 C   
BRANCH  19  20
ATOM     20  N2  UNL     1       2.084   1.211   0.741  1.00  0.00     0.249 N   
ATOM     21  H13 UNL     1       1.250   1.149   1.346  1.00  0.00     0.199 HD  
ATOM     22  H14 UNL     1       2.828   1.604   1.324  1.00  0.00     0.199 HD  
BRANCH  20  23
ATOM     23  C13 UNL     1       1.750   2.171  -0.349  1.00  0.00     0.164 C   
BRANCH  23  24
ATOM     24  C14 UNL     1       1.241   3.463   0.222  1.00  0.00    -0.002 A   
ATOM     25  C15 UNL     1       2.094   4.583   0.353  1.00  0.00     0.012 A   
ATOM     26  C19 UNL     1      -0.093   3.552   0.661  1.00  0.00     0.045 A   
ATOM     27  C16 UNL     1       1.624   5.782   0.904  1.00  0.00     0.037 A   
ATOM     28  C18 UNL     1      -0.521   4.745   1.205  1.00  0.00     0.109 A   
ATOM     29  C17 UNL     1       0.312   5.831   1.323  1.00  0.00     0.108 A   
ATOM     30  O2  UNL     1      -1.770   4.996   1.678  1.00  0.00    -0.316 OA  
ATOM     31  O3  UNL     1      -0.312   6.905   1.874  1.00  0.00    -0.316 OA  
ATOM     32  C20 UNL     1      -1.637   6.375   2.093  1.00  0.00     0.337 C   
ENDBRANCH  23  24
ENDBRANCH  20  23
ENDBRANCH  19  20
BRANCH  19  33
ATOM     33  C21 UNL     1       3.197  -0.953   1.344  1.00  0.00     0.043 C   
ATOM     34  C22 UNL     1       4.627  -0.436   1.531  1.00  0.00     0.010 C   
ATOM     35  C25 UNL     1       2.617  -0.987   2.769  1.00  0.00     0.010 C   
ATOM     36  C23 UNL     1       5.053  -1.103   2.829  1.00  0.00     0.001 C   
ATOM     37  C24 UNL     1       3.822  -0.978   3.716  1.00  0.00     0.001 C   
ENDBRANCH  19  33
ENDBRANCH   3  19
TORSDOF 9
