REMARK SMILES Oc1c(F)cccc1Cn1cc([C@@H]([NH2+]Cc2ccc3c(c2)OCO3)C2CCCC2)nn1
REMARK SMILES IDX 10 1 11 2 12 3 30 4 31 5 9 7 8 8 2 9 3 10 5 11 7 12 6 13
REMARK SMILES IDX 4 14 1 15 13 17 14 18 15 21 16 22 17 23 21 24 18 25 20 26
REMARK SMILES IDX 19 27 22 28 24 29 23 30 25 31 26 32 29 33 27 34 28 35
REMARK H PARENT 11 6 1 16 14 19 14 20
ROOT
ATOM     1   N1  UNL     1       0.322  -2.612   1.768  1.00  0.00    -0.208 N   
ATOM     2   C8  UNL     1       0.703  -1.408   1.247  1.00  0.00     0.046 A   
ATOM     3   C9  UNL     1      -0.362  -0.578   1.510  1.00  0.00     0.127 A   
ATOM     4   N3  UNL     1      -1.319  -1.276   2.200  1.00  0.00    -0.132 NA  
ATOM     5   N4  UNL     1      -0.893  -2.520   2.347  1.00  0.00    -0.076 NA  
ATOM     6   H7  UNL     1       1.640  -1.277   0.723  1.00  0.00     0.083 HD  
ENDROOT
BRANCH   1   7
ATOM     7   C7  UNL     1       1.030  -3.879   1.716  1.00  0.00     0.172 C   
BRANCH   7   8
ATOM     8   C6  UNL     1       0.679  -4.635   0.460  1.00  0.00     0.005 A   
ATOM     9   C1  UNL     1       1.346  -4.398  -0.745  1.00  0.00     0.112 A   
ATOM     10  C2  UNL     1       0.998  -5.097  -1.901  1.00  0.00     0.153 A   
ATOM     11  C3  UNL     1      -0.020  -6.039  -1.885  1.00  0.00     0.042 A   
ATOM     12  C5  UNL     1      -0.358  -5.584   0.469  1.00  0.00     0.008 A   
ATOM     13  C4  UNL     1      -0.702  -6.283  -0.694  1.00  0.00     0.004 A   
ATOM     14  F1  UNL     1       1.654  -4.838  -3.041  1.00  0.00    -0.204 F   
BRANCH   9  15
ATOM     15  O1  UNL     1       2.346  -3.465  -0.794  1.00  0.00    -0.358 OA  
ATOM     16  H1  UNL     1       2.770  -3.556  -1.672  1.00  0.00     0.218 HD  
ENDBRANCH   9  15
ENDBRANCH   7   8
ENDBRANCH   1   7
BRANCH   3  17
ATOM     17  C10 UNL     1      -0.623   0.831   1.098  1.00  0.00     0.117 C   
BRANCH  17  18
ATOM     18  N2  UNL     1      -2.054   0.982   0.620  1.00  0.00     0.249 N   
ATOM     19  H9  UNL     1      -2.654   0.708   1.411  1.00  0.00     0.199 HD  
ATOM     20  H10 UNL     1      -2.254   1.962   0.407  1.00  0.00     0.199 HD  
BRANCH  18  21
ATOM     21  C11 UNL     1      -2.462   0.142  -0.548  1.00  0.00     0.164 C   
BRANCH  21  22
ATOM     22  C12 UNL     1      -1.631   0.380  -1.778  1.00  0.00    -0.002 A   
ATOM     23  C13 UNL     1      -0.745  -0.624  -2.240  1.00  0.00     0.012 A   
ATOM     24  C17 UNL     1      -1.704   1.606  -2.461  1.00  0.00     0.045 A   
ATOM     25  C14 UNL     1       0.064  -0.409  -3.360  1.00  0.00     0.037 A   
ATOM     26  C16 UNL     1      -0.891   1.785  -3.561  1.00  0.00     0.109 A   
ATOM     27  C15 UNL     1      -0.030   0.808  -3.997  1.00  0.00     0.108 A   
ATOM     28  O2  UNL     1      -0.831   2.908  -4.322  1.00  0.00    -0.316 OA  
ATOM     29  O3  UNL     1       0.678   1.192  -5.090  1.00  0.00    -0.316 OA  
ATOM     30  C18 UNL     1       0.149   2.516  -5.312  1.00  0.00     0.337 C   
ENDBRANCH  21  22
ENDBRANCH  18  21
ENDBRANCH  17  18
BRANCH  17  31
ATOM     31  C19 UNL     1      -0.396   1.826   2.254  1.00  0.00     0.043 C   
ATOM     32  C20 UNL     1       1.042   1.836   2.780  1.00  0.00     0.010 C   
ATOM     33  C23 UNL     1      -0.616   3.296   1.869  1.00  0.00     0.010 C   
ATOM     34  C21 UNL     1       1.099   3.115   3.600  1.00  0.00     0.001 C   
ATOM     35  C22 UNL     1       0.259   4.117   2.818  1.00  0.00     0.001 C   
ENDBRANCH  17  31
ENDBRANCH   3  17
TORSDOF 8
