REMARK SMILES CC(C)C[C@H]([NH2+]Cc1ccc2c(c1)OCO2)c1cn([C@H](CO)c2cccnc2F)nn1
REMARK SMILES IDX 17 1 18 2 19 3 30 4 31 5 5 7 4 8 2 9 1 10 3 11 6 12 7 15
REMARK SMILES IDX 8 16 9 17 13 18 10 19 12 20 11 21 14 22 16 23 15 24 20 25
REMARK SMILES IDX 21 26 22 27 23 29 24 30 28 31 25 32 27 33 26 34 29 35
REMARK H PARENT 18 6 6 13 6 14 22 28
ROOT
ATOM     1   C14 UNL     1       0.009  -0.137  -0.095  1.00  0.00     0.127 A   
ATOM     2   C15 UNL     1      -0.134  -0.176   1.273  1.00  0.00     0.046 A   
ATOM     3   N2  UNL     1       0.938   0.536   1.740  1.00  0.00    -0.202 N   
ATOM     4   N4  UNL     1       1.658   1.040   0.716  1.00  0.00    -0.075 NA  
ATOM     5   N5  UNL     1       1.098   0.633  -0.412  1.00  0.00    -0.132 NA  
ATOM     6   H20 UNL     1      -0.847  -0.648   1.936  1.00  0.00     0.083 HD  
ENDROOT
BRANCH   1   7
ATOM     7   C5  UNL     1      -0.838  -0.694  -1.187  1.00  0.00     0.114 C   
BRANCH   7   8
ATOM     8   C4  UNL     1      -0.192  -1.881  -1.928  1.00  0.00     0.064 C   
BRANCH   8   9
ATOM     9   C2  UNL     1      -0.037  -3.216  -1.165  1.00  0.00    -0.012 C   
ATOM     10  C1  UNL     1       1.154  -3.238  -0.207  1.00  0.00     0.007 C   
ATOM     11  C3  UNL     1      -1.315  -3.652  -0.453  1.00  0.00     0.007 C   
ENDBRANCH   8   9
ENDBRANCH   7   8
BRANCH   7  12
ATOM     12  N1  UNL     1      -1.069   0.386  -2.224  1.00  0.00     0.249 N   
ATOM     13  H11 UNL     1      -1.428  -0.011  -3.099  1.00  0.00     0.199 HD  
ATOM     14  H12 UNL     1      -0.145   0.788  -2.445  1.00  0.00     0.199 HD  
BRANCH  12  15
ATOM     15  C6  UNL     1      -1.957   1.503  -1.797  1.00  0.00     0.164 C   
BRANCH  15  16
ATOM     16  C7  UNL     1      -2.095   2.513  -2.901  1.00  0.00    -0.002 A   
ATOM     17  C8  UNL     1      -1.147   3.557  -3.031  1.00  0.00     0.012 A   
ATOM     18  C12 UNL     1      -3.131   2.396  -3.843  1.00  0.00     0.045 A   
ATOM     19  C9  UNL     1      -1.236   4.481  -4.077  1.00  0.00     0.037 A   
ATOM     20  C11 UNL     1      -3.189   3.324  -4.862  1.00  0.00     0.109 A   
ATOM     21  C10 UNL     1      -2.270   4.337  -4.976  1.00  0.00     0.108 A   
ATOM     22  O1  UNL     1      -4.122   3.354  -5.850  1.00  0.00    -0.316 OA  
ATOM     23  O2  UNL     1      -2.509   5.135  -6.049  1.00  0.00    -0.316 OA  
ATOM     24  C13 UNL     1      -3.700   4.522  -6.590  1.00  0.00     0.337 C   
ENDBRANCH  15  16
ENDBRANCH  12  15
ENDBRANCH   7  12
ENDBRANCH   1   7
BRANCH   3  25
ATOM     25  C16 UNL     1       1.343   0.737   3.133  1.00  0.00     0.160 C   
BRANCH  25  26
ATOM     26  C17 UNL     1       1.407   2.235   3.480  1.00  0.00     0.186 C   
BRANCH  26  27
ATOM     27  O3  UNL     1       0.091   2.794   3.480  1.00  0.00    -0.394 OA  
ATOM     28  H24 UNL     1       0.177   3.723   3.769  1.00  0.00     0.210 HD  
ENDBRANCH  26  27
ENDBRANCH  25  26
BRANCH  25  29
ATOM     29  C18 UNL     1       2.601  -0.052   3.413  1.00  0.00     0.032 A   
ATOM     30  C19 UNL     1       3.890   0.492   3.425  1.00  0.00     0.012 A   
ATOM     31  C22 UNL     1       2.498  -1.425   3.631  1.00  0.00     0.218 A   
ATOM     32  C20 UNL     1       4.987  -0.332   3.667  1.00  0.00     0.021 A   
ATOM     33  N3  UNL     1       3.540  -2.246   3.864  1.00  0.00    -0.228 NA  
ATOM     34  C21 UNL     1       4.764  -1.681   3.881  1.00  0.00     0.114 A   
ATOM     35  F1  UNL     1       1.280  -1.990   3.601  1.00  0.00    -0.185 F   
ENDBRANCH  25  29
ENDBRANCH   3  25
TORSDOF 10
