REMARK SMILES CC(C)C[C@H]([NH2+]Cc1ccc2c(c1)OCO2)c1cn([C@@H](CO)c2cccnc2F)nn1
REMARK SMILES IDX 17 1 18 2 19 3 30 4 31 5 5 7 4 8 2 9 1 10 3 11 6 12 7 15
REMARK SMILES IDX 8 16 9 17 13 18 10 19 12 20 11 21 14 22 16 23 15 24 20 25
REMARK SMILES IDX 21 26 22 27 23 29 24 30 28 31 25 32 27 33 26 34 29 35
REMARK H PARENT 18 6 6 13 6 14 22 28
ROOT
ATOM     1   C14 UNL     1       0.833  -0.128   1.461  1.00  0.00     0.127 A   
ATOM     2   C15 UNL     1       0.668  -0.906   0.337  1.00  0.00     0.046 A   
ATOM     3   N2  UNL     1      -0.303  -1.808   0.697  1.00  0.00    -0.202 N   
ATOM     4   N4  UNL     1      -0.647  -1.638   1.989  1.00  0.00    -0.075 NA  
ATOM     5   N5  UNL     1       0.039  -0.614   2.466  1.00  0.00    -0.132 NA  
ATOM     6   H20 UNL     1       1.077  -0.862  -0.664  1.00  0.00     0.083 HD  
ENDROOT
BRANCH   1   7
ATOM     7   C5  UNL     1       1.609   1.125   1.679  1.00  0.00     0.114 C   
BRANCH   7   8
ATOM     8   C4  UNL     1       2.880   0.900   2.518  1.00  0.00     0.064 C   
BRANCH   8   9
ATOM     9   C2  UNL     1       3.937  -0.021   1.871  1.00  0.00    -0.012 C   
ATOM     10  C1  UNL     1       5.113  -0.209   2.833  1.00  0.00     0.007 C   
ATOM     11  C3  UNL     1       4.448   0.522   0.535  1.00  0.00     0.007 C   
ENDBRANCH   8   9
ENDBRANCH   7   8
BRANCH   7  12
ATOM     12  N1  UNL     1       0.758   2.131   2.433  1.00  0.00     0.249 N   
ATOM     13  H11 UNL     1       0.431   1.654   3.284  1.00  0.00     0.199 HD  
ATOM     14  H12 UNL     1       1.333   2.925   2.731  1.00  0.00     0.199 HD  
BRANCH  12  15
ATOM     15  C6  UNL     1      -0.457   2.641   1.722  1.00  0.00     0.164 C   
BRANCH  15  16
ATOM     16  C7  UNL     1      -0.138   3.380   0.452  1.00  0.00    -0.002 A   
ATOM     17  C8  UNL     1      -0.584   2.873  -0.792  1.00  0.00     0.012 A   
ATOM     18  C12 UNL     1       0.610   4.569   0.484  1.00  0.00     0.045 A   
ATOM     19  C9  UNL     1      -0.278   3.528  -1.990  1.00  0.00     0.037 A   
ATOM     20  C11 UNL     1       0.896   5.190  -0.714  1.00  0.00     0.109 A   
ATOM     21  C10 UNL     1       0.467   4.684  -1.917  1.00  0.00     0.108 A   
ATOM     22  O1  UNL     1       1.613   6.336  -0.858  1.00  0.00    -0.316 OA  
ATOM     23  O2  UNL     1       0.861   5.447  -2.969  1.00  0.00    -0.316 OA  
ATOM     24  C13 UNL     1       1.553   6.518  -2.291  1.00  0.00     0.337 C   
ENDBRANCH  15  16
ENDBRANCH  12  15
ENDBRANCH   7  12
ENDBRANCH   1   7
BRANCH   3  25
ATOM     25  C16 UNL     1      -1.002  -2.760  -0.170  1.00  0.00     0.160 C   
BRANCH  25  26
ATOM     26  C17 UNL     1      -2.025  -3.640   0.573  1.00  0.00     0.186 C   
BRANCH  26  27
ATOM     27  O3  UNL     1      -2.408  -4.742  -0.252  1.00  0.00    -0.394 OA  
ATOM     28  H24 UNL     1      -3.077  -5.253   0.240  1.00  0.00     0.210 HD  
ENDBRANCH  26  27
ENDBRANCH  25  26
BRANCH  25  29
ATOM     29  C18 UNL     1      -1.643  -2.047  -1.348  1.00  0.00     0.032 A   
ATOM     30  C19 UNL     1      -1.509  -2.545  -2.650  1.00  0.00     0.012 A   
ATOM     31  C22 UNL     1      -2.399  -0.889  -1.192  1.00  0.00     0.218 A   
ATOM     32  C20 UNL     1      -2.096  -1.866  -3.713  1.00  0.00     0.021 A   
ATOM     33  N3  UNL     1      -2.948  -0.190  -2.205  1.00  0.00    -0.228 NA  
ATOM     34  C21 UNL     1      -2.797  -0.702  -3.444  1.00  0.00     0.114 A   
ATOM     35  F1  UNL     1      -2.564  -0.374   0.036  1.00  0.00    -0.185 F   
ENDBRANCH  25  29
ENDBRANCH   3  25
TORSDOF 10
