REMARK SMILES CC(C)C[C@H]([NH2+]Cc1ccc2c(c1)OCO2)c1cn(CCc2ccccc2N([O-])[O-])nn1
REMARK SMILES IDX 17 1 18 2 19 3 31 4 32 5 5 7 4 8 2 9 1 10 3 11 6 12 7 15
REMARK SMILES IDX 8 16 9 17 13 18 10 19 12 20 11 21 14 22 16 23 15 24 20 25
REMARK SMILES IDX 21 26 22 27 23 28 27 29 24 30 26 31 25 32 28 33 29 34 30 35
REMARK H PARENT 18 6 6 13 6 14
ROOT
ATOM     1   C14 UNL     1      -0.277  -1.310   0.432  1.00  0.00     0.127 A   
ATOM     2   C15 UNL     1       0.536  -1.378   1.542  1.00  0.00     0.045 A   
ATOM     3   N2  UNL     1       1.316  -2.475   1.306  1.00  0.00    -0.212 N   
ATOM     4   N4  UNL     1       0.971  -3.076   0.156  1.00  0.00    -0.076 NA  
ATOM     5   N5  UNL     1      -0.006  -2.371  -0.391  1.00  0.00    -0.132 NA  
ATOM     6   H20 UNL     1       0.678  -0.733   2.399  1.00  0.00     0.083 HD  
ENDROOT
BRANCH   1   7
ATOM     7   C5  UNL     1      -1.208  -0.239  -0.035  1.00  0.00     0.114 C   
BRANCH   7   8
ATOM     8   C4  UNL     1      -2.670  -0.703  -0.098  1.00  0.00     0.064 C   
BRANCH   8   9
ATOM     9   C2  UNL     1      -3.271  -1.133   1.257  1.00  0.00    -0.012 C   
ATOM     10  C1  UNL     1      -4.701  -1.637   1.050  1.00  0.00     0.007 C   
ATOM     11  C3  UNL     1      -3.269   0.005   2.276  1.00  0.00     0.007 C   
ENDBRANCH   8   9
ENDBRANCH   7   8
BRANCH   7  12
ATOM     12  N1  UNL     1      -0.754   0.167  -1.420  1.00  0.00     0.249 N   
ATOM     13  H11 UNL     1      -0.870  -0.645  -2.039  1.00  0.00     0.199 HD  
ATOM     14  H12 UNL     1       0.277   0.277  -1.378  1.00  0.00     0.199 HD  
BRANCH  12  15
ATOM     15  C6  UNL     1      -1.323   1.388  -2.038  1.00  0.00     0.164 C   
BRANCH  15  16
ATOM     16  C7  UNL     1      -1.193   2.618  -1.182  1.00  0.00    -0.002 A   
ATOM     17  C8  UNL     1       0.083   3.147  -0.873  1.00  0.00     0.012 A   
ATOM     18  C12 UNL     1      -2.342   3.233  -0.657  1.00  0.00     0.045 A   
ATOM     19  C9  UNL     1       0.215   4.264  -0.042  1.00  0.00     0.037 A   
ATOM     20  C11 UNL     1      -2.177   4.335   0.154  1.00  0.00     0.109 A   
ATOM     21  C10 UNL     1      -0.935   4.835   0.456  1.00  0.00     0.108 A   
ATOM     22  O1  UNL     1      -3.179   5.044   0.735  1.00  0.00    -0.316 OA  
ATOM     23  O2  UNL     1      -0.998   5.920   1.270  1.00  0.00    -0.316 OA  
ATOM     24  C13 UNL     1      -2.425   6.053   1.445  1.00  0.00     0.337 C   
ENDBRANCH  15  16
ENDBRANCH  12  15
ENDBRANCH   7  12
ENDBRANCH   1   7
BRANCH   3  25
ATOM     25  C16 UNL     1       2.500  -2.898   2.023  1.00  0.00     0.139 C   
BRANCH  25  26
ATOM     26  C17 UNL     1       3.716  -2.010   1.728  1.00  0.00     0.059 C   
BRANCH  26  27
ATOM     27  C18 UNL     1       4.228  -2.110   0.303  1.00  0.00    -0.018 A   
ATOM     28  C19 UNL     1       5.076  -3.191  -0.006  1.00  0.00     0.006 A   
ATOM     29  C23 UNL     1       3.890  -1.232  -0.755  1.00  0.00     0.121 A   
ATOM     30  C20 UNL     1       5.566  -3.383  -1.300  1.00  0.00     0.000 A   
ATOM     31  C22 UNL     1       4.380  -1.424  -2.057  1.00  0.00     0.031 A   
ATOM     32  C21 UNL     1       5.219  -2.502  -2.324  1.00  0.00     0.002 A   
BRANCH  29  33
ATOM     33  N3  UNL     1       3.011  -0.084  -0.559  1.00  0.00     0.092 N   
ATOM     34  O3  UNL     1       3.270   0.704   0.359  1.00  0.00    -0.138 OA  
ATOM     35  O4  UNL     1       2.036   0.043  -1.327  1.00  0.00    -0.138 OA  
ENDBRANCH  29  33
ENDBRANCH  26  27
ENDBRANCH  25  26
ENDBRANCH   3  25
TORSDOF 10
