REMARK SMILES Cn1c(-n2cc([C@@H]([NH2+]Cc3ccc4c(c3)OCO4)C(C)(C)C)nn2)nc2ccccc21
REMARK SMILES IDX 7 1 6 2 4 3 5 4 24 5 23 6 3 7 2 8 31 9 25 10 26 11 30 12
REMARK SMILES IDX 27 13 29 14 28 15 1 16 8 17 9 20 10 21 11 22 15 23 12 24
REMARK SMILES IDX 14 25 13 26 16 27 18 28 17 29 19 30 20 31 21 32 22 33
REMARK H PARENT 8 18 8 19
ROOT
ATOM     1   C5  UNL     1       0.905   0.126   2.660  1.00  0.00     0.120 C   
ENDROOT
BRANCH   1   2
ATOM     2   C4  UNL     1       1.089   0.306   1.183  1.00  0.00     0.128 A   
ATOM     3   N2  UNL     1       0.848   0.610  -0.964  1.00  0.00    -0.149 N   
ATOM     4   C3  UNL     1       0.310   0.959   0.256  1.00  0.00     0.138 A   
ATOM     5   N5  UNL     1       1.953  -0.147  -0.770  1.00  0.00    -0.068 NA  
ATOM     6   N4  UNL     1       2.099  -0.352   0.531  1.00  0.00    -0.131 NA  
BRANCH   3   7
ATOM     7   C2  UNL     1       0.358   0.894  -2.232  1.00  0.00     0.214 A   
ATOM     8   N1  UNL     1       0.886   0.495  -3.439  1.00  0.00    -0.273 N   
ATOM     9   C23 UNL     1       0.060   0.980  -4.434  1.00  0.00     0.061 A   
ATOM     10  N6  UNL     1      -0.747   1.598  -2.395  1.00  0.00    -0.215 NA  
ATOM     11  C18 UNL     1      -0.941   1.665  -3.750  1.00  0.00     0.088 A   
ATOM     12  C22 UNL     1       0.083   0.893  -5.832  1.00  0.00     0.026 A   
ATOM     13  C19 UNL     1      -1.968   2.297  -4.468  1.00  0.00     0.030 A   
ATOM     14  C21 UNL     1      -0.949   1.530  -6.533  1.00  0.00     0.002 A   
ATOM     15  C20 UNL     1      -1.959   2.222  -5.864  1.00  0.00     0.002 A   
ATOM     16  C1  UNL     1       2.076  -0.293  -3.660  1.00  0.00     0.139 C   
ENDBRANCH   3   7
ENDBRANCH   1   2
BRANCH   1  17
ATOM     17  N3  UNL     1       1.125  -1.339   3.004  1.00  0.00     0.250 N   
ATOM     18  H6  UNL     1       1.846  -1.680   2.350  1.00  0.00     0.199 HD  
ATOM     19  H7  UNL     1       1.525  -1.443   3.939  1.00  0.00     0.199 HD  
BRANCH  17  20
ATOM     20  C6  UNL     1      -0.066  -2.239   2.898  1.00  0.00     0.164 C   
BRANCH  20  21
ATOM     21  C7  UNL     1      -0.574  -2.410   1.494  1.00  0.00    -0.002 A   
ATOM     22  C8  UNL     1       0.155  -3.186   0.560  1.00  0.00     0.012 A   
ATOM     23  C12 UNL     1      -1.736  -1.740   1.075  1.00  0.00     0.045 A   
ATOM     24  C9  UNL     1      -0.242  -3.261  -0.780  1.00  0.00     0.037 A   
ATOM     25  C11 UNL     1      -2.092  -1.825  -0.255  1.00  0.00     0.109 A   
ATOM     26  C10 UNL     1      -1.362  -2.557  -1.158  1.00  0.00     0.108 A   
ATOM     27  O1  UNL     1      -3.150  -1.196  -0.830  1.00  0.00    -0.316 OA  
ATOM     28  O2  UNL     1      -1.865  -2.479  -2.417  1.00  0.00    -0.316 OA  
ATOM     29  C13 UNL     1      -2.998  -1.605  -2.208  1.00  0.00     0.337 C   
ENDBRANCH  20  21
ENDBRANCH  17  20
ENDBRANCH   1  17
BRANCH   1  30
ATOM     30  C14 UNL     1       1.826   1.044   3.537  1.00  0.00     0.010 C   
ATOM     31  C15 UNL     1       1.628   2.526   3.144  1.00  0.00     0.017 C   
ATOM     32  C16 UNL     1       3.323   0.702   3.397  1.00  0.00     0.017 C   
ATOM     33  C17 UNL     1       1.436   0.920   5.029  1.00  0.00     0.017 C   
ENDBRANCH   1  30
TORSDOF 6
