REMARK SMILES Cc1nn2cc[nH]c2c1Cn1cc([C@@H]([NH2+]Cc2ccc3c(c2)OCO3)C(C)C)nn1
REMARK SMILES IDX 11 1 12 2 13 3 29 4 30 5 10 7 9 8 2 9 3 10 4 11 8 12 5 13
REMARK SMILES IDX 7 14 6 15 1 16 14 18 15 19 16 22 17 23 18 24 22 25 19 26
REMARK SMILES IDX 21 27 20 28 23 29 25 30 24 31 26 32 27 33 28 34
REMARK H PARENT 12 6 7 17 15 20 15 21
ROOT
ATOM     1   N4  UNL     1      -0.210  -1.289   1.700  1.00  0.00    -0.208 N   
ATOM     2   C8  UNL     1       0.519  -1.270   0.540  1.00  0.00     0.046 A   
ATOM     3   C9  UNL     1       1.185  -0.066   0.585  1.00  0.00     0.127 A   
ATOM     4   N6  UNL     1       0.859   0.585   1.748  1.00  0.00    -0.132 NA  
ATOM     5   N7  UNL     1       0.005  -0.171   2.419  1.00  0.00    -0.076 NA  
ATOM     6   H9  UNL     1       0.463  -2.068  -0.189  1.00  0.00     0.083 HD  
ENDROOT
BRANCH   1   7
ATOM     7   C7  UNL     1      -1.169  -2.289   2.144  1.00  0.00     0.175 C   
BRANCH   7   8
ATOM     8   C6  UNL     1      -2.378  -2.236   1.290  1.00  0.00     0.032 A   
ATOM     9   C2  UNL     1      -3.429  -1.254   1.280  1.00  0.00     0.064 A   
ATOM     10  N1  UNL     1      -4.349  -1.480   0.323  1.00  0.00    -0.180 NA  
ATOM     11  N2  UNL     1      -3.940  -2.620  -0.247  1.00  0.00    -0.185 N   
ATOM     12  C5  UNL     1      -2.757  -3.081   0.289  1.00  0.00     0.120 A   
ATOM     13  C3  UNL     1      -4.369  -3.505  -1.222  1.00  0.00     0.118 A   
ATOM     14  N3  UNL     1      -2.421  -4.220  -0.369  1.00  0.00    -0.306 N   
ATOM     15  C4  UNL     1      -3.451  -4.493  -1.273  1.00  0.00     0.091 A   
ATOM     16  C1  UNL     1      -3.571  -0.063   2.160  1.00  0.00     0.069 C   
ATOM     17  H6  UNL     1      -1.855  -4.988  -0.020  1.00  0.00     0.154 HD  
ENDBRANCH   7   8
ENDBRANCH   1   7
BRANCH   3  18
ATOM     18  C10 UNL     1       2.066   0.613  -0.414  1.00  0.00     0.117 C   
BRANCH  18  19
ATOM     19  N5  UNL     1       1.851   2.106  -0.349  1.00  0.00     0.249 N   
ATOM     20  H11 UNL     1       2.627   2.619  -0.780  1.00  0.00     0.199 HD  
ATOM     21  H12 UNL     1       1.850   2.363   0.650  1.00  0.00     0.199 HD  
BRANCH  19  22
ATOM     22  C11 UNL     1       0.565   2.589  -0.925  1.00  0.00     0.164 C   
BRANCH  22  23
ATOM     23  C12 UNL     1       0.416   4.067  -0.700  1.00  0.00    -0.002 A   
ATOM     24  C13 UNL     1      -0.142   4.547   0.509  1.00  0.00     0.012 A   
ATOM     25  C17 UNL     1       0.882   4.982  -1.660  1.00  0.00     0.045 A   
ATOM     26  C14 UNL     1      -0.248   5.920   0.756  1.00  0.00     0.037 A   
ATOM     27  C16 UNL     1       0.763   6.328  -1.384  1.00  0.00     0.109 A   
ATOM     28  C15 UNL     1       0.214   6.785  -0.211  1.00  0.00     0.108 A   
ATOM     29  O1  UNL     1       1.163   7.339  -2.198  1.00  0.00    -0.316 OA  
ATOM     30  O2  UNL     1       0.195   8.141  -0.141  1.00  0.00    -0.316 OA  
ATOM     31  C18 UNL     1       0.777   8.492  -1.414  1.00  0.00     0.337 C   
ENDBRANCH  22  23
ENDBRANCH  19  22
ENDBRANCH  18  19
BRANCH  18  32
ATOM     32  C19 UNL     1       3.578   0.325  -0.230  1.00  0.00     0.037 C   
ATOM     33  C20 UNL     1       4.140   0.751   1.131  1.00  0.00     0.014 C   
ATOM     34  C21 UNL     1       3.906  -1.150  -0.487  1.00  0.00     0.014 C   
ENDBRANCH  18  32
ENDBRANCH   3  18
TORSDOF 7
