REMARK SMILES CC(=O)c1ccccc1-n1cc([C@H](CC(C)C)[NH2+]Cc2ccc3c(c2)OCO3)nn1
REMARK SMILES IDX 10 1 11 2 12 3 29 4 30 5 9 6 4 7 5 8 6 9 8 10 7 11 2 12 1 13
REMARK SMILES IDX 3 14 13 15 14 16 15 17 16 18 17 19 18 20 19 23 20 24 21 25
REMARK SMILES IDX 25 26 22 27 24 28 23 29 26 30 28 31 27 32
REMARK H PARENT 18 21 18 22
ROOT
ATOM     1   N1  UNL     1      -0.369  -3.738   0.381  1.00  0.00    -0.180 N   
ATOM     2   C9  UNL     1       0.172  -2.939  -0.608  1.00  0.00     0.135 A   
ATOM     3   C10 UNL     1       0.068  -1.650  -0.137  1.00  0.00     0.127 A   
ATOM     4   N3  UNL     1      -0.419  -1.681   1.138  1.00  0.00    -0.131 NA  
ATOM     5   N4  UNL     1      -0.633  -2.946   1.462  1.00  0.00    -0.071 NA  
ENDROOT
BRANCH   1   6
ATOM     6   C8  UNL     1      -0.605  -5.141   0.415  1.00  0.00     0.068 A   
ATOM     7   C3  UNL     1      -0.683  -5.955  -0.734  1.00  0.00     0.041 A   
ATOM     8   C4  UNL     1      -0.854  -7.343  -0.594  1.00  0.00     0.014 A   
ATOM     9   C5  UNL     1      -0.955  -7.925   0.671  1.00  0.00     0.001 A   
ATOM     10  C7  UNL     1      -0.745  -5.745   1.683  1.00  0.00     0.027 A   
ATOM     11  C6  UNL     1      -0.911  -7.126   1.806  1.00  0.00     0.002 A   
BRANCH   7  12
ATOM     12  C2  UNL     1      -0.745  -5.425  -2.117  1.00  0.00     0.161 C   
ATOM     13  C1  UNL     1       0.083  -6.092  -3.183  1.00  0.00     0.093 C   
ATOM     14  O1  UNL     1      -1.461  -4.454  -2.358  1.00  0.00    -0.294 OA  
ENDBRANCH   7  12
ENDBRANCH   1   6
BRANCH   3  15
ATOM     15  C11 UNL     1       0.377  -0.344  -0.798  1.00  0.00     0.114 C   
BRANCH  15  16
ATOM     16  C12 UNL     1       1.886  -0.032  -0.725  1.00  0.00     0.064 C   
BRANCH  16  17
ATOM     17  C13 UNL     1       2.365   1.195  -1.535  1.00  0.00    -0.012 C   
ATOM     18  C14 UNL     1       2.105   1.046  -3.033  1.00  0.00     0.007 C   
ATOM     19  C15 UNL     1       3.863   1.416  -1.293  1.00  0.00     0.007 C   
ENDBRANCH  16  17
ENDBRANCH  15  16
BRANCH  15  20
ATOM     20  N2  UNL     1      -0.382   0.768  -0.132  1.00  0.00     0.249 N   
ATOM     21  H19 UNL     1       0.019   1.688  -0.333  1.00  0.00     0.199 HD  
ATOM     22  H20 UNL     1      -0.285   0.628   0.886  1.00  0.00     0.199 HD  
BRANCH  20  23
ATOM     23  C16 UNL     1      -1.845   0.818  -0.428  1.00  0.00     0.164 C   
BRANCH  23  24
ATOM     24  C17 UNL     1      -2.498   1.861   0.435  1.00  0.00    -0.002 A   
ATOM     25  C18 UNL     1      -3.166   1.484   1.624  1.00  0.00     0.012 A   
ATOM     26  C22 UNL     1      -2.371   3.223   0.117  1.00  0.00     0.045 A   
ATOM     27  C19 UNL     1      -3.693   2.444   2.491  1.00  0.00     0.037 A   
ATOM     28  C21 UNL     1      -2.897   4.150   0.998  1.00  0.00     0.109 A   
ATOM     29  C20 UNL     1      -3.535   3.772   2.153  1.00  0.00     0.108 A   
ATOM     30  O2  UNL     1      -2.836   5.501   0.854  1.00  0.00    -0.316 OA  
ATOM     31  O3  UNL     1      -3.959   4.837   2.883  1.00  0.00    -0.316 OA  
ATOM     32  C23 UNL     1      -3.519   5.935   2.052  1.00  0.00     0.337 C   
ENDBRANCH  23  24
ENDBRANCH  20  23
ENDBRANCH  15  20
ENDBRANCH   3  15
TORSDOF 8
