REMARK SMILES CC(=O)c1cc(-n2cc([C@@H]([NH2+]Cc3ccc4c(c3)OCO4)C(C)C)nn2)ccc1O
REMARK SMILES IDX 7 1 8 2 9 3 25 4 26 5 6 6 4 7 5 8 29 9 28 10 27 11 2 12 1 13
REMARK SMILES IDX 3 14 30 15 10 17 11 18 12 21 13 22 14 23 18 24 15 25 17 26
REMARK SMILES IDX 16 27 19 28 21 29 20 30 22 31 23 32 24 33
REMARK H PARENT 30 16 11 19 11 20
ROOT
ATOM     1   N1  UNL     1      -1.114  -2.334   0.331  1.00  0.00    -0.181 N   
ATOM     2   C6  UNL     1      -0.953  -2.117  -1.024  1.00  0.00     0.135 A   
ATOM     3   C7  UNL     1       0.325  -1.619  -1.158  1.00  0.00     0.127 A   
ATOM     4   N3  UNL     1       0.891  -1.508   0.080  1.00  0.00    -0.131 NA  
ATOM     5   N4  UNL     1       0.011  -1.928   0.973  1.00  0.00    -0.071 NA  
ENDROOT
BRANCH   1   6
ATOM     6   C5  UNL     1      -2.228  -2.864   1.031  1.00  0.00     0.058 A   
ATOM     7   C3  UNL     1      -3.261  -3.509   3.148  1.00  0.00     0.049 A   
ATOM     8   C4  UNL     1      -2.170  -2.989   2.433  1.00  0.00     0.040 A   
ATOM     9   C22 UNL     1      -4.408  -3.898   2.442  1.00  0.00     0.082 A   
ATOM     10  C21 UNL     1      -4.467  -3.777   1.055  1.00  0.00     0.036 A   
ATOM     11  C20 UNL     1      -3.382  -3.263   0.345  1.00  0.00     0.029 A   
BRANCH   7  12
ATOM     12  C2  UNL     1      -3.224  -3.653   4.635  1.00  0.00     0.162 C   
ATOM     13  C1  UNL     1      -1.982  -3.264   5.392  1.00  0.00     0.093 C   
ATOM     14  O1  UNL     1      -4.219  -4.089   5.214  1.00  0.00    -0.294 OA  
ENDBRANCH   7  12
BRANCH   9  15
ATOM     15  O4  UNL     1      -5.526  -4.412   3.040  1.00  0.00    -0.360 OA  
ATOM     16  H25 UNL     1      -5.371  -4.444   4.013  1.00  0.00     0.218 HD  
ENDBRANCH   9  15
ENDBRANCH   1   6
BRANCH   3  17
ATOM     17  C8  UNL     1       1.093  -1.168  -2.365  1.00  0.00     0.117 C   
BRANCH  17  18
ATOM     18  N2  UNL     1       1.897   0.060  -2.005  1.00  0.00     0.249 N   
ATOM     19  H7  UNL     1       2.595   0.286  -2.719  1.00  0.00     0.199 HD  
ATOM     20  H8  UNL     1       2.424  -0.163  -1.148  1.00  0.00     0.199 HD  
BRANCH  18  21
ATOM     21  C9  UNL     1       1.105   1.295  -1.738  1.00  0.00     0.164 C   
BRANCH  21  22
ATOM     22  C10 UNL     1       2.018   2.428  -1.364  1.00  0.00    -0.002 A   
ATOM     23  C11 UNL     1       2.413   2.607  -0.017  1.00  0.00     0.012 A   
ATOM     24  C15 UNL     1       2.530   3.282  -2.356  1.00  0.00     0.045 A   
ATOM     25  C12 UNL     1       3.296   3.630   0.343  1.00  0.00     0.037 A   
ATOM     26  C14 UNL     1       3.399   4.280  -1.966  1.00  0.00     0.109 A   
ATOM     27  C13 UNL     1       3.772   4.450  -0.656  1.00  0.00     0.108 A   
ATOM     28  O2  UNL     1       3.982   5.186  -2.794  1.00  0.00    -0.316 OA  
ATOM     29  O3  UNL     1       4.634   5.487  -0.493  1.00  0.00    -0.316 OA  
ATOM     30  C16 UNL     1       4.748   5.968  -1.849  1.00  0.00     0.337 C   
ENDBRANCH  21  22
ENDBRANCH  18  21
ENDBRANCH  17  18
BRANCH  17  31
ATOM     31  C17 UNL     1       2.053  -2.269  -2.899  1.00  0.00     0.037 C   
ATOM     32  C18 UNL     1       2.865  -1.809  -4.119  1.00  0.00     0.014 C   
ATOM     33  C19 UNL     1       1.285  -3.542  -3.292  1.00  0.00     0.014 C   
ENDBRANCH  17  31
ENDBRANCH   3  17
TORSDOF 8
