REMARK SMILES Cc1cscc1[C@H](CO)n1cc([C@@H]([NH2+]Cc2ccc3c(c2)OCO3)C(C)C)nn1
REMARK SMILES IDX 10 1 11 2 12 3 28 4 29 5 7 7 6 8 2 9 3 10 4 11 5 12 1 13
REMARK SMILES IDX 8 14 9 15 13 17 14 18 15 21 16 22 17 23 21 24 18 25 20 26
REMARK SMILES IDX 19 27 22 28 24 29 23 30 25 31 26 32 27 33
REMARK H PARENT 11 6 9 16 14 19 14 20
ROOT
ATOM     1   N1  UNL     1      -2.048   0.323   1.445  1.00  0.00    -0.202 N   
ATOM     2   C8  UNL     1      -0.849   0.749   1.952  1.00  0.00     0.046 A   
ATOM     3   C9  UNL     1       0.084   0.275   1.060  1.00  0.00     0.127 A   
ATOM     4   N3  UNL     1      -0.555  -0.434   0.075  1.00  0.00    -0.132 NA  
ATOM     5   N4  UNL     1      -1.853  -0.411   0.326  1.00  0.00    -0.075 NA  
ATOM     6   H10 UNL     1      -0.784   1.332   2.861  1.00  0.00     0.083 HD  
ENDROOT
BRANCH   1   7
ATOM     7   C6  UNL     1      -3.403   0.554   1.946  1.00  0.00     0.156 C   
BRANCH   7   8
ATOM     8   C5  UNL     1      -3.617   2.032   2.249  1.00  0.00    -0.013 A   
ATOM     9   C2  UNL     1      -3.967   3.028   1.248  1.00  0.00    -0.039 A   
ATOM     10  C3  UNL     1      -4.088   4.286   1.808  1.00  0.00     0.049 A   
ATOM     11  S1  UNL     1      -3.788   4.301   3.484  1.00  0.00    -0.105 S   
ATOM     12  C4  UNL     1      -3.499   2.622   3.498  1.00  0.00     0.051 A   
ATOM     13  C1  UNL     1      -4.176   2.751  -0.208  1.00  0.00     0.045 C   
ENDBRANCH   7   8
BRANCH   7  14
ATOM     14  C7  UNL     1      -3.757  -0.423   3.083  1.00  0.00     0.185 C   
BRANCH  14  15
ATOM     15  O1  UNL     1      -2.846  -0.357   4.184  1.00  0.00    -0.394 OA  
ATOM     16  H9  UNL     1      -3.206  -0.936   4.882  1.00  0.00     0.210 HD  
ENDBRANCH  14  15
ENDBRANCH   7  14
ENDBRANCH   1   7
BRANCH   3  17
ATOM     17  C10 UNL     1       1.574   0.396   1.042  1.00  0.00     0.117 C   
BRANCH  17  18
ATOM     18  N2  UNL     1       2.180  -0.737   0.257  1.00  0.00     0.249 N   
ATOM     19  H12 UNL     1       1.603  -0.848  -0.591  1.00  0.00     0.199 HD  
ATOM     20  H13 UNL     1       3.128  -0.524  -0.065  1.00  0.00     0.199 HD  
BRANCH  18  21
ATOM     21  C11 UNL     1       2.189  -2.054   0.954  1.00  0.00     0.164 C   
BRANCH  21  22
ATOM     22  C12 UNL     1       2.717  -3.125   0.042  1.00  0.00    -0.002 A   
ATOM     23  C13 UNL     1       4.086  -3.480   0.066  1.00  0.00     0.012 A   
ATOM     24  C17 UNL     1       1.856  -3.743  -0.883  1.00  0.00     0.045 A   
ATOM     25  C14 UNL     1       4.592  -4.447  -0.810  1.00  0.00     0.037 A   
ATOM     26  C16 UNL     1       2.387  -4.691  -1.732  1.00  0.00     0.109 A   
ATOM     27  C15 UNL     1       3.716  -5.034  -1.697  1.00  0.00     0.108 A   
ATOM     28  O2  UNL     1       1.698  -5.379  -2.679  1.00  0.00    -0.316 OA  
ATOM     29  O3  UNL     1       4.031  -5.983  -2.616  1.00  0.00    -0.316 OA  
ATOM     30  C18 UNL     1       2.743  -6.214  -3.226  1.00  0.00     0.337 C   
ENDBRANCH  21  22
ENDBRANCH  18  21
ENDBRANCH  17  18
BRANCH  17  31
ATOM     31  C19 UNL     1       2.042   1.759   0.468  1.00  0.00     0.037 C   
ATOM     32  C20 UNL     1       1.755   1.937  -1.028  1.00  0.00     0.014 C   
ATOM     33  C21 UNL     1       3.531   2.009   0.742  1.00  0.00     0.014 C   
ENDBRANCH  17  31
ENDBRANCH   3  17
TORSDOF 9
