REMARK SMILES Cc1cscc1[C@@H](CO)n1cc([C@@H]([NH2+]Cc2ccc3c(c2)OCO3)C(C)C)nn1
REMARK SMILES IDX 10 1 11 2 12 3 28 4 29 5 7 7 6 8 2 9 3 10 4 11 5 12 1 13
REMARK SMILES IDX 8 14 9 15 13 17 14 18 15 21 16 22 17 23 21 24 18 25 20 26
REMARK SMILES IDX 19 27 22 28 24 29 23 30 25 31 26 32 27 33
REMARK H PARENT 11 6 9 16 14 19 14 20
ROOT
ATOM     1   N1  UNL     1      -2.348  -0.660   1.024  1.00  0.00    -0.202 N   
ATOM     2   C8  UNL     1      -1.260  -0.628   0.193  1.00  0.00     0.046 A   
ATOM     3   C9  UNL     1      -0.203  -0.973   1.001  1.00  0.00     0.127 A   
ATOM     4   N3  UNL     1      -0.667  -1.225   2.266  1.00  0.00    -0.132 NA  
ATOM     5   N4  UNL     1      -1.976  -1.031   2.269  1.00  0.00    -0.075 NA  
ATOM     6   H10 UNL     1      -1.336  -0.333  -0.846  1.00  0.00     0.083 HD  
ENDROOT
BRANCH   1   7
ATOM     7   C6  UNL     1      -3.722  -0.240   0.755  1.00  0.00     0.156 C   
BRANCH   7   8
ATOM     8   C5  UNL     1      -3.743   1.249   0.422  1.00  0.00    -0.013 A   
ATOM     9   C2  UNL     1      -3.916   2.307   1.405  1.00  0.00    -0.039 A   
ATOM     10  C3  UNL     1      -3.866   3.557   0.816  1.00  0.00     0.049 A   
ATOM     11  S1  UNL     1      -3.607   3.492  -0.865  1.00  0.00    -0.105 S   
ATOM     12  C4  UNL     1      -3.579   1.788  -0.845  1.00  0.00     0.051 A   
ATOM     13  C1  UNL     1      -4.125   2.097   2.872  1.00  0.00     0.045 C   
ENDBRANCH   7   8
BRANCH   7  14
ATOM     14  C7  UNL     1      -4.436  -1.162  -0.251  1.00  0.00     0.185 C   
BRANCH  14  15
ATOM     15  O1  UNL     1      -3.780  -1.238  -1.518  1.00  0.00    -0.394 OA  
ATOM     16  H9  UNL     1      -4.348  -1.779  -2.100  1.00  0.00     0.210 HD  
ENDBRANCH  14  15
ENDBRANCH   7  14
ENDBRANCH   1   7
BRANCH   3  17
ATOM     17  C10 UNL     1       1.262  -0.984   0.721  1.00  0.00     0.117 C   
BRANCH  17  18
ATOM     18  N2  UNL     1       2.031  -0.371   1.874  1.00  0.00     0.249 N   
ATOM     19  H12 UNL     1       3.037  -0.470   1.710  1.00  0.00     0.199 HD  
ATOM     20  H13 UNL     1       1.796  -0.918   2.712  1.00  0.00     0.199 HD  
BRANCH  18  21
ATOM     21  C11 UNL     1       1.721   1.057   2.199  1.00  0.00     0.164 C   
BRANCH  21  22
ATOM     22  C12 UNL     1       1.929   2.000   1.048  1.00  0.00    -0.002 A   
ATOM     23  C13 UNL     1       0.814   2.603   0.413  1.00  0.00     0.012 A   
ATOM     24  C17 UNL     1       3.224   2.269   0.572  1.00  0.00     0.045 A   
ATOM     25  C14 UNL     1       0.983   3.453  -0.684  1.00  0.00     0.037 A   
ATOM     26  C16 UNL     1       3.354   3.111  -0.513  1.00  0.00     0.109 A   
ATOM     27  C15 UNL     1       2.267   3.685  -1.125  1.00  0.00     0.108 A   
ATOM     28  O2  UNL     1       4.527   3.465  -1.100  1.00  0.00    -0.316 OA  
ATOM     29  O3  UNL     1       2.619   4.475  -2.172  1.00  0.00    -0.316 OA  
ATOM     30  C18 UNL     1       4.057   4.352  -2.141  1.00  0.00     0.337 C   
ENDBRANCH  21  22
ENDBRANCH  18  21
ENDBRANCH  17  18
BRANCH  17  31
ATOM     31  C19 UNL     1       1.848  -2.389   0.423  1.00  0.00     0.037 C   
ATOM     32  C20 UNL     1       1.689  -3.403   1.562  1.00  0.00     0.014 C   
ATOM     33  C21 UNL     1       1.267  -2.973  -0.871  1.00  0.00     0.014 C   
ENDBRANCH  17  31
ENDBRANCH   3  17
TORSDOF 9
