REMARK SMILES CC(C)(C)[C@H]([NH2+]Cc1ccc2c(c1)OCO2)c1cn(Cc2ccnc(Cl)c2)nn1
REMARK SMILES IDX 17 1 18 2 19 3 28 4 29 5 5 7 2 8 1 9 3 10 4 11 6 12 7 15
REMARK SMILES IDX 8 16 9 17 13 18 10 19 12 20 11 21 14 22 16 23 15 24 20 25
REMARK SMILES IDX 21 26 22 27 27 28 23 29 25 30 24 31 26 32
REMARK H PARENT 18 6 6 13 6 14
ROOT
ATOM     1   C14 UNL     1      -1.483   1.025   0.048  1.00  0.00     0.127 A   
ATOM     2   C15 UNL     1      -2.016  -0.005   0.794  1.00  0.00     0.046 A   
ATOM     3   N2  UNL     1      -3.005  -0.513  -0.001  1.00  0.00    -0.208 N   
ATOM     4   N4  UNL     1      -3.090   0.172  -1.157  1.00  0.00    -0.076 NA  
ATOM     5   N5  UNL     1      -2.167   1.120  -1.136  1.00  0.00    -0.132 NA  
ATOM     6   H20 UNL     1      -1.765  -0.432   1.756  1.00  0.00     0.083 HD  
ENDROOT
BRANCH   1   7
ATOM     7   C5  UNL     1      -0.290   1.895   0.300  1.00  0.00     0.120 C   
BRANCH   7   8
ATOM     8   C2  UNL     1      -0.640   3.301   0.910  1.00  0.00     0.010 C   
ATOM     9   C1  UNL     1      -1.417   3.122   2.235  1.00  0.00     0.017 C   
ATOM     10  C3  UNL     1       0.652   4.080   1.247  1.00  0.00     0.017 C   
ATOM     11  C4  UNL     1      -1.493   4.173  -0.034  1.00  0.00     0.017 C   
ENDBRANCH   7   8
BRANCH   7  12
ATOM     12  N1  UNL     1       0.521   2.061  -0.974  1.00  0.00     0.250 N   
ATOM     13  H11 UNL     1      -0.092   2.518  -1.661  1.00  0.00     0.199 HD  
ATOM     14  H12 UNL     1       1.318   2.679  -0.809  1.00  0.00     0.199 HD  
BRANCH  12  15
ATOM     15  C6  UNL     1       1.027   0.812  -1.630  1.00  0.00     0.164 C   
BRANCH  15  16
ATOM     16  C7  UNL     1       1.809  -0.085  -0.713  1.00  0.00    -0.002 A   
ATOM     17  C8  UNL     1       3.089   0.294  -0.243  1.00  0.00     0.012 A   
ATOM     18  C12 UNL     1       1.248  -1.303  -0.287  1.00  0.00     0.045 A   
ATOM     19  C9  UNL     1       3.796  -0.522   0.648  1.00  0.00     0.037 A   
ATOM     20  C11 UNL     1       1.967  -2.078   0.597  1.00  0.00     0.109 A   
ATOM     21  C10 UNL     1       3.205  -1.700   1.051  1.00  0.00     0.108 A   
ATOM     22  O1  UNL     1       1.557  -3.260   1.122  1.00  0.00    -0.316 OA  
ATOM     23  O2  UNL     1       3.737  -2.607   1.912  1.00  0.00    -0.316 OA  
ATOM     24  C13 UNL     1       2.714  -3.627   1.907  1.00  0.00     0.337 C   
ENDBRANCH  15  16
ENDBRANCH  12  15
ENDBRANCH   7  12
ENDBRANCH   1   7
BRANCH   3  25
ATOM     25  C16 UNL     1      -3.837  -1.680   0.238  1.00  0.00     0.169 C   
BRANCH  25  26
ATOM     26  C17 UNL     1      -3.104  -2.938  -0.153  1.00  0.00    -0.024 A   
ATOM     27  C18 UNL     1      -3.071  -3.359  -1.489  1.00  0.00     0.025 A   
ATOM     28  C21 UNL     1      -2.406  -3.693   0.796  1.00  0.00     0.046 A   
ATOM     29  C19 UNL     1      -2.350  -4.499  -1.813  1.00  0.00     0.113 A   
ATOM     30  C20 UNL     1      -1.715  -4.815   0.366  1.00  0.00     0.129 A   
ATOM     31  N3  UNL     1      -1.662  -5.230  -0.914  1.00  0.00    -0.245 NA  
ATOM     32  CL1 UNL     1      -0.835  -5.783   1.475  1.00  0.00    -0.062 Cl  
ENDBRANCH  25  26
ENDBRANCH   3  25
TORSDOF 7
