REMARK SMILES CC(=O)c1ccc(-n2cc([C@@H]([NH2+]Cc3ccc4c(c3)OCO4)C(C)C)nn2)cc1
REMARK SMILES IDX 8 1 9 2 10 3 26 4 27 5 7 6 4 7 5 8 29 9 6 10 28 11 2 12 1 13
REMARK SMILES IDX 3 14 11 15 12 16 13 19 14 20 15 21 19 22 16 23 18 24 17 25
REMARK SMILES IDX 20 26 22 27 21 28 23 29 24 30 25 31
REMARK H PARENT 12 17 12 18
ROOT
ATOM     1   N1  UNL     1       2.228   0.032   0.866  1.00  0.00    -0.181 N   
ATOM     2   C7  UNL     1       1.030  -0.599   0.592  1.00  0.00     0.135 A   
ATOM     3   C8  UNL     1       0.444   0.157  -0.399  1.00  0.00     0.127 A   
ATOM     4   N3  UNL     1       1.258   1.213  -0.695  1.00  0.00    -0.131 NA  
ATOM     5   N4  UNL     1       2.327   1.136   0.081  1.00  0.00    -0.071 NA  
ENDROOT
BRANCH   1   6
ATOM     6   C6  UNL     1       3.238  -0.325   1.794  1.00  0.00     0.058 A   
ATOM     7   C3  UNL     1       5.268  -0.996   3.627  1.00  0.00     0.017 A   
ATOM     8   C4  UNL     1       4.120  -1.791   3.509  1.00  0.00     0.014 A   
ATOM     9   C22 UNL     1       5.397   0.139   2.821  1.00  0.00     0.014 A   
ATOM     10  C5  UNL     1       3.108  -1.462   2.600  1.00  0.00     0.027 A   
ATOM     11  C21 UNL     1       4.387   0.474   1.910  1.00  0.00     0.027 A   
BRANCH   7  12
ATOM     12  C2  UNL     1       6.311  -1.400   4.617  1.00  0.00     0.159 C   
ATOM     13  C1  UNL     1       7.568  -0.579   4.735  1.00  0.00     0.093 C   
ATOM     14  O1  UNL     1       6.126  -2.393   5.318  1.00  0.00    -0.295 OA  
ENDBRANCH   7  12
ENDBRANCH   1   6
BRANCH   3  15
ATOM     15  C9  UNL     1      -0.860   0.002  -1.119  1.00  0.00     0.117 C   
BRANCH  15  16
ATOM     16  N2  UNL     1      -1.307   1.323  -1.700  1.00  0.00     0.249 N   
ATOM     17  H8  UNL     1      -0.472   1.748  -2.129  1.00  0.00     0.199 HD  
ATOM     18  H9  UNL     1      -1.989   1.185  -2.449  1.00  0.00     0.199 HD  
BRANCH  16  19
ATOM     19  C10 UNL     1      -1.855   2.317  -0.728  1.00  0.00     0.164 C   
BRANCH  19  20
ATOM     20  C11 UNL     1      -3.189   1.906  -0.168  1.00  0.00    -0.002 A   
ATOM     21  C12 UNL     1      -3.306   1.528   1.191  1.00  0.00     0.012 A   
ATOM     22  C16 UNL     1      -4.325   1.869  -0.996  1.00  0.00     0.045 A   
ATOM     23  C13 UNL     1      -4.533   1.109   1.718  1.00  0.00     0.037 A   
ATOM     24  C15 UNL     1      -5.518   1.450  -0.445  1.00  0.00     0.109 A   
ATOM     25  C14 UNL     1      -5.620   1.079   0.873  1.00  0.00     0.108 A   
ATOM     26  O2  UNL     1      -6.700   1.349  -1.107  1.00  0.00    -0.316 OA  
ATOM     27  O3  UNL     1      -6.880   0.700   1.208  1.00  0.00    -0.316 OA  
ATOM     28  C17 UNL     1      -7.572   0.901  -0.043  1.00  0.00     0.337 C   
ENDBRANCH  19  20
ENDBRANCH  16  19
ENDBRANCH  15  16
BRANCH  15  29
ATOM     29  C18 UNL     1      -0.785  -1.074  -2.237  1.00  0.00     0.037 C   
ATOM     30  C19 UNL     1       0.101  -0.679  -3.424  1.00  0.00     0.014 C   
ATOM     31  C20 UNL     1      -2.181  -1.465  -2.739  1.00  0.00     0.014 C   
ENDBRANCH  15  29
ENDBRANCH   3  15
TORSDOF 7
