REMARK SMILES Clc1cc(Cn2cc([C@@H]([NH2+]Cc3ccc4c(c3)OCO4)C3CCCC3)nn2)ccn1
REMARK SMILES IDX 6 1 7 2 8 3 26 4 27 5 5 7 4 8 2 9 3 10 30 11 29 12 28 13
REMARK SMILES IDX 1 14 9 15 10 16 11 19 12 20 13 21 17 22 14 23 16 24 15 25
REMARK SMILES IDX 18 26 20 27 19 28 21 29 22 30 25 31 23 32 24 33
REMARK H PARENT 7 6 10 17 10 18
ROOT
ATOM     1   N1  UNL     1       2.168  -2.211   0.038  1.00  0.00    -0.208 N   
ATOM     2   C5  UNL     1       1.053  -1.434  -0.105  1.00  0.00     0.046 A   
ATOM     3   C6  UNL     1       1.512  -0.152   0.109  1.00  0.00     0.127 A   
ATOM     4   N3  UNL     1       2.862  -0.189   0.335  1.00  0.00    -0.132 NA  
ATOM     5   N4  UNL     1       3.251  -1.453   0.298  1.00  0.00    -0.076 NA  
ATOM     6   H4  UNL     1       0.073  -1.850  -0.294  1.00  0.00     0.083 HD  
ENDROOT
BRANCH   1   7
ATOM     7   C4  UNL     1       2.260  -3.661   0.017  1.00  0.00     0.169 C   
BRANCH   7   8
ATOM     8   C3  UNL     1       1.919  -4.231   1.371  1.00  0.00    -0.024 A   
ATOM     9   C1  UNL     1       0.366  -5.158   2.936  1.00  0.00     0.129 A   
ATOM     10  C2  UNL     1       0.627  -4.686   1.659  1.00  0.00     0.046 A   
ATOM     11  N5  UNL     1       1.274  -5.203   3.929  1.00  0.00    -0.245 NA  
ATOM     12  C22 UNL     1       2.517  -4.774   3.631  1.00  0.00     0.113 A   
ATOM     13  C21 UNL     1       2.882  -4.281   2.386  1.00  0.00     0.025 A   
ATOM     14  CL1 UNL     1      -1.194  -5.729   3.358  1.00  0.00    -0.062 Cl  
ENDBRANCH   7   8
ENDBRANCH   1   7
BRANCH   3  15
ATOM     15  C7  UNL     1       0.775   1.144   0.201  1.00  0.00     0.117 C   
BRANCH  15  16
ATOM     16  N2  UNL     1       1.272   1.969   1.373  1.00  0.00     0.249 N   
ATOM     17  H6  UNL     1       0.766   2.857   1.411  1.00  0.00     0.199 HD  
ATOM     18  H7  UNL     1       2.260   2.183   1.185  1.00  0.00     0.199 HD  
BRANCH  16  19
ATOM     19  C8  UNL     1       1.215   1.334   2.728  1.00  0.00     0.164 C   
BRANCH  19  20
ATOM     20  C9  UNL     1      -0.143   0.806   3.095  1.00  0.00    -0.002 A   
ATOM     21  C10 UNL     1      -1.220   1.687   3.355  1.00  0.00     0.012 A   
ATOM     22  C14 UNL     1      -0.359  -0.583   3.147  1.00  0.00     0.045 A   
ATOM     23  C11 UNL     1      -2.495   1.193   3.650  1.00  0.00     0.037 A   
ATOM     24  C13 UNL     1      -1.629  -1.036   3.431  1.00  0.00     0.109 A   
ATOM     25  C12 UNL     1      -2.667  -0.174   3.677  1.00  0.00     0.108 A   
ATOM     26  O1  UNL     1      -2.006  -2.338   3.491  1.00  0.00    -0.316 OA  
ATOM     27  O2  UNL     1      -3.830  -0.828   3.937  1.00  0.00    -0.316 OA  
ATOM     28  C15 UNL     1      -3.392  -2.204   3.881  1.00  0.00     0.337 C   
ENDBRANCH  19  20
ENDBRANCH  16  19
ENDBRANCH  15  16
BRANCH  15  29
ATOM     29  C16 UNL     1       0.934   1.986  -1.081  1.00  0.00     0.043 C   
ATOM     30  C17 UNL     1       0.339   1.319  -2.325  1.00  0.00     0.010 C   
ATOM     31  C20 UNL     1       0.184   3.322  -1.059  1.00  0.00     0.010 C   
ATOM     32  C18 UNL     1       0.254   2.450  -3.340  1.00  0.00     0.001 C   
ATOM     33  C19 UNL     1       0.043   3.723  -2.526  1.00  0.00     0.001 C   
ENDBRANCH  15  29
ENDBRANCH   3  15
TORSDOF 7
