REMARK SMILES c1cc2c([nH]1)CCC[C@H]2n1cc([C@@H]([NH2+]Cc2ccc3c(c2)OCO3)C2CCCCC2)nn1
REMARK SMILES IDX 13 1 12 2 10 3 11 4 32 5 31 6 9 8 1 9 2 10 5 11 3 12 4 13
REMARK SMILES IDX 6 14 8 15 7 16 14 18 15 21 16 22 17 23 21 24 18 25 20 26
REMARK SMILES IDX 19 27 22 28 24 29 23 30 25 31 26 32 30 33 27 34 29 35 28 36
REMARK H PARENT 11 7 5 17 14 19 14 20
ROOT
ATOM     1   C11 UNL     1       0.642  -0.263   0.886  1.00  0.00     0.117 C   
ENDROOT
BRANCH   1   2
ATOM     2   C10 UNL     1      -0.450  -0.316  -0.133  1.00  0.00     0.127 A   
ATOM     3   N2  UNL     1      -1.761  -0.253  -1.861  1.00  0.00    -0.205 N   
ATOM     4   C9  UNL     1      -0.479   0.032  -1.465  1.00  0.00     0.046 A   
ATOM     5   N5  UNL     1      -2.485  -0.706  -0.814  1.00  0.00    -0.075 NA  
ATOM     6   N4  UNL     1      -1.695  -0.749   0.245  1.00  0.00    -0.132 NA  
ATOM     7   H11 UNL     1       0.261   0.423  -2.150  1.00  0.00     0.083 HD  
BRANCH   3   8
ATOM     8   C8  UNL     1      -2.369  -0.175  -3.190  1.00  0.00     0.131 C   
ATOM     9   C1  UNL     1      -1.772   3.242  -4.548  1.00  0.00     0.072 A   
ATOM     10  C2  UNL     1      -2.366   2.441  -3.596  1.00  0.00     0.022 A   
ATOM     11  N1  UNL     1      -1.054   2.444  -5.403  1.00  0.00    -0.324 N   
ATOM     12  C3  UNL     1      -1.992   1.103  -3.879  1.00  0.00    -0.007 A   
ATOM     13  C4  UNL     1      -1.190   1.141  -5.007  1.00  0.00     0.012 A   
ATOM     14  C5  UNL     1      -0.615  -0.030  -5.723  1.00  0.00     0.052 C   
ATOM     15  C7  UNL     1      -2.006  -1.410  -4.057  1.00  0.00     0.030 C   
ATOM     16  C6  UNL     1      -0.665  -1.269  -4.812  1.00  0.00     0.008 C   
ATOM     17  H3  UNL     1      -0.539   2.768  -6.213  1.00  0.00     0.152 HD  
ENDBRANCH   3   8
ENDBRANCH   1   2
BRANCH   1  18
ATOM     18  N3  UNL     1       0.043  -0.067   2.259  1.00  0.00     0.249 N   
ATOM     19  H13 UNL     1       0.667  -0.405   3.000  1.00  0.00     0.199 HD  
ATOM     20  H14 UNL     1      -0.804  -0.656   2.300  1.00  0.00     0.199 HD  
BRANCH  18  21
ATOM     21  C12 UNL     1      -0.380   1.327   2.567  1.00  0.00     0.164 C   
BRANCH  21  22
ATOM     22  C13 UNL     1      -1.062   1.397   3.904  1.00  0.00    -0.002 A   
ATOM     23  C14 UNL     1      -2.475   1.463   3.982  1.00  0.00     0.012 A   
ATOM     24  C18 UNL     1      -0.305   1.355   5.090  1.00  0.00     0.045 A   
ATOM     25  C15 UNL     1      -3.125   1.509   5.221  1.00  0.00     0.037 A   
ATOM     26  C17 UNL     1      -0.979   1.395   6.293  1.00  0.00     0.109 A   
ATOM     27  C16 UNL     1      -2.349   1.475   6.358  1.00  0.00     0.108 A   
ATOM     28  O1  UNL     1      -0.399   1.369   7.522  1.00  0.00    -0.316 OA  
ATOM     29  O2  UNL     1      -2.805   1.512   7.637  1.00  0.00    -0.316 OA  
ATOM     30  C19 UNL     1      -1.564   1.467   8.375  1.00  0.00     0.337 C   
ENDBRANCH  21  22
ENDBRANCH  18  21
ENDBRANCH   1  18
BRANCH   1  31
ATOM     31  C20 UNL     1       1.540  -1.529   0.919  1.00  0.00     0.043 C   
ATOM     32  C21 UNL     1       2.390  -1.654  -0.360  1.00  0.00     0.010 C   
ATOM     33  C25 UNL     1       0.769  -2.840   1.177  1.00  0.00     0.010 C   
ATOM     34  C22 UNL     1       3.321  -2.863  -0.307  1.00  0.00     0.001 C   
ATOM     35  C24 UNL     1       1.705  -4.046   1.220  1.00  0.00     0.001 C   
ATOM     36  C23 UNL     1       2.550  -4.151  -0.045  1.00  0.00     0.000 C   
ENDBRANCH   1  31
TORSDOF 6
