REMARK SMILES c1cc2c([nH]1)CCC[C@@H]2n1cc([C@@H]([NH2+]Cc2ccc3c(c2)OCO3)C2CCCCC2)nn1
REMARK SMILES IDX 13 1 12 2 10 3 11 4 32 5 31 6 9 8 1 9 2 10 5 11 3 12 4 13
REMARK SMILES IDX 6 14 8 15 7 16 14 18 15 21 16 22 17 23 21 24 18 25 20 26
REMARK SMILES IDX 19 27 22 28 24 29 23 30 25 31 26 32 30 33 27 34 29 35 28 36
REMARK H PARENT 11 7 5 17 14 19 14 20
ROOT
ATOM     1   C11 UNL     1      -1.492  -1.416   1.117  1.00  0.00     0.117 C   
ENDROOT
BRANCH   1   2
ATOM     2   C10 UNL     1      -0.216  -0.903   1.704  1.00  0.00     0.127 A   
ATOM     3   N2  UNL     1       1.633   0.103   2.224  1.00  0.00    -0.205 N   
ATOM     4   C9  UNL     1       0.615   0.119   1.306  1.00  0.00     0.046 A   
ATOM     5   N5  UNL     1       1.469  -0.924   3.086  1.00  0.00    -0.075 NA  
ATOM     6   N4  UNL     1       0.331  -1.531   2.791  1.00  0.00    -0.132 NA  
ATOM     7   H11 UNL     1       0.569   0.846   0.506  1.00  0.00     0.083 HD  
BRANCH   3   8
ATOM     8   C8  UNL     1       2.809   0.969   2.334  1.00  0.00     0.131 C   
ATOM     9   C1  UNL     1       1.697   4.488   1.814  1.00  0.00     0.072 A   
ATOM     10  C2  UNL     1       1.674   3.349   2.592  1.00  0.00     0.022 A   
ATOM     11  N1  UNL     1       2.497   4.254   0.723  1.00  0.00    -0.324 N   
ATOM     12  C3  UNL     1       2.479   2.381   1.941  1.00  0.00    -0.007 A   
ATOM     13  C4  UNL     1       2.968   2.972   0.790  1.00  0.00     0.012 A   
ATOM     14  C5  UNL     1       3.899   2.354  -0.194  1.00  0.00     0.052 C   
ATOM     15  C7  UNL     1       3.994   0.425   1.494  1.00  0.00     0.030 C   
ATOM     16  C6  UNL     1       3.924   0.827   0.004  1.00  0.00     0.008 C   
ATOM     17  H3  UNL     1       2.714   4.932   0.002  1.00  0.00     0.152 HD  
ENDBRANCH   3   8
ENDBRANCH   1   2
BRANCH   1  18
ATOM     18  N3  UNL     1      -1.468  -2.934   1.122  1.00  0.00     0.249 N   
ATOM     19  H13 UNL     1      -1.336  -3.216   2.103  1.00  0.00     0.199 HD  
ATOM     20  H14 UNL     1      -2.363  -3.311   0.806  1.00  0.00     0.199 HD  
BRANCH  18  21
ATOM     21  C12 UNL     1      -0.388  -3.590   0.322  1.00  0.00     0.164 C   
BRANCH  21  22
ATOM     22  C13 UNL     1      -0.486  -3.297  -1.149  1.00  0.00    -0.002 A   
ATOM     23  C14 UNL     1      -1.497  -3.899  -1.936  1.00  0.00     0.012 A   
ATOM     24  C18 UNL     1       0.409  -2.392  -1.746  1.00  0.00     0.045 A   
ATOM     25  C15 UNL     1      -1.621  -3.599  -3.297  1.00  0.00     0.037 A   
ATOM     26  C17 UNL     1       0.257  -2.116  -3.089  1.00  0.00     0.109 A   
ATOM     27  C16 UNL     1      -0.729  -2.702  -3.843  1.00  0.00     0.108 A   
ATOM     28  O1  UNL     1       1.026  -1.260  -3.812  1.00  0.00    -0.316 OA  
ATOM     29  O2  UNL     1      -0.704  -2.292  -5.138  1.00  0.00    -0.316 OA  
ATOM     30  C19 UNL     1       0.429  -1.397  -5.123  1.00  0.00     0.337 C   
ENDBRANCH  21  22
ENDBRANCH  18  21
ENDBRANCH   1  18
BRANCH   1  31
ATOM     31  C20 UNL     1      -2.745  -0.918   1.905  1.00  0.00     0.043 C   
ATOM     32  C21 UNL     1      -2.811   0.628   1.910  1.00  0.00     0.010 C   
ATOM     33  C25 UNL     1      -4.065  -1.488   1.339  1.00  0.00     0.010 C   
ATOM     34  C22 UNL     1      -4.053   1.165   2.616  1.00  0.00     0.001 C   
ATOM     35  C24 UNL     1      -5.301  -0.931   2.043  1.00  0.00     0.001 C   
ATOM     36  C23 UNL     1      -5.329   0.590   2.021  1.00  0.00     0.000 C   
ENDBRANCH   1  31
TORSDOF 6
