REMARK SMILES FC(F)(F)c1nnc(-n2cc([C@@H]([NH2+]Cc3ccc4c(c3)OCO4)C3CCCCC3)nn2)[nH]1
REMARK SMILES IDX 9 1 10 2 11 3 30 4 31 5 8 6 5 7 6 8 32 9 7 10 2 12 1 13 3 14
REMARK SMILES IDX 4 15 12 16 13 17 14 20 15 21 16 22 20 23 17 24 19 25 18 26
REMARK SMILES IDX 21 27 23 28 22 29 24 30 25 31 29 32 26 33 28 34 27 35
REMARK H PARENT 32 11 13 18 13 19
ROOT
ATOM     1   N3  UNL     1       0.649  -2.092   0.232  1.00  0.00    -0.148 N   
ATOM     2   C4  UNL     1       0.301  -1.068  -0.617  1.00  0.00     0.138 A   
ATOM     3   C5  UNL     1      -1.077  -1.105  -0.653  1.00  0.00     0.128 A   
ATOM     4   N5  UNL     1      -1.514  -2.153   0.113  1.00  0.00    -0.131 NA  
ATOM     5   N6  UNL     1      -0.456  -2.757   0.636  1.00  0.00    -0.068 NA  
ENDROOT
BRANCH   1   6
ATOM     6   C3  UNL     1       1.877  -2.441   0.743  1.00  0.00     0.233 A   
ATOM     7   C2  UNL     1       3.430  -3.402   1.937  1.00  0.00     0.229 A   
ATOM     8   N1  UNL     1       3.983  -2.421   1.242  1.00  0.00    -0.126 NA  
ATOM     9   N7  UNL     1       2.091  -3.451   1.634  1.00  0.00    -0.263 N   
ATOM     10  N2  UNL     1       3.003  -1.821   0.481  1.00  0.00    -0.114 NA  
ATOM     11  H23 UNL     1       1.397  -4.077   2.026  1.00  0.00     0.157 HD  
BRANCH   7  12
ATOM     12  C1  UNL     1       4.051  -4.329   2.914  1.00  0.00     0.449 C   
ATOM     13  F1  UNL     1       4.646  -3.671   3.939  1.00  0.00    -0.163 F   
ATOM     14  F2  UNL     1       4.977  -5.139   2.348  1.00  0.00    -0.163 F   
ATOM     15  F3  UNL     1       3.109  -5.139   3.469  1.00  0.00    -0.163 F   
ENDBRANCH   7  12
ENDBRANCH   1   6
BRANCH   3  16
ATOM     16  C6  UNL     1      -2.072  -0.191  -1.304  1.00  0.00     0.117 C   
BRANCH  16  17
ATOM     17  N4  UNL     1      -2.049   1.193  -0.681  1.00  0.00     0.249 N   
ATOM     18  H3  UNL     1      -2.778   1.762  -1.121  1.00  0.00     0.199 HD  
ATOM     19  H4  UNL     1      -1.151   1.640  -0.902  1.00  0.00     0.199 HD  
BRANCH  17  20
ATOM     20  C7  UNL     1      -2.284   1.271   0.802  1.00  0.00     0.164 C   
BRANCH  20  21
ATOM     21  C8  UNL     1      -1.003   1.361   1.588  1.00  0.00    -0.002 A   
ATOM     22  C9  UNL     1      -0.164   2.495   1.464  1.00  0.00     0.012 A   
ATOM     23  C13 UNL     1      -0.608   0.302   2.425  1.00  0.00     0.045 A   
ATOM     24  C10 UNL     1       1.069   2.554   2.124  1.00  0.00     0.037 A   
ATOM     25  C12 UNL     1       0.624   0.381   3.042  1.00  0.00     0.109 A   
ATOM     26  C11 UNL     1       1.440   1.475   2.894  1.00  0.00     0.108 A   
ATOM     27  O1  UNL     1       1.184  -0.584   3.819  1.00  0.00    -0.316 OA  
ATOM     28  O2  UNL     1       2.607   1.349   3.575  1.00  0.00    -0.316 OA  
ATOM     29  C14 UNL     1       2.447   0.039   4.160  1.00  0.00     0.337 C   
ENDBRANCH  20  21
ENDBRANCH  17  20
ENDBRANCH  16  17
BRANCH  16  30
ATOM     30  C15 UNL     1      -1.843  -0.070  -2.846  1.00  0.00     0.043 C   
ATOM     31  C16 UNL     1      -1.933  -1.443  -3.555  1.00  0.00     0.010 C   
ATOM     32  C20 UNL     1      -2.809   0.896  -3.566  1.00  0.00     0.010 C   
ATOM     33  C17 UNL     1      -3.359  -1.994  -3.600  1.00  0.00     0.001 C   
ATOM     34  C19 UNL     1      -4.246   0.379  -3.598  1.00  0.00     0.001 C   
ATOM     35  C18 UNL     1      -4.329  -1.004  -4.237  1.00  0.00     0.000 C   
ENDBRANCH  16  30
ENDBRANCH   3  16
TORSDOF 7
