REMARK SMILES O[C@H](Cn1cc([C@@H]([NH2+]Cc2ccc3c(c2)OCO3)C2CCCCC2)nn1)c1ccsc1
REMARK SMILES IDX 4 1 5 2 6 3 25 4 26 5 3 7 2 8 1 9 27 11 28 12 31 13 29 14
REMARK SMILES IDX 30 15 7 16 8 17 9 20 10 21 11 22 15 23 12 24 14 25 13 26
REMARK SMILES IDX 16 27 18 28 17 29 19 30 20 31 24 32 21 33 23 34 22 35
REMARK H PARENT 5 6 1 10 8 18 8 19
ROOT
ATOM     1   N1  UNL     1       1.771   1.516  -2.433  1.00  0.00    -0.209 N   
ATOM     2   C3  UNL     1       1.093   0.441  -1.929  1.00  0.00     0.045 A   
ATOM     3   C4  UNL     1       0.243   0.990  -0.996  1.00  0.00     0.127 A   
ATOM     4   N3  UNL     1       0.490   2.336  -0.903  1.00  0.00    -0.132 NA  
ATOM     5   N4  UNL     1       1.448   2.639  -1.763  1.00  0.00    -0.076 NA  
ATOM     6   H5  UNL     1       1.242  -0.562  -2.304  1.00  0.00     0.083 HD  
ENDROOT
BRANCH   1   7
ATOM     7   C2  UNL     1       2.776   1.536  -3.474  1.00  0.00     0.170 C   
BRANCH   7   8
ATOM     8   C1  UNL     1       2.227   1.282  -4.885  1.00  0.00     0.164 C   
BRANCH   8   9
ATOM     9   O1  UNL     1       1.808  -0.087  -4.996  1.00  0.00    -0.387 OA  
ATOM     10  H1  UNL     1       1.606  -0.239  -5.939  1.00  0.00     0.211 HD  
ENDBRANCH   8   9
BRANCH   8  11
ATOM     11  C20 UNL     1       1.138   2.236  -5.297  1.00  0.00    -0.011 A   
ATOM     12  C21 UNL     1       1.379   3.517  -5.906  1.00  0.00     0.014 A   
ATOM     13  C23 UNL     1      -0.223   2.019  -5.150  1.00  0.00     0.052 A   
ATOM     14  C22 UNL     1       0.216   4.206  -6.176  1.00  0.00     0.046 A   
ATOM     15  S1  UNL     1      -1.172   3.330  -5.701  1.00  0.00    -0.106 S   
ENDBRANCH   8  11
ENDBRANCH   7   8
ENDBRANCH   1   7
BRANCH   3  16
ATOM     16  C5  UNL     1      -0.789   0.359  -0.123  1.00  0.00     0.117 C   
BRANCH  16  17
ATOM     17  N2  UNL     1      -0.887   1.082   1.207  1.00  0.00     0.249 N   
ATOM     18  H7  UNL     1      -1.036   2.078   0.984  1.00  0.00     0.199 HD  
ATOM     19  H8  UNL     1      -1.705   0.754   1.726  1.00  0.00     0.199 HD  
BRANCH  17  20
ATOM     20  C6  UNL     1       0.316   1.026   2.091  1.00  0.00     0.164 C   
BRANCH  20  21
ATOM     21  C7  UNL     1       0.748  -0.369   2.442  1.00  0.00    -0.002 A   
ATOM     22  C8  UNL     1       1.985  -0.862   1.959  1.00  0.00     0.012 A   
ATOM     23  C12 UNL     1      -0.065  -1.196   3.235  1.00  0.00     0.045 A   
ATOM     24  C9  UNL     1       2.409  -2.162   2.254  1.00  0.00     0.037 A   
ATOM     25  C11 UNL     1       0.379  -2.475   3.501  1.00  0.00     0.109 A   
ATOM     26  C10 UNL     1       1.581  -2.944   3.026  1.00  0.00     0.108 A   
ATOM     27  O2  UNL     1      -0.287  -3.402   4.240  1.00  0.00    -0.316 OA  
ATOM     28  O3  UNL     1       1.830  -4.225   3.412  1.00  0.00    -0.316 OA  
ATOM     29  C13 UNL     1       0.641  -4.516   4.183  1.00  0.00     0.337 C   
ENDBRANCH  20  21
ENDBRANCH  17  20
ENDBRANCH  16  17
BRANCH  16  30
ATOM     30  C14 UNL     1      -2.209   0.317  -0.761  1.00  0.00     0.043 C   
ATOM     31  C15 UNL     1      -2.248  -0.622  -1.982  1.00  0.00     0.010 C   
ATOM     32  C19 UNL     1      -2.785   1.700  -1.131  1.00  0.00     0.010 C   
ATOM     33  C16 UNL     1      -3.654  -0.727  -2.575  1.00  0.00     0.001 C   
ATOM     34  C18 UNL     1      -4.184   1.587  -1.742  1.00  0.00     0.001 C   
ATOM     35  C17 UNL     1      -4.208   0.647  -2.940  1.00  0.00     0.000 C   
ENDBRANCH  16  30
ENDBRANCH   3  16
TORSDOF 9
