REMARK SMILES O[C@@H](Cn1cc([C@@H]([NH2+]Cc2ccc3c(c2)OCO3)C2CCCCC2)nn1)c1ccsc1
REMARK SMILES IDX 4 1 5 2 6 3 25 4 26 5 3 7 2 8 1 9 27 11 28 12 31 13 29 14
REMARK SMILES IDX 30 15 7 16 8 17 9 20 10 21 11 22 15 23 12 24 14 25 13 26
REMARK SMILES IDX 16 27 18 28 17 29 19 30 20 31 24 32 21 33 23 34 22 35
REMARK H PARENT 5 6 1 10 8 18 8 19
ROOT
ATOM     1   N1  UNL     1       0.761   2.908   1.813  1.00  0.00    -0.209 N   
ATOM     2   C3  UNL     1       1.094   1.995   0.852  1.00  0.00     0.045 A   
ATOM     3   C4  UNL     1      -0.119   1.537   0.393  1.00  0.00     0.127 A   
ATOM     4   N3  UNL     1      -1.126   2.184   1.064  1.00  0.00    -0.132 NA  
ATOM     5   N4  UNL     1      -0.573   3.013   1.935  1.00  0.00    -0.076 NA  
ATOM     6   H5  UNL     1       2.122   1.748   0.617  1.00  0.00     0.083 HD  
ENDROOT
BRANCH   1   7
ATOM     7   C2  UNL     1       1.645   3.658   2.676  1.00  0.00     0.170 C   
BRANCH   7   8
ATOM     8   C1  UNL     1       1.730   3.076   4.092  1.00  0.00     0.164 C   
BRANCH   8   9
ATOM     9   O1  UNL     1       2.611   3.900   4.859  1.00  0.00    -0.387 OA  
ATOM     10  H1  UNL     1       2.684   3.494   5.743  1.00  0.00     0.211 HD  
ENDBRANCH   8   9
BRANCH   8  11
ATOM     11  C20 UNL     1       2.213   1.645   4.103  1.00  0.00    -0.011 A   
ATOM     12  C21 UNL     1       3.566   1.232   3.858  1.00  0.00     0.014 A   
ATOM     13  C23 UNL     1       1.405   0.546   4.341  1.00  0.00     0.052 A   
ATOM     14  C22 UNL     1       3.719  -0.137   3.889  1.00  0.00     0.046 A   
ATOM     15  S1  UNL     1       2.248  -0.937   4.219  1.00  0.00    -0.106 S   
ENDBRANCH   8  11
ENDBRANCH   7   8
ENDBRANCH   1   7
BRANCH   3  16
ATOM     16  C5  UNL     1      -0.457   0.485  -0.615  1.00  0.00     0.117 C   
BRANCH  16  17
ATOM     17  N2  UNL     1      -1.853  -0.039  -0.373  1.00  0.00     0.249 N   
ATOM     18  H7  UNL     1      -2.430   0.785  -0.150  1.00  0.00     0.199 HD  
ATOM     19  H8  UNL     1      -2.246  -0.460  -1.218  1.00  0.00     0.199 HD  
BRANCH  17  20
ATOM     20  C6  UNL     1      -1.997  -1.000   0.761  1.00  0.00     0.164 C   
BRANCH  20  21
ATOM     21  C7  UNL     1      -1.377  -2.337   0.465  1.00  0.00    -0.002 A   
ATOM     22  C8  UNL     1      -0.190  -2.735   1.127  1.00  0.00     0.012 A   
ATOM     23  C12 UNL     1      -1.950  -3.187  -0.495  1.00  0.00     0.045 A   
ATOM     24  C9  UNL     1       0.425  -3.957   0.831  1.00  0.00     0.037 A   
ATOM     25  C11 UNL     1      -1.316  -4.382  -0.766  1.00  0.00     0.109 A   
ATOM     26  C10 UNL     1      -0.161  -4.756  -0.124  1.00  0.00     0.108 A   
ATOM     27  O2  UNL     1      -1.730  -5.307  -1.671  1.00  0.00    -0.316 OA  
ATOM     28  O3  UNL     1       0.298  -5.964  -0.543  1.00  0.00    -0.316 OA  
ATOM     29  C13 UNL     1      -0.708  -6.320  -1.516  1.00  0.00     0.337 C   
ENDBRANCH  20  21
ENDBRANCH  17  20
ENDBRANCH  16  17
BRANCH  16  30
ATOM     30  C14 UNL     1      -0.313   0.994  -2.074  1.00  0.00     0.043 C   
ATOM     31  C15 UNL     1      -1.364   2.043  -2.484  1.00  0.00     0.010 C   
ATOM     32  C19 UNL     1      -0.304  -0.174  -3.080  1.00  0.00     0.010 C   
ATOM     33  C16 UNL     1      -1.137   2.530  -3.915  1.00  0.00     0.001 C   
ATOM     34  C18 UNL     1      -0.083   0.316  -4.509  1.00  0.00     0.001 C   
ATOM     35  C17 UNL     1      -1.107   1.372  -4.908  1.00  0.00     0.000 C   
ENDBRANCH  16  30
ENDBRANCH   3  16
TORSDOF 9
