REMARK SMILES Cc1ccnc2c1[C@H](n1cc([C@@H]([NH2+]Cc3ccc4c(c3)OCO4)C3CCCC3)nn1)CCO2
REMARK SMILES IDX 12 1 11 2 9 3 10 4 30 5 29 6 8 8 2 9 3 10 7 11 4 12 6 13
REMARK SMILES IDX 5 14 33 15 31 16 32 17 1 18 13 19 14 22 15 23 16 24 20 25
REMARK SMILES IDX 17 26 19 27 18 28 21 29 23 30 22 31 24 32 25 33 28 34 26 35
REMARK SMILES IDX 27 36
REMARK H PARENT 10 7 13 20 13 21
ROOT
ATOM     1   C10 UNL     1      -0.667   1.197  -1.267  1.00  0.00     0.117 C   
ENDROOT
BRANCH   1   2
ATOM     2   C9  UNL     1      -0.944   0.564   0.058  1.00  0.00     0.127 A   
ATOM     3   N2  UNL     1      -0.921  -0.383   2.005  1.00  0.00    -0.204 N   
ATOM     4   C8  UNL     1      -0.091   0.154   1.057  1.00  0.00     0.046 A   
ATOM     5   N5  UNL     1      -2.206  -0.322   1.602  1.00  0.00    -0.075 NA  
ATOM     6   N4  UNL     1      -2.232   0.257   0.412  1.00  0.00    -0.132 NA  
ATOM     7   H7  UNL     1       0.984   0.195   1.181  1.00  0.00     0.083 HD  
BRANCH   3   8
ATOM     8   C7  UNL     1      -0.572  -0.959   3.307  1.00  0.00     0.136 C   
ATOM     9   C2  UNL     1       0.310  -3.225   2.447  1.00  0.00    -0.040 A   
ATOM     10  C3  UNL     1       1.405  -4.082   2.285  1.00  0.00     0.024 A   
ATOM     11  C6  UNL     1       0.502  -2.013   3.145  1.00  0.00     0.027 A   
ATOM     12  C4  UNL     1       2.623  -3.729   2.839  1.00  0.00     0.114 A   
ATOM     13  C5  UNL     1       1.764  -1.782   3.696  1.00  0.00     0.172 A   
ATOM     14  N1  UNL     1       2.822  -2.595   3.536  1.00  0.00    -0.232 NA  
ATOM     15  O3  UNL     1       2.029  -0.665   4.441  1.00  0.00    -0.329 OA  
ATOM     16  C24 UNL     1      -0.205   0.170   4.284  1.00  0.00     0.059 C   
ATOM     17  C25 UNL     1       0.898  -0.277   5.218  1.00  0.00     0.172 C   
ATOM     18  C1  UNL     1      -1.008  -3.623   1.845  1.00  0.00     0.045 C   
ENDBRANCH   3   8
ENDBRANCH   1   2
BRANCH   1  19
ATOM     19  N3  UNL     1      -1.605   0.628  -2.312  1.00  0.00     0.249 N   
ATOM     20  H9  UNL     1      -2.556   0.739  -1.935  1.00  0.00     0.199 HD  
ATOM     21  H10 UNL     1      -1.553   1.173  -3.175  1.00  0.00     0.199 HD  
BRANCH  19  22
ATOM     22  C11 UNL     1      -1.423  -0.815  -2.649  1.00  0.00     0.164 C   
BRANCH  22  23
ATOM     23  C12 UNL     1      -0.141  -1.080  -3.389  1.00  0.00    -0.002 A   
ATOM     24  C13 UNL     1      -0.012  -0.710  -4.750  1.00  0.00     0.012 A   
ATOM     25  C17 UNL     1       0.951  -1.664  -2.723  1.00  0.00     0.045 A   
ATOM     26  C14 UNL     1       1.189  -0.914  -5.439  1.00  0.00     0.037 A   
ATOM     27  C16 UNL     1       2.120  -1.849  -3.431  1.00  0.00     0.109 A   
ATOM     28  C15 UNL     1       2.237  -1.484  -4.750  1.00  0.00     0.108 A   
ATOM     29  O1  UNL     1       3.268  -2.385  -2.938  1.00  0.00    -0.316 OA  
ATOM     30  O2  UNL     1       3.471  -1.747  -5.254  1.00  0.00    -0.316 OA  
ATOM     31  C18 UNL     1       4.117  -2.343  -4.108  1.00  0.00     0.337 C   
ENDBRANCH  22  23
ENDBRANCH  19  22
ENDBRANCH   1  19
BRANCH   1  32
ATOM     32  C19 UNL     1      -0.860   2.727  -1.227  1.00  0.00     0.043 C   
ATOM     33  C20 UNL     1      -0.508   3.438  -2.536  1.00  0.00     0.010 C   
ATOM     34  C23 UNL     1       0.070   3.433  -0.233  1.00  0.00     0.010 C   
ATOM     35  C21 UNL     1      -0.359   4.900  -2.136  1.00  0.00     0.001 C   
ATOM     36  C22 UNL     1       0.087   4.893  -0.676  1.00  0.00     0.001 C   
ENDBRANCH   1  32
TORSDOF 6
