REMARK SMILES Cc1ccnc2c1[C@@H](n1cc([C@@H]([NH2+]Cc3ccc4c(c3)OCO4)C3CCCC3)nn1)CCO2
REMARK SMILES IDX 12 1 11 2 9 3 10 4 30 5 29 6 8 8 2 9 3 10 7 11 4 12 6 13
REMARK SMILES IDX 5 14 33 15 31 16 32 17 1 18 13 19 14 22 15 23 16 24 20 25
REMARK SMILES IDX 17 26 19 27 18 28 21 29 23 30 22 31 24 32 25 33 28 34 26 35
REMARK SMILES IDX 27 36
REMARK H PARENT 10 7 13 20 13 21
ROOT
ATOM     1   C10 UNL     1       1.639   1.001  -0.198  1.00  0.00     0.117 C   
ENDROOT
BRANCH   1   2
ATOM     2   C9  UNL     1       0.941  -0.121   0.499  1.00  0.00     0.127 A   
ATOM     3   N2  UNL     1      -0.321  -1.755   1.162  1.00  0.00    -0.204 N   
ATOM     4   C8  UNL     1      -0.167  -0.856   0.140  1.00  0.00     0.046 A   
ATOM     5   N5  UNL     1       0.597  -1.531   2.125  1.00  0.00    -0.075 NA  
ATOM     6   N4  UNL     1       1.386  -0.548   1.721  1.00  0.00    -0.132 NA  
ATOM     7   H7  UNL     1      -0.814  -0.839  -0.727  1.00  0.00     0.083 HD  
BRANCH   3   8
ATOM     8   C7  UNL     1      -1.297  -2.836   1.330  1.00  0.00     0.136 C   
ATOM     9   C2  UNL     1      -0.908  -4.269  -0.761  1.00  0.00    -0.040 A   
ATOM     10  C3  UNL     1      -1.381  -4.723  -1.998  1.00  0.00     0.024 A   
ATOM     11  C6  UNL     1      -1.727  -3.405   0.001  1.00  0.00     0.027 A   
ATOM     12  C4  UNL     1      -2.629  -4.308  -2.427  1.00  0.00     0.114 A   
ATOM     13  C5  UNL     1      -2.974  -3.057  -0.522  1.00  0.00     0.172 A   
ATOM     14  N1  UNL     1      -3.423  -3.484  -1.717  1.00  0.00    -0.232 NA  
ATOM     15  O3  UNL     1      -3.881  -2.269   0.128  1.00  0.00    -0.329 OA  
ATOM     16  C24 UNL     1      -2.504  -2.375   2.145  1.00  0.00     0.059 C   
ATOM     17  C25 UNL     1      -3.423  -1.549   1.265  1.00  0.00     0.172 C   
ATOM     18  C1  UNL     1       0.449  -4.721  -0.290  1.00  0.00     0.045 C   
ENDBRANCH   3   8
ENDBRANCH   1   2
BRANCH   1  19
ATOM     19  N3  UNL     1       2.130   2.020   0.810  1.00  0.00     0.249 N   
ATOM     20  H9  UNL     1       2.743   2.702   0.358  1.00  0.00     0.199 HD  
ATOM     21  H10 UNL     1       2.697   1.502   1.494  1.00  0.00     0.199 HD  
BRANCH  19  22
ATOM     22  C11 UNL     1       1.080   2.759   1.575  1.00  0.00     0.164 C   
BRANCH  22  23
ATOM     23  C12 UNL     1       0.205   3.611   0.699  1.00  0.00    -0.002 A   
ATOM     24  C13 UNL     1       0.704   4.806   0.128  1.00  0.00     0.012 A   
ATOM     25  C17 UNL     1      -1.109   3.202   0.408  1.00  0.00     0.045 A   
ATOM     26  C14 UNL     1      -0.093   5.583  -0.722  1.00  0.00     0.037 A   
ATOM     27  C16 UNL     1      -1.866   3.991  -0.434  1.00  0.00     0.109 A   
ATOM     28  C15 UNL     1      -1.373   5.147  -0.984  1.00  0.00     0.108 A   
ATOM     29  O1  UNL     1      -3.142   3.734  -0.821  1.00  0.00    -0.316 OA  
ATOM     30  O2  UNL     1      -2.279   5.772  -1.781  1.00  0.00    -0.316 OA  
ATOM     31  C18 UNL     1      -3.417   4.894  -1.643  1.00  0.00     0.337 C   
ENDBRANCH  22  23
ENDBRANCH  19  22
ENDBRANCH   1  19
BRANCH   1  32
ATOM     32  C19 UNL     1       2.854   0.500  -1.007  1.00  0.00     0.043 C   
ATOM     33  C20 UNL     1       3.591   1.599  -1.781  1.00  0.00     0.010 C   
ATOM     34  C23 UNL     1       2.479  -0.473  -2.129  1.00  0.00     0.010 C   
ATOM     35  C21 UNL     1       4.338   0.881  -2.905  1.00  0.00     0.001 C   
ATOM     36  C22 UNL     1       3.724  -0.512  -3.005  1.00  0.00     0.001 C   
ENDBRANCH   1  32
TORSDOF 6
