REMARK SMILES Cc1c(Cn2cc([C@@H]([NH2+]Cc3ccc4c(c3)OCO4)C3CCCCC3)nn2)cnn1C
REMARK SMILES IDX 5 1 6 2 7 3 26 4 27 5 4 7 3 8 2 9 30 10 28 11 29 12 1 13
REMARK SMILES IDX 31 14 8 15 9 16 10 19 11 20 12 21 16 22 13 23 15 24 14 25
REMARK SMILES IDX 17 26 19 27 18 28 20 29 21 30 25 31 22 32 24 33 23 34
REMARK H PARENT 6 6 9 17 9 18
ROOT
ATOM     1   N1  UNL     1      -0.199   1.639  -1.682  1.00  0.00    -0.208 N   
ATOM     2   C5  UNL     1       0.217   0.651  -0.829  1.00  0.00     0.046 A   
ATOM     3   C6  UNL     1      -0.404  -0.481  -1.302  1.00  0.00     0.127 A   
ATOM     4   N3  UNL     1      -1.137  -0.161  -2.416  1.00  0.00    -0.132 NA  
ATOM     5   N4  UNL     1      -1.004   1.135  -2.640  1.00  0.00    -0.076 NA  
ATOM     6   H6  UNL     1       0.870   0.847   0.011  1.00  0.00     0.083 HD  
ENDROOT
BRANCH   1   7
ATOM     7   C4  UNL     1       0.150   3.054  -1.684  1.00  0.00     0.172 C   
BRANCH   7   8
ATOM     8   C3  UNL     1      -0.026   3.671  -0.340  1.00  0.00     0.010 A   
ATOM     9   C2  UNL     1       0.898   4.354   0.441  1.00  0.00     0.031 A   
ATOM     10  N6  UNL     1       0.212   4.755   1.564  1.00  0.00    -0.233 N   
ATOM     11  C22 UNL     1      -1.218   3.713   0.417  1.00  0.00     0.138 A   
ATOM     12  N5  UNL     1      -1.063   4.330   1.586  1.00  0.00    -0.190 NA  
ATOM     13  C1  UNL     1       2.326   4.688   0.203  1.00  0.00     0.064 C   
ATOM     14  C23 UNL     1       0.705   5.535   2.676  1.00  0.00     0.159 C   
ENDBRANCH   7   8
ENDBRANCH   1   7
BRANCH   3  15
ATOM     15  C7  UNL     1      -0.426  -1.887  -0.792  1.00  0.00     0.117 C   
BRANCH  15  16
ATOM     16  N2  UNL     1      -1.698  -2.576  -1.235  1.00  0.00     0.249 N   
ATOM     17  H8  UNL     1      -1.509  -3.507  -1.615  1.00  0.00     0.199 HD  
ATOM     18  H9  UNL     1      -2.052  -2.017  -2.031  1.00  0.00     0.199 HD  
BRANCH  16  19
ATOM     19  C8  UNL     1      -2.788  -2.667  -0.223  1.00  0.00     0.164 C   
BRANCH  19  20
ATOM     20  C9  UNL     1      -3.309  -1.334   0.228  1.00  0.00    -0.002 A   
ATOM     21  C10 UNL     1      -4.111  -0.549  -0.635  1.00  0.00     0.012 A   
ATOM     22  C14 UNL     1      -2.985  -0.843   1.504  1.00  0.00     0.045 A   
ATOM     23  C11 UNL     1      -4.579   0.707  -0.236  1.00  0.00     0.037 A   
ATOM     24  C13 UNL     1      -3.455   0.403   1.861  1.00  0.00     0.109 A   
ATOM     25  C12 UNL     1      -4.232   1.155   1.018  1.00  0.00     0.108 A   
ATOM     26  O1  UNL     1      -3.226   1.022   3.049  1.00  0.00    -0.316 OA  
ATOM     27  O2  UNL     1      -4.590   2.345   1.565  1.00  0.00    -0.316 OA  
ATOM     28  C15 UNL     1      -3.947   2.260   2.856  1.00  0.00     0.337 C   
ENDBRANCH  19  20
ENDBRANCH  16  19
ENDBRANCH  15  16
BRANCH  15  29
ATOM     29  C16 UNL     1       0.821  -2.695  -1.239  1.00  0.00     0.043 C   
ATOM     30  C17 UNL     1       0.907  -2.942  -2.759  1.00  0.00     0.010 C   
ATOM     31  C21 UNL     1       0.929  -4.030  -0.474  1.00  0.00     0.010 C   
ATOM     32  C18 UNL     1       2.172  -3.717  -3.131  1.00  0.00     0.001 C   
ATOM     33  C20 UNL     1       2.197  -4.793  -0.850  1.00  0.00     0.001 C   
ATOM     34  C19 UNL     1       2.288  -5.025  -2.354  1.00  0.00     0.000 C   
ENDBRANCH  15  29
ENDBRANCH   3  15
TORSDOF 7
