REMARK SMILES CC(C)(C)[C@H]([NH2+]Cc1ccc2c(c1)OCO2)c1cn(Cc2cccc(O)c2)nn1
REMARK SMILES IDX 17 1 18 2 19 3 28 4 29 5 5 7 2 8 1 9 3 10 4 11 6 12 7 15
REMARK SMILES IDX 8 16 9 17 13 18 10 19 12 20 11 21 14 22 16 23 15 24 20 25
REMARK SMILES IDX 21 26 22 27 27 28 23 29 25 30 24 31 26 32
REMARK H PARENT 18 6 6 13 6 14 26 33
ROOT
ATOM     1   C14 UNL     1      -1.302   1.222   1.295  1.00  0.00     0.127 A   
ATOM     2   C15 UNL     1      -2.618   0.820   1.225  1.00  0.00     0.046 A   
ATOM     3   N2  UNL     1      -3.009   1.188  -0.035  1.00  0.00    -0.208 N   
ATOM     4   N3  UNL     1      -2.002   1.796  -0.691  1.00  0.00    -0.076 NA  
ATOM     5   N4  UNL     1      -0.951   1.821   0.111  1.00  0.00    -0.132 NA  
ATOM     6   H20 UNL     1      -3.276   0.294   1.903  1.00  0.00     0.083 HD  
ENDROOT
BRANCH   1   7
ATOM     7   C5  UNL     1      -0.257   1.015   2.349  1.00  0.00     0.120 C   
BRANCH   7   8
ATOM     8   C2  UNL     1      -0.086   2.223   3.334  1.00  0.00     0.010 C   
ATOM     9   C1  UNL     1       0.901   1.855   4.467  1.00  0.00     0.017 C   
ATOM     10  C3  UNL     1       0.434   3.495   2.635  1.00  0.00     0.017 C   
ATOM     11  C4  UNL     1      -1.437   2.556   4.007  1.00  0.00     0.017 C   
ENDBRANCH   7   8
BRANCH   7  12
ATOM     12  N1  UNL     1       1.053   0.701   1.664  1.00  0.00     0.250 N   
ATOM     13  H11 UNL     1       1.155   1.383   0.896  1.00  0.00     0.199 HD  
ATOM     14  H12 UNL     1       1.860   0.837   2.276  1.00  0.00     0.199 HD  
BRANCH  12  15
ATOM     15  C6  UNL     1       1.141  -0.655   1.051  1.00  0.00     0.164 C   
BRANCH  15  16
ATOM     16  C7  UNL     1       2.463  -0.827   0.357  1.00  0.00    -0.002 A   
ATOM     17  C8  UNL     1       2.611  -0.438  -0.996  1.00  0.00     0.012 A   
ATOM     18  C12 UNL     1       3.575  -1.314   1.064  1.00  0.00     0.045 A   
ATOM     19  C9  UNL     1       3.848  -0.541  -1.642  1.00  0.00     0.037 A   
ATOM     20  C11 UNL     1       4.780  -1.403   0.397  1.00  0.00     0.109 A   
ATOM     21  C10 UNL     1       4.913  -1.027  -0.917  1.00  0.00     0.108 A   
ATOM     22  O1  UNL     1       5.947  -1.849   0.932  1.00  0.00    -0.316 OA  
ATOM     23  O2  UNL     1       6.181  -1.189  -1.375  1.00  0.00    -0.316 OA  
ATOM     24  C13 UNL     1       6.829  -1.740  -0.209  1.00  0.00     0.337 C   
ENDBRANCH  15  16
ENDBRANCH  12  15
ENDBRANCH   7  12
ENDBRANCH   1   7
BRANCH   3  25
ATOM     25  C16 UNL     1      -4.281   0.936  -0.693  1.00  0.00     0.169 C   
BRANCH  25  26
ATOM     26  C17 UNL     1      -4.495  -0.541  -0.919  1.00  0.00    -0.026 A   
ATOM     27  C18 UNL     1      -5.612  -1.193  -0.374  1.00  0.00     0.005 A   
ATOM     28  C22 UNL     1      -3.588  -1.285  -1.690  1.00  0.00     0.038 A   
ATOM     29  C19 UNL     1      -5.806  -2.561  -0.586  1.00  0.00     0.003 A   
ATOM     30  C21 UNL     1      -3.787  -2.648  -1.886  1.00  0.00     0.072 A   
ATOM     31  C20 UNL     1      -4.890  -3.294  -1.341  1.00  0.00     0.033 A   
BRANCH  30  32
ATOM     32  O3  UNL     1      -2.861  -3.321  -2.624  1.00  0.00    -0.361 OA  
ATOM     33  H26 UNL     1      -3.203  -4.212  -2.814  1.00  0.00     0.218 HD  
ENDBRANCH  30  32
ENDBRANCH  25  26
ENDBRANCH   3  25
TORSDOF 8
