REMARK SMILES COc1cccc(F)c1CCn1cc([C@H](CC(C)C)[NH2+]Cc2ccc3c(c2)OCO3)nn1
REMARK SMILES IDX 12 1 13 2 14 3 31 4 32 5 11 7 10 8 9 9 3 10 4 11 5 12 7 13
REMARK SMILES IDX 6 14 8 15 2 16 1 17 15 18 16 19 17 20 18 21 19 22 20 23
REMARK SMILES IDX 21 26 22 27 23 28 27 29 24 30 26 31 25 32 28 33 30 34 29 35
REMARK H PARENT 13 6 20 24 20 25
ROOT
ATOM     1   N1  UNL     1      -0.918  -2.015   0.120  1.00  0.00    -0.212 N   
ATOM     2   C10 UNL     1      -0.018  -1.120  -0.389  1.00  0.00     0.045 A   
ATOM     3   C11 UNL     1       0.824  -0.864   0.669  1.00  0.00     0.127 A   
ATOM     4   N3  UNL     1       0.435  -1.613   1.749  1.00  0.00    -0.132 NA  
ATOM     5   N4  UNL     1      -0.631  -2.312   1.400  1.00  0.00    -0.076 NA  
ATOM     6   H11 UNL     1      -0.084  -0.741  -1.399  1.00  0.00     0.083 HD  
ENDROOT
BRANCH   1   7
ATOM     7   C9  UNL     1      -2.081  -2.580  -0.534  1.00  0.00     0.139 C   
BRANCH   7   8
ATOM     8   C8  UNL     1      -3.216  -1.568  -0.695  1.00  0.00     0.063 C   
BRANCH   8   9
ATOM     9   C7  UNL     1      -3.867  -1.183   0.614  1.00  0.00     0.020 A   
ATOM     10  C2  UNL     1      -4.830  -2.007   1.222  1.00  0.00     0.081 A   
ATOM     11  C3  UNL     1      -5.413  -1.613   2.432  1.00  0.00     0.034 A   
ATOM     12  C4  UNL     1      -5.043  -0.411   3.042  1.00  0.00     0.006 A   
ATOM     13  C6  UNL     1      -3.498   0.007   1.253  1.00  0.00     0.129 A   
ATOM     14  C5  UNL     1      -4.080   0.400   2.452  1.00  0.00     0.040 A   
ATOM     15  F1  UNL     1      -2.549   0.790   0.715  1.00  0.00    -0.207 F   
BRANCH  10  16
ATOM     16  O1  UNL     1      -5.119  -3.170   0.556  1.00  0.00    -0.349 OA  
ATOM     17  C1  UNL     1      -6.121  -4.013   1.114  1.00  0.00     0.203 C   
ENDBRANCH  10  16
ENDBRANCH   8   9
ENDBRANCH   7   8
ENDBRANCH   1   7
BRANCH   3  18
ATOM     18  C12 UNL     1       1.949   0.102   0.820  1.00  0.00     0.114 C   
BRANCH  18  19
ATOM     19  C13 UNL     1       3.329  -0.580   0.757  1.00  0.00     0.064 C   
BRANCH  19  20
ATOM     20  C14 UNL     1       3.665  -1.256  -0.590  1.00  0.00    -0.012 C   
ATOM     21  C15 UNL     1       3.674  -0.266  -1.754  1.00  0.00     0.007 C   
ATOM     22  C16 UNL     1       5.027  -1.950  -0.492  1.00  0.00     0.007 C   
ENDBRANCH  19  20
ENDBRANCH  18  19
BRANCH  18  23
ATOM     23  N2  UNL     1       1.853   0.777   2.175  1.00  0.00     0.249 N   
ATOM     24  H22 UNL     1       2.724   1.269   2.389  1.00  0.00     0.199 HD  
ATOM     25  H23 UNL     1       1.750   0.016   2.861  1.00  0.00     0.199 HD  
BRANCH  23  26
ATOM     26  C17 UNL     1       0.699   1.705   2.366  1.00  0.00     0.164 C   
BRANCH  26  27
ATOM     27  C18 UNL     1       0.819   2.958   1.544  1.00  0.00    -0.002 A   
ATOM     28  C19 UNL     1       1.739   3.970   1.911  1.00  0.00     0.012 A   
ATOM     29  C23 UNL     1       0.041   3.117   0.384  1.00  0.00     0.045 A   
ATOM     30  C20 UNL     1       1.886   5.123   1.131  1.00  0.00     0.037 A   
ATOM     31  C22 UNL     1       0.213   4.264  -0.363  1.00  0.00     0.109 A   
ATOM     32  C21 UNL     1       1.110   5.238  -0.000  1.00  0.00     0.108 A   
ATOM     33  O2  UNL     1      -0.446   4.566  -1.512  1.00  0.00    -0.316 OA  
ATOM     34  O3  UNL     1       1.123   6.280  -0.872  1.00  0.00    -0.316 OA  
ATOM     35  C24 UNL     1       0.110   5.866  -1.813  1.00  0.00     0.337 C   
ENDBRANCH  26  27
ENDBRANCH  23  26
ENDBRANCH  18  23
ENDBRANCH   3  18
TORSDOF 10
