REMARK SMILES COc1ccc(O)c(CCn2cc([C@@H]([NH2+]Cc3ccc4c(c3)OCO4)C3CCCC3)nn2)c1
REMARK SMILES IDX 11 1 12 2 13 3 31 4 32 5 10 7 9 8 8 9 3 10 4 11 33 12 5 13
REMARK SMILES IDX 6 14 2 15 1 16 7 17 14 19 15 20 16 23 17 24 18 25 22 26
REMARK SMILES IDX 19 27 21 28 20 29 23 30 25 31 24 32 26 33 27 34 30 35 28 36
REMARK SMILES IDX 29 37
REMARK H PARENT 12 6 7 18 15 21 15 22
ROOT
ATOM     1   N1  UNL     1      -1.844  -1.668  -3.431  1.00  0.00    -0.212 N   
ATOM     2   C9  UNL     1      -1.000  -2.278  -2.543  1.00  0.00     0.045 A   
ATOM     3   C10 UNL     1       0.140  -1.502  -2.579  1.00  0.00     0.127 A   
ATOM     4   N3  UNL     1      -0.002  -0.556  -3.561  1.00  0.00    -0.132 NA  
ATOM     5   N4  UNL     1      -1.225  -0.654  -4.060  1.00  0.00    -0.076 NA  
ATOM     6   H11 UNL     1      -1.327  -3.092  -1.912  1.00  0.00     0.083 HD  
ENDROOT
BRANCH   1   7
ATOM     7   C8  UNL     1      -3.282  -1.837  -3.534  1.00  0.00     0.139 C   
BRANCH   7   8
ATOM     8   C7  UNL     1      -4.040  -0.874  -2.610  1.00  0.00     0.060 C   
BRANCH   8   9
ATOM     9   C6  UNL     1      -3.725  -1.113  -1.147  1.00  0.00    -0.014 A   
ATOM     10  C2  UNL     1      -2.279  -0.687   0.769  1.00  0.00     0.075 A   
ATOM     11  C3  UNL     1      -2.932  -1.689   1.484  1.00  0.00     0.036 A   
ATOM     12  C25 UNL     1      -2.695  -0.383  -0.529  1.00  0.00     0.040 A   
ATOM     13  C4  UNL     1      -3.986  -2.396   0.896  1.00  0.00     0.036 A   
ATOM     14  C5  UNL     1      -4.361  -2.118  -0.417  1.00  0.00     0.075 A   
BRANCH  10  15
ATOM     15  O1  UNL     1      -1.165  -0.018   1.205  1.00  0.00    -0.349 OA  
ATOM     16  C1  UNL     1      -1.137   0.218   2.615  1.00  0.00     0.203 C   
ENDBRANCH  10  15
BRANCH  14  17
ATOM     17  O2  UNL     1      -5.335  -2.852  -1.028  1.00  0.00    -0.361 OA  
ATOM     18  H6  UNL     1      -5.810  -3.376  -0.358  1.00  0.00     0.218 HD  
ENDBRANCH  14  17
ENDBRANCH   8   9
ENDBRANCH   7   8
ENDBRANCH   1   7
BRANCH   3  19
ATOM     19  C11 UNL     1       1.336  -1.454  -1.683  1.00  0.00     0.117 C   
BRANCH  19  20
ATOM     20  N2  UNL     1       1.197  -0.320  -0.688  1.00  0.00     0.249 N   
ATOM     21  H13 UNL     1       0.295  -0.397  -0.190  1.00  0.00     0.199 HD  
ATOM     22  H14 UNL     1       1.916  -0.382   0.037  1.00  0.00     0.199 HD  
BRANCH  20  23
ATOM     23  C12 UNL     1       1.269   1.055  -1.274  1.00  0.00     0.164 C   
BRANCH  23  24
ATOM     24  C13 UNL     1       1.455   2.083  -0.190  1.00  0.00    -0.002 A   
ATOM     25  C14 UNL     1       2.737   2.312   0.365  1.00  0.00     0.012 A   
ATOM     26  C18 UNL     1       0.347   2.788   0.312  1.00  0.00     0.045 A   
ATOM     27  C15 UNL     1       2.916   3.232   1.405  1.00  0.00     0.037 A   
ATOM     28  C17 UNL     1       0.557   3.684   1.339  1.00  0.00     0.109 A   
ATOM     29  C16 UNL     1       1.805   3.900   1.871  1.00  0.00     0.108 A   
ATOM     30  O3  UNL     1      -0.402   4.432   1.946  1.00  0.00    -0.316 OA  
ATOM     31  O4  UNL     1       1.792   4.816   2.874  1.00  0.00    -0.316 OA  
ATOM     32  C19 UNL     1       0.394   5.175   2.899  1.00  0.00     0.337 C   
ENDBRANCH  23  24
ENDBRANCH  20  23
ENDBRANCH  19  20
BRANCH  19  33
ATOM     33  C20 UNL     1       1.593  -2.761  -0.904  1.00  0.00     0.043 C   
ATOM     34  C21 UNL     1       2.809  -2.712   0.035  1.00  0.00     0.010 C   
ATOM     35  C24 UNL     1       1.928  -3.953  -1.808  1.00  0.00     0.010 C   
ATOM     36  C22 UNL     1       3.324  -4.147   0.144  1.00  0.00     0.001 C   
ATOM     37  C23 UNL     1       2.502  -4.971  -0.838  1.00  0.00     0.001 C   
ENDBRANCH  19  33
ENDBRANCH   3  19
TORSDOF 10
