REMARK SMILES Cc1cc([C@H](CO)n2cc([C@@H]([NH2+]Cc3ccc4c(c3)OCO4)C3CCCC3)nn2)n[nH]1
REMARK SMILES IDX 8 1 9 2 10 3 28 4 29 5 5 7 4 8 2 9 3 10 31 11 30 12 1 13
REMARK SMILES IDX 6 15 7 16 11 18 12 19 13 22 14 23 15 24 19 25 16 26 18 27
REMARK SMILES IDX 17 28 20 29 22 30 21 31 23 32 24 33 27 34 25 35 26 36
REMARK H PARENT 9 6 31 14 7 17 12 20 12 21
ROOT
ATOM     1   N1  UNL     1       0.911   1.642   2.201  1.00  0.00    -0.201 N   
ATOM     2   C7  UNL     1       0.452   1.131   1.014  1.00  0.00     0.046 A   
ATOM     3   C8  UNL     1       1.126  -0.060   0.876  1.00  0.00     0.127 A   
ATOM     4   N3  UNL     1       1.932  -0.253   1.968  1.00  0.00    -0.132 NA  
ATOM     5   N4  UNL     1       1.789   0.788   2.772  1.00  0.00    -0.075 NA  
ATOM     6   H9  UNL     1      -0.230   1.678   0.377  1.00  0.00     0.083 HD  
ENDROOT
BRANCH   1   7
ATOM     7   C5  UNL     1       0.723   2.974   2.773  1.00  0.00     0.175 C   
BRANCH   7   8
ATOM     8   C4  UNL     1      -0.715   3.413   2.662  1.00  0.00     0.085 A   
ATOM     9   C2  UNL     1      -2.877   3.759   3.032  1.00  0.00     0.024 A   
ATOM     10  C3  UNL     1      -1.772   3.132   3.562  1.00  0.00     0.048 A   
ATOM     11  N6  UNL     1      -2.447   4.371   1.888  1.00  0.00    -0.243 N   
ATOM     12  N5  UNL     1      -1.141   4.160   1.627  1.00  0.00    -0.187 NA  
ATOM     13  C1  UNL     1      -4.281   3.849   3.493  1.00  0.00     0.063 C   
ATOM     14  H29 UNL     1      -2.987   4.939   1.241  1.00  0.00     0.175 HD  
ENDBRANCH   7   8
BRANCH   7  15
ATOM     15  C6  UNL     1       1.725   3.965   2.150  1.00  0.00     0.187 C   
BRANCH  15  16
ATOM     16  O1  UNL     1       1.544   4.123   0.736  1.00  0.00    -0.394 OA  
ATOM     17  H8  UNL     1       0.623   4.461   0.634  1.00  0.00     0.210 HD  
ENDBRANCH  15  16
ENDBRANCH   7  15
ENDBRANCH   1   7
BRANCH   3  18
ATOM     18  C9  UNL     1       1.191  -1.017  -0.266  1.00  0.00     0.117 C   
BRANCH  18  19
ATOM     19  N2  UNL     1       2.637  -1.203  -0.681  1.00  0.00     0.249 N   
ATOM     20  H11 UNL     1       2.713  -1.945  -1.381  1.00  0.00     0.199 HD  
ATOM     21  H12 UNL     1       3.145  -1.516   0.158  1.00  0.00     0.199 HD  
BRANCH  19  22
ATOM     22  C10 UNL     1       3.337   0.015  -1.200  1.00  0.00     0.164 C   
BRANCH  22  23
ATOM     23  C11 UNL     1       2.721   0.562  -2.457  1.00  0.00    -0.002 A   
ATOM     24  C12 UNL     1       2.739  -0.189  -3.658  1.00  0.00     0.012 A   
ATOM     25  C16 UNL     1       2.104   1.827  -2.443  1.00  0.00     0.045 A   
ATOM     26  C13 UNL     1       2.135   0.300  -4.822  1.00  0.00     0.037 A   
ATOM     27  C15 UNL     1       1.523   2.280  -3.611  1.00  0.00     0.109 A   
ATOM     28  C14 UNL     1       1.532   1.536  -4.764  1.00  0.00     0.108 A   
ATOM     29  O2  UNL     1       0.887   3.471  -3.766  1.00  0.00    -0.316 OA  
ATOM     30  O3  UNL     1       0.900   2.163  -5.791  1.00  0.00    -0.316 OA  
ATOM     31  C17 UNL     1       0.510   3.402  -5.158  1.00  0.00     0.337 C   
ENDBRANCH  22  23
ENDBRANCH  19  22
ENDBRANCH  18  19
BRANCH  18  32
ATOM     32  C18 UNL     1       0.602  -2.394   0.108  1.00  0.00     0.043 C   
ATOM     33  C19 UNL     1       0.705  -3.463  -0.981  1.00  0.00     0.010 C   
ATOM     34  C22 UNL     1      -0.911  -2.344   0.370  1.00  0.00     0.010 C   
ATOM     35  C20 UNL     1      -0.268  -4.532  -0.508  1.00  0.00     0.001 C   
ATOM     36  C21 UNL     1      -1.425  -3.763   0.117  1.00  0.00     0.001 C   
ENDBRANCH  18  32
ENDBRANCH   3  18
TORSDOF 9
