REMARK SMILES Cc1cc([C@@H](CO)n2cc([C@@H]([NH2+]Cc3ccc4c(c3)OCO4)C3CCCC3)nn2)n[nH]1
REMARK SMILES IDX 8 1 9 2 10 3 28 4 29 5 5 7 4 8 2 9 3 10 31 11 30 12 1 13
REMARK SMILES IDX 6 15 7 16 11 18 12 19 13 22 14 23 15 24 19 25 16 26 18 27
REMARK SMILES IDX 17 28 20 29 22 30 21 31 23 32 24 33 27 34 25 35 26 36
REMARK H PARENT 9 6 31 14 7 17 12 20 12 21
ROOT
ATOM     1   N1  UNL     1      -2.653   0.022  -1.307  1.00  0.00    -0.201 N   
ATOM     2   C7  UNL     1      -2.057  -0.920  -0.506  1.00  0.00     0.046 A   
ATOM     3   C8  UNL     1      -1.274  -0.186   0.353  1.00  0.00     0.127 A   
ATOM     4   N3  UNL     1      -1.380   1.144   0.039  1.00  0.00    -0.132 NA  
ATOM     5   N4  UNL     1      -2.204   1.258  -0.989  1.00  0.00    -0.075 NA  
ATOM     6   H9  UNL     1      -2.245  -1.978  -0.627  1.00  0.00     0.083 HD  
ENDROOT
BRANCH   1   7
ATOM     7   C5  UNL     1      -3.603  -0.161  -2.401  1.00  0.00     0.175 C   
BRANCH   7   8
ATOM     8   C4  UNL     1      -2.874  -0.677  -3.610  1.00  0.00     0.085 A   
ATOM     9   C2  UNL     1      -1.919  -0.862  -5.605  1.00  0.00     0.024 A   
ATOM     10  C3  UNL     1      -2.546   0.045  -4.783  1.00  0.00     0.048 A   
ATOM     11  N6  UNL     1      -1.904  -2.041  -4.914  1.00  0.00    -0.243 N   
ATOM     12  N5  UNL     1      -2.458  -1.952  -3.690  1.00  0.00    -0.187 NA  
ATOM     13  C1  UNL     1      -1.352  -0.737  -6.967  1.00  0.00     0.063 C   
ATOM     14  H29 UNL     1      -1.535  -2.938  -5.217  1.00  0.00     0.175 HD  
ENDBRANCH   7   8
BRANCH   7  15
ATOM     15  C6  UNL     1      -4.794  -1.051  -2.014  1.00  0.00     0.187 C   
BRANCH  15  16
ATOM     16  O1  UNL     1      -5.593  -0.428  -1.006  1.00  0.00    -0.394 OA  
ATOM     17  H8  UNL     1      -6.399  -0.966  -0.900  1.00  0.00     0.210 HD  
ENDBRANCH  15  16
ENDBRANCH   7  15
ENDBRANCH   1   7
BRANCH   3  18
ATOM     18  C9  UNL     1      -0.353  -0.608   1.450  1.00  0.00     0.117 C   
BRANCH  18  19
ATOM     19  N2  UNL     1       0.844   0.310   1.481  1.00  0.00     0.249 N   
ATOM     20  H11 UNL     1       0.477   1.273   1.466  1.00  0.00     0.199 HD  
ATOM     21  H12 UNL     1       1.377   0.216   2.350  1.00  0.00     0.199 HD  
BRANCH  19  22
ATOM     22  C10 UNL     1       1.780   0.175   0.329  1.00  0.00     0.164 C   
BRANCH  22  23
ATOM     23  C11 UNL     1       2.922   1.141   0.470  1.00  0.00    -0.002 A   
ATOM     24  C12 UNL     1       2.791   2.469  -0.004  1.00  0.00     0.012 A   
ATOM     25  C16 UNL     1       4.102   0.753   1.126  1.00  0.00     0.045 A   
ATOM     26  C13 UNL     1       3.826   3.396   0.160  1.00  0.00     0.037 A   
ATOM     27  C15 UNL     1       5.102   1.692   1.271  1.00  0.00     0.109 A   
ATOM     28  C14 UNL     1       4.969   2.976   0.803  1.00  0.00     0.108 A   
ATOM     29  O2  UNL     1       6.300   1.481   1.876  1.00  0.00    -0.316 OA  
ATOM     30  O3  UNL     1       6.068   3.735   1.052  1.00  0.00    -0.316 OA  
ATOM     31  C17 UNL     1       6.920   2.778   1.717  1.00  0.00     0.337 C   
ENDBRANCH  22  23
ENDBRANCH  19  22
ENDBRANCH  18  19
BRANCH  18  32
ATOM     32  C18 UNL     1      -1.042  -0.560   2.829  1.00  0.00     0.043 C   
ATOM     33  C19 UNL     1      -2.221  -1.532   2.952  1.00  0.00     0.010 C   
ATOM     34  C22 UNL     1      -0.157  -1.005   3.997  1.00  0.00     0.010 C   
ATOM     35  C20 UNL     1      -2.458  -1.666   4.452  1.00  0.00     0.001 C   
ATOM     36  C21 UNL     1      -1.139  -1.297   5.125  1.00  0.00     0.001 C   
ENDBRANCH  18  32
ENDBRANCH   3  18
TORSDOF 9
