REMARK SMILES CC(C)[C@H]([NH2+]Cc1ccc2c(c1)OCO2)c1cn([C@H](CO)c2cccc(Cl)n2)nn1
REMARK SMILES IDX 16 1 17 2 18 3 29 4 30 5 4 7 2 8 1 9 3 10 5 11 6 14 7 15
REMARK SMILES IDX 8 16 12 17 9 18 11 19 10 20 13 21 15 22 14 23 19 24 20 25
REMARK SMILES IDX 21 26 22 28 23 29 28 30 24 31 26 32 25 33 27 34
REMARK H PARENT 17 6 5 12 5 13 21 27
ROOT
ATOM     1   C13 UNL     1      -0.663  -1.504   0.135  1.00  0.00     0.127 A   
ATOM     2   C14 UNL     1      -1.090  -0.704  -0.900  1.00  0.00     0.046 A   
ATOM     3   N2  UNL     1      -2.430  -0.537  -0.664  1.00  0.00    -0.201 N   
ATOM     4   N4  UNL     1      -2.808  -1.240   0.426  1.00  0.00    -0.075 NA  
ATOM     5   N5  UNL     1      -1.734  -1.829   0.925  1.00  0.00    -0.132 NA  
ATOM     6   H18 UNL     1      -0.580  -0.204  -1.712  1.00  0.00     0.083 HD  
ENDROOT
BRANCH   1   7
ATOM     7   C4  UNL     1       0.710  -1.940   0.533  1.00  0.00     0.117 C   
BRANCH   7   8
ATOM     8   C2  UNL     1       1.078  -3.336  -0.037  1.00  0.00     0.037 C   
ATOM     9   C1  UNL     1       2.576  -3.629   0.109  1.00  0.00     0.014 C   
ATOM     10  C3  UNL     1       0.270  -4.494   0.558  1.00  0.00     0.014 C   
ENDBRANCH   7   8
BRANCH   7  11
ATOM     11  N1  UNL     1       0.845  -1.931   2.038  1.00  0.00     0.249 N   
ATOM     12  H9  UNL     1       1.693  -2.422   2.332  1.00  0.00     0.199 HD  
ATOM     13  H10 UNL     1       0.039  -2.456   2.403  1.00  0.00     0.199 HD  
BRANCH  11  14
ATOM     14  C5  UNL     1       0.815  -0.585   2.688  1.00  0.00     0.164 C   
BRANCH  14  15
ATOM     15  C6  UNL     1       2.005   0.262   2.336  1.00  0.00    -0.002 A   
ATOM     16  C7  UNL     1       1.866   1.345   1.435  1.00  0.00     0.012 A   
ATOM     17  C11 UNL     1       3.271  -0.036   2.868  1.00  0.00     0.045 A   
ATOM     18  C8  UNL     1       2.971   2.119   1.063  1.00  0.00     0.037 A   
ATOM     19  C10 UNL     1       4.339   0.746   2.480  1.00  0.00     0.109 A   
ATOM     20  C9  UNL     1       4.195   1.791   1.601  1.00  0.00     0.108 A   
ATOM     21  O1  UNL     1       5.624   0.589   2.894  1.00  0.00    -0.316 OA  
ATOM     22  O2  UNL     1       5.370   2.423   1.350  1.00  0.00    -0.316 OA  
ATOM     23  C12 UNL     1       6.273   1.675   2.193  1.00  0.00     0.337 C   
ENDBRANCH  14  15
ENDBRANCH  11  14
ENDBRANCH   7  11
ENDBRANCH   1   7
BRANCH   3  24
ATOM     24  C15 UNL     1      -3.408   0.262  -1.398  1.00  0.00     0.174 C   
BRANCH  24  25
ATOM     25  C16 UNL     1      -3.369  -0.025  -2.905  1.00  0.00     0.187 C   
BRANCH  25  26
ATOM     26  O3  UNL     1      -4.587   0.396  -3.521  1.00  0.00    -0.394 OA  
ATOM     27  H22 UNL     1      -4.501   0.241  -4.479  1.00  0.00     0.210 HD  
ENDBRANCH  25  26
ENDBRANCH  24  25
BRANCH  24  28
ATOM     28  C17 UNL     1      -3.213   1.744  -1.112  1.00  0.00     0.067 A   
ATOM     29  C18 UNL     1      -4.328   2.576  -0.985  1.00  0.00     0.026 A   
ATOM     30  N3  UNL     1      -1.944   2.231  -1.048  1.00  0.00    -0.239 NA  
ATOM     31  C19 UNL     1      -4.140   3.939  -0.766  1.00  0.00     0.005 A   
ATOM     32  C21 UNL     1      -1.802   3.558  -0.836  1.00  0.00     0.129 A   
ATOM     33  C20 UNL     1      -2.849   4.447  -0.688  1.00  0.00     0.041 A   
ATOM     34  CL1 UNL     1      -0.173   4.082  -0.740  1.00  0.00    -0.062 Cl  
ENDBRANCH  24  28
ENDBRANCH   3  24
TORSDOF 9
