REMARK SMILES CC(C)[C@H]([NH2+]Cc1ccc2c(c1)OCO2)c1cn([C@@H](CO)c2cccc(Cl)n2)nn1
REMARK SMILES IDX 16 1 17 2 18 3 29 4 30 5 4 7 2 8 1 9 3 10 5 11 6 14 7 15
REMARK SMILES IDX 8 16 12 17 9 18 11 19 10 20 13 21 15 22 14 23 19 24 20 25
REMARK SMILES IDX 21 26 22 28 23 29 28 30 24 31 26 32 25 33 27 34
REMARK H PARENT 17 6 5 12 5 13 21 27
ROOT
ATOM     1   C13 UNL     1       1.161  -0.810   0.822  1.00  0.00     0.127 A   
ATOM     2   C14 UNL     1       0.662   0.349   1.371  1.00  0.00     0.046 A   
ATOM     3   N2  UNL     1       1.777   1.040   1.766  1.00  0.00    -0.201 N   
ATOM     4   N4  UNL     1       2.894   0.334   1.484  1.00  0.00    -0.075 NA  
ATOM     5   N5  UNL     1       2.528  -0.800   0.909  1.00  0.00    -0.132 NA  
ATOM     6   H18 UNL     1      -0.339   0.735   1.508  1.00  0.00     0.083 HD  
ENDROOT
BRANCH   1   7
ATOM     7   C4  UNL     1       0.469  -1.941   0.135  1.00  0.00     0.117 C   
BRANCH   7   8
ATOM     8   C2  UNL     1       0.364  -3.203   1.039  1.00  0.00     0.037 C   
ATOM     9   C1  UNL     1      -0.296  -4.391   0.326  1.00  0.00     0.014 C   
ATOM     10  C3  UNL     1      -0.432  -2.907   2.320  1.00  0.00     0.014 C   
ENDBRANCH   7   8
BRANCH   7  11
ATOM     11  N1  UNL     1       1.224  -2.301  -1.132  1.00  0.00     0.249 N   
ATOM     12  H9  UNL     1       0.794  -3.108  -1.586  1.00  0.00     0.199 HD  
ATOM     13  H10 UNL     1       2.171  -2.574  -0.838  1.00  0.00     0.199 HD  
BRANCH  11  14
ATOM     14  C5  UNL     1       1.377  -1.217  -2.154  1.00  0.00     0.164 C   
BRANCH  14  15
ATOM     15  C6  UNL     1       0.064  -0.694  -2.667  1.00  0.00    -0.002 A   
ATOM     16  C7  UNL     1      -0.354   0.619  -2.339  1.00  0.00     0.012 A   
ATOM     17  C11 UNL     1      -0.768  -1.508  -3.454  1.00  0.00     0.045 A   
ATOM     18  C8  UNL     1      -1.587   1.112  -2.777  1.00  0.00     0.037 A   
ATOM     19  C10 UNL     1      -1.978  -0.991  -3.869  1.00  0.00     0.109 A   
ATOM     20  C9  UNL     1      -2.377   0.281  -3.539  1.00  0.00     0.108 A   
ATOM     21  O1  UNL     1      -2.899  -1.646  -4.624  1.00  0.00    -0.316 OA  
ATOM     22  O2  UNL     1      -3.599   0.588  -4.047  1.00  0.00    -0.316 OA  
ATOM     23  C12 UNL     1      -3.916  -0.627  -4.760  1.00  0.00     0.337 C   
ENDBRANCH  14  15
ENDBRANCH  11  14
ENDBRANCH   7  11
ENDBRANCH   1   7
BRANCH   3  24
ATOM     24  C15 UNL     1       1.877   2.348   2.404  1.00  0.00     0.174 C   
BRANCH  24  25
ATOM     25  C16 UNL     1       1.001   3.412   1.720  1.00  0.00     0.187 C   
BRANCH  25  26
ATOM     26  O3  UNL     1       1.408   3.618   0.364  1.00  0.00    -0.394 OA  
ATOM     27  H22 UNL     1       0.969   4.433   0.056  1.00  0.00     0.210 HD  
ENDBRANCH  25  26
ENDBRANCH  24  25
BRANCH  24  28
ATOM     28  C17 UNL     1       1.536   2.206   3.874  1.00  0.00     0.067 A   
ATOM     29  C18 UNL     1       2.548   2.117   4.830  1.00  0.00     0.026 A   
ATOM     30  N3  UNL     1       0.222   2.133   4.206  1.00  0.00    -0.239 NA  
ATOM     31  C19 UNL     1       2.201   1.967   6.172  1.00  0.00     0.005 A   
ATOM     32  C21 UNL     1      -0.078   1.986   5.516  1.00  0.00     0.129 A   
ATOM     33  C20 UNL     1       0.859   1.900   6.527  1.00  0.00     0.041 A   
ATOM     34  CL1 UNL     1      -1.756   1.893   5.848  1.00  0.00    -0.062 Cl  
ENDBRANCH  24  28
ENDBRANCH   3  24
TORSDOF 9
