REMARK SMILES Cc1ccc([C@@H](CO)n2cc([C@@H]([NH2+]Cc3ccc4c(c3)OCO4)C(C)C)nn2)cc1C
REMARK SMILES IDX 9 1 10 2 11 3 27 4 28 5 6 7 5 8 2 9 3 10 30 11 4 12 29 13
REMARK SMILES IDX 1 14 31 15 7 16 8 17 12 19 13 20 14 23 15 24 16 25 20 26
REMARK SMILES IDX 17 27 19 28 18 29 21 30 23 31 22 32 24 33 25 34 26 35
REMARK H PARENT 10 6 8 18 13 21 13 22
ROOT
ATOM     1   N1  UNL     1      -1.046   2.143  -1.268  1.00  0.00    -0.202 N   
ATOM     2   C8  UNL     1       0.145   1.513  -1.510  1.00  0.00     0.046 A   
ATOM     3   C9  UNL     1      -0.203   0.392  -2.225  1.00  0.00     0.127 A   
ATOM     4   N3  UNL     1      -1.559   0.391  -2.426  1.00  0.00    -0.132 NA  
ATOM     5   N4  UNL     1      -2.065   1.461  -1.833  1.00  0.00    -0.075 NA  
ATOM     6   H10 UNL     1       1.081   1.884  -1.115  1.00  0.00     0.083 HD  
ENDROOT
BRANCH   1   7
ATOM     7   C6  UNL     1      -1.313   3.270  -0.373  1.00  0.00     0.155 C   
BRANCH   7   8
ATOM     8   C5  UNL     1      -0.882   2.902   1.045  1.00  0.00    -0.023 A   
ATOM     9   C2  UNL     1      -0.130   2.067   3.647  1.00  0.00    -0.048 A   
ATOM     10  C3  UNL     1       0.689   2.922   2.899  1.00  0.00     0.004 A   
ATOM     11  C23 UNL     1      -1.337   1.611   3.088  1.00  0.00    -0.048 A   
ATOM     12  C4  UNL     1       0.320   3.334   1.615  1.00  0.00     0.006 A   
ATOM     13  C22 UNL     1      -1.700   2.039   1.800  1.00  0.00     0.009 A   
ATOM     14  C1  UNL     1       0.308   1.649   5.025  1.00  0.00     0.044 C   
ATOM     15  C24 UNL     1      -2.258   0.698   3.850  1.00  0.00     0.044 C   
ENDBRANCH   7   8
BRANCH   7  16
ATOM     16  C7  UNL     1      -0.797   4.600  -0.959  1.00  0.00     0.185 C   
BRANCH  16  17
ATOM     17  O1  UNL     1       0.601   4.587  -1.250  1.00  0.00    -0.394 OA  
ATOM     18  H9  UNL     1       0.832   5.479  -1.571  1.00  0.00     0.210 HD  
ENDBRANCH  16  17
ENDBRANCH   7  16
ENDBRANCH   1   7
BRANCH   3  19
ATOM     19  C10 UNL     1       0.621  -0.777  -2.643  1.00  0.00     0.117 C   
BRANCH  19  20
ATOM     20  N2  UNL     1      -0.120  -2.073  -2.383  1.00  0.00     0.249 N   
ATOM     21  H12 UNL     1       0.420  -2.861  -2.752  1.00  0.00     0.199 HD  
ATOM     22  H13 UNL     1      -1.000  -2.021  -2.911  1.00  0.00     0.199 HD  
BRANCH  20  23
ATOM     23  C11 UNL     1      -0.497  -2.354  -0.961  1.00  0.00     0.164 C   
BRANCH  23  24
ATOM     24  C12 UNL     1       0.671  -2.396  -0.018  1.00  0.00    -0.002 A   
ATOM     25  C13 UNL     1       0.871  -1.347   0.912  1.00  0.00     0.012 A   
ATOM     26  C17 UNL     1       1.589  -3.459  -0.066  1.00  0.00     0.045 A   
ATOM     27  C14 UNL     1       1.971  -1.347   1.775  1.00  0.00     0.037 A   
ATOM     28  C16 UNL     1       2.662  -3.430   0.802  1.00  0.00     0.109 A   
ATOM     29  C15 UNL     1       2.850  -2.403   1.694  1.00  0.00     0.108 A   
ATOM     30  O2  UNL     1       3.637  -4.373   0.882  1.00  0.00    -0.316 OA  
ATOM     31  O3  UNL     1       3.968  -2.570   2.447  1.00  0.00    -0.316 OA  
ATOM     32  C18 UNL     1       4.449  -3.837   1.951  1.00  0.00     0.337 C   
ENDBRANCH  23  24
ENDBRANCH  20  23
ENDBRANCH  19  20
BRANCH  19  33
ATOM     33  C19 UNL     1       1.067  -0.750  -4.129  1.00  0.00     0.037 C   
ATOM     34  C20 UNL     1       2.010   0.428  -4.406  1.00  0.00     0.014 C   
ATOM     35  C21 UNL     1      -0.083  -0.737  -5.142  1.00  0.00     0.014 C   
ENDBRANCH  19  33
ENDBRANCH   3  19
TORSDOF 9
