REMARK SMILES Cc1ccc([C@H](CO)n2cc([C@@H]([NH2+]Cc3ccc4c(c3)OCO4)C(C)C)nn2)cc1C
REMARK SMILES IDX 9 1 10 2 11 3 27 4 28 5 6 7 5 8 2 9 3 10 30 11 4 12 29 13
REMARK SMILES IDX 1 14 31 15 7 16 8 17 12 19 13 20 14 23 15 24 16 25 20 26
REMARK SMILES IDX 17 27 19 28 18 29 21 30 23 31 22 32 24 33 25 34 26 35
REMARK H PARENT 10 6 8 18 13 21 13 22
ROOT
ATOM     1   N1  UNL     1       2.018  -0.737   0.880  1.00  0.00    -0.202 N   
ATOM     2   C8  UNL     1       0.788  -0.570   0.300  1.00  0.00     0.046 A   
ATOM     3   C9  UNL     1       0.946   0.522  -0.519  1.00  0.00     0.127 A   
ATOM     4   N3  UNL     1       2.229   0.990  -0.405  1.00  0.00    -0.132 NA  
ATOM     5   N4  UNL     1       2.872   0.224   0.462  1.00  0.00    -0.075 NA  
ATOM     6   H10 UNL     1      -0.046  -1.221   0.525  1.00  0.00     0.083 HD  
ENDROOT
BRANCH   1   7
ATOM     7   C6  UNL     1       2.457  -1.745   1.845  1.00  0.00     0.155 C   
BRANCH   7   8
ATOM     8   C5  UNL     1       2.065  -3.144   1.383  1.00  0.00    -0.023 A   
ATOM     9   C2  UNL     1       1.393  -5.728   0.432  1.00  0.00    -0.048 A   
ATOM     10  C3  UNL     1       2.511  -5.049  -0.068  1.00  0.00     0.004 A   
ATOM     11  C23 UNL     1       0.603  -5.113   1.419  1.00  0.00    -0.048 A   
ATOM     12  C4  UNL     1       2.841  -3.775   0.398  1.00  0.00     0.006 A   
ATOM     13  C22 UNL     1       0.944  -3.828   1.879  1.00  0.00     0.009 A   
ATOM     14  C1  UNL     1       1.075  -7.105  -0.086  1.00  0.00     0.044 C   
ATOM     15  C24 UNL     1      -0.609  -5.801   1.990  1.00  0.00     0.044 C   
ENDBRANCH   7   8
BRANCH   7  16
ATOM     16  C7  UNL     1       2.071  -1.343   3.283  1.00  0.00     0.185 C   
BRANCH  16  17
ATOM     17  O1  UNL     1       0.673  -1.089   3.443  1.00  0.00    -0.394 OA  
ATOM     18  H9  UNL     1       0.523  -0.935   4.394  1.00  0.00     0.210 HD  
ENDBRANCH  16  17
ENDBRANCH   7  16
ENDBRANCH   1   7
BRANCH   3  19
ATOM     19  C10 UNL     1      -0.029   1.232  -1.400  1.00  0.00     0.117 C   
BRANCH  19  20
ATOM     20  N2  UNL     1       0.330   2.696  -1.508  1.00  0.00     0.249 N   
ATOM     21  H12 UNL     1      -0.152   3.134  -2.296  1.00  0.00     0.199 HD  
ATOM     22  H13 UNL     1       1.339   2.724  -1.709  1.00  0.00     0.199 HD  
BRANCH  20  23
ATOM     23  C11 UNL     1       0.108   3.517  -0.281  1.00  0.00     0.164 C   
BRANCH  23  24
ATOM     24  C12 UNL     1      -1.350   3.727   0.022  1.00  0.00    -0.002 A   
ATOM     25  C13 UNL     1      -2.122   4.624  -0.753  1.00  0.00     0.012 A   
ATOM     26  C17 UNL     1      -1.963   3.005   1.061  1.00  0.00     0.045 A   
ATOM     27  C14 UNL     1      -3.487   4.798  -0.502  1.00  0.00     0.037 A   
ATOM     28  C16 UNL     1      -3.311   3.199   1.281  1.00  0.00     0.109 A   
ATOM     29  C15 UNL     1      -4.052   4.069   0.521  1.00  0.00     0.108 A   
ATOM     30  O2  UNL     1      -4.054   2.578   2.233  1.00  0.00    -0.316 OA  
ATOM     31  O3  UNL     1      -5.355   4.108   0.900  1.00  0.00    -0.316 OA  
ATOM     32  C18 UNL     1      -5.350   3.178   2.004  1.00  0.00     0.337 C   
ENDBRANCH  23  24
ENDBRANCH  20  23
ENDBRANCH  19  20
BRANCH  19  33
ATOM     33  C19 UNL     1      -0.117   0.594  -2.812  1.00  0.00     0.037 C   
ATOM     34  C20 UNL     1      -1.342   1.099  -3.585  1.00  0.00     0.014 C   
ATOM     35  C21 UNL     1       1.144   0.782  -3.665  1.00  0.00     0.014 C   
ENDBRANCH  19  33
ENDBRANCH   3  19
TORSDOF 9
