REMARK SMILES CC(C)[C@H]([NH2+]Cc1ccc2c(c1)OCO2)c1cn(CCc2ccc(F)nc2)nn1
REMARK SMILES IDX 16 1 17 2 18 3 28 4 29 5 4 7 2 8 1 9 3 10 5 11 6 14 7 15
REMARK SMILES IDX 8 16 12 17 9 18 11 19 10 20 13 21 15 22 14 23 19 24 20 25
REMARK SMILES IDX 21 26 22 27 27 28 23 29 26 30 24 31 25 32
REMARK H PARENT 17 6 5 12 5 13
ROOT
ATOM     1   C13 UNL     1       0.610   1.532  -1.491  1.00  0.00     0.127 A   
ATOM     2   C14 UNL     1      -0.631   1.760  -2.053  1.00  0.00     0.045 A   
ATOM     3   N2  UNL     1      -0.798   3.118  -1.943  1.00  0.00    -0.212 N   
ATOM     4   N4  UNL     1       0.310   3.698  -1.457  1.00  0.00    -0.076 NA  
ATOM     5   N5  UNL     1       1.174   2.739  -1.168  1.00  0.00    -0.132 NA  
ATOM     6   H18 UNL     1      -1.426   1.113  -2.394  1.00  0.00     0.083 HD  
ENDROOT
BRANCH   1   7
ATOM     7   C4  UNL     1       1.307   0.272  -1.081  1.00  0.00     0.117 C   
BRANCH   7   8
ATOM     8   C2  UNL     1       1.663  -0.700  -2.236  1.00  0.00     0.037 C   
ATOM     9   C1  UNL     1       0.469  -1.322  -2.968  1.00  0.00     0.014 C   
ATOM     10  C3  UNL     1       2.595  -0.029  -3.255  1.00  0.00     0.014 C   
ENDBRANCH   7   8
BRANCH   7  11
ATOM     11  N1  UNL     1       0.539  -0.439   0.007  1.00  0.00     0.249 N   
ATOM     12  H9  UNL     1      -0.209  -1.023  -0.377  1.00  0.00     0.199 HD  
ATOM     13  H10 UNL     1       0.019   0.257   0.576  1.00  0.00     0.199 HD  
BRANCH  11  14
ATOM     14  C5  UNL     1       1.364  -1.230   0.959  1.00  0.00     0.164 C   
BRANCH  14  15
ATOM     15  C6  UNL     1       0.509  -2.019   1.908  1.00  0.00    -0.002 A   
ATOM     16  C7  UNL     1       0.153  -1.482   3.167  1.00  0.00     0.012 A   
ATOM     17  C11 UNL     1       0.024  -3.284   1.533  1.00  0.00     0.045 A   
ATOM     18  C8  UNL     1      -0.664  -2.198   4.049  1.00  0.00     0.037 A   
ATOM     19  C10 UNL     1      -0.781  -3.962   2.425  1.00  0.00     0.109 A   
ATOM     20  C9  UNL     1      -1.115  -3.436   3.648  1.00  0.00     0.108 A   
ATOM     21  O1  UNL     1      -1.330  -5.188   2.218  1.00  0.00    -0.316 OA  
ATOM     22  O2  UNL     1      -1.915  -4.264   4.367  1.00  0.00    -0.316 OA  
ATOM     23  C12 UNL     1      -2.034  -5.385   3.465  1.00  0.00     0.337 C   
ENDBRANCH  14  15
ENDBRANCH  11  14
ENDBRANCH   7  11
ENDBRANCH   1   7
BRANCH   3  24
ATOM     24  C15 UNL     1      -2.053   3.851  -1.963  1.00  0.00     0.139 C   
BRANCH  24  25
ATOM     25  C16 UNL     1      -2.628   4.074  -0.549  1.00  0.00     0.058 C   
BRANCH  25  26
ATOM     26  C17 UNL     1      -2.793   2.776   0.207  1.00  0.00    -0.028 A   
ATOM     27  C18 UNL     1      -3.936   1.987   0.070  1.00  0.00     0.010 A   
ATOM     28  C21 UNL     1      -1.729   2.254   0.946  1.00  0.00     0.118 A   
ATOM     29  C19 UNL     1      -3.956   0.717   0.636  1.00  0.00     0.061 A   
ATOM     30  N3  UNL     1      -1.673   0.983   1.408  1.00  0.00    -0.228 NA  
ATOM     31  C20 UNL     1      -2.815   0.265   1.276  1.00  0.00     0.212 A   
ATOM     32  F1  UNL     1      -2.795  -0.997   1.723  1.00  0.00    -0.185 F   
ENDBRANCH  25  26
ENDBRANCH  24  25
ENDBRANCH   3  24
TORSDOF 8
