REMARK SMILES Cc1cscc1Cn1cc([C@@H]([NH2+]Cc2ccc3c(c2)OCO3)C2CCCCC2)nn1
REMARK SMILES IDX 8 1 9 2 10 3 29 4 30 5 7 7 6 8 2 9 3 10 4 11 5 12 1 13 11 14
REMARK SMILES IDX 12 15 13 18 14 19 15 20 19 21 16 22 18 23 17 24 20 25 22 26
REMARK SMILES IDX 21 27 23 28 24 29 28 30 25 31 27 32 26 33
REMARK H PARENT 9 6 12 16 12 17
ROOT
ATOM     1   N1  UNL     1       2.084  -1.642   1.639  1.00  0.00    -0.208 N   
ATOM     2   C7  UNL     1       1.202  -1.289   0.652  1.00  0.00     0.046 A   
ATOM     3   C8  UNL     1       1.233   0.087   0.655  1.00  0.00     0.127 A   
ATOM     4   N3  UNL     1       2.125   0.515   1.605  1.00  0.00    -0.132 NA  
ATOM     5   N4  UNL     1       2.636  -0.549   2.201  1.00  0.00    -0.076 NA  
ATOM     6   H8  UNL     1       0.642  -2.021   0.087  1.00  0.00     0.083 HD  
ENDROOT
BRANCH   1   7
ATOM     7   C6  UNL     1       2.431  -2.977   2.105  1.00  0.00     0.170 C   
BRANCH   7   8
ATOM     8   C5  UNL     1       1.272  -3.594   2.839  1.00  0.00    -0.018 A   
ATOM     9   C2  UNL     1       0.468  -4.700   2.363  1.00  0.00    -0.039 A   
ATOM     10  C3  UNL     1      -0.523  -5.024   3.272  1.00  0.00     0.049 A   
ATOM     11  S1  UNL     1      -0.501  -4.040   4.663  1.00  0.00    -0.105 S   
ATOM     12  C4  UNL     1       0.847  -3.171   4.088  1.00  0.00     0.051 A   
ATOM     13  C1  UNL     1       0.670  -5.424   1.069  1.00  0.00     0.045 C   
ENDBRANCH   7   8
ENDBRANCH   1   7
BRANCH   3  14
ATOM     14  C9  UNL     1       0.459   1.095  -0.133  1.00  0.00     0.117 C   
BRANCH  14  15
ATOM     15  N2  UNL     1       0.326   2.377   0.655  1.00  0.00     0.249 N   
ATOM     16  H10 UNL     1       1.255   2.555   1.063  1.00  0.00     0.199 HD  
ATOM     17  H11 UNL     1       0.107   3.168   0.045  1.00  0.00     0.199 HD  
BRANCH  15  18
ATOM     18  C10 UNL     1      -0.648   2.349   1.786  1.00  0.00     0.164 C   
BRANCH  18  19
ATOM     19  C11 UNL     1      -2.076   2.375   1.315  1.00  0.00    -0.002 A   
ATOM     20  C12 UNL     1      -2.639   3.571   0.805  1.00  0.00     0.012 A   
ATOM     21  C16 UNL     1      -2.854   1.205   1.349  1.00  0.00     0.045 A   
ATOM     22  C13 UNL     1      -3.956   3.600   0.332  1.00  0.00     0.037 A   
ATOM     23  C15 UNL     1      -4.148   1.268   0.874  1.00  0.00     0.109 A   
ATOM     24  C14 UNL     1      -4.684   2.432   0.379  1.00  0.00     0.108 A   
ATOM     25  O1  UNL     1      -5.026   0.232   0.831  1.00  0.00    -0.316 OA  
ATOM     26  O2  UNL     1      -5.967   2.276  -0.035  1.00  0.00    -0.316 OA  
ATOM     27  C17 UNL     1      -6.197   0.889   0.294  1.00  0.00     0.337 C   
ENDBRANCH  18  19
ENDBRANCH  15  18
ENDBRANCH  14  15
BRANCH  14  28
ATOM     28  C18 UNL     1       1.100   1.374  -1.520  1.00  0.00     0.043 C   
ATOM     29  C19 UNL     1       2.446   2.122  -1.452  1.00  0.00     0.010 C   
ATOM     30  C23 UNL     1       0.124   2.116  -2.455  1.00  0.00     0.010 C   
ATOM     31  C20 UNL     1       3.042   2.335  -2.843  1.00  0.00     0.001 C   
ATOM     32  C22 UNL     1       0.727   2.328  -3.843  1.00  0.00     0.001 C   
ATOM     33  C21 UNL     1       2.067   3.052  -3.771  1.00  0.00     0.000 C   
ENDBRANCH  14  28
ENDBRANCH   3  14
TORSDOF 7
