REMARK SMILES COc1cc(F)c(Cn2cc([C@@H]([NH2+]Cc3ccc4c(c3)OCO4)C3CCCC3)nn2)c(F)c1
REMARK SMILES IDX 9 1 10 2 11 3 29 4 30 5 8 7 7 8 3 9 4 10 33 11 5 12 31 13
REMARK SMILES IDX 6 14 32 15 2 16 1 17 12 18 13 19 14 22 15 23 16 24 20 25
REMARK SMILES IDX 17 26 19 27 18 28 21 29 23 30 22 31 24 32 25 33 28 34 26 35
REMARK SMILES IDX 27 36
REMARK H PARENT 10 6 13 20 13 21
ROOT
ATOM     1   N1  UNL     1      -0.688  -1.732   2.675  1.00  0.00    -0.208 N   
ATOM     2   C7  UNL     1      -1.607  -1.638   1.665  1.00  0.00     0.046 A   
ATOM     3   C8  UNL     1      -1.204  -0.534   0.949  1.00  0.00     0.127 A   
ATOM     4   N3  UNL     1      -0.102   0.014   1.554  1.00  0.00    -0.132 NA  
ATOM     5   N4  UNL     1       0.187  -0.710   2.622  1.00  0.00    -0.076 NA  
ATOM     6   H7  UNL     1      -2.404  -2.359   1.541  1.00  0.00     0.083 HD  
ENDROOT
BRANCH   1   7
ATOM     7   C6  UNL     1      -0.588  -2.751   3.708  1.00  0.00     0.175 C   
BRANCH   7   8
ATOM     8   C5  UNL     1       0.513  -3.721   3.403  1.00  0.00     0.043 A   
ATOM     9   C2  UNL     1       2.605  -5.512   2.797  1.00  0.00     0.080 A   
ATOM     10  C3  UNL     1       2.755  -4.579   3.821  1.00  0.00     0.073 A   
ATOM     11  C24 UNL     1       1.408  -5.551   2.079  1.00  0.00     0.073 A   
ATOM     12  C4  UNL     1       1.713  -3.697   4.111  1.00  0.00     0.133 A   
ATOM     13  C23 UNL     1       0.381  -4.663   2.385  1.00  0.00     0.133 A   
ATOM     14  F1  UNL     1       1.878  -2.809   5.101  1.00  0.00    -0.206 F   
ATOM     15  F2  UNL     1      -0.755  -4.712   1.675  1.00  0.00    -0.206 F   
BRANCH   9  16
ATOM     16  O1  UNL     1       3.537  -6.428   2.399  1.00  0.00    -0.349 OA  
ATOM     17  C1  UNL     1       4.772  -6.445   3.107  1.00  0.00     0.203 C   
ENDBRANCH   9  16
ENDBRANCH   7   8
ENDBRANCH   1   7
BRANCH   3  18
ATOM     18  C9  UNL     1      -1.752   0.101  -0.291  1.00  0.00     0.117 C   
BRANCH  18  19
ATOM     19  N2  UNL     1      -1.197   1.492  -0.444  1.00  0.00     0.249 N   
ATOM     20  H9  UNL     1      -1.191   1.815  -1.414  1.00  0.00     0.199 HD  
ATOM     21  H10 UNL     1      -0.208   1.442  -0.154  1.00  0.00     0.199 HD  
BRANCH  19  22
ATOM     22  C10 UNL     1      -1.838   2.528   0.412  1.00  0.00     0.164 C   
BRANCH  22  23
ATOM     23  C11 UNL     1      -1.075   3.819   0.326  1.00  0.00    -0.002 A   
ATOM     24  C12 UNL     1       0.033   4.043   1.179  1.00  0.00     0.012 A   
ATOM     25  C16 UNL     1      -1.414   4.784  -0.638  1.00  0.00     0.045 A   
ATOM     26  C13 UNL     1       0.787   5.217   1.085  1.00  0.00     0.037 A   
ATOM     27  C15 UNL     1      -0.649   5.931  -0.704  1.00  0.00     0.109 A   
ATOM     28  C14 UNL     1       0.419   6.142   0.132  1.00  0.00     0.108 A   
ATOM     29  O2  UNL     1      -0.840   6.957  -1.573  1.00  0.00    -0.316 OA  
ATOM     30  O3  UNL     1       1.033   7.330  -0.102  1.00  0.00    -0.316 OA  
ATOM     31  C17 UNL     1       0.221   7.855  -1.172  1.00  0.00     0.337 C   
ENDBRANCH  22  23
ENDBRANCH  19  22
ENDBRANCH  18  19
BRANCH  18  32
ATOM     32  C18 UNL     1      -1.453  -0.745  -1.544  1.00  0.00     0.043 C   
ATOM     33  C19 UNL     1      -2.162  -0.276  -2.819  1.00  0.00     0.010 C   
ATOM     34  C22 UNL     1       0.026  -0.861  -1.951  1.00  0.00     0.010 C   
ATOM     35  C20 UNL     1      -1.413  -1.024  -3.912  1.00  0.00     0.001 C   
ATOM     36  C21 UNL     1       0.043  -0.927  -3.481  1.00  0.00     0.001 C   
ENDBRANCH  18  32
ENDBRANCH   3  18
TORSDOF 8
