REMARK SMILES Cc1ccc([C@@H](CO)n2cc([C@@H]([NH2+]Cc3ccc4c(c3)OCO4)C(C)(C)C)nn2)cc1O
REMARK SMILES IDX 9 1 10 2 11 3 28 4 29 5 6 7 5 8 2 9 3 10 31 11 4 12 30 13
REMARK SMILES IDX 1 14 32 15 7 17 8 18 12 20 13 21 14 24 15 25 16 26 20 27
REMARK SMILES IDX 17 28 19 29 18 30 21 31 23 32 22 33 24 34 25 35 26 36 27 37
REMARK H PARENT 10 6 32 16 8 19 13 22 13 23
ROOT
ATOM     1   N1  UNL     1      -2.054  -1.699   1.137  1.00  0.00    -0.202 N   
ATOM     2   C8  UNL     1      -0.698  -1.512   1.210  1.00  0.00     0.046 A   
ATOM     3   C9  UNL     1      -0.551  -0.152   1.346  1.00  0.00     0.127 A   
ATOM     4   N3  UNL     1      -1.790   0.438   1.324  1.00  0.00    -0.132 NA  
ATOM     5   N4  UNL     1      -2.699  -0.514   1.184  1.00  0.00    -0.075 NA  
ATOM     6   H10 UNL     1       0.003  -2.335   1.183  1.00  0.00     0.083 HD  
ENDROOT
BRANCH   1   7
ATOM     7   C6  UNL     1      -2.812  -2.950   1.054  1.00  0.00     0.155 C   
BRANCH   7   8
ATOM     8   C5  UNL     1      -2.206  -3.891   0.018  1.00  0.00    -0.021 A   
ATOM     9   C2  UNL     1      -1.061  -5.561  -1.982  1.00  0.00    -0.021 A   
ATOM     10  C3  UNL     1      -2.012  -4.586  -2.315  1.00  0.00     0.006 A   
ATOM     11  C24 UNL     1      -0.683  -5.678  -0.643  1.00  0.00     0.074 A   
ATOM     12  C4  UNL     1      -2.574  -3.761  -1.332  1.00  0.00     0.006 A   
ATOM     13  C23 UNL     1      -1.250  -4.862   0.343  1.00  0.00     0.039 A   
ATOM     14  C1  UNL     1      -0.462  -6.409  -3.070  1.00  0.00     0.047 C   
BRANCH  11  15
ATOM     15  O4  UNL     1       0.258  -6.568  -0.206  1.00  0.00    -0.361 OA  
ATOM     16  H31 UNL     1       0.566  -7.108  -0.950  1.00  0.00     0.218 HD  
ENDBRANCH  11  15
ENDBRANCH   7   8
BRANCH   7  17
ATOM     17  C7  UNL     1      -3.067  -3.537   2.458  1.00  0.00     0.185 C   
BRANCH  17  18
ATOM     18  O1  UNL     1      -1.871  -3.710   3.220  1.00  0.00    -0.394 OA  
ATOM     19  H9  UNL     1      -2.130  -4.146   4.054  1.00  0.00     0.210 HD  
ENDBRANCH  17  18
ENDBRANCH   7  17
ENDBRANCH   1   7
BRANCH   3  20
ATOM     20  C10 UNL     1       0.685   0.690   1.414  1.00  0.00     0.120 C   
BRANCH  20  21
ATOM     21  N2  UNL     1       0.477   1.963   0.620  1.00  0.00     0.250 N   
ATOM     22  H12 UNL     1      -0.348   2.446   1.002  1.00  0.00     0.199 HD  
ATOM     23  H13 UNL     1       1.271   2.597   0.719  1.00  0.00     0.199 HD  
BRANCH  21  24
ATOM     24  C11 UNL     1       0.233   1.760  -0.841  1.00  0.00     0.164 C   
BRANCH  24  25
ATOM     25  C12 UNL     1       0.438   3.046  -1.591  1.00  0.00    -0.002 A   
ATOM     26  C13 UNL     1      -0.615   3.982  -1.719  1.00  0.00     0.012 A   
ATOM     27  C17 UNL     1       1.702   3.345  -2.132  1.00  0.00     0.045 A   
ATOM     28  C14 UNL     1      -0.414   5.202  -2.378  1.00  0.00     0.037 A   
ATOM     29  C16 UNL     1       1.867   4.556  -2.774  1.00  0.00     0.109 A   
ATOM     30  C15 UNL     1       0.840   5.461  -2.891  1.00  0.00     0.108 A   
ATOM     31  O2  UNL     1       3.020   4.999  -3.341  1.00  0.00    -0.316 OA  
ATOM     32  O3  UNL     1       1.219   6.590  -3.546  1.00  0.00    -0.316 OA  
ATOM     33  C18 UNL     1       2.597   6.284  -3.854  1.00  0.00     0.337 C   
ENDBRANCH  24  25
ENDBRANCH  21  24
ENDBRANCH  20  21
BRANCH  20  34
ATOM     34  C19 UNL     1       1.163   1.013   2.875  1.00  0.00     0.010 C   
ATOM     35  C20 UNL     1       1.476  -0.303   3.628  1.00  0.00     0.017 C   
ATOM     36  C21 UNL     1       0.112   1.796   3.689  1.00  0.00     0.017 C   
ATOM     37  C22 UNL     1       2.470   1.839   2.851  1.00  0.00     0.017 C   
ENDBRANCH  20  34
ENDBRANCH   3  20
TORSDOF 10
