REMARK SMILES Cc1ccc([C@H](CO)n2cc([C@@H]([NH2+]Cc3ccc4c(c3)OCO4)C(C)(C)C)nn2)cc1O
REMARK SMILES IDX 9 1 10 2 11 3 28 4 29 5 6 7 5 8 2 9 3 10 31 11 4 12 30 13
REMARK SMILES IDX 1 14 32 15 7 17 8 18 12 20 13 21 14 24 15 25 16 26 20 27
REMARK SMILES IDX 17 28 19 29 18 30 21 31 23 32 22 33 24 34 25 35 26 36 27 37
REMARK H PARENT 10 6 32 16 8 19 13 22 13 23
ROOT
ATOM     1   N1  UNL     1       0.114   1.811   0.544  1.00  0.00    -0.202 N   
ATOM     2   C8  UNL     1      -0.637   0.701   0.829  1.00  0.00     0.046 A   
ATOM     3   C9  UNL     1      -0.424  -0.136  -0.240  1.00  0.00     0.127 A   
ATOM     4   N3  UNL     1       0.369   0.505  -1.160  1.00  0.00    -0.132 NA  
ATOM     5   N4  UNL     1       0.674   1.699  -0.681  1.00  0.00    -0.075 NA  
ATOM     6   H10 UNL     1      -1.196   0.609   1.751  1.00  0.00     0.083 HD  
ENDROOT
BRANCH   1   7
ATOM     7   C6  UNL     1       0.370   2.991   1.370  1.00  0.00     0.155 C   
BRANCH   7   8
ATOM     8   C5  UNL     1       0.887   2.579   2.744  1.00  0.00    -0.021 A   
ATOM     9   C2  UNL     1       1.927   1.752   5.255  1.00  0.00    -0.021 A   
ATOM     10  C3  UNL     1       2.766   1.899   4.144  1.00  0.00     0.006 A   
ATOM     11  C24 UNL     1       0.567   2.028   5.091  1.00  0.00     0.074 A   
ATOM     12  C4  UNL     1       2.255   2.301   2.906  1.00  0.00     0.006 A   
ATOM     13  C23 UNL     1       0.051   2.430   3.857  1.00  0.00     0.039 A   
ATOM     14  C1  UNL     1       2.509   1.323   6.570  1.00  0.00     0.047 C   
BRANCH  11  15
ATOM     15  O4  UNL     1      -0.339   1.923   6.109  1.00  0.00    -0.361 OA  
ATOM     16  H31 UNL     1       0.128   1.759   6.943  1.00  0.00     0.218 HD  
ENDBRANCH  11  15
ENDBRANCH   7   8
BRANCH   7  17
ATOM     17  C7  UNL     1      -0.813   3.979   1.340  1.00  0.00     0.185 C   
BRANCH  17  18
ATOM     18  O1  UNL     1      -2.059   3.385   1.709  1.00  0.00    -0.394 OA  
ATOM     19  H9  UNL     1      -2.678   4.119   1.885  1.00  0.00     0.210 HD  
ENDBRANCH  17  18
ENDBRANCH   7  17
ENDBRANCH   1   7
BRANCH   3  20
ATOM     20  C10 UNL     1      -0.945  -1.508  -0.541  1.00  0.00     0.120 C   
BRANCH  20  21
ATOM     21  N2  UNL     1      -1.103  -1.638  -2.037  1.00  0.00     0.250 N   
ATOM     22  H12 UNL     1      -1.069  -2.608  -2.356  1.00  0.00     0.199 HD  
ATOM     23  H13 UNL     1      -0.282  -1.172  -2.457  1.00  0.00     0.199 HD  
BRANCH  21  24
ATOM     24  C11 UNL     1      -2.314  -0.986  -2.607  1.00  0.00     0.164 C   
BRANCH  24  25
ATOM     25  C12 UNL     1      -2.289  -1.073  -4.107  1.00  0.00    -0.002 A   
ATOM     26  C13 UNL     1      -1.791   0.007  -4.874  1.00  0.00     0.012 A   
ATOM     27  C17 UNL     1      -2.691  -2.256  -4.753  1.00  0.00     0.045 A   
ATOM     28  C14 UNL     1      -1.703  -0.081  -6.267  1.00  0.00     0.037 A   
ATOM     29  C16 UNL     1      -2.582  -2.313  -6.127  1.00  0.00     0.109 A   
ATOM     30  C15 UNL     1      -2.104  -1.257  -6.863  1.00  0.00     0.108 A   
ATOM     31  O2  UNL     1      -2.901  -3.385  -6.901  1.00  0.00    -0.316 OA  
ATOM     32  O3  UNL     1      -2.071  -1.527  -8.194  1.00  0.00    -0.316 OA  
ATOM     33  C18 UNL     1      -2.588  -2.875  -8.217  1.00  0.00     0.337 C   
ENDBRANCH  24  25
ENDBRANCH  21  24
ENDBRANCH  20  21
BRANCH  20  34
ATOM     34  C19 UNL     1      -0.049  -2.671   0.014  1.00  0.00     0.010 C   
ATOM     35  C20 UNL     1       1.351  -2.704  -0.634  1.00  0.00     0.017 C   
ATOM     36  C21 UNL     1      -0.733  -4.037  -0.234  1.00  0.00     0.017 C   
ATOM     37  C22 UNL     1       0.128  -2.531   1.543  1.00  0.00     0.017 C   
ENDBRANCH  20  34
ENDBRANCH   3  20
TORSDOF 10
