REMARK SMILES CC(C)(C)[C@H]([NH2+]Cc1ccc2c(c1)OCO2)c1cn(CC(=O)c2ccc(F)c(F)c2)nn1
REMARK SMILES IDX 17 1 18 2 19 3 31 4 32 5 5 7 2 8 1 9 3 10 4 11 6 12 7 15
REMARK SMILES IDX 8 16 9 17 13 18 10 19 12 20 11 21 14 22 16 23 15 24 20 25
REMARK SMILES IDX 21 26 22 27 23 28 24 29 30 30 25 31 28 32 26 33 29 34 27 35
REMARK H PARENT 18 6 6 13 6 14
ROOT
ATOM     1   C14 UNL     1      -1.336   0.843   1.192  1.00  0.00     0.127 A   
ATOM     2   C15 UNL     1      -0.449   1.873   1.413  1.00  0.00     0.046 A   
ATOM     3   N2  UNL     1       0.637   1.259   1.967  1.00  0.00    -0.204 N   
ATOM     4   N3  UNL     1       0.429  -0.063   2.103  1.00  0.00    -0.076 NA  
ATOM     5   N4  UNL     1      -0.775  -0.332   1.625  1.00  0.00    -0.132 NA  
ATOM     6   H20 UNL     1      -0.467   2.933   1.198  1.00  0.00     0.083 HD  
ENDROOT
BRANCH   1   7
ATOM     7   C5  UNL     1      -2.672   0.823   0.515  1.00  0.00     0.120 C   
BRANCH   7   8
ATOM     8   C2  UNL     1      -3.890   0.922   1.500  1.00  0.00     0.010 C   
ATOM     9   C1  UNL     1      -5.213   1.044   0.705  1.00  0.00     0.017 C   
ATOM     10  C3  UNL     1      -3.772   2.200   2.362  1.00  0.00     0.017 C   
ATOM     11  C4  UNL     1      -3.996  -0.292   2.442  1.00  0.00     0.017 C   
ENDBRANCH   7   8
BRANCH   7  12
ATOM     12  N1  UNL     1      -2.773  -0.432  -0.330  1.00  0.00     0.250 N   
ATOM     13  H11 UNL     1      -2.179  -1.138   0.137  1.00  0.00     0.199 HD  
ATOM     14  H12 UNL     1      -3.719  -0.820  -0.312  1.00  0.00     0.199 HD  
BRANCH  12  15
ATOM     15  C6  UNL     1      -2.325  -0.315  -1.748  1.00  0.00     0.164 C   
BRANCH  15  16
ATOM     16  C7  UNL     1      -0.833  -0.342  -1.912  1.00  0.00    -0.002 A   
ATOM     17  C8  UNL     1      -0.100   0.855  -2.097  1.00  0.00     0.012 A   
ATOM     18  C12 UNL     1      -0.146  -1.568  -1.857  1.00  0.00     0.045 A   
ATOM     19  C9  UNL     1       1.294   0.833  -2.222  1.00  0.00     0.037 A   
ATOM     20  C11 UNL     1       1.225  -1.556  -1.999  1.00  0.00     0.109 A   
ATOM     21  C10 UNL     1       1.927  -0.390  -2.173  1.00  0.00     0.108 A   
ATOM     22  O1  UNL     1       2.030  -2.650  -1.989  1.00  0.00    -0.316 OA  
ATOM     23  O2  UNL     1       3.263  -0.604  -2.286  1.00  0.00    -0.316 OA  
ATOM     24  C13 UNL     1       3.316  -2.046  -2.244  1.00  0.00     0.337 C   
ENDBRANCH  15  16
ENDBRANCH  12  15
ENDBRANCH   7  12
ENDBRANCH   1   7
BRANCH   3  25
ATOM     25  C16 UNL     1       1.902   1.847   2.339  1.00  0.00     0.214 C   
BRANCH  25  26
ATOM     26  C17 UNL     1       2.779   1.993   1.123  1.00  0.00     0.182 C   
ATOM     27  O3  UNL     1       2.561   2.880   0.296  1.00  0.00    -0.292 OA  
BRANCH  26  28
ATOM     28  C18 UNL     1       3.914   1.049   0.900  1.00  0.00     0.022 A   
ATOM     29  C19 UNL     1       4.001  -0.197   1.541  1.00  0.00     0.015 A   
ATOM     30  C23 UNL     1       4.912   1.429  -0.009  1.00  0.00     0.054 A   
ATOM     31  C20 UNL     1       5.086  -1.042   1.286  1.00  0.00     0.043 A   
ATOM     32  C22 UNL     1       5.982   0.576  -0.258  1.00  0.00     0.159 A   
ATOM     33  C21 UNL     1       6.072  -0.649   0.388  1.00  0.00     0.158 A   
ATOM     34  F2  UNL     1       6.931   0.951  -1.127  1.00  0.00    -0.204 F   
ATOM     35  F1  UNL     1       7.099  -1.472   0.140  1.00  0.00    -0.204 F   
ENDBRANCH  26  28
ENDBRANCH  25  26
ENDBRANCH   3  25
TORSDOF 8
