REMARK SMILES COc1ccc(CCn2cc([C@@H]([NH2+]Cc3ccc4c(c3)OCO4)C3CCCC3)nn2)cc1C
REMARK SMILES IDX 9 1 10 2 11 3 29 4 30 5 8 7 7 8 6 9 3 10 4 11 32 12 5 13
REMARK SMILES IDX 31 14 33 15 2 16 1 17 12 18 13 19 14 22 15 23 16 24 20 25
REMARK SMILES IDX 17 26 19 27 18 28 21 29 23 30 22 31 24 32 25 33 28 34 26 35
REMARK SMILES IDX 27 36
REMARK H PARENT 10 6 13 20 13 21
ROOT
ATOM     1   N1  UNL     1       1.587   1.682   2.302  1.00  0.00    -0.212 N   
ATOM     2   C8  UNL     1       1.179   2.346   1.179  1.00  0.00     0.045 A   
ATOM     3   C9  UNL     1       0.025   1.693   0.811  1.00  0.00     0.127 A   
ATOM     4   N3  UNL     1      -0.246   0.707   1.727  1.00  0.00    -0.132 NA  
ATOM     5   N4  UNL     1       0.715   0.714   2.636  1.00  0.00    -0.076 NA  
ATOM     6   H10 UNL     1       1.759   3.142   0.732  1.00  0.00     0.083 HD  
ENDROOT
BRANCH   1   7
ATOM     7   C7  UNL     1       2.839   1.833   3.014  1.00  0.00     0.139 C   
BRANCH   7   8
ATOM     8   C6  UNL     1       3.818   0.685   2.747  1.00  0.00     0.057 C   
BRANCH   8   9
ATOM     9   C5  UNL     1       4.083   0.453   1.276  1.00  0.00    -0.046 A   
ATOM     10  C2  UNL     1       4.478   0.046  -1.481  1.00  0.00     0.077 A   
ATOM     11  C3  UNL     1       4.961   1.200  -0.860  1.00  0.00     0.034 A   
ATOM     12  C25 UNL     1       3.792  -0.918  -0.725  1.00  0.00    -0.021 A   
ATOM     13  C4  UNL     1       4.774   1.398   0.511  1.00  0.00     0.006 A   
ATOM     14  C24 UNL     1       3.603  -0.707   0.650  1.00  0.00     0.010 A   
ATOM     15  C26 UNL     1       3.309  -2.193  -1.361  1.00  0.00     0.047 C   
BRANCH  10  16
ATOM     16  O1  UNL     1       4.591  -0.209  -2.823  1.00  0.00    -0.349 OA  
ATOM     17  C1  UNL     1       5.704   0.391  -3.481  1.00  0.00     0.203 C   
ENDBRANCH  10  16
ENDBRANCH   8   9
ENDBRANCH   7   8
ENDBRANCH   1   7
BRANCH   3  18
ATOM     18  C10 UNL     1      -0.833   1.825  -0.404  1.00  0.00     0.117 C   
BRANCH  18  19
ATOM     19  N2  UNL     1      -1.257   0.458  -0.865  1.00  0.00     0.249 N   
ATOM     20  H12 UNL     1      -2.079   0.486  -1.474  1.00  0.00     0.199 HD  
ATOM     21  H13 UNL     1      -1.541  -0.060  -0.019  1.00  0.00     0.199 HD  
BRANCH  19  22
ATOM     22  C11 UNL     1      -0.185  -0.343  -1.521  1.00  0.00     0.164 C   
BRANCH  22  23
ATOM     23  C12 UNL     1      -0.657  -1.750  -1.757  1.00  0.00    -0.002 A   
ATOM     24  C13 UNL     1      -0.527  -2.719  -0.733  1.00  0.00     0.012 A   
ATOM     25  C17 UNL     1      -1.283  -2.097  -2.965  1.00  0.00     0.045 A   
ATOM     26  C14 UNL     1      -0.997  -4.023  -0.915  1.00  0.00     0.037 A   
ATOM     27  C16 UNL     1      -1.739  -3.391  -3.110  1.00  0.00     0.109 A   
ATOM     28  C15 UNL     1      -1.599  -4.327  -2.115  1.00  0.00     0.108 A   
ATOM     29  O2  UNL     1      -2.370  -3.888  -4.205  1.00  0.00    -0.316 OA  
ATOM     30  O3  UNL     1      -2.118  -5.534  -2.462  1.00  0.00    -0.316 OA  
ATOM     31  C18 UNL     1      -2.591  -5.258  -3.798  1.00  0.00     0.337 C   
ENDBRANCH  22  23
ENDBRANCH  19  22
ENDBRANCH  18  19
BRANCH  18  32
ATOM     32  C19 UNL     1      -2.059   2.721  -0.151  1.00  0.00     0.043 C   
ATOM     33  C20 UNL     1      -3.134   2.159   0.785  1.00  0.00     0.010 C   
ATOM     34  C23 UNL     1      -2.833   3.107  -1.424  1.00  0.00     0.010 C   
ATOM     35  C21 UNL     1      -4.328   3.054   0.497  1.00  0.00     0.001 C   
ATOM     36  C22 UNL     1      -4.305   3.201  -1.017  1.00  0.00     0.001 C   
ENDBRANCH  18  32
ENDBRANCH   3  18
TORSDOF 9
