REMARK SMILES CCc1cc(-n2cc([C@@H]([NH2+]Cc3ccc4c(c3)OCO4)C(C)(C)C)nn2)ccc1O
REMARK SMILES IDX 6 1 7 2 8 3 25 4 26 5 5 6 3 7 4 8 29 9 28 10 27 11 2 12 1 13
REMARK SMILES IDX 30 14 9 16 10 17 11 20 12 21 13 22 17 23 14 24 16 25 15 26
REMARK SMILES IDX 18 27 20 28 19 29 21 30 22 31 23 32 24 33
REMARK H PARENT 30 15 10 18 10 19
ROOT
ATOM     1   N1  UNL     1       1.591  -0.747   0.619  1.00  0.00    -0.181 N   
ATOM     2   C6  UNL     1       1.494   0.496   1.219  1.00  0.00     0.135 A   
ATOM     3   C7  UNL     1       0.171   0.856   1.088  1.00  0.00     0.128 A   
ATOM     4   N3  UNL     1      -0.490  -0.122   0.400  1.00  0.00    -0.131 NA  
ATOM     5   N4  UNL     1       0.375  -1.081   0.115  1.00  0.00    -0.071 NA  
ENDROOT
BRANCH   1   6
ATOM     6   C5  UNL     1       2.721  -1.590   0.485  1.00  0.00     0.058 A   
ATOM     7   C3  UNL     1       3.691  -3.689  -0.333  1.00  0.00    -0.016 A   
ATOM     8   C4  UNL     1       2.590  -2.825  -0.175  1.00  0.00     0.032 A   
ATOM     9   C23 UNL     1       4.923  -3.289   0.195  1.00  0.00     0.075 A   
ATOM     10  C22 UNL     1       5.061  -2.067   0.850  1.00  0.00     0.035 A   
ATOM     11  C21 UNL     1       3.966  -1.213   0.999  1.00  0.00     0.028 A   
BRANCH   7  12
ATOM     12  C2  UNL     1       3.485  -5.005  -1.042  1.00  0.00     0.035 C   
ATOM     13  C1  UNL     1       3.290  -6.155  -0.065  1.00  0.00     0.009 C   
ENDBRANCH   7  12
BRANCH   9  14
ATOM     14  O3  UNL     1       6.057  -4.043   0.114  1.00  0.00    -0.361 OA  
ATOM     15  H29 UNL     1       5.862  -4.897  -0.301  1.00  0.00     0.218 HD  
ENDBRANCH   9  14
ENDBRANCH   1   6
BRANCH   3  16
ATOM     16  C8  UNL     1      -0.568   2.098   1.493  1.00  0.00     0.120 C   
BRANCH  16  17
ATOM     17  N2  UNL     1      -1.631   2.385   0.458  1.00  0.00     0.250 N   
ATOM     18  H9  UNL     1      -2.365   3.006   0.807  1.00  0.00     0.199 HD  
ATOM     19  H10 UNL     1      -2.095   1.487   0.251  1.00  0.00     0.199 HD  
BRANCH  17  20
ATOM     20  C9  UNL     1      -1.133   2.927  -0.838  1.00  0.00     0.164 C   
BRANCH  20  21
ATOM     21  C10 UNL     1      -2.266   3.069  -1.815  1.00  0.00    -0.002 A   
ATOM     22  C11 UNL     1      -2.627   1.980  -2.645  1.00  0.00     0.012 A   
ATOM     23  C15 UNL     1      -3.012   4.260  -1.869  1.00  0.00     0.045 A   
ATOM     24  C12 UNL     1      -3.707   2.079  -3.529  1.00  0.00     0.037 A   
ATOM     25  C14 UNL     1      -4.071   4.322  -2.751  1.00  0.00     0.109 A   
ATOM     26  C13 UNL     1      -4.408   3.264  -3.559  1.00  0.00     0.108 A   
ATOM     27  O1  UNL     1      -4.890   5.392  -2.925  1.00  0.00    -0.316 OA  
ATOM     28  O2  UNL     1      -5.479   3.536  -4.347  1.00  0.00    -0.316 OA  
ATOM     29  C16 UNL     1      -5.773   4.895  -3.957  1.00  0.00     0.337 C   
ENDBRANCH  20  21
ENDBRANCH  17  20
ENDBRANCH  16  17
BRANCH  16  30
ATOM     30  C17 UNL     1      -1.208   2.027   2.925  1.00  0.00     0.010 C   
ATOM     31  C18 UNL     1      -1.823   3.395   3.308  1.00  0.00     0.017 C   
ATOM     32  C19 UNL     1      -0.123   1.715   3.981  1.00  0.00     0.017 C   
ATOM     33  C20 UNL     1      -2.310   0.955   3.030  1.00  0.00     0.017 C   
ENDBRANCH  16  30
ENDBRANCH   3  16
TORSDOF 8
