REMARK SMILES Cc1cc(Cn2cc([C@@H]([NH2+]Cc3ccc4c(c3)OCO4)C3CCCC3)nn2)no1
REMARK SMILES IDX 6 1 7 2 8 3 26 4 27 5 5 7 4 8 2 9 3 10 29 11 28 12 1 13 9 14
REMARK SMILES IDX 10 15 11 18 12 19 13 20 17 21 14 22 16 23 15 24 18 25 20 26
REMARK SMILES IDX 19 27 21 28 22 29 25 30 23 31 24 32
REMARK H PARENT 7 6 10 16 10 17
ROOT
ATOM     1   N1  UNL     1      -2.353  -0.695  -2.080  1.00  0.00    -0.206 N   
ATOM     2   C6  UNL     1      -1.266   0.129  -2.199  1.00  0.00     0.046 A   
ATOM     3   C7  UNL     1      -0.827   0.293  -0.905  1.00  0.00     0.127 A   
ATOM     4   N3  UNL     1      -1.672  -0.378  -0.056  1.00  0.00    -0.132 NA  
ATOM     5   N4  UNL     1      -2.611  -0.960  -0.783  1.00  0.00    -0.076 NA  
ATOM     6   H7  UNL     1      -0.903   0.467  -3.161  1.00  0.00     0.083 HD  
ENDROOT
BRANCH   1   7
ATOM     7   C5  UNL     1      -3.200  -1.227  -3.134  1.00  0.00     0.192 C   
BRANCH   7   8
ATOM     8   C4  UNL     1      -2.524  -2.362  -3.810  1.00  0.00     0.090 A   
ATOM     9   C2  UNL     1      -1.864  -4.342  -4.510  1.00  0.00     0.084 A   
ATOM     10  C3  UNL     1      -2.738  -3.749  -3.632  1.00  0.00     0.059 A   
ATOM     11  O3  UNL     1      -1.163  -3.378  -5.164  1.00  0.00    -0.218 OA  
ATOM     12  N5  UNL     1      -1.577  -2.131  -4.730  1.00  0.00    -0.132 NA  
ATOM     13  C1  UNL     1      -1.548  -5.738  -4.862  1.00  0.00     0.075 C   
ENDBRANCH   7   8
ENDBRANCH   1   7
BRANCH   3  14
ATOM     14  C8  UNL     1       0.341   1.045  -0.348  1.00  0.00     0.117 C   
BRANCH  14  15
ATOM     15  N2  UNL     1       0.112   1.354   1.106  1.00  0.00     0.249 N   
ATOM     16  H9  UNL     1      -0.293   0.505   1.528  1.00  0.00     0.199 HD  
ATOM     17  H10 UNL     1       0.984   1.534   1.610  1.00  0.00     0.199 HD  
BRANCH  15  18
ATOM     18  C9  UNL     1      -0.839   2.467   1.377  1.00  0.00     0.164 C   
BRANCH  18  19
ATOM     19  C10 UNL     1      -1.046   2.626   2.857  1.00  0.00    -0.002 A   
ATOM     20  C11 UNL     1      -2.011   1.836   3.527  1.00  0.00     0.012 A   
ATOM     21  C15 UNL     1      -0.244   3.513   3.594  1.00  0.00     0.045 A   
ATOM     22  C12 UNL     1      -2.184   1.934   4.912  1.00  0.00     0.037 A   
ATOM     23  C14 UNL     1      -0.440   3.585   4.958  1.00  0.00     0.109 A   
ATOM     24  C13 UNL     1      -1.382   2.818   5.598  1.00  0.00     0.108 A   
ATOM     25  O1  UNL     1       0.248   4.385   5.813  1.00  0.00    -0.316 OA  
ATOM     26  O2  UNL     1      -1.407   3.041   6.938  1.00  0.00    -0.316 OA  
ATOM     27  C16 UNL     1      -0.382   4.048   7.071  1.00  0.00     0.337 C   
ENDBRANCH  18  19
ENDBRANCH  15  18
ENDBRANCH  14  15
BRANCH  14  28
ATOM     28  C17 UNL     1       1.657   0.266  -0.543  1.00  0.00     0.043 C   
ATOM     29  C18 UNL     1       2.927   1.045  -0.191  1.00  0.00     0.010 C   
ATOM     30  C21 UNL     1       1.819  -1.014   0.282  1.00  0.00     0.010 C   
ATOM     31  C19 UNL     1       4.008  -0.028  -0.201  1.00  0.00     0.001 C   
ATOM     32  C20 UNL     1       3.317  -1.318   0.239  1.00  0.00     0.001 C   
ENDBRANCH  14  28
ENDBRANCH   3  14
TORSDOF 7
