REMARK SMILES COc1cc(CCn2cc([C@@H]([NH2+]Cc3ccc4c(c3)OCO4)C(C)(C)C)nn2)ccn1
REMARK SMILES IDX 8 1 9 2 10 3 27 4 28 5 7 7 6 8 5 9 3 10 4 11 31 12 30 13
REMARK SMILES IDX 29 14 2 15 1 16 11 17 12 18 13 21 14 22 15 23 19 24 16 25
REMARK SMILES IDX 18 26 17 27 20 28 22 29 21 30 23 31 24 32 25 33 26 34
REMARK H PARENT 9 6 12 19 12 20
ROOT
ATOM     1   N1  UNL     1      -2.410   1.386  -1.027  1.00  0.00    -0.212 N   
ATOM     2   C7  UNL     1      -1.270   1.316  -0.278  1.00  0.00     0.045 A   
ATOM     3   C8  UNL     1      -0.256   1.399  -1.207  1.00  0.00     0.127 A   
ATOM     4   N3  UNL     1      -0.806   1.510  -2.461  1.00  0.00    -0.132 NA  
ATOM     5   N4  UNL     1      -2.123   1.497  -2.337  1.00  0.00    -0.076 NA  
ATOM     6   H9  UNL     1      -1.284   1.197   0.797  1.00  0.00     0.083 HD  
ENDROOT
BRANCH   1   7
ATOM     7   C6  UNL     1      -3.782   1.301  -0.572  1.00  0.00     0.139 C   
BRANCH   7   8
ATOM     8   C5  UNL     1      -4.441  -0.042  -0.897  1.00  0.00     0.057 C   
BRANCH   8   9
ATOM     9   C4  UNL     1      -3.701  -1.241  -0.353  1.00  0.00    -0.041 A   
ATOM     10  C2  UNL     1      -2.704  -2.474   1.446  1.00  0.00     0.166 A   
ATOM     11  C3  UNL     1      -3.426  -1.372   1.011  1.00  0.00     0.058 A   
ATOM     12  N5  UNL     1      -2.240  -3.437   0.625  1.00  0.00    -0.233 NA  
ATOM     13  C23 UNL     1      -2.568  -3.327  -0.679  1.00  0.00     0.114 A   
ATOM     14  C22 UNL     1      -3.276  -2.259  -1.211  1.00  0.00     0.024 A   
BRANCH  10  15
ATOM     15  O1  UNL     1      -2.416  -2.514   2.793  1.00  0.00    -0.333 OA  
ATOM     16  C1  UNL     1      -1.889  -3.769   3.214  1.00  0.00     0.205 C   
ENDBRANCH  10  15
ENDBRANCH   8   9
ENDBRANCH   7   8
ENDBRANCH   1   7
BRANCH   3  17
ATOM     17  C9  UNL     1       1.232   1.292  -1.057  1.00  0.00     0.120 C   
BRANCH  17  18
ATOM     18  N2  UNL     1       1.788   0.521  -2.238  1.00  0.00     0.250 N   
ATOM     19  H11 UNL     1       2.805   0.606  -2.292  1.00  0.00     0.199 HD  
ATOM     20  H12 UNL     1       1.397   0.966  -3.079  1.00  0.00     0.199 HD  
BRANCH  18  21
ATOM     21  C10 UNL     1       1.430  -0.928  -2.306  1.00  0.00     0.164 C   
BRANCH  21  22
ATOM     22  C11 UNL     1       2.077  -1.744  -1.222  1.00  0.00    -0.002 A   
ATOM     23  C12 UNL     1       1.304  -2.236  -0.144  1.00  0.00     0.012 A   
ATOM     24  C16 UNL     1       3.457  -2.009  -1.260  1.00  0.00     0.045 A   
ATOM     25  C13 UNL     1       1.890  -2.984   0.882  1.00  0.00     0.037 A   
ATOM     26  C15 UNL     1       4.005  -2.750  -0.232  1.00  0.00     0.109 A   
ATOM     27  C14 UNL     1       3.244  -3.225   0.807  1.00  0.00     0.108 A   
ATOM     28  O2  UNL     1       5.314  -3.096  -0.119  1.00  0.00    -0.316 OA  
ATOM     29  O3  UNL     1       3.978  -3.933   1.705  1.00  0.00    -0.316 OA  
ATOM     30  C17 UNL     1       5.282  -3.895   1.086  1.00  0.00     0.337 C   
ENDBRANCH  21  22
ENDBRANCH  18  21
ENDBRANCH  17  18
BRANCH  17  31
ATOM     31  C18 UNL     1       1.961   2.676  -0.916  1.00  0.00     0.010 C   
ATOM     32  C19 UNL     1       1.815   3.560  -2.171  1.00  0.00     0.017 C   
ATOM     33  C20 UNL     1       1.395   3.453   0.295  1.00  0.00     0.017 C   
ATOM     34  C21 UNL     1       3.469   2.463  -0.648  1.00  0.00     0.017 C   
ENDBRANCH  17  31
ENDBRANCH   3  17
TORSDOF 9
