REMARK SMILES CCc1ccsc1[C@@H](CO)n1cc([C@@H]([NH2+]Cc2ccc3c(c2)OCO3)C2CCCCC2)nn1
REMARK SMILES IDX 11 1 12 2 13 3 32 4 33 5 8 7 7 8 3 9 4 10 5 11 6 12 2 13
REMARK SMILES IDX 1 14 9 15 10 16 14 18 15 19 16 22 17 23 18 24 22 25 19 26
REMARK SMILES IDX 21 27 20 28 23 29 25 30 24 31 26 32 27 33 31 34 28 35 30 36
REMARK SMILES IDX 29 37
REMARK H PARENT 12 6 10 17 15 20 15 21
ROOT
ATOM     1   N1  UNL     1      -1.208  -1.580  -0.422  1.00  0.00    -0.202 N   
ATOM     2   C9  UNL     1      -0.137  -0.823  -0.016  1.00  0.00     0.046 A   
ATOM     3   C10 UNL     1      -0.379   0.420  -0.552  1.00  0.00     0.127 A   
ATOM     4   N3  UNL     1      -1.547   0.382  -1.269  1.00  0.00    -0.132 NA  
ATOM     5   N4  UNL     1      -2.042  -0.841  -1.185  1.00  0.00    -0.075 NA  
ATOM     6   H12 UNL     1       0.655  -1.230   0.597  1.00  0.00     0.083 HD  
ENDROOT
BRANCH   1   7
ATOM     7   C7  UNL     1      -1.462  -2.990  -0.118  1.00  0.00     0.162 C   
BRANCH   7   8
ATOM     8   C6  UNL     1      -2.161  -3.112   1.226  1.00  0.00     0.017 A   
ATOM     9   C3  UNL     1      -3.469  -2.832   1.617  1.00  0.00    -0.036 A   
ATOM     10  C4  UNL     1      -3.654  -3.102   3.019  1.00  0.00     0.012 A   
ATOM     11  C5  UNL     1      -2.519  -3.567   3.636  1.00  0.00     0.046 A   
ATOM     12  S1  UNL     1      -1.217  -3.690   2.551  1.00  0.00    -0.100 S   
BRANCH   9  13
ATOM     13  C2  UNL     1      -4.592  -2.308   0.760  1.00  0.00     0.033 C   
ATOM     14  C1  UNL     1      -5.605  -3.387   0.402  1.00  0.00     0.009 C   
ENDBRANCH   9  13
ENDBRANCH   7   8
BRANCH   7  15
ATOM     15  C8  UNL     1      -2.166  -3.760  -1.246  1.00  0.00     0.186 C   
BRANCH  15  16
ATOM     16  O1  UNL     1      -1.256  -3.986  -2.328  1.00  0.00    -0.394 OA  
ATOM     17  H11 UNL     1      -1.741  -4.495  -3.003  1.00  0.00     0.210 HD  
ENDBRANCH  15  16
ENDBRANCH   7  15
ENDBRANCH   1   7
BRANCH   3  18
ATOM     18  C11 UNL     1       0.412   1.688  -0.502  1.00  0.00     0.117 C   
BRANCH  18  19
ATOM     19  N2  UNL     1       0.173   2.491  -1.758  1.00  0.00     0.249 N   
ATOM     20  H14 UNL     1      -0.841   2.441  -1.933  1.00  0.00     0.199 HD  
ATOM     21  H15 UNL     1       0.408   3.477  -1.622  1.00  0.00     0.199 HD  
BRANCH  19  22
ATOM     22  C12 UNL     1       0.855   1.993  -2.990  1.00  0.00     0.164 C   
BRANCH  22  23
ATOM     23  C13 UNL     1       2.334   2.263  -2.976  1.00  0.00    -0.002 A   
ATOM     24  C14 UNL     1       2.827   3.567  -3.230  1.00  0.00     0.012 A   
ATOM     25  C18 UNL     1       3.239   1.228  -2.679  1.00  0.00     0.045 A   
ATOM     26  C15 UNL     1       4.199   3.837  -3.186  1.00  0.00     0.037 A   
ATOM     27  C17 UNL     1       4.584   1.530  -2.641  1.00  0.00     0.109 A   
ATOM     28  C16 UNL     1       5.052   2.797  -2.887  1.00  0.00     0.108 A   
ATOM     29  O2  UNL     1       5.583   0.650  -2.366  1.00  0.00    -0.316 OA  
ATOM     30  O3  UNL     1       6.405   2.872  -2.809  1.00  0.00    -0.316 OA  
ATOM     31  C19 UNL     1       6.743   1.501  -2.506  1.00  0.00     0.337 C   
ENDBRANCH  22  23
ENDBRANCH  19  22
ENDBRANCH  18  19
BRANCH  18  32
ATOM     32  C20 UNL     1       0.084   2.535   0.758  1.00  0.00     0.043 C   
ATOM     33  C21 UNL     1      -1.340   3.127   0.766  1.00  0.00     0.010 C   
ATOM     34  C25 UNL     1       1.127   3.650   0.977  1.00  0.00     0.010 C   
ATOM     35  C22 UNL     1      -1.611   3.922   2.043  1.00  0.00     0.001 C   
ATOM     36  C24 UNL     1       0.847   4.442   2.253  1.00  0.00     0.001 C   
ATOM     37  C23 UNL     1      -0.567   5.012   2.261  1.00  0.00     0.000 C   
ENDBRANCH  18  32
ENDBRANCH   3  18
TORSDOF 10
