REMARK SMILES CCc1ccsc1[C@H](CO)n1cc([C@@H]([NH2+]Cc2ccc3c(c2)OCO3)C2CCCCC2)nn1
REMARK SMILES IDX 11 1 12 2 13 3 32 4 33 5 8 7 7 8 3 9 4 10 5 11 6 12 2 13
REMARK SMILES IDX 1 14 9 15 10 16 14 18 15 19 16 22 17 23 18 24 22 25 19 26
REMARK SMILES IDX 21 27 20 28 23 29 25 30 24 31 26 32 27 33 31 34 28 35 30 36
REMARK SMILES IDX 29 37
REMARK H PARENT 12 6 10 17 15 20 15 21
ROOT
ATOM     1   N1  UNL     1       1.001   0.239  -1.563  1.00  0.00    -0.202 N   
ATOM     2   C9  UNL     1      -0.042   0.159  -0.675  1.00  0.00     0.046 A   
ATOM     3   C10 UNL     1       0.292   1.049   0.320  1.00  0.00     0.127 A   
ATOM     4   N3  UNL     1       1.483   1.649   0.002  1.00  0.00    -0.132 NA  
ATOM     5   N4  UNL     1       1.906   1.148  -1.146  1.00  0.00    -0.075 NA  
ATOM     6   H12 UNL     1      -0.861  -0.534  -0.810  1.00  0.00     0.083 HD  
ENDROOT
BRANCH   1   7
ATOM     7   C7  UNL     1       1.181  -0.535  -2.791  1.00  0.00     0.162 C   
BRANCH   7   8
ATOM     8   C6  UNL     1       1.432  -2.005  -2.466  1.00  0.00     0.017 A   
ATOM     9   C3  UNL     1       0.793  -3.125  -2.992  1.00  0.00    -0.036 A   
ATOM     10  C4  UNL     1       1.318  -4.335  -2.428  1.00  0.00     0.012 A   
ATOM     11  C5  UNL     1       2.319  -4.109  -1.515  1.00  0.00     0.046 A   
ATOM     12  S1  UNL     1       2.656  -2.451  -1.337  1.00  0.00    -0.100 S   
BRANCH   9  13
ATOM     13  C2  UNL     1      -0.297  -3.117  -4.032  1.00  0.00     0.033 C   
ATOM     14  C1  UNL     1      -1.681  -2.965  -3.415  1.00  0.00     0.009 C   
ENDBRANCH   9  13
ENDBRANCH   7   8
BRANCH   7  15
ATOM     15  C8  UNL     1       2.249   0.032  -3.744  1.00  0.00     0.186 C   
BRANCH  15  16
ATOM     16  O1  UNL     1       2.030  -0.456  -5.071  1.00  0.00    -0.394 OA  
ATOM     17  H11 UNL     1       2.858  -0.337  -5.569  1.00  0.00     0.210 HD  
ENDBRANCH  15  16
ENDBRANCH   7  15
ENDBRANCH   1   7
BRANCH   3  18
ATOM     18  C11 UNL     1      -0.364   1.356   1.631  1.00  0.00     0.117 C   
BRANCH  18  19
ATOM     19  N2  UNL     1       0.728   1.692   2.623  1.00  0.00     0.249 N   
ATOM     20  H14 UNL     1       1.461   0.982   2.489  1.00  0.00     0.199 HD  
ATOM     21  H15 UNL     1       1.185   2.559   2.311  1.00  0.00     0.199 HD  
BRANCH  19  22
ATOM     22  C12 UNL     1       0.398   1.752   4.068  1.00  0.00     0.164 C   
BRANCH  22  23
ATOM     23  C13 UNL     1      -0.011   0.418   4.628  1.00  0.00    -0.002 A   
ATOM     24  C14 UNL     1      -1.368   0.150   4.929  1.00  0.00     0.012 A   
ATOM     25  C18 UNL     1       0.953  -0.587   4.825  1.00  0.00     0.045 A   
ATOM     26  C15 UNL     1      -1.762  -1.102   5.417  1.00  0.00     0.037 A   
ATOM     27  C17 UNL     1       0.530  -1.808   5.308  1.00  0.00     0.109 A   
ATOM     28  C16 UNL     1      -0.788  -2.060   5.595  1.00  0.00     0.108 A   
ATOM     29  O2  UNL     1       1.328  -2.881   5.551  1.00  0.00    -0.316 OA  
ATOM     30  O3  UNL     1      -0.987  -3.322   6.054  1.00  0.00    -0.316 OA  
ATOM     31  C19 UNL     1       0.365  -3.829   6.063  1.00  0.00     0.337 C   
ENDBRANCH  22  23
ENDBRANCH  19  22
ENDBRANCH  18  19
BRANCH  18  32
ATOM     32  C20 UNL     1      -1.421   2.490   1.565  1.00  0.00     0.043 C   
ATOM     33  C21 UNL     1      -2.629   2.086   0.697  1.00  0.00     0.010 C   
ATOM     34  C25 UNL     1      -0.868   3.852   1.101  1.00  0.00     0.010 C   
ATOM     35  C22 UNL     1      -3.713   3.162   0.703  1.00  0.00     0.001 C   
ATOM     36  C24 UNL     1      -1.955   4.927   1.093  1.00  0.00     0.001 C   
ATOM     37  C23 UNL     1      -3.161   4.512   0.258  1.00  0.00     0.000 C   
ENDBRANCH  18  32
ENDBRANCH   3  18
TORSDOF 10
