REMARK SMILES Cc1c(N([O-])[O-])cccc1-n1cc([C@@H]([NH2+]Cc2ccc3c(c2)OCO3)C2CCCC2)nn1
REMARK SMILES IDX 11 1 12 2 13 3 31 4 32 5 10 6 2 7 3 8 9 9 7 10 8 11 1 12
REMARK SMILES IDX 4 13 5 14 6 15 14 16 15 17 16 20 17 21 18 22 22 23 19 24
REMARK SMILES IDX 21 25 20 26 23 27 25 28 24 29 26 30 27 31 30 32 28 33 29 34
REMARK H PARENT 15 18 15 19
ROOT
ATOM     1   N1  UNL     1      -0.087   1.339   0.645  1.00  0.00    -0.180 N   
ATOM     2   C4  UNL     1       0.370   0.379  -0.247  1.00  0.00     0.135 A   
ATOM     3   C5  UNL     1      -0.693  -0.474  -0.439  1.00  0.00     0.127 A   
ATOM     4   N3  UNL     1      -1.774   0.003   0.238  1.00  0.00    -0.131 NA  
ATOM     5   N4  UNL     1      -1.401   1.097   0.878  1.00  0.00    -0.071 NA  
ENDROOT
BRANCH   1   6
ATOM     6   C3  UNL     1       0.655   2.369   1.309  1.00  0.00     0.063 A   
ATOM     7   C2  UNL     1       0.083   3.222   2.294  1.00  0.00     0.001 A   
ATOM     8   C23 UNL     1       0.962   4.113   2.961  1.00  0.00     0.122 A   
ATOM     9   C20 UNL     1       2.028   2.500   0.993  1.00  0.00     0.026 A   
ATOM     10  C22 UNL     1       2.320   4.229   2.642  1.00  0.00     0.031 A   
ATOM     11  C21 UNL     1       2.846   3.426   1.644  1.00  0.00     0.004 A   
ATOM     12  C1  UNL     1      -1.385   3.209   2.652  1.00  0.00     0.049 C   
BRANCH   8  13
ATOM     13  N5  UNL     1       0.500   4.932   4.071  1.00  0.00     0.092 N   
ATOM     14  O3  UNL     1       0.501   6.158   3.902  1.00  0.00    -0.138 OA  
ATOM     15  O4  UNL     1       0.162   4.333   5.101  1.00  0.00    -0.138 OA  
ENDBRANCH   8  13
ENDBRANCH   1   6
BRANCH   3  16
ATOM     16  C6  UNL     1      -0.790  -1.800  -1.122  1.00  0.00     0.117 C   
BRANCH  16  17
ATOM     17  N2  UNL     1      -1.486  -2.778  -0.190  1.00  0.00     0.249 N   
ATOM     18  H6  UNL     1      -2.165  -2.222   0.353  1.00  0.00     0.199 HD  
ATOM     19  H7  UNL     1      -2.044  -3.454  -0.719  1.00  0.00     0.199 HD  
BRANCH  17  20
ATOM     20  C7  UNL     1      -0.617  -3.529   0.767  1.00  0.00     0.164 C   
BRANCH  20  21
ATOM     21  C8  UNL     1       0.128  -2.661   1.744  1.00  0.00    -0.002 A   
ATOM     22  C9  UNL     1       1.532  -2.507   1.641  1.00  0.00     0.012 A   
ATOM     23  C13 UNL     1      -0.570  -1.959   2.743  1.00  0.00     0.045 A   
ATOM     24  C10 UNL     1       2.227  -1.645   2.498  1.00  0.00     0.037 A   
ATOM     25  C12 UNL     1       0.145  -1.114   3.568  1.00  0.00     0.109 A   
ATOM     26  C11 UNL     1       1.503  -0.957   3.445  1.00  0.00     0.108 A   
ATOM     27  O1  UNL     1      -0.379  -0.345   4.557  1.00  0.00    -0.316 OA  
ATOM     28  O2  UNL     1       2.004  -0.065   4.338  1.00  0.00    -0.316 OA  
ATOM     29  C14 UNL     1       0.810   0.292   5.072  1.00  0.00     0.337 C   
ENDBRANCH  20  21
ENDBRANCH  17  20
ENDBRANCH  16  17
BRANCH  16  30
ATOM     30  C15 UNL     1      -1.590  -1.716  -2.436  1.00  0.00     0.043 C   
ATOM     31  C16 UNL     1      -1.669  -3.039  -3.210  1.00  0.00     0.010 C   
ATOM     32  C19 UNL     1      -0.962  -0.776  -3.471  1.00  0.00     0.010 C   
ATOM     33  C17 UNL     1      -1.890  -2.655  -4.674  1.00  0.00     0.001 C   
ATOM     34  C18 UNL     1      -1.681  -1.147  -4.758  1.00  0.00     0.001 C   
ENDBRANCH  16  30
ENDBRANCH   3  16
TORSDOF 7
