REMARK SMILES Cc1nn(C)c(Cl)c1CCn1cc([C@@H]([NH2+]Cc2ccc3c(c2)OCO3)C(C)C)nn1
REMARK SMILES IDX 11 1 12 2 13 3 29 4 30 5 10 7 9 8 8 9 2 10 3 11 4 12 6 13
REMARK SMILES IDX 1 14 5 15 7 16 14 17 15 18 16 21 17 22 18 23 22 24 19 25
REMARK SMILES IDX 21 26 20 27 23 28 25 29 24 30 26 31 27 32 28 33
REMARK H PARENT 12 6 15 19 15 20
ROOT
ATOM     1   N3  UNL     1      -2.232  -3.308  -0.161  1.00  0.00    -0.212 N   
ATOM     2   C8  UNL     1      -2.437  -2.427  -1.193  1.00  0.00     0.045 A   
ATOM     3   C9  UNL     1      -1.161  -2.033  -1.536  1.00  0.00     0.127 A   
ATOM     4   N5  UNL     1      -0.255  -2.801  -0.850  1.00  0.00    -0.132 NA  
ATOM     5   N6  UNL     1      -0.925  -3.603  -0.037  1.00  0.00    -0.076 NA  
ATOM     6   H11 UNL     1      -3.419  -2.051  -1.441  1.00  0.00     0.083 HD  
ENDROOT
BRANCH   1   7
ATOM     7   C7  UNL     1      -3.145  -3.562   0.940  1.00  0.00     0.139 C   
BRANCH   7   8
ATOM     8   C6  UNL     1      -2.857  -2.667   2.164  1.00  0.00     0.062 C   
BRANCH   8   9
ATOM     9   C5  UNL     1      -2.592  -1.237   1.792  1.00  0.00     0.011 A   
ATOM     10  C2  UNL     1      -1.332  -0.569   1.695  1.00  0.00     0.062 A   
ATOM     11  N1  UNL     1      -1.440   0.593   1.019  1.00  0.00    -0.185 NA  
ATOM     12  N2  UNL     1      -2.782   0.820   1.014  1.00  0.00    -0.217 N   
ATOM     13  C4  UNL     1      -3.489  -0.289   1.367  1.00  0.00     0.121 A   
ATOM     14  C1  UNL     1       0.007  -1.045   2.141  1.00  0.00     0.069 C   
ATOM     15  C3  UNL     1      -3.293   2.102   0.587  1.00  0.00     0.161 C   
ATOM     16  CL1 UNL     1      -5.179  -0.346   1.195  1.00  0.00    -0.065 Cl  
ENDBRANCH   8   9
ENDBRANCH   7   8
ENDBRANCH   1   7
BRANCH   3  17
ATOM     17  C10 UNL     1      -0.696  -0.845  -2.319  1.00  0.00     0.117 C   
BRANCH  17  18
ATOM     18  N4  UNL     1       0.187  -0.030  -1.413  1.00  0.00     0.249 N   
ATOM     19  H13 UNL     1       0.959  -0.631  -1.092  1.00  0.00     0.199 HD  
ATOM     20  H14 UNL     1      -0.347   0.151  -0.537  1.00  0.00     0.199 HD  
BRANCH  18  21
ATOM     21  C11 UNL     1       0.697   1.278  -1.872  1.00  0.00     0.164 C   
BRANCH  21  22
ATOM     22  C12 UNL     1       1.693   1.836  -0.892  1.00  0.00    -0.002 A   
ATOM     23  C13 UNL     1       1.263   2.622   0.202  1.00  0.00     0.012 A   
ATOM     24  C17 UNL     1       3.058   1.528  -1.026  1.00  0.00     0.045 A   
ATOM     25  C14 UNL     1       2.177   3.106   1.144  1.00  0.00     0.037 A   
ATOM     26  C16 UNL     1       3.933   2.022  -0.081  1.00  0.00     0.109 A   
ATOM     27  C15 UNL     1       3.506   2.790   0.974  1.00  0.00     0.108 A   
ATOM     28  O1  UNL     1       5.277   1.819  -0.064  1.00  0.00    -0.316 OA  
ATOM     29  O2  UNL     1       4.527   3.169   1.786  1.00  0.00    -0.316 OA  
ATOM     30  C18 UNL     1       5.654   2.565   1.115  1.00  0.00     0.337 C   
ENDBRANCH  21  22
ENDBRANCH  18  21
ENDBRANCH  17  18
BRANCH  17  31
ATOM     31  C19 UNL     1       0.006  -1.201  -3.654  1.00  0.00     0.037 C   
ATOM     32  C20 UNL     1       1.333  -1.953  -3.504  1.00  0.00     0.014 C   
ATOM     33  C21 UNL     1      -0.930  -1.987  -4.582  1.00  0.00     0.014 C   
ENDBRANCH  17  31
ENDBRANCH   3  17
TORSDOF 8
