REMARK SMILES CC(C)[C@H]([NH2+]Cc1ccc2c(c1)OCO2)c1cn(CCc2ccc(O)c(Cl)c2)nn1
REMARK SMILES IDX 16 1 17 2 18 3 29 4 30 5 4 7 2 8 1 9 3 10 5 11 6 14 7 15
REMARK SMILES IDX 8 16 12 17 9 18 11 19 10 20 13 21 15 22 14 23 19 24 20 25
REMARK SMILES IDX 21 26 22 27 28 28 23 29 26 30 24 31 27 32 25 33
REMARK H PARENT 17 6 5 12 5 13 25 34
ROOT
ATOM     1   C13 UNL     1       0.085  -2.254  -0.065  1.00  0.00     0.127 A   
ATOM     2   C14 UNL     1      -1.208  -2.714  -0.172  1.00  0.00     0.045 A   
ATOM     3   N2  UNL     1      -1.577  -2.959   1.121  1.00  0.00    -0.212 N   
ATOM     4   N3  UNL     1      -0.565  -2.704   1.969  1.00  0.00    -0.076 NA  
ATOM     5   N4  UNL     1       0.458  -2.265   1.255  1.00  0.00    -0.132 NA  
ATOM     6   H18 UNL     1      -1.889  -2.837  -1.004  1.00  0.00     0.083 HD  
ENDROOT
BRANCH   1   7
ATOM     7   C4  UNL     1       1.020  -1.706  -1.095  1.00  0.00     0.117 C   
BRANCH   7   8
ATOM     8   C2  UNL     1       1.907  -2.807  -1.732  1.00  0.00     0.037 C   
ATOM     9   C1  UNL     1       2.597  -2.308  -3.007  1.00  0.00     0.014 C   
ATOM     10  C3  UNL     1       2.953  -3.398  -0.779  1.00  0.00     0.014 C   
ENDBRANCH   7   8
BRANCH   7  11
ATOM     11  N1  UNL     1       1.874  -0.624  -0.494  1.00  0.00     0.249 N   
ATOM     12  H9  UNL     1       2.705  -0.428  -1.058  1.00  0.00     0.199 HD  
ATOM     13  H10 UNL     1       2.213  -0.983   0.410  1.00  0.00     0.199 HD  
BRANCH  11  14
ATOM     14  C5  UNL     1       1.165   0.658  -0.215  1.00  0.00     0.164 C   
BRANCH  14  15
ATOM     15  C6  UNL     1       2.084   1.617   0.487  1.00  0.00    -0.002 A   
ATOM     16  C7  UNL     1       2.234   1.551   1.894  1.00  0.00     0.012 A   
ATOM     17  C11 UNL     1       2.844   2.540  -0.249  1.00  0.00     0.045 A   
ATOM     18  C8  UNL     1       3.124   2.400   2.561  1.00  0.00     0.037 A   
ATOM     19  C10 UNL     1       3.713   3.360   0.440  1.00  0.00     0.109 A   
ATOM     20  C9  UNL     1       3.851   3.291   1.804  1.00  0.00     0.108 A   
ATOM     21  O1  UNL     1       4.520   4.301  -0.118  1.00  0.00    -0.316 OA  
ATOM     22  O2  UNL     1       4.762   4.180   2.278  1.00  0.00    -0.316 OA  
ATOM     23  C12 UNL     1       5.175   4.830   1.057  1.00  0.00     0.337 C   
ENDBRANCH  14  15
ENDBRANCH  11  14
ENDBRANCH   7  11
ENDBRANCH   1   7
BRANCH   3  24
ATOM     24  C15 UNL     1      -2.894  -3.304   1.617  1.00  0.00     0.139 C   
BRANCH  24  25
ATOM     25  C16 UNL     1      -3.581  -2.146   2.349  1.00  0.00     0.057 C   
BRANCH  25  26
ATOM     26  C17 UNL     1      -3.650  -0.881   1.520  1.00  0.00    -0.045 A   
ATOM     27  C18 UNL     1      -2.804   0.200   1.820  1.00  0.00     0.006 A   
ATOM     28  C22 UNL     1      -4.511  -0.791   0.416  1.00  0.00     0.027 A   
ATOM     29  C19 UNL     1      -2.799   1.342   1.018  1.00  0.00     0.035 A   
ATOM     30  C21 UNL     1      -4.502   0.352  -0.386  1.00  0.00     0.071 A   
ATOM     31  C20 UNL     1      -3.640   1.408  -0.087  1.00  0.00     0.090 A   
ATOM     32  CL1 UNL     1      -5.534   0.430  -1.762  1.00  0.00    -0.081 Cl  
BRANCH  31  33
ATOM     33  O3  UNL     1      -3.573   2.536  -0.856  1.00  0.00    -0.359 OA  
ATOM     34  H25 UNL     1      -4.316   2.502  -1.490  1.00  0.00     0.218 HD  
ENDBRANCH  31  33
ENDBRANCH  25  26
ENDBRANCH  24  25
ENDBRANCH   3  24
TORSDOF 9
