REMARK SMILES COc1ccc(CCn2cc([C@@H]([NH2+]Cc3ccc4c(c3)OCO4)C(C)C)nn2)cc1F
REMARK SMILES IDX 9 1 10 2 11 3 27 4 28 5 8 7 7 8 6 9 3 10 4 11 30 12 5 13
REMARK SMILES IDX 29 14 31 15 2 16 1 17 12 18 13 19 14 22 15 23 16 24 20 25
REMARK SMILES IDX 17 26 19 27 18 28 21 29 23 30 22 31 24 32 25 33 26 34
REMARK H PARENT 10 6 13 20 13 21
ROOT
ATOM     1   N1  UNL     1       2.240   1.488  -2.420  1.00  0.00    -0.212 N   
ATOM     2   C8  UNL     1       0.895   1.252  -2.365  1.00  0.00     0.045 A   
ATOM     3   C9  UNL     1       0.555   1.572  -1.069  1.00  0.00     0.127 A   
ATOM     4   N3  UNL     1       1.668   2.029  -0.412  1.00  0.00    -0.132 NA  
ATOM     5   N4  UNL     1       2.691   1.976  -1.250  1.00  0.00    -0.076 NA  
ATOM     6   H10 UNL     1       0.345   0.838  -3.199  1.00  0.00     0.083 HD  
ENDROOT
BRANCH   1   7
ATOM     7   C7  UNL     1       3.162   1.133  -3.482  1.00  0.00     0.139 C   
BRANCH   7   8
ATOM     8   C6  UNL     1       4.023  -0.092  -3.144  1.00  0.00     0.057 C   
BRANCH   8   9
ATOM     9   C5  UNL     1       3.194  -1.312  -2.811  1.00  0.00    -0.043 A   
ATOM     10  C2  UNL     1       1.472  -3.456  -2.179  1.00  0.00     0.110 A   
ATOM     11  C3  UNL     1       1.848  -3.219  -3.502  1.00  0.00     0.037 A   
ATOM     12  C23 UNL     1       1.973  -2.618  -1.181  1.00  0.00     0.153 A   
ATOM     13  C4  UNL     1       2.697  -2.150  -3.817  1.00  0.00     0.006 A   
ATOM     14  C22 UNL     1       2.840  -1.572  -1.482  1.00  0.00     0.045 A   
ATOM     15  F1  UNL     1       1.589  -2.776   0.096  1.00  0.00    -0.204 F   
BRANCH  10  16
ATOM     16  O1  UNL     1       0.610  -4.433  -1.762  1.00  0.00    -0.346 OA  
ATOM     17  C1  UNL     1       0.382  -5.509  -2.667  1.00  0.00     0.203 C   
ENDBRANCH  10  16
ENDBRANCH   8   9
ENDBRANCH   7   8
ENDBRANCH   1   7
BRANCH   3  18
ATOM     18  C10 UNL     1      -0.736   1.421  -0.331  1.00  0.00     0.117 C   
BRANCH  18  19
ATOM     19  N2  UNL     1      -0.489   1.068   1.110  1.00  0.00     0.249 N   
ATOM     20  H12 UNL     1      -1.333   1.187   1.679  1.00  0.00     0.199 HD  
ATOM     21  H13 UNL     1       0.207   1.736   1.473  1.00  0.00     0.199 HD  
BRANCH  19  22
ATOM     22  C11 UNL     1       0.060  -0.301   1.350  1.00  0.00     0.164 C   
BRANCH  22  23
ATOM     23  C12 UNL     1       0.103  -0.592   2.824  1.00  0.00    -0.002 A   
ATOM     24  C13 UNL     1       1.161  -0.088   3.621  1.00  0.00     0.012 A   
ATOM     25  C17 UNL     1      -0.933  -1.325   3.428  1.00  0.00     0.045 A   
ATOM     26  C14 UNL     1       1.188  -0.314   5.002  1.00  0.00     0.037 A   
ATOM     27  C16 UNL     1      -0.871  -1.533   4.790  1.00  0.00     0.109 A   
ATOM     28  C15 UNL     1       0.155  -1.041   5.556  1.00  0.00     0.108 A   
ATOM     29  O2  UNL     1      -1.786  -2.220   5.526  1.00  0.00    -0.316 OA  
ATOM     30  O3  UNL     1       0.019  -1.355   6.871  1.00  0.00    -0.316 OA  
ATOM     31  C18 UNL     1      -1.188  -2.150   6.840  1.00  0.00     0.337 C   
ENDBRANCH  22  23
ENDBRANCH  19  22
ENDBRANCH  18  19
BRANCH  18  32
ATOM     32  C19 UNL     1      -1.624   2.690  -0.433  1.00  0.00     0.037 C   
ATOM     33  C20 UNL     1      -1.074   3.901   0.331  1.00  0.00     0.014 C   
ATOM     34  C21 UNL     1      -3.064   2.412   0.015  1.00  0.00     0.014 C   
ENDBRANCH  18  32
ENDBRANCH   3  18
TORSDOF 9
