REMARK SMILES Oc1cccc(Cn2cc([C@@H]([NH2+]Cc3ccc4c(c3)OCO4)C3CCCC3)nn2)c1
REMARK SMILES IDX 8 1 9 2 10 3 28 4 29 5 7 7 6 8 2 9 3 10 30 11 4 12 5 13 1 14
REMARK SMILES IDX 11 16 12 17 13 20 14 21 15 22 19 23 16 24 18 25 17 26 20 27
REMARK SMILES IDX 22 28 21 29 23 30 24 31 27 32 25 33 26 34
REMARK H PARENT 9 6 1 15 12 18 12 19
ROOT
ATOM     1   N1  UNL     1       0.235   1.355  -2.922  1.00  0.00    -0.208 N   
ATOM     2   C7  UNL     1      -0.376   0.745  -1.860  1.00  0.00     0.046 A   
ATOM     3   C8  UNL     1      -0.477   1.743  -0.917  1.00  0.00     0.127 A   
ATOM     4   N3  UNL     1       0.017   2.910  -1.440  1.00  0.00    -0.132 NA  
ATOM     5   N4  UNL     1       0.456   2.659  -2.663  1.00  0.00    -0.076 NA  
ATOM     6   H7  UNL     1      -0.617  -0.309  -1.858  1.00  0.00     0.083 HD  
ENDROOT
BRANCH   1   7
ATOM     7   C6  UNL     1       0.719   0.747  -4.152  1.00  0.00     0.169 C   
BRANCH   7   8
ATOM     8   C5  UNL     1       1.754  -0.313  -3.857  1.00  0.00    -0.026 A   
ATOM     9   C1  UNL     1       3.886  -0.963  -2.907  1.00  0.00     0.072 A   
ATOM     10  C2  UNL     1       3.662  -2.289  -3.257  1.00  0.00     0.033 A   
ATOM     11  C23 UNL     1       2.954   0.023  -3.210  1.00  0.00     0.038 A   
ATOM     12  C3  UNL     1       2.482  -2.631  -3.917  1.00  0.00     0.003 A   
ATOM     13  C4  UNL     1       1.531  -1.651  -4.215  1.00  0.00     0.005 A   
BRANCH   9  14
ATOM     14  O1  UNL     1       5.013  -0.583  -2.243  1.00  0.00    -0.361 OA  
ATOM     15  H1  UNL     1       5.648  -1.320  -2.262  1.00  0.00     0.218 HD  
ENDBRANCH   9  14
ENDBRANCH   7   8
ENDBRANCH   1   7
BRANCH   3  16
ATOM     16  C9  UNL     1      -0.924   1.698   0.505  1.00  0.00     0.117 C   
BRANCH  16  17
ATOM     17  N2  UNL     1       0.028   2.488   1.381  1.00  0.00     0.249 N   
ATOM     18  H9  UNL     1      -0.317   2.515   2.344  1.00  0.00     0.199 HD  
ATOM     19  H10 UNL     1       0.023   3.453   1.023  1.00  0.00     0.199 HD  
BRANCH  17  20
ATOM     20  C10 UNL     1       1.457   2.039   1.397  1.00  0.00     0.164 C   
BRANCH  20  21
ATOM     21  C11 UNL     1       1.633   0.607   1.819  1.00  0.00    -0.002 A   
ATOM     22  C12 UNL     1       2.103  -0.352   0.889  1.00  0.00     0.012 A   
ATOM     23  C16 UNL     1       1.314   0.201   3.127  1.00  0.00     0.045 A   
ATOM     24  C13 UNL     1       2.243  -1.697   1.246  1.00  0.00     0.037 A   
ATOM     25  C15 UNL     1       1.462  -1.133   3.446  1.00  0.00     0.109 A   
ATOM     26  C14 UNL     1       1.911  -2.056   2.533  1.00  0.00     0.108 A   
ATOM     27  O2  UNL     1       1.192  -1.689   4.656  1.00  0.00    -0.316 OA  
ATOM     28  O3  UNL     1       1.983  -3.308   3.054  1.00  0.00    -0.316 OA  
ATOM     29  C17 UNL     1       1.552  -3.068   4.411  1.00  0.00     0.337 C   
ENDBRANCH  20  21
ENDBRANCH  17  20
ENDBRANCH  16  17
BRANCH  16  30
ATOM     30  C18 UNL     1      -2.341   2.278   0.683  1.00  0.00     0.043 C   
ATOM     31  C19 UNL     1      -3.417   1.489  -0.070  1.00  0.00     0.010 C   
ATOM     32  C22 UNL     1      -2.867   2.226   2.121  1.00  0.00     0.010 C   
ATOM     33  C20 UNL     1      -4.723   1.960   0.554  1.00  0.00     0.001 C   
ATOM     34  C21 UNL     1      -4.385   2.334   1.994  1.00  0.00     0.001 C   
ENDBRANCH  16  30
ENDBRANCH   3  16
TORSDOF 8
