REMARK SMILES Cc1c(N([O-])[O-])cccc1-n1cc([C@@H]([NH2+]Cc2ccc3c(c2)OCO3)C2CCCCC2)nn1
REMARK SMILES IDX 11 1 12 2 13 3 32 4 33 5 10 6 2 7 3 8 9 9 7 10 8 11 1 12
REMARK SMILES IDX 4 13 5 14 6 15 14 16 15 17 16 20 17 21 18 22 22 23 19 24
REMARK SMILES IDX 21 25 20 26 23 27 25 28 24 29 26 30 27 31 31 32 28 33 30 34
REMARK SMILES IDX 29 35
REMARK H PARENT 15 18 15 19
ROOT
ATOM     1   N1  UNL     1       0.053   0.930   2.301  1.00  0.00    -0.180 N   
ATOM     2   C4  UNL     1       0.197  -0.126   1.414  1.00  0.00     0.135 A   
ATOM     3   C5  UNL     1       0.337   0.454   0.173  1.00  0.00     0.127 A   
ATOM     4   N3  UNL     1       0.243   1.806   0.304  1.00  0.00    -0.131 NA  
ATOM     5   N4  UNL     1       0.057   2.079   1.583  1.00  0.00    -0.071 NA  
ENDROOT
BRANCH   1   6
ATOM     6   C3  UNL     1      -0.054   0.891   3.727  1.00  0.00     0.063 A   
ATOM     7   C2  UNL     1      -0.391   2.033   4.507  1.00  0.00     0.001 A   
ATOM     8   C24 UNL     1      -0.352   1.885   5.917  1.00  0.00     0.122 A   
ATOM     9   C21 UNL     1       0.217  -0.336   4.375  1.00  0.00     0.026 A   
ATOM     10  C23 UNL     1      -0.077   0.664   6.546  1.00  0.00     0.031 A   
ATOM     11  C22 UNL     1       0.196  -0.449   5.767  1.00  0.00     0.004 A   
ATOM     12  C1  UNL     1      -0.802   3.355   3.902  1.00  0.00     0.049 C   
BRANCH   8  13
ATOM     13  N5  UNL     1      -0.581   3.022   6.801  1.00  0.00     0.092 N   
ATOM     14  O3  UNL     1      -1.536   2.938   7.583  1.00  0.00    -0.138 OA  
ATOM     15  O4  UNL     1       0.206   3.973   6.708  1.00  0.00    -0.138 OA  
ENDBRANCH   8  13
ENDBRANCH   1   6
BRANCH   3  16
ATOM     16  C6  UNL     1       0.499  -0.149  -1.190  1.00  0.00     0.117 C   
BRANCH  16  17
ATOM     17  N2  UNL     1      -0.355   0.623  -2.180  1.00  0.00     0.249 N   
ATOM     18  H6  UNL     1      -0.073   1.611  -2.104  1.00  0.00     0.199 HD  
ATOM     19  H7  UNL     1      -0.161   0.324  -3.137  1.00  0.00     0.199 HD  
BRANCH  17  20
ATOM     20  C7  UNL     1      -1.836   0.562  -1.980  1.00  0.00     0.164 C   
BRANCH  20  21
ATOM     21  C8  UNL     1      -2.383  -0.832  -2.122  1.00  0.00    -0.002 A   
ATOM     22  C9  UNL     1      -2.462  -1.447  -3.395  1.00  0.00     0.012 A   
ATOM     23  C13 UNL     1      -2.777  -1.552  -0.981  1.00  0.00     0.045 A   
ATOM     24  C10 UNL     1      -2.914  -2.764  -3.529  1.00  0.00     0.037 A   
ATOM     25  C12 UNL     1      -3.215  -2.849  -1.148  1.00  0.00     0.109 A   
ATOM     26  C11 UNL     1      -3.281  -3.439  -2.386  1.00  0.00     0.108 A   
ATOM     27  O1  UNL     1      -3.612  -3.683  -0.152  1.00  0.00    -0.316 OA  
ATOM     28  O2  UNL     1      -3.733  -4.718  -2.326  1.00  0.00    -0.316 OA  
ATOM     29  C14 UNL     1      -3.979  -4.859  -0.911  1.00  0.00     0.337 C   
ENDBRANCH  20  21
ENDBRANCH  17  20
ENDBRANCH  16  17
BRANCH  16  30
ATOM     30  C15 UNL     1       1.985  -0.125  -1.672  1.00  0.00     0.043 C   
ATOM     31  C16 UNL     1       2.201  -0.714  -3.085  1.00  0.00     0.010 C   
ATOM     32  C20 UNL     1       2.934  -0.877  -0.709  1.00  0.00     0.010 C   
ATOM     33  C17 UNL     1       1.957  -2.222  -3.138  1.00  0.00     0.001 C   
ATOM     34  C19 UNL     1       2.709  -2.390  -0.722  1.00  0.00     0.001 C   
ATOM     35  C18 UNL     1       2.830  -2.965  -2.130  1.00  0.00     0.000 C   
ENDBRANCH  16  30
ENDBRANCH   3  16
TORSDOF 7
