REMARK SMILES Cc1ccc(O)c(Cn2cc([C@@H]([NH2+]Cc3ccc4c(c3)OCO4)C3CCCC3)nn2)n1
REMARK SMILES IDX 9 1 10 2 11 3 29 4 30 5 8 7 7 8 2 9 3 10 31 11 4 12 5 13
REMARK SMILES IDX 1 14 6 15 12 17 13 18 14 21 15 22 16 23 20 24 17 25 19 26
REMARK SMILES IDX 18 27 21 28 23 29 22 30 24 31 25 32 28 33 26 34 27 35
REMARK H PARENT 10 6 6 16 13 19 13 20
ROOT
ATOM     1   N1  UNL     1       1.386  -2.171  -1.333  1.00  0.00    -0.206 N   
ATOM     2   C8  UNL     1       1.000  -1.310  -0.341  1.00  0.00     0.046 A   
ATOM     3   C9  UNL     1      -0.367  -1.449  -0.290  1.00  0.00     0.127 A   
ATOM     4   N3  UNL     1      -0.758  -2.397  -1.201  1.00  0.00    -0.132 NA  
ATOM     5   N4  UNL     1       0.322  -2.834  -1.830  1.00  0.00    -0.076 NA  
ATOM     6   H9  UNL     1       1.707  -0.665   0.165  1.00  0.00     0.083 HD  
ENDROOT
BRANCH   1   7
ATOM     7   C7  UNL     1       2.723  -2.394  -1.853  1.00  0.00     0.192 C   
BRANCH   7   8
ATOM     8   C6  UNL     1       3.079  -1.331  -2.858  1.00  0.00     0.090 A   
ATOM     9   C2  UNL     1       3.452   0.934  -3.283  1.00  0.00     0.038 A   
ATOM     10  C3  UNL     1       3.782   0.669  -4.607  1.00  0.00     0.026 A   
ATOM     11  N5  UNL     1       3.099  -0.042  -2.410  1.00  0.00    -0.254 NA  
ATOM     12  C4  UNL     1       3.757  -0.648  -5.057  1.00  0.00     0.037 A   
ATOM     13  C5  UNL     1       3.405  -1.660  -4.172  1.00  0.00     0.095 A   
ATOM     14  C1  UNL     1       3.483   2.342  -2.768  1.00  0.00     0.067 C   
BRANCH  13  15
ATOM     15  O1  UNL     1       3.385  -2.961  -4.578  1.00  0.00    -0.359 OA  
ATOM     16  H6  UNL     1       3.634  -3.013  -5.519  1.00  0.00     0.218 HD  
ENDBRANCH  13  15
ENDBRANCH   7   8
ENDBRANCH   1   7
BRANCH   3  17
ATOM     17  C10 UNL     1      -1.394  -0.684   0.472  1.00  0.00     0.117 C   
BRANCH  17  18
ATOM     18  N2  UNL     1      -2.608  -0.431  -0.400  1.00  0.00     0.249 N   
ATOM     19  H11 UNL     1      -3.371  -0.045   0.163  1.00  0.00     0.199 HD  
ATOM     20  H12 UNL     1      -2.909  -1.353  -0.744  1.00  0.00     0.199 HD  
BRANCH  18  21
ATOM     21  C11 UNL     1      -2.392   0.429  -1.603  1.00  0.00     0.164 C   
BRANCH  21  22
ATOM     22  C12 UNL     1      -1.994   1.839  -1.265  1.00  0.00    -0.002 A   
ATOM     23  C13 UNL     1      -2.939   2.739  -0.718  1.00  0.00     0.012 A   
ATOM     24  C17 UNL     1      -0.668   2.263  -1.467  1.00  0.00     0.045 A   
ATOM     25  C14 UNL     1      -2.571   4.043  -0.371  1.00  0.00     0.037 A   
ATOM     26  C16 UNL     1      -0.339   3.556  -1.116  1.00  0.00     0.109 A   
ATOM     27  C15 UNL     1      -1.263   4.420  -0.582  1.00  0.00     0.108 A   
ATOM     28  O2  UNL     1       0.889   4.123  -1.242  1.00  0.00    -0.316 OA  
ATOM     29  O3  UNL     1      -0.734   5.639  -0.305  1.00  0.00    -0.316 OA  
ATOM     30  C18 UNL     1       0.627   5.457  -0.751  1.00  0.00     0.337 C   
ENDBRANCH  21  22
ENDBRANCH  18  21
ENDBRANCH  17  18
BRANCH  17  31
ATOM     31  C19 UNL     1      -1.878  -1.358   1.770  1.00  0.00     0.043 C   
ATOM     32  C20 UNL     1      -2.570  -2.717   1.628  1.00  0.00     0.010 C   
ATOM     33  C23 UNL     1      -0.776  -1.656   2.788  1.00  0.00     0.010 C   
ATOM     34  C21 UNL     1      -2.516  -3.333   3.027  1.00  0.00     0.001 C   
ATOM     35  C22 UNL     1      -1.482  -2.530   3.816  1.00  0.00     0.001 C   
ENDBRANCH  17  31
ENDBRANCH   3  17
TORSDOF 8
