REMARK SMILES Cc1ccc(O)c(Cn2cc([C@@H]([NH2+]Cc3ccc4c(c3)OCO4)C3CCCCC3)nn2)c1
REMARK SMILES IDX 9 1 10 2 11 3 30 4 31 5 8 7 7 8 2 9 3 10 32 11 4 12 5 13
REMARK SMILES IDX 1 14 6 15 12 17 13 18 14 21 15 22 16 23 20 24 17 25 19 26
REMARK SMILES IDX 18 27 21 28 23 29 22 30 24 31 25 32 29 33 26 34 28 35 27 36
REMARK H PARENT 10 6 6 16 13 19 13 20
ROOT
ATOM     1   N1  UNL     1      -3.155  -1.075  -0.162  1.00  0.00    -0.208 N   
ATOM     2   C8  UNL     1      -2.185  -1.385   0.751  1.00  0.00     0.046 A   
ATOM     3   C9  UNL     1      -1.037  -0.848   0.214  1.00  0.00     0.127 A   
ATOM     4   N3  UNL     1      -1.332  -0.280  -1.000  1.00  0.00    -0.132 NA  
ATOM     5   N4  UNL     1      -2.623  -0.445  -1.230  1.00  0.00    -0.076 NA  
ATOM     6   H9  UNL     1      -2.409  -1.907   1.671  1.00  0.00     0.083 HD  
ENDROOT
BRANCH   1   7
ATOM     7   C7  UNL     1      -4.576  -1.371  -0.102  1.00  0.00     0.172 C   
BRANCH   7   8
ATOM     8   C6  UNL     1      -5.300  -0.365   0.752  1.00  0.00     0.002 A   
ATOM     9   C2  UNL     1      -6.427   1.793   0.961  1.00  0.00    -0.051 A   
ATOM     10  C3  UNL     1      -6.644   1.537   2.320  1.00  0.00     0.006 A   
ATOM     11  C25 UNL     1      -5.764   0.834   0.183  1.00  0.00     0.011 A   
ATOM     12  C4  UNL     1      -6.181   0.355   2.900  1.00  0.00     0.034 A   
ATOM     13  C5  UNL     1      -5.510  -0.582   2.118  1.00  0.00     0.076 A   
ATOM     14  C1  UNL     1      -6.954   3.051   0.334  1.00  0.00     0.044 C   
BRANCH  13  15
ATOM     15  O1  UNL     1      -5.042  -1.736   2.681  1.00  0.00    -0.361 OA  
ATOM     16  H6  UNL     1      -5.415  -1.807   3.579  1.00  0.00     0.218 HD  
ENDBRANCH  13  15
ENDBRANCH   7   8
ENDBRANCH   1   7
BRANCH   3  17
ATOM     17  C10 UNL     1       0.367  -0.807   0.727  1.00  0.00     0.117 C   
BRANCH  17  18
ATOM     18  N2  UNL     1       1.321  -0.476  -0.389  1.00  0.00     0.249 N   
ATOM     19  H11 UNL     1       0.867   0.258  -0.954  1.00  0.00     0.199 HD  
ATOM     20  H12 UNL     1       2.198  -0.072  -0.048  1.00  0.00     0.199 HD  
BRANCH  18  21
ATOM     21  C11 UNL     1       1.632  -1.601  -1.313  1.00  0.00     0.164 C   
BRANCH  21  22
ATOM     22  C12 UNL     1       2.519  -1.126  -2.429  1.00  0.00    -0.002 A   
ATOM     23  C13 UNL     1       1.949  -0.577  -3.604  1.00  0.00     0.012 A   
ATOM     24  C17 UNL     1       3.917  -1.167  -2.290  1.00  0.00     0.045 A   
ATOM     25  C14 UNL     1       2.760  -0.087  -4.633  1.00  0.00     0.037 A   
ATOM     26  C16 UNL     1       4.686  -0.674  -3.324  1.00  0.00     0.109 A   
ATOM     27  C15 UNL     1       4.125  -0.150  -4.463  1.00  0.00     0.108 A   
ATOM     28  O2  UNL     1       6.044  -0.637  -3.349  1.00  0.00    -0.316 OA  
ATOM     29  O3  UNL     1       5.060   0.279  -5.350  1.00  0.00    -0.316 OA  
ATOM     30  C18 UNL     1       6.279  -0.057  -4.652  1.00  0.00     0.337 C   
ENDBRANCH  21  22
ENDBRANCH  18  21
ENDBRANCH  17  18
BRANCH  17  31
ATOM     31  C19 UNL     1       0.532   0.203   1.895  1.00  0.00     0.043 C   
ATOM     32  C20 UNL     1       0.375   1.678   1.472  1.00  0.00     0.010 C   
ATOM     33  C24 UNL     1       1.867   0.002   2.640  1.00  0.00     0.010 C   
ATOM     34  C21 UNL     1       0.509   2.622   2.666  1.00  0.00     0.001 C   
ATOM     35  C23 UNL     1       1.996   0.951   3.831  1.00  0.00     0.001 C   
ATOM     36  C22 UNL     1       1.823   2.406   3.411  1.00  0.00     0.000 C   
ENDBRANCH  17  31
ENDBRANCH   3  17
TORSDOF 8
