REMARK SMILES COc1ccc(-n2cc([C@@H]([NH2+]Cc3ccc4c(c3)OCO4)C3CCCC3)nn2)cc1F
REMARK SMILES IDX 7 1 8 2 9 3 27 4 28 5 6 6 3 7 4 8 30 9 5 10 29 11 31 12 2 13
REMARK SMILES IDX 1 14 10 15 11 16 12 19 13 20 14 21 18 22 15 23 17 24 16 25
REMARK SMILES IDX 19 26 21 27 20 28 22 29 23 30 26 31 24 32 25 33
REMARK H PARENT 11 17 11 18
ROOT
ATOM     1   N1  UNL     1       2.315  -0.421   0.894  1.00  0.00    -0.181 N   
ATOM     2   C6  UNL     1       1.551  -1.553   0.682  1.00  0.00     0.135 A   
ATOM     3   C7  UNL     1       0.547  -1.154  -0.172  1.00  0.00     0.127 A   
ATOM     4   N3  UNL     1       0.696   0.177  -0.444  1.00  0.00    -0.131 NA  
ATOM     5   N4  UNL     1       1.758   0.614   0.211  1.00  0.00    -0.071 NA  
ENDROOT
BRANCH   1   6
ATOM     6   C5  UNL     1       3.484  -0.264   1.677  1.00  0.00     0.061 A   
ATOM     7   C2  UNL     1       5.817   0.091   3.224  1.00  0.00     0.110 A   
ATOM     8   C3  UNL     1       5.282   1.160   2.505  1.00  0.00     0.038 A   
ATOM     9   C23 UNL     1       5.171  -1.147   3.159  1.00  0.00     0.155 A   
ATOM     10  C4  UNL     1       4.121   0.986   1.736  1.00  0.00     0.029 A   
ATOM     11  C22 UNL     1       4.017  -1.337   2.397  1.00  0.00     0.068 A   
ATOM     12  F1  UNL     1       5.654  -2.198   3.840  1.00  0.00    -0.204 F   
BRANCH   7  13
ATOM     13  O1  UNL     1       6.937   0.135   4.006  1.00  0.00    -0.346 OA  
ATOM     14  C1  UNL     1       7.630   1.373   4.088  1.00  0.00     0.203 C   
ENDBRANCH   7  13
ENDBRANCH   1   6
BRANCH   3  15
ATOM     15  C8  UNL     1      -0.592  -1.909  -0.782  1.00  0.00     0.117 C   
BRANCH  15  16
ATOM     16  N2  UNL     1      -1.693  -0.962  -1.178  1.00  0.00     0.249 N   
ATOM     17  H8  UNL     1      -2.283  -1.344  -1.924  1.00  0.00     0.199 HD  
ATOM     18  H9  UNL     1      -1.240  -0.126  -1.577  1.00  0.00     0.199 HD  
BRANCH  16  19
ATOM     19  C9  UNL     1      -2.563  -0.494  -0.064  1.00  0.00     0.164 C   
BRANCH  19  20
ATOM     20  C10 UNL     1      -3.560   0.510  -0.570  1.00  0.00    -0.002 A   
ATOM     21  C11 UNL     1      -3.235   1.887  -0.589  1.00  0.00     0.012 A   
ATOM     22  C15 UNL     1      -4.795   0.082  -1.086  1.00  0.00     0.045 A   
ATOM     23  C12 UNL     1      -4.132   2.830  -1.104  1.00  0.00     0.037 A   
ATOM     24  C14 UNL     1      -5.655   1.037  -1.589  1.00  0.00     0.109 A   
ATOM     25  C13 UNL     1      -5.334   2.372  -1.597  1.00  0.00     0.108 A   
ATOM     26  O2  UNL     1      -6.877   0.792  -2.128  1.00  0.00    -0.316 OA  
ATOM     27  O3  UNL     1      -6.316   3.137  -2.139  1.00  0.00    -0.316 OA  
ATOM     28  C16 UNL     1      -7.306   2.135  -2.454  1.00  0.00     0.337 C   
ENDBRANCH  19  20
ENDBRANCH  16  19
ENDBRANCH  15  16
BRANCH  15  29
ATOM     29  C17 UNL     1      -0.139  -2.741  -1.998  1.00  0.00     0.043 C   
ATOM     30  C18 UNL     1       0.306  -1.943  -3.230  1.00  0.00     0.010 C   
ATOM     31  C21 UNL     1      -1.204  -3.721  -2.529  1.00  0.00     0.010 C   
ATOM     32  C19 UNL     1       0.203  -2.962  -4.354  1.00  0.00     0.001 C   
ATOM     33  C20 UNL     1      -1.104  -3.677  -4.054  1.00  0.00     0.001 C   
ENDBRANCH  15  29
ENDBRANCH   3  15
TORSDOF 7
