REMARK SMILES Cc1ccc(C(=O)Cn2cc([C@H](CC(C)C)[NH2+]Cc3ccc4c(c3)OCO4)nn2)c(C)c1
REMARK SMILES IDX 9 1 10 2 11 3 28 4 29 5 8 7 6 8 7 9 5 10 2 11 3 12 32 13
REMARK SMILES IDX 4 14 30 15 1 16 31 17 12 18 13 19 14 20 15 21 16 22 17 23
REMARK SMILES IDX 18 26 19 27 20 28 24 29 21 30 23 31 22 32 25 33 27 34 26 35
REMARK H PARENT 10 6 17 24 17 25
ROOT
ATOM     1   N1  UNL     1       0.886  -0.711  -2.232  1.00  0.00    -0.204 N   
ATOM     2   C8  UNL     1       1.778   0.114  -1.601  1.00  0.00     0.046 A   
ATOM     3   C9  UNL     1       1.875  -0.415  -0.335  1.00  0.00     0.127 A   
ATOM     4   N3  UNL     1       1.093  -1.539  -0.254  1.00  0.00    -0.132 NA  
ATOM     5   N4  UNL     1       0.493  -1.709  -1.419  1.00  0.00    -0.076 NA  
ATOM     6   H8  UNL     1       2.180   1.000  -2.073  1.00  0.00     0.083 HD  
ENDROOT
BRANCH   1   7
ATOM     7   C7  UNL     1       0.253  -0.535  -3.522  1.00  0.00     0.214 C   
BRANCH   7   8
ATOM     8   C6  UNL     1      -0.958   0.355  -3.364  1.00  0.00     0.182 C   
ATOM     9   O1  UNL     1      -0.895   1.446  -2.798  1.00  0.00    -0.292 OA  
BRANCH   8  10
ATOM     10  C5  UNL     1      -2.258  -0.147  -3.880  1.00  0.00     0.022 A   
ATOM     11  C2  UNL     1      -4.679  -1.123  -4.912  1.00  0.00    -0.051 A   
ATOM     12  C3  UNL     1      -3.520  -1.147  -5.693  1.00  0.00     0.004 A   
ATOM     13  C25 UNL     1      -4.622  -0.588  -3.618  1.00  0.00     0.007 A   
ATOM     14  C4  UNL     1      -2.314  -0.663  -5.183  1.00  0.00     0.012 A   
ATOM     15  C23 UNL     1      -3.416  -0.101  -3.083  1.00  0.00    -0.040 A   
ATOM     16  C1  UNL     1      -5.981  -1.615  -5.477  1.00  0.00     0.044 C   
ATOM     17  C24 UNL     1      -3.420   0.476  -1.693  1.00  0.00     0.045 C   
ENDBRANCH   8  10
ENDBRANCH   7   8
ENDBRANCH   1   7
BRANCH   3  18
ATOM     18  C10 UNL     1       2.549   0.088   0.896  1.00  0.00     0.114 C   
BRANCH  18  19
ATOM     19  C11 UNL     1       3.758  -0.772   1.307  1.00  0.00     0.064 C   
BRANCH  19  20
ATOM     20  C12 UNL     1       4.924  -0.788   0.295  1.00  0.00    -0.012 C   
ATOM     21  C13 UNL     1       5.995  -1.780   0.761  1.00  0.00     0.007 C   
ATOM     22  C14 UNL     1       5.546   0.596   0.106  1.00  0.00     0.007 C   
ENDBRANCH  19  20
ENDBRANCH  18  19
BRANCH  18  23
ATOM     23  N2  UNL     1       1.565   0.038   2.042  1.00  0.00     0.249 N   
ATOM     24  H19 UNL     1       1.139  -0.901   2.019  1.00  0.00     0.199 HD  
ATOM     25  H20 UNL     1       2.036   0.118   2.948  1.00  0.00     0.199 HD  
BRANCH  23  26
ATOM     26  C15 UNL     1       0.456   1.034   1.978  1.00  0.00     0.164 C   
BRANCH  26  27
ATOM     27  C16 UNL     1      -0.585   0.717   3.013  1.00  0.00    -0.002 A   
ATOM     28  C17 UNL     1      -0.531   1.312   4.296  1.00  0.00     0.012 A   
ATOM     29  C21 UNL     1      -1.586  -0.230   2.726  1.00  0.00     0.045 A   
ATOM     30  C18 UNL     1      -1.467   0.975   5.280  1.00  0.00     0.037 A   
ATOM     31  C20 UNL     1      -2.488  -0.543   3.722  1.00  0.00     0.109 A   
ATOM     32  C19 UNL     1      -2.430   0.042   4.963  1.00  0.00     0.108 A   
ATOM     33  O2  UNL     1      -3.504  -1.439   3.617  1.00  0.00    -0.316 OA  
ATOM     34  O3  UNL     1      -3.405  -0.409   5.795  1.00  0.00    -0.316 OA  
ATOM     35  C22 UNL     1      -4.072  -1.366   4.945  1.00  0.00     0.337 C   
ENDBRANCH  26  27
ENDBRANCH  23  26
ENDBRANCH  18  23
ENDBRANCH   3  18
TORSDOF 9
