REMARK SMILES Fc1cncc(Cl)c1Cn1cc([C@@H]([NH2+]Cc2ccc3c(c2)OCO3)C2CCCC2)nn1
REMARK SMILES IDX 10 1 11 2 12 3 30 4 31 5 9 7 8 8 2 9 3 10 4 11 6 12 5 13
REMARK SMILES IDX 1 14 7 15 13 16 14 17 15 20 16 21 17 22 21 23 18 24 20 25
REMARK SMILES IDX 19 26 22 27 24 28 23 29 25 30 26 31 29 32 27 33 28 34
REMARK H PARENT 11 6 14 18 14 19
ROOT
ATOM     1   N2  UNL     1      -0.249   1.712  -0.030  1.00  0.00    -0.208 N   
ATOM     2   C7  UNL     1      -0.606   0.630  -0.787  1.00  0.00     0.046 A   
ATOM     3   C8  UNL     1      -0.866  -0.355   0.140  1.00  0.00     0.127 A   
ATOM     4   N4  UNL     1      -0.655   0.147   1.399  1.00  0.00    -0.132 NA  
ATOM     5   N5  UNL     1      -0.290   1.413   1.282  1.00  0.00    -0.076 NA  
ATOM     6   H5  UNL     1      -0.636   0.661  -1.867  1.00  0.00     0.083 HD  
ENDROOT
BRANCH   1   7
ATOM     7   C6  UNL     1       0.080   3.056  -0.477  1.00  0.00     0.174 C   
BRANCH   7   8
ATOM     8   C5  UNL     1       1.542   3.359  -0.306  1.00  0.00     0.029 A   
ATOM     9   C1  UNL     1       1.959   4.077   0.819  1.00  0.00     0.147 A   
ATOM     10  C2  UNL     1       3.304   4.356   1.005  1.00  0.00     0.150 A   
ATOM     11  N1  UNL     1       4.269   3.965   0.144  1.00  0.00    -0.260 NA  
ATOM     12  C4  UNL     1       2.529   2.945  -1.207  1.00  0.00     0.067 A   
ATOM     13  C3  UNL     1       3.858   3.272  -0.946  1.00  0.00     0.132 A   
ATOM     14  F1  UNL     1       1.063   4.506   1.717  1.00  0.00    -0.205 F   
ATOM     15  CL1 UNL     1       2.160   2.048  -2.631  1.00  0.00    -0.082 Cl  
ENDBRANCH   7   8
ENDBRANCH   1   7
BRANCH   3  16
ATOM     16  C9  UNL     1      -1.252  -1.790  -0.013  1.00  0.00     0.117 C   
BRANCH  16  17
ATOM     17  N3  UNL     1      -0.612  -2.602   1.098  1.00  0.00     0.249 N   
ATOM     18  H7  UNL     1      -1.268  -3.300   1.461  1.00  0.00     0.199 HD  
ATOM     19  H8  UNL     1      -0.447  -1.940   1.874  1.00  0.00     0.199 HD  
BRANCH  17  20
ATOM     20  C10 UNL     1       0.674  -3.274   0.767  1.00  0.00     0.164 C   
BRANCH  20  21
ATOM     21  C11 UNL     1       1.815  -2.332   0.507  1.00  0.00    -0.002 A   
ATOM     22  C12 UNL     1       2.285  -2.120  -0.812  1.00  0.00     0.012 A   
ATOM     23  C16 UNL     1       2.422  -1.646   1.573  1.00  0.00     0.045 A   
ATOM     24  C13 UNL     1       3.345  -1.242  -1.066  1.00  0.00     0.037 A   
ATOM     25  C15 UNL     1       3.468  -0.793   1.289  1.00  0.00     0.109 A   
ATOM     26  C14 UNL     1       3.917  -0.596   0.007  1.00  0.00     0.108 A   
ATOM     27  O1  UNL     1       4.173  -0.076   2.202  1.00  0.00    -0.316 OA  
ATOM     28  O2  UNL     1       4.958   0.274  -0.050  1.00  0.00    -0.316 OA  
ATOM     29  C17 UNL     1       5.152   0.564   1.353  1.00  0.00     0.337 C   
ENDBRANCH  20  21
ENDBRANCH  17  20
ENDBRANCH  16  17
BRANCH  16  30
ATOM     30  C18 UNL     1      -2.770  -2.053   0.022  1.00  0.00     0.043 C   
ATOM     31  C19 UNL     1      -3.516  -1.589   1.277  1.00  0.00     0.010 C   
ATOM     32  C22 UNL     1      -3.564  -1.428  -1.139  1.00  0.00     0.010 C   
ATOM     33  C20 UNL     1      -4.971  -1.651   0.839  1.00  0.00     0.001 C   
ATOM     34  C21 UNL     1      -4.946  -1.087  -0.574  1.00  0.00     0.001 C   
ENDBRANCH  16  30
ENDBRANCH   3  16
TORSDOF 7
