REMARK SMILES CC(C)Cn1cc(Cn2cc([C@@H]([NH2+]Cc3ccc4c(c3)OCO4)C(C)C)nn2)cn1
REMARK SMILES IDX 9 1 10 2 11 3 27 4 28 5 8 7 7 8 5 9 6 10 30 11 29 12 4 13
REMARK SMILES IDX 2 14 1 15 3 16 12 17 13 18 14 21 15 22 16 23 20 24 17 25
REMARK SMILES IDX 19 26 18 27 21 28 23 29 22 30 24 31 25 32 26 33
REMARK H PARENT 10 6 13 19 13 20
ROOT
ATOM     1   N2  UNL     1       1.661   1.880  -1.465  1.00  0.00    -0.208 N   
ATOM     2   C8  UNL     1       1.386   0.546  -1.324  1.00  0.00     0.046 A   
ATOM     3   C9  UNL     1       0.180   0.385  -1.968  1.00  0.00     0.127 A   
ATOM     4   N4  UNL     1      -0.210   1.588  -2.502  1.00  0.00    -0.132 NA  
ATOM     5   N5  UNL     1       0.698   2.495  -2.180  1.00  0.00    -0.076 NA  
ATOM     6   H13 UNL     1       2.025  -0.120  -0.758  1.00  0.00     0.083 HD  
ENDROOT
BRANCH   1   7
ATOM     7   C7  UNL     1       2.745   2.643  -0.862  1.00  0.00     0.172 C   
BRANCH   7   8
ATOM     8   C6  UNL     1       2.570   2.688   0.616  1.00  0.00     0.007 A   
ATOM     9   N1  UNL     1       2.808   2.477   2.796  1.00  0.00    -0.232 N   
ATOM     10  C5  UNL     1       3.438   2.259   1.601  1.00  0.00     0.102 A   
ATOM     11  N6  UNL     1       1.586   3.022   2.651  1.00  0.00    -0.190 NA  
ATOM     12  C22 UNL     1       1.459   3.187   1.335  1.00  0.00     0.138 A   
BRANCH   9  13
ATOM     13  C4  UNL     1       3.340   2.229   4.123  1.00  0.00     0.135 C   
BRANCH  13  14
ATOM     14  C2  UNL     1       3.033   0.839   4.708  1.00  0.00     0.002 C   
ATOM     15  C1  UNL     1       3.666  -0.291   3.896  1.00  0.00     0.009 C   
ATOM     16  C3  UNL     1       1.533   0.594   4.887  1.00  0.00     0.009 C   
ENDBRANCH  13  14
ENDBRANCH   9  13
ENDBRANCH   7   8
ENDBRANCH   1   7
BRANCH   3  17
ATOM     17  C10 UNL     1      -0.717  -0.804  -2.089  1.00  0.00     0.117 C   
BRANCH  17  18
ATOM     18  N3  UNL     1      -2.163  -0.373  -2.175  1.00  0.00     0.249 N   
ATOM     19  H15 UNL     1      -2.201   0.363  -2.893  1.00  0.00     0.199 HD  
ATOM     20  H16 UNL     1      -2.754  -1.144  -2.496  1.00  0.00     0.199 HD  
BRANCH  18  21
ATOM     21  C11 UNL     1      -2.752   0.207  -0.928  1.00  0.00     0.164 C   
BRANCH  21  22
ATOM     22  C12 UNL     1      -2.870  -0.793   0.189  1.00  0.00    -0.002 A   
ATOM     23  C13 UNL     1      -2.048  -0.681   1.338  1.00  0.00     0.012 A   
ATOM     24  C17 UNL     1      -3.785  -1.855   0.095  1.00  0.00     0.045 A   
ATOM     25  C14 UNL     1      -2.128  -1.618   2.373  1.00  0.00     0.037 A   
ATOM     26  C16 UNL     1      -3.840  -2.761   1.134  1.00  0.00     0.109 A   
ATOM     27  C15 UNL     1      -3.033  -2.650   2.239  1.00  0.00     0.108 A   
ATOM     28  O1  UNL     1      -4.667  -3.838   1.200  1.00  0.00    -0.316 OA  
ATOM     29  O2  UNL     1      -3.247  -3.644   3.139  1.00  0.00    -0.316 OA  
ATOM     30  C18 UNL     1      -4.330  -4.360   2.506  1.00  0.00     0.337 C   
ENDBRANCH  21  22
ENDBRANCH  18  21
ENDBRANCH  17  18
BRANCH  17  31
ATOM     31  C19 UNL     1      -0.347  -1.697  -3.303  1.00  0.00     0.037 C   
ATOM     32  C20 UNL     1      -1.022  -3.072  -3.218  1.00  0.00     0.014 C   
ATOM     33  C21 UNL     1      -0.646  -1.060  -4.665  1.00  0.00     0.014 C   
ENDBRANCH  17  31
ENDBRANCH   3  17
TORSDOF 9
