REMARK SMILES NCc1cc(N)cc(Cn2cc([C@@H]([NH2+]Cc3ccc4c(c3)OCO4)C3CCCCC3)nn2)c1
REMARK SMILES IDX 10 1 11 2 12 3 31 4 32 5 9 7 8 8 3 9 4 10 33 11 5 12 7 13
REMARK SMILES IDX 2 14 1 15 6 18 13 21 14 22 15 25 16 26 17 27 21 28 18 29
REMARK SMILES IDX 20 30 19 31 22 32 24 33 23 34 25 35 26 36 30 37 27 38 29 39
REMARK SMILES IDX 28 40
REMARK H PARENT 11 6 1 16 1 17 6 19 6 20 14 23 14 24
ROOT
ATOM     1   N3  UNL     1       2.405   0.623  -0.797  1.00  0.00    -0.208 N   
ATOM     2   C8  UNL     1       1.760  -0.252   0.035  1.00  0.00     0.046 A   
ATOM     3   C9  UNL     1       0.431  -0.114  -0.303  1.00  0.00     0.127 A   
ATOM     4   N5  UNL     1       0.315   0.828  -1.296  1.00  0.00    -0.132 NA  
ATOM     5   N6  UNL     1       1.525   1.268  -1.590  1.00  0.00    -0.076 NA  
ATOM     6   H11 UNL     1       2.289  -0.863   0.755  1.00  0.00     0.083 HD  
ENDROOT
BRANCH   1   7
ATOM     7   C7  UNL     1       3.832   0.864  -0.925  1.00  0.00     0.169 C   
BRANCH   7   8
ATOM     8   C6  UNL     1       4.321   1.835   0.118  1.00  0.00    -0.026 A   
ATOM     9   C2  UNL     1       4.389   4.092   1.035  1.00  0.00    -0.032 A   
ATOM     10  C3  UNL     1       5.191   3.624   2.087  1.00  0.00     0.028 A   
ATOM     11  C25 UNL     1       3.973   3.192   0.046  1.00  0.00     0.010 A   
ATOM     12  C4  UNL     1       5.608   2.293   2.139  1.00  0.00     0.024 A   
ATOM     13  C5  UNL     1       5.128   1.397   1.179  1.00  0.00     0.028 A   
BRANCH   9  14
ATOM     14  C1  UNL     1       4.014   5.549   0.948  1.00  0.00     0.113 C   
BRANCH  14  15
ATOM     15  N1  UNL     1       4.939   6.285   0.098  1.00  0.00    -0.327 NA  
ATOM     16  H1  UNL     1       5.861   6.278   0.529  1.00  0.00     0.119 HD  
ATOM     17  H2  UNL     1       5.049   5.805  -0.793  1.00  0.00     0.119 HD  
ENDBRANCH  14  15
ENDBRANCH   9  14
BRANCH  12  18
ATOM     18  N2  UNL     1       6.309   1.819   3.251  1.00  0.00    -0.358 N   
ATOM     19  H6  UNL     1       6.867   0.987   3.080  1.00  0.00     0.143 HD  
ATOM     20  H7  UNL     1       6.852   2.531   3.732  1.00  0.00     0.143 HD  
ENDBRANCH  12  18
ENDBRANCH   7   8
ENDBRANCH   1   7
BRANCH   3  21
ATOM     21  C10 UNL     1      -0.810  -0.774   0.213  1.00  0.00     0.117 C   
BRANCH  21  22
ATOM     22  N4  UNL     1      -2.000   0.102  -0.086  1.00  0.00     0.249 N   
ATOM     23  H13 UNL     1      -1.778   0.598  -0.967  1.00  0.00     0.199 HD  
ATOM     24  H14 UNL     1      -2.852  -0.430  -0.279  1.00  0.00     0.199 HD  
BRANCH  22  25
ATOM     25  C11 UNL     1      -2.282   1.142   0.942  1.00  0.00     0.164 C   
BRANCH  25  26
ATOM     26  C12 UNL     1      -3.305   2.123   0.444  1.00  0.00    -0.002 A   
ATOM     27  C13 UNL     1      -2.897   3.404   0.000  1.00  0.00     0.012 A   
ATOM     28  C17 UNL     1      -4.663   1.764   0.371  1.00  0.00     0.045 A   
ATOM     29  C14 UNL     1      -3.826   4.321  -0.502  1.00  0.00     0.037 A   
ATOM     30  C16 UNL     1      -5.551   2.688  -0.144  1.00  0.00     0.109 A   
ATOM     31  C15 UNL     1      -5.145   3.929  -0.570  1.00  0.00     0.108 A   
ATOM     32  O1  UNL     1      -6.888   2.494  -0.314  1.00  0.00    -0.316 OA  
ATOM     33  O2  UNL     1      -6.174   4.680  -1.042  1.00  0.00    -0.316 OA  
ATOM     34  C18 UNL     1      -7.280   3.764  -0.885  1.00  0.00     0.337 C   
ENDBRANCH  25  26
ENDBRANCH  22  25
ENDBRANCH  21  22
BRANCH  21  35
ATOM     35  C19 UNL     1      -1.016  -2.193  -0.381  1.00  0.00     0.043 C   
ATOM     36  C20 UNL     1      -2.162  -2.948   0.325  1.00  0.00     0.010 C   
ATOM     37  C24 UNL     1      -1.215  -2.207  -1.908  1.00  0.00     0.010 C   
ATOM     38  C21 UNL     1      -2.349  -4.359  -0.231  1.00  0.00     0.001 C   
ATOM     39  C23 UNL     1      -1.405  -3.627  -2.442  1.00  0.00     0.001 C   
ATOM     40  C22 UNL     1      -2.552  -4.342  -1.742  1.00  0.00     0.000 C   
ENDBRANCH  21  35
ENDBRANCH   3  21
TORSDOF 10
