REMARK SMILES CC(=O)c1cccc(Cn2cc([C@@H]([NH2+]Cc3ccc4c(c3)OCO4)C(C)(C)C)nn2)c1
REMARK SMILES IDX 10 1 11 2 12 3 29 4 30 5 9 7 8 8 4 9 5 10 31 11 6 12 7 13
REMARK SMILES IDX 2 14 1 15 3 16 13 17 14 18 15 21 16 22 17 23 21 24 18 25
REMARK SMILES IDX 20 26 19 27 22 28 24 29 23 30 25 31 26 32 27 33 28 34
REMARK H PARENT 11 6 14 19 14 20
ROOT
ATOM     1   N1  UNL     1       2.410  -0.722  -2.049  1.00  0.00    -0.208 N   
ATOM     2   C9  UNL     1       2.489  -0.328  -0.737  1.00  0.00     0.046 A   
ATOM     3   C10 UNL     1       1.324  -0.809  -0.182  1.00  0.00     0.127 A   
ATOM     4   N3  UNL     1       0.613  -1.492  -1.139  1.00  0.00    -0.132 NA  
ATOM     5   N4  UNL     1       1.305  -1.458  -2.265  1.00  0.00    -0.076 NA  
ATOM     6   H9  UNL     1       3.307   0.276  -0.360  1.00  0.00     0.083 HD  
ENDROOT
BRANCH   1   7
ATOM     7   C8  UNL     1       3.279  -0.342  -3.153  1.00  0.00     0.169 C   
BRANCH   7   8
ATOM     8   C7  UNL     1       3.297   1.158  -3.365  1.00  0.00    -0.028 A   
ATOM     9   C3  UNL     1       2.162   3.331  -3.347  1.00  0.00     0.018 A   
ATOM     10  C4  UNL     1       3.360   3.960  -3.706  1.00  0.00     0.012 A   
ATOM     11  C24 UNL     1       2.132   1.937  -3.209  1.00  0.00     0.017 A   
ATOM     12  C5  UNL     1       4.514   3.193  -3.915  1.00  0.00     0.001 A   
ATOM     13  C6  UNL     1       4.484   1.803  -3.743  1.00  0.00     0.005 A   
BRANCH   9  14
ATOM     14  C2  UNL     1       0.913   4.089  -3.033  1.00  0.00     0.159 C   
ATOM     15  C1  UNL     1       0.730   5.465  -3.631  1.00  0.00     0.093 C   
ATOM     16  O1  UNL     1       0.087   3.586  -2.262  1.00  0.00    -0.295 OA  
ENDBRANCH   9  14
ENDBRANCH   7   8
ENDBRANCH   1   7
BRANCH   3  17
ATOM     17  C11 UNL     1       0.717  -0.589   1.172  1.00  0.00     0.120 C   
BRANCH  17  18
ATOM     18  N2  UNL     1      -0.768  -0.370   0.994  1.00  0.00     0.250 N   
ATOM     19  H11 UNL     1      -1.301  -0.583   1.844  1.00  0.00     0.199 HD  
ATOM     20  H12 UNL     1      -1.079  -1.056   0.281  1.00  0.00     0.199 HD  
BRANCH  18  21
ATOM     21  C12 UNL     1      -1.149   0.986   0.484  1.00  0.00     0.164 C   
BRANCH  21  22
ATOM     22  C13 UNL     1      -2.615   1.039   0.144  1.00  0.00    -0.002 A   
ATOM     23  C14 UNL     1      -3.017   1.112  -1.210  1.00  0.00     0.012 A   
ATOM     24  C18 UNL     1      -3.591   1.006   1.159  1.00  0.00     0.045 A   
ATOM     25  C15 UNL     1      -4.370   1.132  -1.556  1.00  0.00     0.037 A   
ATOM     26  C17 UNL     1      -4.919   1.009   0.784  1.00  0.00     0.109 A   
ATOM     27  C16 UNL     1      -5.299   1.071  -0.533  1.00  0.00     0.108 A   
ATOM     28  O2  UNL     1      -5.989   0.956   1.633  1.00  0.00    -0.316 OA  
ATOM     29  O3  UNL     1      -6.652   1.066  -0.681  1.00  0.00    -0.316 OA  
ATOM     30  C19 UNL     1      -7.087   1.026   0.695  1.00  0.00     0.337 C   
ENDBRANCH  21  22
ENDBRANCH  18  21
ENDBRANCH  17  18
BRANCH  17  31
ATOM     31  C20 UNL     1       0.997  -1.742   2.197  1.00  0.00     0.010 C   
ATOM     32  C21 UNL     1       0.497  -1.345   3.600  1.00  0.00     0.017 C   
ATOM     33  C22 UNL     1       0.334  -3.071   1.802  1.00  0.00     0.017 C   
ATOM     34  C23 UNL     1       2.518  -1.981   2.320  1.00  0.00     0.017 C   
ENDBRANCH  17  31
ENDBRANCH   3  17
TORSDOF 8
