REMARK SMILES Cc1cc(CCn2cc([C@H](CC(C)C)[NH2+]Cc3ccc4c(c3)OCO4)nn2)cc(C)c1O
REMARK SMILES IDX 7 1 8 2 9 3 26 4 27 5 6 7 5 8 4 9 2 10 3 11 31 12 29 13
REMARK SMILES IDX 28 14 1 15 30 16 32 17 10 19 11 20 12 21 13 22 14 23 15 24
REMARK SMILES IDX 16 27 17 28 18 29 22 30 19 31 21 32 20 33 23 34 25 35 24 36
REMARK H PARENT 8 6 32 18 15 25 15 26
ROOT
ATOM     1   N1  UNL     1      -0.554   1.655  -2.707  1.00  0.00    -0.212 N   
ATOM     2   C7  UNL     1      -1.614   1.045  -2.095  1.00  0.00     0.045 A   
ATOM     3   C8  UNL     1      -1.468   1.389  -0.771  1.00  0.00     0.127 A   
ATOM     4   N3  UNL     1      -0.414   2.259  -0.644  1.00  0.00    -0.132 NA  
ATOM     5   N4  UNL     1       0.134   2.418  -1.838  1.00  0.00    -0.076 NA  
ATOM     6   H9  UNL     1      -2.276   0.368  -2.617  1.00  0.00     0.083 HD  
ENDROOT
BRANCH   1   7
ATOM     7   C6  UNL     1      -0.044   1.406  -4.039  1.00  0.00     0.139 C   
BRANCH   7   8
ATOM     8   C5  UNL     1       1.219   0.532  -4.044  1.00  0.00     0.057 C   
BRANCH   8   9
ATOM     9   C4  UNL     1       1.113  -0.757  -3.254  1.00  0.00    -0.046 A   
ATOM     10  C2  UNL     1       2.031  -2.263  -1.555  1.00  0.00    -0.021 A   
ATOM     11  C3  UNL     1       2.109  -1.089  -2.321  1.00  0.00     0.010 A   
ATOM     12  C25 UNL     1       0.928  -3.105  -1.736  1.00  0.00     0.077 A   
ATOM     13  C23 UNL     1      -0.078  -2.804  -2.664  1.00  0.00    -0.021 A   
ATOM     14  C22 UNL     1       0.044  -1.644  -3.443  1.00  0.00     0.010 A   
ATOM     15  C1  UNL     1       3.140  -2.599  -0.597  1.00  0.00     0.047 C   
ATOM     16  C24 UNL     1      -1.227  -3.746  -2.896  1.00  0.00     0.047 C   
BRANCH  12  17
ATOM     17  O3  UNL     1       0.796  -4.251  -1.002  1.00  0.00    -0.360 OA  
ATOM     18  H33 UNL     1       1.679  -4.647  -0.905  1.00  0.00     0.218 HD  
ENDBRANCH  12  17
ENDBRANCH   8   9
ENDBRANCH   7   8
ENDBRANCH   1   7
BRANCH   3  19
ATOM     19  C9  UNL     1      -2.133   0.854   0.452  1.00  0.00     0.114 C   
BRANCH  19  20
ATOM     20  C10 UNL     1      -3.087   1.865   1.110  1.00  0.00     0.064 C   
BRANCH  20  21
ATOM     21  C11 UNL     1      -4.297   2.274   0.242  1.00  0.00    -0.012 C   
ATOM     22  C12 UNL     1      -5.184   1.083  -0.121  1.00  0.00     0.007 C   
ATOM     23  C13 UNL     1      -5.125   3.330   0.980  1.00  0.00     0.007 C   
ENDBRANCH  20  21
ENDBRANCH  19  20
BRANCH  19  24
ATOM     24  N2  UNL     1      -1.075   0.499   1.470  1.00  0.00     0.249 N   
ATOM     25  H20 UNL     1      -0.470   1.326   1.567  1.00  0.00     0.199 HD  
ATOM     26  H21 UNL     1      -1.482   0.322   2.392  1.00  0.00     0.199 HD  
BRANCH  24  27
ATOM     27  C14 UNL     1      -0.204  -0.654   1.094  1.00  0.00     0.164 C   
BRANCH  27  28
ATOM     28  C15 UNL     1       0.999  -0.724   1.992  1.00  0.00    -0.002 A   
ATOM     29  C16 UNL     1       1.024  -1.597   3.104  1.00  0.00     0.012 A   
ATOM     30  C20 UNL     1       2.104   0.109   1.736  1.00  0.00     0.045 A   
ATOM     31  C17 UNL     1       2.143  -1.656   3.941  1.00  0.00     0.037 A   
ATOM     32  C19 UNL     1       3.192   0.021   2.576  1.00  0.00     0.109 A   
ATOM     33  C18 UNL     1       3.212  -0.837   3.648  1.00  0.00     0.108 A   
ATOM     34  O1  UNL     1       4.341   0.735   2.460  1.00  0.00    -0.316 OA  
ATOM     35  O2  UNL     1       4.380  -0.773   4.340  1.00  0.00    -0.316 OA  
ATOM     36  C21 UNL     1       5.108   0.202   3.562  1.00  0.00     0.337 C   
ENDBRANCH  27  28
ENDBRANCH  24  27
ENDBRANCH  19  24
ENDBRANCH   3  19
TORSDOF 10
