REMARK SMILES Cc1cc(Cn2cc([C@@H]([NH2+]Cc3ccc4c(c3)OCO4)C(C)C)nn2)cc(Cl)n1
REMARK SMILES IDX 6 1 7 2 8 3 24 4 25 5 5 7 4 8 2 9 3 10 29 11 27 12 26 13
REMARK SMILES IDX 1 14 28 15 9 16 10 17 11 20 12 21 13 22 17 23 14 24 16 25
REMARK SMILES IDX 15 26 18 27 20 28 19 29 21 30 22 31 23 32
REMARK H PARENT 7 6 10 18 10 19
ROOT
ATOM     1   N1  UNL     1       0.822   1.253   1.295  1.00  0.00    -0.208 N   
ATOM     2   C6  UNL     1       1.078   1.167  -0.047  1.00  0.00     0.046 A   
ATOM     3   C7  UNL     1      -0.007   1.783  -0.631  1.00  0.00     0.127 A   
ATOM     4   N3  UNL     1      -0.856   2.227   0.352  1.00  0.00    -0.132 NA  
ATOM     5   N4  UNL     1      -0.337   1.900   1.524  1.00  0.00    -0.076 NA  
ATOM     6   H7  UNL     1       1.958   0.679  -0.440  1.00  0.00     0.083 HD  
ENDROOT
BRANCH   1   7
ATOM     7   C5  UNL     1       1.628   0.757   2.397  1.00  0.00     0.169 C   
BRANCH   7   8
ATOM     8   C4  UNL     1       1.444  -0.726   2.575  1.00  0.00    -0.024 A   
ATOM     9   C2  UNL     1       0.171  -2.613   3.375  1.00  0.00     0.039 A   
ATOM     10  C3  UNL     1       0.329  -1.234   3.255  1.00  0.00     0.029 A   
ATOM     11  N5  UNL     1       1.054  -3.494   2.853  1.00  0.00    -0.241 NA  
ATOM     12  C21 UNL     1       2.122  -2.985   2.212  1.00  0.00     0.129 A   
ATOM     13  C20 UNL     1       2.365  -1.633   2.043  1.00  0.00     0.046 A   
ATOM     14  C1  UNL     1      -1.007  -3.176   4.114  1.00  0.00     0.067 C   
ATOM     15  CL1 UNL     1       3.190  -4.154   1.556  1.00  0.00    -0.062 Cl  
ENDBRANCH   7   8
ENDBRANCH   1   7
BRANCH   3  16
ATOM     16  C8  UNL     1      -0.378   1.985  -2.066  1.00  0.00     0.117 C   
BRANCH  16  17
ATOM     17  N2  UNL     1      -1.882   2.068  -2.199  1.00  0.00     0.249 N   
ATOM     18  H9  UNL     1      -2.233   2.329  -1.263  1.00  0.00     0.199 HD  
ATOM     19  H10 UNL     1      -2.159   2.832  -2.820  1.00  0.00     0.199 HD  
BRANCH  17  20
ATOM     20  C9  UNL     1      -2.577   0.823  -2.628  1.00  0.00     0.164 C   
BRANCH  20  21
ATOM     21  C10 UNL     1      -2.439  -0.323  -1.665  1.00  0.00    -0.002 A   
ATOM     22  C11 UNL     1      -3.132  -0.308  -0.430  1.00  0.00     0.012 A   
ATOM     23  C15 UNL     1      -1.607  -1.413  -1.975  1.00  0.00     0.045 A   
ATOM     24  C12 UNL     1      -3.003  -1.362   0.481  1.00  0.00     0.037 A   
ATOM     25  C14 UNL     1      -1.505  -2.436  -1.056  1.00  0.00     0.109 A   
ATOM     26  C13 UNL     1      -2.187  -2.415   0.135  1.00  0.00     0.108 A   
ATOM     27  O1  UNL     1      -0.755  -3.560  -1.207  1.00  0.00    -0.316 OA  
ATOM     28  O2  UNL     1      -1.965  -3.528   0.879  1.00  0.00    -0.316 OA  
ATOM     29  C16 UNL     1      -1.079  -4.271   0.012  1.00  0.00     0.337 C   
ENDBRANCH  20  21
ENDBRANCH  17  20
ENDBRANCH  16  17
BRANCH  16  30
ATOM     30  C17 UNL     1       0.295   3.242  -2.677  1.00  0.00     0.037 C   
ATOM     31  C18 UNL     1       0.124   3.286  -4.200  1.00  0.00     0.014 C   
ATOM     32  C19 UNL     1      -0.174   4.567  -2.062  1.00  0.00     0.014 C   
ENDBRANCH  16  30
ENDBRANCH   3  16
TORSDOF 7
