REMARK SMILES Cc1ccc(O)c(CCn2cc([C@@H]([NH2+]Cc3ccc4c(c3)OCO4)C3CCCC3)nn2)c1
REMARK SMILES IDX 10 1 11 2 12 3 30 4 31 5 9 7 8 8 7 9 2 10 3 11 32 12 4 13
REMARK SMILES IDX 5 14 1 15 6 16 13 18 14 19 15 22 16 23 17 24 21 25 18 26
REMARK SMILES IDX 20 27 19 28 22 29 24 30 23 31 25 32 26 33 29 34 27 35 28 36
REMARK H PARENT 11 6 6 17 14 20 14 21
ROOT
ATOM     1   N1  UNL     1      -1.407   1.742   1.855  1.00  0.00    -0.212 N   
ATOM     2   C9  UNL     1      -0.998   0.459   1.626  1.00  0.00     0.045 A   
ATOM     3   C10 UNL     1       0.266   0.603   1.105  1.00  0.00     0.127 A   
ATOM     4   N3  UNL     1       0.582   1.937   1.051  1.00  0.00    -0.132 NA  
ATOM     5   N4  UNL     1      -0.451   2.624   1.507  1.00  0.00    -0.076 NA  
ATOM     6   H11 UNL     1      -1.638  -0.393   1.810  1.00  0.00     0.083 HD  
ENDROOT
BRANCH   1   7
ATOM     7   C8  UNL     1      -2.688   2.195   2.357  1.00  0.00     0.139 C   
BRANCH   7   8
ATOM     8   C7  UNL     1      -3.634   2.653   1.247  1.00  0.00     0.059 C   
BRANCH   8   9
ATOM     9   C6  UNL     1      -3.941   1.605   0.198  1.00  0.00    -0.016 A   
ATOM     10  C2  UNL     1      -3.866   0.888  -2.139  1.00  0.00    -0.051 A   
ATOM     11  C3  UNL     1      -4.557  -0.279  -1.793  1.00  0.00     0.006 A   
ATOM     12  C25 UNL     1      -3.567   1.826  -1.140  1.00  0.00     0.010 A   
ATOM     13  C4  UNL     1      -4.934  -0.512  -0.469  1.00  0.00     0.034 A   
ATOM     14  C5  UNL     1      -4.628   0.428   0.513  1.00  0.00     0.074 A   
ATOM     15  C1  UNL     1      -3.503   1.161  -3.570  1.00  0.00     0.044 C   
BRANCH  14  16
ATOM     16  O1  UNL     1      -5.004   0.213   1.807  1.00  0.00    -0.361 OA  
ATOM     17  H6  UNL     1      -5.685  -0.484   1.825  1.00  0.00     0.218 HD  
ENDBRANCH  14  16
ENDBRANCH   8   9
ENDBRANCH   7   8
ENDBRANCH   1   7
BRANCH   3  18
ATOM     18  C11 UNL     1       1.226  -0.401   0.557  1.00  0.00     0.117 C   
BRANCH  18  19
ATOM     19  N2  UNL     1       1.953   0.194  -0.627  1.00  0.00     0.249 N   
ATOM     20  H13 UNL     1       2.783  -0.351  -0.867  1.00  0.00     0.199 HD  
ATOM     21  H14 UNL     1       2.273   1.124  -0.325  1.00  0.00     0.199 HD  
BRANCH  19  22
ATOM     22  C12 UNL     1       1.127   0.403  -1.854  1.00  0.00     0.164 C   
BRANCH  22  23
ATOM     23  C13 UNL     1       0.737  -0.889  -2.519  1.00  0.00    -0.002 A   
ATOM     24  C14 UNL     1      -0.607  -1.329  -2.493  1.00  0.00     0.012 A   
ATOM     25  C18 UNL     1       1.708  -1.682  -3.150  1.00  0.00     0.045 A   
ATOM     26  C15 UNL     1      -0.984  -2.538  -3.088  1.00  0.00     0.037 A   
ATOM     27  C17 UNL     1       1.306  -2.872  -3.723  1.00  0.00     0.109 A   
ATOM     28  C16 UNL     1      -0.003  -3.287  -3.694  1.00  0.00     0.108 A   
ATOM     29  O2  UNL     1       2.119  -3.756  -4.359  1.00  0.00    -0.316 OA  
ATOM     30  O3  UNL     1      -0.181  -4.484  -4.312  1.00  0.00    -0.316 OA  
ATOM     31  C19 UNL     1       1.165  -4.773  -4.748  1.00  0.00     0.337 C   
ENDBRANCH  22  23
ENDBRANCH  19  22
ENDBRANCH  18  19
BRANCH  18  32
ATOM     32  C20 UNL     1       2.224  -0.882   1.632  1.00  0.00     0.043 C   
ATOM     33  C21 UNL     1       3.294   0.119   2.081  1.00  0.00     0.010 C   
ATOM     34  C24 UNL     1       3.064  -2.096   1.222  1.00  0.00     0.010 C   
ATOM     35  C22 UNL     1       4.262  -0.745   2.880  1.00  0.00     0.001 C   
ATOM     36  C23 UNL     1       4.232  -2.120   2.214  1.00  0.00     0.001 C   
ENDBRANCH  18  32
ENDBRANCH   3  18
TORSDOF 9
