REMARK SMILES NS(=O)(=O)c1ccccc1-n1cc([C@@H]([NH2+]Cc2ccc3c(c2)OCO3)C2CCCC2)nn1
REMARK SMILES IDX 11 1 12 2 13 3 31 4 32 5 10 6 5 7 6 8 7 9 9 10 8 11 2 12
REMARK SMILES IDX 3 13 4 14 1 15 14 18 15 19 16 22 17 23 18 24 22 25 19 26
REMARK SMILES IDX 21 27 20 28 23 29 25 30 24 31 26 32 27 33 30 34 28 35 29 36
REMARK H PARENT 1 16 1 17 15 20 15 21
ROOT
ATOM     1   N2  UNL     1      -1.254   1.357   2.115  1.00  0.00    -0.168 N   
ATOM     2   C7  UNL     1      -0.779   1.380   0.821  1.00  0.00     0.135 A   
ATOM     3   C8  UNL     1      -1.716   0.692   0.086  1.00  0.00     0.127 A   
ATOM     4   N4  UNL     1      -2.768   0.369   0.893  1.00  0.00    -0.131 NA  
ATOM     5   N5  UNL     1      -2.509   0.836   2.103  1.00  0.00    -0.071 NA  
ENDROOT
BRANCH   1   6
ATOM     6   C6  UNL     1      -0.659   1.823   3.314  1.00  0.00     0.181 A   
ATOM     7   C1  UNL     1       0.728   1.833   3.551  1.00  0.00     0.362 A   
ATOM     8   C2  UNL     1       1.230   2.418   4.726  1.00  0.00     0.140 A   
ATOM     9   C3  UNL     1       0.361   2.953   5.677  1.00  0.00     0.013 A   
ATOM     10  C5  UNL     1      -1.525   2.321   4.307  1.00  0.00     0.039 A   
ATOM     11  C4  UNL     1      -1.014   2.888   5.476  1.00  0.00     0.003 A   
BRANCH   7  12
ATOM     12  S1  UNL     1       1.866   0.925   2.538  1.00  0.00    -0.112 S   
ATOM     13  O1  UNL     1       2.416   1.839   1.567  1.00  0.00    -0.479 OA  
ATOM     14  O2  UNL     1       1.238  -0.317   2.143  1.00  0.00    -0.479 OA  
BRANCH  12  15
ATOM     15  N1  UNL     1       3.117   0.485   3.557  1.00  0.00    -0.094 NA  
ATOM     16  H1  UNL     1       4.000   0.905   3.257  1.00  0.00     0.263 HD  
ATOM     17  H2  UNL     1       3.167  -0.529   3.668  1.00  0.00     0.263 HD  
ENDBRANCH  12  15
ENDBRANCH   7  12
ENDBRANCH   1   6
BRANCH   3  18
ATOM     18  C9  UNL     1      -1.703   0.241  -1.337  1.00  0.00     0.117 C   
BRANCH  18  19
ATOM     19  N3  UNL     1      -2.123  -1.212  -1.397  1.00  0.00     0.249 N   
ATOM     20  H9  UNL     1      -2.343  -1.486  -2.358  1.00  0.00     0.199 HD  
ATOM     21  H10 UNL     1      -2.993  -1.285  -0.852  1.00  0.00     0.199 HD  
BRANCH  19  22
ATOM     22  C10 UNL     1      -1.150  -2.198  -0.833  1.00  0.00     0.164 C   
BRANCH  22  23
ATOM     23  C11 UNL     1       0.067  -2.366  -1.700  1.00  0.00    -0.002 A   
ATOM     24  C12 UNL     1      -0.021  -3.058  -2.933  1.00  0.00     0.012 A   
ATOM     25  C16 UNL     1       1.296  -1.810  -1.306  1.00  0.00     0.045 A   
ATOM     26  C13 UNL     1       1.096  -3.187  -3.764  1.00  0.00     0.037 A   
ATOM     27  C15 UNL     1       2.377  -1.954  -2.150  1.00  0.00     0.109 A   
ATOM     28  C14 UNL     1       2.280  -2.621  -3.345  1.00  0.00     0.108 A   
ATOM     29  O3  UNL     1       3.627  -1.473  -1.923  1.00  0.00    -0.316 OA  
ATOM     30  O4  UNL     1       3.457  -2.646  -4.021  1.00  0.00    -0.316 OA  
ATOM     31  C17 UNL     1       4.316  -1.929  -3.109  1.00  0.00     0.337 C   
ENDBRANCH  22  23
ENDBRANCH  19  22
ENDBRANCH  18  19
BRANCH  18  32
ATOM     32  C18 UNL     1      -2.665   1.065  -2.214  1.00  0.00     0.043 C   
ATOM     33  C19 UNL     1      -2.669   0.663  -3.694  1.00  0.00     0.010 C   
ATOM     34  C22 UNL     1      -2.290   2.549  -2.294  1.00  0.00     0.010 C   
ATOM     35  C20 UNL     1      -3.186   1.887  -4.448  1.00  0.00     0.001 C   
ATOM     36  C21 UNL     1      -3.101   3.059  -3.475  1.00  0.00     0.001 C   
ENDBRANCH  18  32
ENDBRANCH   3  18
TORSDOF 8
