REMARK SMILES c1cc2cc[nH]c2c(-n2cc([C@@H]([NH2+]Cc3ccc4c(c3)OCO4)C3CCCCC3)nn2)n1
REMARK SMILES IDX 12 1 11 2 9 3 10 4 31 5 30 6 8 7 1 8 2 9 32 10 3 11 4 12
REMARK SMILES IDX 7 13 5 14 6 15 13 17 14 20 15 21 16 22 20 23 17 24 19 25
REMARK SMILES IDX 18 26 21 27 23 28 22 29 24 30 25 31 29 32 26 33 28 34 27 35
REMARK H PARENT 6 16 13 18 13 19
ROOT
ATOM     1   C10 UNL     1       0.608  -0.072  -0.275  1.00  0.00     0.117 C   
ENDROOT
BRANCH   1   2
ATOM     2   C9  UNL     1      -0.600   0.321   0.516  1.00  0.00     0.128 A   
ATOM     3   N2  UNL     1      -2.106   1.233   1.811  1.00  0.00    -0.160 N   
ATOM     4   C8  UNL     1      -0.831   1.416   1.316  1.00  0.00     0.137 A   
ATOM     5   N5  UNL     1      -2.606   0.060   1.335  1.00  0.00    -0.069 NA  
ATOM     6   N4  UNL     1      -1.700  -0.495   0.545  1.00  0.00    -0.131 NA  
BRANCH   3   7
ATOM     7   C7  UNL     1      -2.806   2.088   2.691  1.00  0.00     0.168 A   
ATOM     8   C1  UNL     1      -2.843   4.054   3.969  1.00  0.00     0.114 A   
ATOM     9   C2  UNL     1      -4.122   3.836   4.454  1.00  0.00     0.030 A   
ATOM     10  N6  UNL     1      -2.189   3.226   3.123  1.00  0.00    -0.237 NA  
ATOM     11  C3  UNL     1      -4.770   2.672   4.021  1.00  0.00     0.002 A   
ATOM     12  C4  UNL     1      -6.048   2.103   4.277  1.00  0.00     0.025 A   
ATOM     13  C6  UNL     1      -4.102   1.815   3.143  1.00  0.00     0.080 A   
ATOM     14  C5  UNL     1      -6.133   0.930   3.565  1.00  0.00     0.073 A   
ATOM     15  N1  UNL     1      -4.961   0.767   2.881  1.00  0.00    -0.318 N   
ATOM     16  H5  UNL     1      -4.743  -0.008   2.267  1.00  0.00     0.152 HD  
ENDBRANCH   3   7
ENDBRANCH   1   2
BRANCH   1  17
ATOM     17  N3  UNL     1       0.708  -1.575  -0.383  1.00  0.00     0.249 N   
ATOM     18  H8  UNL     1      -0.225  -1.908  -0.660  1.00  0.00     0.199 HD  
ATOM     19  H9  UNL     1       1.358  -1.844  -1.125  1.00  0.00     0.199 HD  
BRANCH  17  20
ATOM     20  C11 UNL     1       1.084  -2.303   0.866  1.00  0.00     0.164 C   
BRANCH  20  21
ATOM     21  C12 UNL     1       2.519  -2.085   1.254  1.00  0.00    -0.002 A   
ATOM     22  C13 UNL     1       3.558  -2.739   0.547  1.00  0.00     0.012 A   
ATOM     23  C17 UNL     1       2.842  -1.202   2.298  1.00  0.00     0.045 A   
ATOM     24  C14 UNL     1       4.899  -2.515   0.874  1.00  0.00     0.037 A   
ATOM     25  C16 UNL     1       4.175  -1.000   2.591  1.00  0.00     0.109 A   
ATOM     26  C15 UNL     1       5.175  -1.638   1.900  1.00  0.00     0.108 A   
ATOM     27  O1  UNL     1       4.655  -0.173   3.556  1.00  0.00    -0.316 OA  
ATOM     28  O2  UNL     1       6.411  -1.298   2.346  1.00  0.00    -0.316 OA  
ATOM     29  C18 UNL     1       6.078  -0.393   3.420  1.00  0.00     0.337 C   
ENDBRANCH  20  21
ENDBRANCH  17  20
ENDBRANCH   1  17
BRANCH   1  30
ATOM     30  C19 UNL     1       0.617   0.575  -1.688  1.00  0.00     0.043 C   
ATOM     31  C20 UNL     1      -0.453   0.013  -2.646  1.00  0.00     0.010 C   
ATOM     32  C24 UNL     1       2.011   0.492  -2.341  1.00  0.00     0.010 C   
ATOM     33  C21 UNL     1      -0.417   0.714  -4.003  1.00  0.00     0.001 C   
ATOM     34  C23 UNL     1       2.040   1.194  -3.699  1.00  0.00     0.001 C   
ATOM     35  C22 UNL     1       0.969   0.646  -4.636  1.00  0.00     0.000 C   
ENDBRANCH   1  30
TORSDOF 6
