REMARK SMILES Clc1cccc(-n2cc([C@@H]([NH2+]Cc3ccc4c(c3)OCO4)C3CCCCC3)nn2)n1
REMARK SMILES IDX 10 1 9 2 7 3 8 4 29 5 28 6 6 7 2 8 3 9 30 10 4 11 5 12 1 13
REMARK SMILES IDX 11 14 12 17 13 18 14 19 18 20 15 21 17 22 16 23 19 24 21 25
REMARK SMILES IDX 20 26 22 27 23 28 27 29 24 30 26 31 25 32
REMARK H PARENT 11 15 11 16
ROOT
ATOM     1   C8  UNL     1      -0.012  -0.537  -0.472  1.00  0.00     0.117 C   
ENDROOT
BRANCH   1   2
ATOM     2   C7  UNL     1       0.373   0.833  -0.930  1.00  0.00     0.128 A   
ATOM     3   N1  UNL     1       0.928   2.934  -1.179  1.00  0.00    -0.162 N   
ATOM     4   C6  UNL     1       0.681   1.970  -0.221  1.00  0.00     0.137 A   
ATOM     5   N4  UNL     1       0.734   2.396  -2.410  1.00  0.00    -0.070 NA  
ATOM     6   N3  UNL     1       0.400   1.123  -2.269  1.00  0.00    -0.131 NA  
BRANCH   3   7
ATOM     7   C5  UNL     1       1.300   4.284  -0.954  1.00  0.00     0.147 A   
ATOM     8   C1  UNL     1       1.769   5.977   0.536  1.00  0.00     0.131 A   
ATOM     9   C2  UNL     1       2.010   6.889  -0.475  1.00  0.00     0.041 A   
ATOM     10  N5  UNL     1       1.417   4.689   0.337  1.00  0.00    -0.219 NA  
ATOM     11  C3  UNL     1       1.883   6.452  -1.790  1.00  0.00     0.007 A   
ATOM     12  C4  UNL     1       1.521   5.129  -2.041  1.00  0.00     0.047 A   
ATOM     13  CL1 UNL     1       1.894   6.427   2.184  1.00  0.00    -0.062 Cl  
ENDBRANCH   3   7
ENDBRANCH   1   2
BRANCH   1  14
ATOM     14  N2  UNL     1      -1.011  -1.148  -1.433  1.00  0.00     0.249 N   
ATOM     15  H6  UNL     1      -0.630  -1.009  -2.380  1.00  0.00     0.199 HD  
ATOM     16  H7  UNL     1      -1.078  -2.158  -1.279  1.00  0.00     0.199 HD  
BRANCH  14  17
ATOM     17  C9  UNL     1      -2.385  -0.563  -1.420  1.00  0.00     0.164 C   
BRANCH  17  18
ATOM     18  C10 UNL     1      -3.136  -0.871  -0.155  1.00  0.00    -0.002 A   
ATOM     19  C11 UNL     1      -3.364   0.142   0.807  1.00  0.00     0.012 A   
ATOM     20  C15 UNL     1      -3.594  -2.177   0.096  1.00  0.00     0.045 A   
ATOM     21  C12 UNL     1      -4.029  -0.139   2.005  1.00  0.00     0.037 A   
ATOM     22  C14 UNL     1      -4.246  -2.420   1.287  1.00  0.00     0.109 A   
ATOM     23  C13 UNL     1      -4.456  -1.431   2.216  1.00  0.00     0.108 A   
ATOM     24  O1  UNL     1      -4.744  -3.620   1.683  1.00  0.00    -0.316 OA  
ATOM     25  O2  UNL     1      -5.112  -1.884   3.315  1.00  0.00    -0.316 OA  
ATOM     26  C16 UNL     1      -5.316  -3.269   2.965  1.00  0.00     0.337 C   
ENDBRANCH  17  18
ENDBRANCH  14  17
ENDBRANCH   1  14
BRANCH   1  27
ATOM     27  C17 UNL     1       1.181  -1.520  -0.322  1.00  0.00     0.043 C   
ATOM     28  C18 UNL     1       1.972  -1.764  -1.622  1.00  0.00     0.010 C   
ATOM     29  C22 UNL     1       2.136  -1.087   0.808  1.00  0.00     0.010 C   
ATOM     30  C19 UNL     1       3.105  -2.768  -1.412  1.00  0.00     0.001 C   
ATOM     31  C21 UNL     1       3.263  -2.097   1.013  1.00  0.00     0.001 C   
ATOM     32  C20 UNL     1       4.034  -2.346  -0.279  1.00  0.00     0.000 C   
ENDBRANCH   1  27
TORSDOF 6
