REMARK SMILES COCc1cccc(Cn2cc([C@@H]([NH2+]Cc3ccc4c(c3)OCO4)C(C)(C)C)nn2)n1
REMARK SMILES IDX 10 1 11 2 12 3 29 4 30 5 9 7 8 8 4 9 5 10 31 11 6 12 7 13
REMARK SMILES IDX 3 14 2 15 1 16 13 17 14 18 15 21 16 22 17 23 21 24 18 25
REMARK SMILES IDX 20 26 19 27 22 28 24 29 23 30 25 31 26 32 27 33 28 34
REMARK H PARENT 11 6 14 19 14 20
ROOT
ATOM     1   N1  UNL     1       0.467   2.791  -1.969  1.00  0.00    -0.206 N   
ATOM     2   C9  UNL     1      -0.128   1.560  -2.041  1.00  0.00     0.046 A   
ATOM     3   C10 UNL     1      -1.060   1.590  -1.028  1.00  0.00     0.127 A   
ATOM     4   N3  UNL     1      -1.065   2.835  -0.454  1.00  0.00    -0.132 NA  
ATOM     5   N4  UNL     1      -0.153   3.574  -1.062  1.00  0.00    -0.076 NA  
ATOM     6   H11 UNL     1       0.238   0.781  -2.695  1.00  0.00     0.083 HD  
ENDROOT
BRANCH   1   7
ATOM     7   C8  UNL     1       1.726   3.200  -2.561  1.00  0.00     0.190 C   
BRANCH   7   8
ATOM     8   C7  UNL     1       2.833   2.959  -1.563  1.00  0.00     0.060 A   
ATOM     9   C3  UNL     1       4.084   1.422  -0.333  1.00  0.00     0.066 A   
ATOM     10  C4  UNL     1       4.713   2.448   0.369  1.00  0.00     0.026 A   
ATOM     11  N5  UNL     1       3.150   1.662  -1.291  1.00  0.00    -0.254 NA  
ATOM     12  C5  UNL     1       4.389   3.765   0.068  1.00  0.00     0.004 A   
ATOM     13  C6  UNL     1       3.434   4.029  -0.906  1.00  0.00     0.025 A   
BRANCH   9  14
ATOM     14  C2  UNL     1       4.412  -0.018  -0.010  1.00  0.00     0.215 C   
BRANCH  14  15
ATOM     15  O1  UNL     1       3.450  -0.532   0.923  1.00  0.00    -0.378 OA  
ATOM     16  C1  UNL     1       3.868  -1.797   1.433  1.00  0.00     0.195 C   
ENDBRANCH  14  15
ENDBRANCH   9  14
ENDBRANCH   7   8
ENDBRANCH   1   7
BRANCH   3  17
ATOM     17  C11 UNL     1      -1.843   0.479  -0.401  1.00  0.00     0.120 C   
BRANCH  17  18
ATOM     18  N2  UNL     1      -1.422   0.388   1.052  1.00  0.00     0.250 N   
ATOM     19  H13 UNL     1      -1.415   1.356   1.408  1.00  0.00     0.199 HD  
ATOM     20  H14 UNL     1      -2.103  -0.133   1.610  1.00  0.00     0.199 HD  
BRANCH  18  21
ATOM     21  C12 UNL     1      -0.055  -0.174   1.300  1.00  0.00     0.164 C   
BRANCH  21  22
ATOM     22  C13 UNL     1       0.012  -1.656   1.044  1.00  0.00    -0.002 A   
ATOM     23  C14 UNL     1       0.679  -2.152  -0.102  1.00  0.00     0.012 A   
ATOM     24  C18 UNL     1      -0.596  -2.558   1.934  1.00  0.00     0.045 A   
ATOM     25  C15 UNL     1       0.748  -3.526  -0.360  1.00  0.00     0.037 A   
ATOM     26  C17 UNL     1      -0.509  -3.906   1.653  1.00  0.00     0.109 A   
ATOM     27  C16 UNL     1       0.145  -4.377   0.540  1.00  0.00     0.108 A   
ATOM     28  O2  UNL     1      -1.030  -4.903   2.412  1.00  0.00    -0.316 OA  
ATOM     29  O3  UNL     1       0.125  -5.733   0.462  1.00  0.00    -0.316 OA  
ATOM     30  C19 UNL     1      -0.610  -6.067   1.659  1.00  0.00     0.337 C   
ENDBRANCH  21  22
ENDBRANCH  18  21
ENDBRANCH  17  18
BRANCH  17  31
ATOM     31  C20 UNL     1      -3.400   0.613  -0.527  1.00  0.00     0.010 C   
ATOM     32  C21 UNL     1      -4.085  -0.673  -0.009  1.00  0.00     0.017 C   
ATOM     33  C22 UNL     1      -3.793   0.769  -2.013  1.00  0.00     0.017 C   
ATOM     34  C23 UNL     1      -3.978   1.808   0.258  1.00  0.00     0.017 C   
ENDBRANCH  17  31
ENDBRANCH   3  17
TORSDOF 9
