REMARK SMILES CC(C)C[C@H]([NH2+]Cc1ccc2c(c1)OCO2)c1cn(CCc2cccc(Cl)c2O)nn1
REMARK SMILES IDX 17 1 18 2 19 3 30 4 31 5 5 7 4 8 2 9 1 10 3 11 6 12 7 15
REMARK SMILES IDX 8 16 9 17 13 18 10 19 12 20 11 21 14 22 16 23 15 24 20 25
REMARK SMILES IDX 21 26 22 27 23 28 28 29 24 30 26 31 25 32 27 33 29 34
REMARK H PARENT 18 6 6 13 6 14 29 35
ROOT
ATOM     1   C14 UNL     1       1.350  -0.455  -0.954  1.00  0.00     0.127 A   
ATOM     2   C15 UNL     1       2.505  -0.048  -0.326  1.00  0.00     0.045 A   
ATOM     3   N2  UNL     1       2.444   1.317  -0.381  1.00  0.00    -0.212 N   
ATOM     4   N3  UNL     1       1.320   1.726  -0.996  1.00  0.00    -0.076 NA  
ATOM     5   N4  UNL     1       0.642   0.649  -1.357  1.00  0.00    -0.132 NA  
ATOM     6   H20 UNL     1       3.322  -0.571   0.152  1.00  0.00     0.083 HD  
ENDROOT
BRANCH   1   7
ATOM     7   C5  UNL     1       0.772  -1.813  -1.166  1.00  0.00     0.114 C   
BRANCH   7   8
ATOM     8   C4  UNL     1       1.016  -2.350  -2.588  1.00  0.00     0.064 C   
BRANCH   8   9
ATOM     9   C2  UNL     1       2.498  -2.569  -2.963  1.00  0.00    -0.012 C   
ATOM     10  C1  UNL     1       2.597  -3.044  -4.415  1.00  0.00     0.007 C   
ATOM     11  C3  UNL     1       3.189  -3.577  -2.044  1.00  0.00     0.007 C   
ENDBRANCH   8   9
ENDBRANCH   7   8
BRANCH   7  12
ATOM     12  N1  UNL     1      -0.725  -1.758  -0.967  1.00  0.00     0.249 N   
ATOM     13  H11 UNL     1      -1.185  -2.592  -1.347  1.00  0.00     0.199 HD  
ATOM     14  H12 UNL     1      -1.066  -0.958  -1.521  1.00  0.00     0.199 HD  
BRANCH  12  15
ATOM     15  C6  UNL     1      -1.171  -1.549   0.439  1.00  0.00     0.164 C   
BRANCH  15  16
ATOM     16  C7  UNL     1      -2.668  -1.434   0.501  1.00  0.00    -0.002 A   
ATOM     17  C8  UNL     1      -3.293  -0.187   0.263  1.00  0.00     0.012 A   
ATOM     18  C12 UNL     1      -3.458  -2.572   0.736  1.00  0.00     0.045 A   
ATOM     19  C9  UNL     1      -4.687  -0.069   0.272  1.00  0.00     0.037 A   
ATOM     20  C11 UNL     1      -4.829  -2.421   0.738  1.00  0.00     0.109 A   
ATOM     21  C10 UNL     1      -5.427  -1.205   0.513  1.00  0.00     0.108 A   
ATOM     22  O1  UNL     1      -5.732  -3.413   0.948  1.00  0.00    -0.316 OA  
ATOM     23  O2  UNL     1      -6.782  -1.279   0.556  1.00  0.00    -0.316 OA  
ATOM     24  C13 UNL     1      -6.974  -2.679   0.851  1.00  0.00     0.337 C   
ENDBRANCH  15  16
ENDBRANCH  12  15
ENDBRANCH   7  12
ENDBRANCH   1   7
BRANCH   3  25
ATOM     25  C16 UNL     1       3.383   2.272   0.167  1.00  0.00     0.139 C   
BRANCH  25  26
ATOM     26  C17 UNL     1       2.860   2.974   1.423  1.00  0.00     0.059 C   
BRANCH  26  27
ATOM     27  C18 UNL     1       2.431   2.042   2.537  1.00  0.00    -0.015 A   
ATOM     28  C19 UNL     1       1.090   2.034   2.958  1.00  0.00     0.006 A   
ATOM     29  C23 UNL     1       3.335   1.193   3.185  1.00  0.00     0.093 A   
ATOM     30  C20 UNL     1       0.668   1.197   3.995  1.00  0.00     0.002 A   
ATOM     31  C22 UNL     1       2.912   0.351   4.221  1.00  0.00     0.071 A   
ATOM     32  C21 UNL     1       1.579   0.352   4.627  1.00  0.00     0.023 A   
ATOM     33  CL1 UNL     1       4.030  -0.708   4.995  1.00  0.00    -0.081 Cl  
BRANCH  29  34
ATOM     34  O3  UNL     1       4.643   1.203   2.779  1.00  0.00    -0.359 OA  
ATOM     35  H28 UNL     1       5.155   0.690   3.436  1.00  0.00     0.218 HD  
ENDBRANCH  29  34
ENDBRANCH  26  27
ENDBRANCH  25  26
ENDBRANCH   3  25
TORSDOF 10
