REMARK SMILES CC(C)(C)[C@H]([NH2+]Cc1ccc2c(c1)OCO2)c1cn(Cc2cccc(CN)c2)nn1
REMARK SMILES IDX 17 1 18 2 19 3 29 4 30 5 5 7 2 8 1 9 3 10 4 11 6 12 7 15
REMARK SMILES IDX 8 16 9 17 13 18 10 19 12 20 11 21 14 22 16 23 15 24 20 25
REMARK SMILES IDX 21 26 22 27 28 28 23 29 25 30 24 31 26 32 27 33
REMARK H PARENT 18 6 6 13 6 14 27 34 27 35
ROOT
ATOM     1   C14 UNL     1      -0.547  -0.439   0.565  1.00  0.00     0.127 A   
ATOM     2   C15 UNL     1       0.406   0.012   1.450  1.00  0.00     0.046 A   
ATOM     3   N2  UNL     1       0.787   1.223   0.937  1.00  0.00    -0.208 N   
ATOM     4   N4  UNL     1       0.012   1.562  -0.110  1.00  0.00    -0.076 NA  
ATOM     5   N5  UNL     1      -0.793   0.542  -0.362  1.00  0.00    -0.132 NA  
ATOM     6   H20 UNL     1       0.892  -0.428   2.310  1.00  0.00     0.083 HD  
ENDROOT
BRANCH   1   7
ATOM     7   C5  UNL     1      -1.313  -1.726   0.494  1.00  0.00     0.120 C   
BRANCH   7   8
ATOM     8   C2  UNL     1      -0.536  -2.905  -0.196  1.00  0.00     0.010 C   
ATOM     9   C1  UNL     1      -1.353  -4.216  -0.100  1.00  0.00     0.017 C   
ATOM     10  C3  UNL     1      -0.237  -2.626  -1.682  1.00  0.00     0.017 C   
ATOM     11  C4  UNL     1       0.806  -3.164   0.525  1.00  0.00     0.017 C   
ENDBRANCH   7   8
BRANCH   7  12
ATOM     12  N1  UNL     1      -2.615  -1.465  -0.230  1.00  0.00     0.250 N   
ATOM     13  H11 UNL     1      -2.386  -0.826  -1.007  1.00  0.00     0.199 HD  
ATOM     14  H12 UNL     1      -3.005  -2.303  -0.666  1.00  0.00     0.199 HD  
BRANCH  12  15
ATOM     15  C6  UNL     1      -3.675  -0.808   0.582  1.00  0.00     0.164 C   
BRANCH  15  16
ATOM     16  C7  UNL     1      -4.860  -0.477  -0.279  1.00  0.00    -0.002 A   
ATOM     17  C8  UNL     1      -5.946  -1.379  -0.385  1.00  0.00     0.012 A   
ATOM     18  C12 UNL     1      -4.868   0.707  -1.033  1.00  0.00     0.045 A   
ATOM     19  C9  UNL     1      -7.031  -1.101  -1.222  1.00  0.00     0.037 A   
ATOM     20  C11 UNL     1      -5.956   0.952  -1.845  1.00  0.00     0.109 A   
ATOM     21  C10 UNL     1      -7.006   0.073  -1.938  1.00  0.00     0.108 A   
ATOM     22  O1  UNL     1      -6.124   2.046  -2.632  1.00  0.00    -0.316 OA  
ATOM     23  O2  UNL     1      -7.970   0.506  -2.793  1.00  0.00    -0.316 OA  
ATOM     24  C13 UNL     1      -7.419   1.773  -3.212  1.00  0.00     0.337 C   
ENDBRANCH  15  16
ENDBRANCH  12  15
ENDBRANCH   7  12
ENDBRANCH   1   7
BRANCH   3  25
ATOM     25  C16 UNL     1       1.893   2.073   1.355  1.00  0.00     0.169 C   
BRANCH  25  26
ATOM     26  C17 UNL     1       3.199   1.316   1.339  1.00  0.00    -0.028 A   
ATOM     27  C18 UNL     1       3.961   1.181   2.508  1.00  0.00     0.005 A   
ATOM     28  C23 UNL     1       3.668   0.728   0.150  1.00  0.00     0.010 A   
ATOM     29  C19 UNL     1       5.151   0.453   2.494  1.00  0.00     0.001 A   
ATOM     30  C21 UNL     1       4.861  -0.010   0.128  1.00  0.00    -0.034 A   
ATOM     31  C20 UNL     1       5.594  -0.148   1.313  1.00  0.00     0.005 A   
BRANCH  30  32
ATOM     32  C22 UNL     1       5.322  -0.662  -1.150  1.00  0.00     0.113 C   
BRANCH  32  33
ATOM     33  N3  UNL     1       4.538  -1.867  -1.438  1.00  0.00    -0.327 NA  
ATOM     34  H28 UNL     1       4.915  -2.286  -2.286  1.00  0.00     0.119 HD  
ATOM     35  H29 UNL     1       4.712  -2.545  -0.694  1.00  0.00     0.119 HD  
ENDBRANCH  32  33
ENDBRANCH  30  32
ENDBRANCH  25  26
ENDBRANCH   3  25
TORSDOF 9
