REMARK SMILES Cc1ccccc1CCn1cc([C@@H]([NH2+]Cc2ccc3c(c2)OCO3)C2CCCC2)nn1
REMARK SMILES IDX 10 1 11 2 12 3 30 4 31 5 9 7 8 8 7 9 2 10 3 11 4 12 6 13
REMARK SMILES IDX 5 14 1 15 13 16 14 17 15 20 16 21 17 22 21 23 18 24 20 25
REMARK SMILES IDX 19 26 22 27 24 28 23 29 25 30 26 31 29 32 27 33 28 34
REMARK H PARENT 11 6 14 18 14 19
ROOT
ATOM     1   N1  UNL     1       2.581  -1.895   1.018  1.00  0.00    -0.212 N   
ATOM     2   C10 UNL     1       1.975  -1.290  -0.046  1.00  0.00     0.045 A   
ATOM     3   C11 UNL     1       1.605  -0.058   0.442  1.00  0.00     0.127 A   
ATOM     4   N3  UNL     1       2.019   0.055   1.747  1.00  0.00    -0.132 NA  
ATOM     5   N4  UNL     1       2.602  -1.082   2.091  1.00  0.00    -0.076 NA  
ATOM     6   H12 UNL     1       1.837  -1.788  -0.997  1.00  0.00     0.083 HD  
ENDROOT
BRANCH   1   7
ATOM     7   C9  UNL     1       3.112  -3.240   1.094  1.00  0.00     0.139 C   
BRANCH   7   8
ATOM     8   C8  UNL     1       2.112  -4.243   1.672  1.00  0.00     0.057 C   
BRANCH   8   9
ATOM     9   C7  UNL     1       0.884  -4.427   0.798  1.00  0.00    -0.043 A   
ATOM     10  C2  UNL     1      -0.395  -3.948   1.160  1.00  0.00    -0.048 A   
ATOM     11  C3  UNL     1      -1.468  -4.115   0.265  1.00  0.00     0.004 A   
ATOM     12  C4  UNL     1      -1.288  -4.753  -0.962  1.00  0.00     0.000 A   
ATOM     13  C6  UNL     1       1.041  -5.086  -0.437  1.00  0.00     0.004 A   
ATOM     14  C5  UNL     1      -0.035  -5.245  -1.310  1.00  0.00     0.000 A   
ATOM     15  C1  UNL     1      -0.654  -3.253   2.470  1.00  0.00     0.044 C   
ENDBRANCH   8   9
ENDBRANCH   7   8
ENDBRANCH   1   7
BRANCH   3  16
ATOM     16  C12 UNL     1       0.834   1.054  -0.190  1.00  0.00     0.117 C   
BRANCH  16  17
ATOM     17  N2  UNL     1       0.142   1.879   0.871  1.00  0.00     0.249 N   
ATOM     18  H14 UNL     1       0.853   2.059   1.594  1.00  0.00     0.199 HD  
ATOM     19  H15 UNL     1      -0.154   2.784   0.499  1.00  0.00     0.199 HD  
BRANCH  17  20
ATOM     20  C13 UNL     1      -1.009   1.226   1.560  1.00  0.00     0.164 C   
BRANCH  20  21
ATOM     21  C14 UNL     1      -2.220   1.093   0.679  1.00  0.00    -0.002 A   
ATOM     22  C15 UNL     1      -3.034   2.217   0.403  1.00  0.00     0.012 A   
ATOM     23  C19 UNL     1      -2.535  -0.150   0.100  1.00  0.00     0.045 A   
ATOM     24  C16 UNL     1      -4.148   2.107  -0.438  1.00  0.00     0.037 A   
ATOM     25  C18 UNL     1      -3.639  -0.225  -0.721  1.00  0.00     0.109 A   
ATOM     26  C17 UNL     1      -4.423   0.872  -0.984  1.00  0.00     0.108 A   
ATOM     27  O1  UNL     1      -4.075  -1.341  -1.361  1.00  0.00    -0.316 OA  
ATOM     28  O2  UNL     1      -5.454   0.584  -1.819  1.00  0.00    -0.316 OA  
ATOM     29  C20 UNL     1      -5.256  -0.833  -2.022  1.00  0.00     0.337 C   
ENDBRANCH  20  21
ENDBRANCH  17  20
ENDBRANCH  16  17
BRANCH  16  30
ATOM     30  C21 UNL     1       1.735   1.947  -1.067  1.00  0.00     0.043 C   
ATOM     31  C22 UNL     1       2.761   2.812  -0.326  1.00  0.00     0.010 C   
ATOM     32  C25 UNL     1       0.968   2.937  -1.965  1.00  0.00     0.010 C   
ATOM     33  C23 UNL     1       3.133   3.861  -1.364  1.00  0.00     0.001 C   
ATOM     34  C24 UNL     1       1.793   4.224  -1.986  1.00  0.00     0.001 C   
ENDBRANCH  16  30
ENDBRANCH   3  16
TORSDOF 8
