REMARK SMILES [O-]N([O-])c1cccc(Cn2cc([C@@H]([NH2+]Cc3ccc4c(c3)OCO4)C3CCCC3)nn2)c1F
REMARK SMILES IDX 10 1 11 2 12 3 30 4 31 5 9 7 8 8 4 9 5 10 32 11 6 12 7 13
REMARK SMILES IDX 33 14 2 15 1 16 3 17 13 18 14 19 15 22 16 23 17 24 21 25
REMARK SMILES IDX 18 26 20 27 19 28 22 29 24 30 23 31 25 32 26 33 29 34 27 35
REMARK SMILES IDX 28 36
REMARK H PARENT 11 6 14 20 14 21
ROOT
ATOM     1   N2  UNL     1      -2.075  -0.459  -1.903  1.00  0.00    -0.208 N   
ATOM     2   C7  UNL     1      -1.504  -1.166  -0.880  1.00  0.00     0.046 A   
ATOM     3   C8  UNL     1      -1.331  -0.229   0.113  1.00  0.00     0.127 A   
ATOM     4   N4  UNL     1      -1.816   0.981  -0.320  1.00  0.00    -0.132 NA  
ATOM     5   N5  UNL     1      -2.260   0.829  -1.556  1.00  0.00    -0.076 NA  
ATOM     6   H6  UNL     1      -1.255  -2.215  -0.967  1.00  0.00     0.083 HD  
ENDROOT
BRANCH   1   7
ATOM     7   C6  UNL     1      -2.440  -0.928  -3.227  1.00  0.00     0.172 C   
BRANCH   7   8
ATOM     8   C5  UNL     1      -1.266  -0.843  -4.167  1.00  0.00     0.009 A   
ATOM     9   C1  UNL     1       0.795  -1.781  -5.026  1.00  0.00     0.154 A   
ATOM     10  C2  UNL     1       0.965  -0.688  -5.883  1.00  0.00     0.034 A   
ATOM     11  C23 UNL     1      -0.309  -1.864  -4.182  1.00  0.00     0.156 A   
ATOM     12  C3  UNL     1       0.017   0.336  -5.871  1.00  0.00     0.003 A   
ATOM     13  C4  UNL     1      -1.088   0.264  -5.014  1.00  0.00     0.008 A   
ATOM     14  F1  UNL     1      -0.495  -2.922  -3.377  1.00  0.00    -0.204 F   
BRANCH   9  15
ATOM     15  N1  UNL     1       1.791  -2.836  -5.005  1.00  0.00     0.095 N   
ATOM     16  O1  UNL     1       2.334  -3.126  -6.078  1.00  0.00    -0.138 OA  
ATOM     17  O2  UNL     1       2.054  -3.356  -3.913  1.00  0.00    -0.138 OA  
ENDBRANCH   9  15
ENDBRANCH   7   8
ENDBRANCH   1   7
BRANCH   3  18
ATOM     18  C9  UNL     1      -0.683  -0.313   1.458  1.00  0.00     0.117 C   
BRANCH  18  19
ATOM     19  N3  UNL     1      -0.059   1.026   1.789  1.00  0.00     0.249 N   
ATOM     20  H8  UNL     1      -0.299   1.321   2.738  1.00  0.00     0.199 HD  
ATOM     21  H9  UNL     1      -0.520   1.712   1.170  1.00  0.00     0.199 HD  
BRANCH  19  22
ATOM     22  C10 UNL     1       1.415   1.144   1.611  1.00  0.00     0.164 C   
BRANCH  22  23
ATOM     23  C11 UNL     1       1.935   0.789   0.244  1.00  0.00    -0.002 A   
ATOM     24  C12 UNL     1       1.484   1.465  -0.916  1.00  0.00     0.012 A   
ATOM     25  C16 UNL     1       2.917  -0.209   0.116  1.00  0.00     0.045 A   
ATOM     26  C13 UNL     1       1.978   1.134  -2.184  1.00  0.00     0.037 A   
ATOM     27  C15 UNL     1       3.398  -0.496  -1.146  1.00  0.00     0.109 A   
ATOM     28  C14 UNL     1       2.937   0.150  -2.266  1.00  0.00     0.108 A   
ATOM     29  O3  UNL     1       4.361  -1.410  -1.432  1.00  0.00    -0.316 OA  
ATOM     30  O4  UNL     1       3.541  -0.290  -3.402  1.00  0.00    -0.316 OA  
ATOM     31  C17 UNL     1       4.511  -1.213  -2.855  1.00  0.00     0.337 C   
ENDBRANCH  22  23
ENDBRANCH  19  22
ENDBRANCH  18  19
BRANCH  18  32
ATOM     32  C18 UNL     1      -1.687  -0.737   2.547  1.00  0.00     0.043 C   
ATOM     33  C19 UNL     1      -1.058  -1.000   3.917  1.00  0.00     0.010 C   
ATOM     34  C22 UNL     1      -2.824   0.250   2.854  1.00  0.00     0.010 C   
ATOM     35  C20 UNL     1      -2.270  -1.076   4.833  1.00  0.00     0.001 C   
ATOM     36  C21 UNL     1      -3.208   0.007   4.316  1.00  0.00     0.001 C   
ENDBRANCH  18  32
ENDBRANCH   3  18
TORSDOF 8
