REMARK SMILES COc1cccc(C(=O)Cn2cc([C@H](CC(C)C)[NH2+]Cc3ccc4c(c3)OCO4)nn2)c1
REMARK SMILES IDX 11 1 12 2 13 3 30 4 31 5 10 7 8 8 9 9 7 10 3 11 4 12 32 13
REMARK SMILES IDX 5 14 6 15 2 16 1 17 14 18 15 19 16 20 17 21 18 22 19 23
REMARK SMILES IDX 20 26 21 27 22 28 26 29 23 30 25 31 24 32 27 33 29 34 28 35
REMARK H PARENT 12 6 19 24 19 25
ROOT
ATOM     1   N1  UNL     1       2.002  -1.083   1.166  1.00  0.00    -0.204 N   
ATOM     2   C9  UNL     1       0.637  -1.079   1.196  1.00  0.00     0.046 A   
ATOM     3   C10 UNL     1       0.281  -1.669   0.004  1.00  0.00     0.127 A   
ATOM     4   N3  UNL     1       1.414  -2.055  -0.666  1.00  0.00    -0.132 NA  
ATOM     5   N4  UNL     1       2.462  -1.692   0.058  1.00  0.00    -0.076 NA  
ATOM     6   H9  UNL     1       0.074  -0.608   1.990  1.00  0.00     0.083 HD  
ENDROOT
BRANCH   1   7
ATOM     7   C8  UNL     1       2.914  -0.426   2.076  1.00  0.00     0.214 C   
BRANCH   7   8
ATOM     8   C7  UNL     1       3.204   0.969   1.580  1.00  0.00     0.182 C   
ATOM     9   O2  UNL     1       2.299   1.726   1.224  1.00  0.00    -0.292 OA  
BRANCH   8  10
ATOM     10  C6  UNL     1       4.605   1.459   1.571  1.00  0.00     0.022 A   
ATOM     11  C2  UNL     1       6.124   3.339   1.829  1.00  0.00     0.075 A   
ATOM     12  C3  UNL     1       7.204   2.490   1.582  1.00  0.00     0.033 A   
ATOM     13  C24 UNL     1       4.827   2.820   1.816  1.00  0.00     0.045 A   
ATOM     14  C4  UNL     1       6.985   1.135   1.314  1.00  0.00     0.003 A   
ATOM     15  C5  UNL     1       5.689   0.617   1.304  1.00  0.00     0.012 A   
BRANCH  11  16
ATOM     16  O1  UNL     1       6.194   4.679   2.091  1.00  0.00    -0.349 OA  
ATOM     17  C1  UNL     1       7.492   5.258   2.162  1.00  0.00     0.203 C   
ENDBRANCH  11  16
ENDBRANCH   8  10
ENDBRANCH   7   8
ENDBRANCH   1   7
BRANCH   3  18
ATOM     18  C11 UNL     1      -1.055  -1.823  -0.641  1.00  0.00     0.114 C   
BRANCH  18  19
ATOM     19  C12 UNL     1      -1.523  -3.290  -0.586  1.00  0.00     0.064 C   
BRANCH  19  20
ATOM     20  C13 UNL     1      -2.928  -3.582  -1.150  1.00  0.00    -0.012 C   
ATOM     21  C14 UNL     1      -4.019  -2.761  -0.464  1.00  0.00     0.007 C   
ATOM     22  C15 UNL     1      -3.240  -5.075  -1.003  1.00  0.00     0.007 C   
ENDBRANCH  19  20
ENDBRANCH  18  19
BRANCH  18  23
ATOM     23  N2  UNL     1      -1.001  -1.373  -2.084  1.00  0.00     0.249 N   
ATOM     24  H20 UNL     1      -1.890  -1.565  -2.549  1.00  0.00     0.199 HD  
ATOM     25  H21 UNL     1      -0.279  -1.944  -2.543  1.00  0.00     0.199 HD  
BRANCH  23  26
ATOM     26  C16 UNL     1      -0.640   0.062  -2.317  1.00  0.00     0.164 C   
BRANCH  26  27
ATOM     27  C17 UNL     1      -1.584   1.027  -1.654  1.00  0.00    -0.002 A   
ATOM     28  C18 UNL     1      -1.139   1.821  -0.570  1.00  0.00     0.012 A   
ATOM     29  C22 UNL     1      -2.922   1.121  -2.076  1.00  0.00     0.045 A   
ATOM     30  C19 UNL     1      -2.015   2.680   0.102  1.00  0.00     0.037 A   
ATOM     31  C21 UNL     1      -3.763   1.975  -1.392  1.00  0.00     0.109 A   
ATOM     32  C20 UNL     1      -3.325   2.729  -0.332  1.00  0.00     0.108 A   
ATOM     33  O3  UNL     1      -5.083   2.164  -1.651  1.00  0.00    -0.316 OA  
ATOM     34  O4  UNL     1      -4.313   3.488   0.208  1.00  0.00    -0.316 OA  
ATOM     35  C23 UNL     1      -5.426   3.143  -0.645  1.00  0.00     0.337 C   
ENDBRANCH  26  27
ENDBRANCH  23  26
ENDBRANCH  18  23
ENDBRANCH   3  18
TORSDOF 10
