REMARK SMILES CC(C)c1ocnc1Cn1cc([C@@H]([NH2+]Cc2ccc3c(c2)OCO3)C(C)(C)C)nn1
REMARK SMILES IDX 10 1 11 2 12 3 29 4 30 5 9 7 8 8 4 9 5 10 6 11 7 12 2 13
REMARK SMILES IDX 1 14 3 15 13 16 14 17 15 20 16 21 17 22 21 23 18 24 20 25
REMARK SMILES IDX 19 26 22 27 24 28 23 29 25 30 26 31 27 32 28 33
REMARK H PARENT 11 6 14 18 14 19
ROOT
ATOM     1   N2  UNL     1      -2.372  -0.832  -0.920  1.00  0.00    -0.206 N   
ATOM     2   C8  UNL     1      -2.452  -1.321   0.356  1.00  0.00     0.046 A   
ATOM     3   C9  UNL     1      -1.169  -1.197   0.843  1.00  0.00     0.127 A   
ATOM     4   N4  UNL     1      -0.359  -0.699  -0.149  1.00  0.00    -0.132 NA  
ATOM     5   N5  UNL     1      -1.102  -0.493  -1.224  1.00  0.00    -0.076 NA  
ATOM     6   H11 UNL     1      -3.386  -1.665   0.782  1.00  0.00     0.083 HD  
ENDROOT
BRANCH   1   7
ATOM     7   C7  UNL     1      -3.431  -0.715  -1.906  1.00  0.00     0.192 C   
BRANCH   7   8
ATOM     8   C6  UNL     1      -4.327   0.411  -1.553  1.00  0.00     0.089 A   
ATOM     9   C4  UNL     1      -4.254   1.742  -1.916  1.00  0.00     0.086 A   
ATOM     10  O1  UNL     1      -5.315   2.388  -1.341  1.00  0.00    -0.301 OA  
ATOM     11  C5  UNL     1      -5.976   1.410  -0.667  1.00  0.00     0.247 A   
ATOM     12  N1  UNL     1      -5.428   0.216  -0.742  1.00  0.00    -0.232 NA  
BRANCH   9  13
ATOM     13  C2  UNL     1      -3.316   2.556  -2.741  1.00  0.00     0.039 C   
ATOM     14  C1  UNL     1      -2.542   3.545  -1.868  1.00  0.00     0.015 C   
ATOM     15  C3  UNL     1      -4.051   3.278  -3.871  1.00  0.00     0.015 C   
ENDBRANCH   9  13
ENDBRANCH   7   8
ENDBRANCH   1   7
BRANCH   3  16
ATOM     16  C10 UNL     1      -0.571  -1.569   2.168  1.00  0.00     0.120 C   
BRANCH  16  17
ATOM     17  N3  UNL     1       0.847  -2.047   1.940  1.00  0.00     0.250 N   
ATOM     18  H13 UNL     1       1.407  -2.049   2.800  1.00  0.00     0.199 HD  
ATOM     19  H14 UNL     1       1.288  -1.359   1.307  1.00  0.00     0.199 HD  
BRANCH  17  20
ATOM     20  C11 UNL     1       0.971  -3.384   1.294  1.00  0.00     0.164 C   
BRANCH  20  21
ATOM     21  C12 UNL     1       2.410  -3.694   0.993  1.00  0.00    -0.002 A   
ATOM     22  C13 UNL     1       3.161  -4.542   1.847  1.00  0.00     0.012 A   
ATOM     23  C17 UNL     1       3.032  -3.107  -0.126  1.00  0.00     0.045 A   
ATOM     24  C14 UNL     1       4.510  -4.813   1.585  1.00  0.00     0.037 A   
ATOM     25  C16 UNL     1       4.365  -3.393  -0.352  1.00  0.00     0.109 A   
ATOM     26  C15 UNL     1       5.082  -4.223   0.477  1.00  0.00     0.108 A   
ATOM     27  O2  UNL     1       5.114  -2.906  -1.378  1.00  0.00    -0.316 OA  
ATOM     28  O3  UNL     1       6.372  -4.366   0.076  1.00  0.00    -0.316 OA  
ATOM     29  C18 UNL     1       6.378  -3.559  -1.125  1.00  0.00     0.337 C   
ENDBRANCH  20  21
ENDBRANCH  17  20
ENDBRANCH  16  17
BRANCH  16  30
ATOM     30  C19 UNL     1      -0.588  -0.414   3.229  1.00  0.00     0.010 C   
ATOM     31  C20 UNL     1      -0.123  -0.947   4.607  1.00  0.00     0.017 C   
ATOM     32  C21 UNL     1      -2.025   0.121   3.420  1.00  0.00     0.017 C   
ATOM     33  C22 UNL     1       0.325   0.767   2.837  1.00  0.00     0.017 C   
ENDBRANCH  16  30
ENDBRANCH   3  16
TORSDOF 8
