REMARK SMILES COc1cccc(Cn2cc([C@@H]([NH2+]Cc3ccc4c(c3)OCO4)C3CCCC3)nn2)c1
REMARK SMILES IDX 9 1 10 2 11 3 29 4 30 5 8 7 7 8 3 9 4 10 31 11 5 12 6 13
REMARK SMILES IDX 2 14 1 15 12 16 13 17 14 20 15 21 16 22 20 23 17 24 19 25
REMARK SMILES IDX 18 26 21 27 23 28 22 29 24 30 25 31 28 32 26 33 27 34
REMARK H PARENT 10 6 13 18 13 19
ROOT
ATOM     1   N1  UNL     1       2.376   1.231   0.560  1.00  0.00    -0.208 N   
ATOM     2   C8  UNL     1       2.160   0.004  -0.006  1.00  0.00     0.046 A   
ATOM     3   C9  UNL     1       0.993   0.168  -0.719  1.00  0.00     0.127 A   
ATOM     4   N3  UNL     1       0.557   1.461  -0.579  1.00  0.00    -0.132 NA  
ATOM     5   N4  UNL     1       1.408   2.100   0.205  1.00  0.00    -0.076 NA  
ATOM     6   H9  UNL     1       2.821  -0.836   0.163  1.00  0.00     0.083 HD  
ENDROOT
BRANCH   1   7
ATOM     7   C7  UNL     1       3.454   1.636   1.446  1.00  0.00     0.169 C   
BRANCH   7   8
ATOM     8   C6  UNL     1       3.173   1.195   2.860  1.00  0.00    -0.026 A   
ATOM     9   C2  UNL     1       3.423  -0.442   4.653  1.00  0.00     0.075 A   
ATOM     10  C3  UNL     1       2.606   0.335   5.473  1.00  0.00     0.033 A   
ATOM     11  C24 UNL     1       3.703  -0.008   3.352  1.00  0.00     0.038 A   
ATOM     12  C4  UNL     1       2.071   1.534   4.994  1.00  0.00     0.003 A   
ATOM     13  C5  UNL     1       2.349   1.962   3.695  1.00  0.00     0.005 A   
BRANCH   9  14
ATOM     14  O1  UNL     1       3.999  -1.637   4.989  1.00  0.00    -0.349 OA  
ATOM     15  C1  UNL     1       3.818  -2.080   6.332  1.00  0.00     0.203 C   
ENDBRANCH   9  14
ENDBRANCH   7   8
ENDBRANCH   1   7
BRANCH   3  16
ATOM     16  C10 UNL     1       0.181  -0.797  -1.520  1.00  0.00     0.117 C   
BRANCH  16  17
ATOM     17  N2  UNL     1      -1.269  -0.396  -1.485  1.00  0.00     0.249 N   
ATOM     18  H11 UNL     1      -1.293   0.631  -1.584  1.00  0.00     0.199 HD  
ATOM     19  H12 UNL     1      -1.799  -0.771  -2.276  1.00  0.00     0.199 HD  
BRANCH  17  20
ATOM     20  C11 UNL     1      -1.983  -0.722  -0.220  1.00  0.00     0.164 C   
BRANCH  20  21
ATOM     21  C12 UNL     1      -3.396  -0.215  -0.271  1.00  0.00    -0.002 A   
ATOM     22  C13 UNL     1      -3.698   1.096   0.168  1.00  0.00     0.012 A   
ATOM     23  C17 UNL     1      -4.418  -1.019  -0.804  1.00  0.00     0.045 A   
ATOM     24  C14 UNL     1      -5.003   1.596   0.092  1.00  0.00     0.037 A   
ATOM     25  C16 UNL     1      -5.692  -0.493  -0.867  1.00  0.00     0.109 A   
ATOM     26  C15 UNL     1      -5.977   0.777  -0.430  1.00  0.00     0.108 A   
ATOM     27  O2  UNL     1      -6.786  -1.135  -1.354  1.00  0.00    -0.316 OA  
ATOM     28  O3  UNL     1      -7.290   1.094  -0.579  1.00  0.00    -0.316 OA  
ATOM     29  C18 UNL     1      -7.806  -0.130  -1.144  1.00  0.00     0.337 C   
ENDBRANCH  20  21
ENDBRANCH  17  20
ENDBRANCH  16  17
BRANCH  16  30
ATOM     30  C19 UNL     1       0.690  -0.900  -2.970  1.00  0.00     0.043 C   
ATOM     31  C20 UNL     1       0.060  -2.029  -3.792  1.00  0.00     0.010 C   
ATOM     32  C23 UNL     1       0.499   0.343  -3.853  1.00  0.00     0.010 C   
ATOM     33  C21 UNL     1       0.504  -1.692  -5.207  1.00  0.00     0.001 C   
ATOM     34  C22 UNL     1       0.367  -0.176  -5.288  1.00  0.00     0.001 C   
ENDBRANCH  16  30
ENDBRANCH   3  16
TORSDOF 8
