REMARK SMILES CC(C)[C@H]([NH2+]Cc1ccc2c(c1)OCO2)c1cn(CCc2c[nH]nc2C(C)(C)C)nn1
REMARK SMILES IDX 16 1 17 2 18 3 30 4 31 5 4 7 2 8 1 9 3 10 5 11 6 14 7 15
REMARK SMILES IDX 8 16 12 17 9 18 11 19 10 20 13 21 15 22 14 23 19 24 20 25
REMARK SMILES IDX 21 26 22 27 25 28 23 29 24 30 26 32 27 33 28 34 29 35
REMARK H PARENT 17 6 5 12 5 13 23 31
ROOT
ATOM     1   C13 UNL     1      -0.538  -1.480  -0.664  1.00  0.00     0.127 A   
ATOM     2   C14 UNL     1      -0.168  -1.090  -1.932  1.00  0.00     0.045 A   
ATOM     3   N2  UNL     1      -1.355  -0.851  -2.565  1.00  0.00    -0.212 N   
ATOM     4   N5  UNL     1      -2.395  -1.091  -1.745  1.00  0.00    -0.076 NA  
ATOM     5   N6  UNL     1      -1.908  -1.483  -0.579  1.00  0.00    -0.132 NA  
ATOM     6   H18 UNL     1       0.787  -0.946  -2.418  1.00  0.00     0.083 HD  
ENDROOT
BRANCH   1   7
ATOM     7   C4  UNL     1       0.282  -1.843   0.534  1.00  0.00     0.117 C   
BRANCH   7   8
ATOM     8   C2  UNL     1       0.894  -3.263   0.416  1.00  0.00     0.037 C   
ATOM     9   C1  UNL     1      -0.143  -4.392   0.467  1.00  0.00     0.014 C   
ATOM     10  C3  UNL     1       1.976  -3.505   1.476  1.00  0.00     0.014 C   
ENDBRANCH   7   8
BRANCH   7  11
ATOM     11  N1  UNL     1      -0.544  -1.735   1.788  1.00  0.00     0.249 N   
ATOM     12  H9  UNL     1      -0.158  -2.287   2.559  1.00  0.00     0.199 HD  
ATOM     13  H10 UNL     1      -1.465  -2.145   1.571  1.00  0.00     0.199 HD  
BRANCH  11  14
ATOM     14  C5  UNL     1      -0.791  -0.346   2.267  1.00  0.00     0.164 C   
BRANCH  14  15
ATOM     15  C6  UNL     1      -1.726  -0.358   3.443  1.00  0.00    -0.002 A   
ATOM     16  C7  UNL     1      -3.126  -0.358   3.233  1.00  0.00     0.012 A   
ATOM     17  C11 UNL     1      -1.221  -0.425   4.752  1.00  0.00     0.045 A   
ATOM     18  C8  UNL     1      -4.015  -0.412   4.312  1.00  0.00     0.037 A   
ATOM     19  C10 UNL     1      -2.125  -0.477   5.793  1.00  0.00     0.109 A   
ATOM     20  C9  UNL     1      -3.482  -0.470   5.580  1.00  0.00     0.108 A   
ATOM     21  O1  UNL     1      -1.806  -0.543   7.112  1.00  0.00    -0.316 OA  
ATOM     22  O2  UNL     1      -4.188  -0.529   6.739  1.00  0.00    -0.316 OA  
ATOM     23  C12 UNL     1      -3.122  -0.550   7.712  1.00  0.00     0.337 C   
ENDBRANCH  14  15
ENDBRANCH  11  14
ENDBRANCH   7  11
ENDBRANCH   1   7
BRANCH   3  24
ATOM     24  C15 UNL     1      -1.574  -0.407  -3.926  1.00  0.00     0.139 C   
BRANCH  24  25
ATOM     25  C16 UNL     1      -1.635   1.116  -4.057  1.00  0.00     0.060 C   
BRANCH  25  26
ATOM     26  C17 UNL     1      -0.329   1.789  -3.765  1.00  0.00    -0.007 A   
ATOM     27  C18 UNL     1       0.845   1.597  -4.468  1.00  0.00     0.097 A   
ATOM     28  C19 UNL     1       0.013   2.760  -2.764  1.00  0.00     0.068 A   
ATOM     29  N3  UNL     1       1.784   2.386  -3.882  1.00  0.00    -0.245 N   
ATOM     30  N4  UNL     1       1.327   3.030  -2.805  1.00  0.00    -0.189 NA  
ATOM     31  H24 UNL     1       2.753   2.524  -4.152  1.00  0.00     0.175 HD  
BRANCH  28  32
ATOM     32  C20 UNL     1      -0.862   3.473  -1.731  1.00  0.00     0.006 C   
ATOM     33  C21 UNL     1      -0.045   4.482  -0.884  1.00  0.00     0.017 C   
ATOM     34  C22 UNL     1      -1.484   2.466  -0.749  1.00  0.00     0.017 C   
ATOM     35  C23 UNL     1      -1.977   4.278  -2.430  1.00  0.00     0.017 C   
ENDBRANCH  28  32
ENDBRANCH  25  26
ENDBRANCH  24  25
ENDBRANCH   3  24
TORSDOF 9
