REMARK SMILES CC(C)C[C@H]([NH2+]Cc1ccc2c(c1)OCO2)c1cn(Cc2cc(F)cc(F)c2)nn1
REMARK SMILES IDX 17 1 18 2 19 3 29 4 30 5 5 7 4 8 2 9 1 10 3 11 6 12 7 15
REMARK SMILES IDX 8 16 9 17 13 18 10 19 12 20 11 21 14 22 16 23 15 24 20 25
REMARK SMILES IDX 21 26 22 27 28 28 23 29 26 30 25 31 24 32 27 33
REMARK H PARENT 18 6 6 13 6 14
ROOT
ATOM     1   C14 UNL     1      -1.218  -1.278  -0.796  1.00  0.00     0.127 A   
ATOM     2   C15 UNL     1      -0.627  -1.117   0.438  1.00  0.00     0.046 A   
ATOM     3   N2  UNL     1      -0.062  -2.337   0.694  1.00  0.00    -0.208 N   
ATOM     4   N3  UNL     1      -0.293  -3.194  -0.318  1.00  0.00    -0.076 NA  
ATOM     5   N4  UNL     1      -1.006  -2.559  -1.234  1.00  0.00    -0.132 NA  
ATOM     6   H20 UNL     1      -0.536  -0.281   1.117  1.00  0.00     0.083 HD  
ENDROOT
BRANCH   1   7
ATOM     7   C5  UNL     1      -1.928  -0.307  -1.678  1.00  0.00     0.114 C   
BRANCH   7   8
ATOM     8   C4  UNL     1      -3.457  -0.505  -1.666  1.00  0.00     0.064 C   
BRANCH   8   9
ATOM     9   C2  UNL     1      -4.138  -0.279  -0.298  1.00  0.00    -0.012 C   
ATOM     10  C1  UNL     1      -5.635  -0.577  -0.412  1.00  0.00     0.007 C   
ATOM     11  C3  UNL     1      -3.935   1.143   0.226  1.00  0.00     0.007 C   
ENDBRANCH   8   9
ENDBRANCH   7   8
BRANCH   7  12
ATOM     12  N1  UNL     1      -1.479  -0.476  -3.118  1.00  0.00     0.249 N   
ATOM     13  H11 UNL     1      -1.665  -1.458  -3.367  1.00  0.00     0.199 HD  
ATOM     14  H12 UNL     1      -2.054   0.109  -3.730  1.00  0.00     0.199 HD  
BRANCH  12  15
ATOM     15  C6  UNL     1      -0.035  -0.217  -3.407  1.00  0.00     0.164 C   
BRANCH  15  16
ATOM     16  C7  UNL     1       0.390   1.189  -3.087  1.00  0.00    -0.002 A   
ATOM     17  C8  UNL     1       0.001   2.267  -3.918  1.00  0.00     0.012 A   
ATOM     18  C12 UNL     1       1.158   1.444  -1.937  1.00  0.00     0.045 A   
ATOM     19  C9  UNL     1       0.366   3.581  -3.605  1.00  0.00     0.037 A   
ATOM     20  C11 UNL     1       1.493   2.752  -1.654  1.00  0.00     0.109 A   
ATOM     21  C10 UNL     1       1.109   3.790  -2.464  1.00  0.00     0.108 A   
ATOM     22  O1  UNL     1       2.211   3.169  -0.579  1.00  0.00    -0.316 OA  
ATOM     23  O2  UNL     1       1.548   4.992  -2.009  1.00  0.00    -0.316 OA  
ATOM     24  C13 UNL     1       2.275   4.592  -0.827  1.00  0.00     0.337 C   
ENDBRANCH  15  16
ENDBRANCH  12  15
ENDBRANCH   7  12
ENDBRANCH   1   7
BRANCH   3  25
ATOM     25  C16 UNL     1       0.746  -2.734   1.836  1.00  0.00     0.169 C   
BRANCH  25  26
ATOM     26  C17 UNL     1       2.124  -2.126   1.757  1.00  0.00    -0.023 A   
ATOM     27  C18 UNL     1       2.526  -1.135   2.665  1.00  0.00     0.045 A   
ATOM     28  C22 UNL     1       3.033  -2.533   0.767  1.00  0.00     0.045 A   
ATOM     29  C19 UNL     1       3.797  -0.570   2.569  1.00  0.00     0.126 A   
ATOM     30  C21 UNL     1       4.296  -1.949   0.690  1.00  0.00     0.126 A   
ATOM     31  C20 UNL     1       4.689  -0.966   1.585  1.00  0.00     0.078 A   
ATOM     32  F1  UNL     1       4.157   0.379   3.442  1.00  0.00    -0.207 F   
ATOM     33  F2  UNL     1       5.137  -2.338  -0.275  1.00  0.00    -0.207 F   
ENDBRANCH  25  26
ENDBRANCH   3  25
TORSDOF 8
