REMARK SMILES COc1ccc(CCn2cc([C@@H]([NH2+]Cc3ccc4c(c3)OCO4)C3CCCC3)nn2)cc1O
REMARK SMILES IDX 9 1 10 2 11 3 29 4 30 5 8 7 7 8 6 9 3 10 4 11 32 12 5 13
REMARK SMILES IDX 31 14 2 15 1 16 33 17 12 19 13 20 14 23 15 24 16 25 20 26
REMARK SMILES IDX 17 27 19 28 18 29 21 30 23 31 22 32 24 33 25 34 28 35 26 36
REMARK SMILES IDX 27 37
REMARK H PARENT 10 6 33 18 13 21 13 22
ROOT
ATOM     1   N1  UNL     1      -0.815   3.777   2.157  1.00  0.00    -0.212 N   
ATOM     2   C8  UNL     1       0.282   3.093   1.706  1.00  0.00     0.045 A   
ATOM     3   C9  UNL     1       0.295   1.943   2.467  1.00  0.00     0.127 A   
ATOM     4   N3  UNL     1      -0.685   2.037   3.421  1.00  0.00    -0.132 NA  
ATOM     5   N4  UNL     1      -1.365   3.155   3.213  1.00  0.00    -0.076 NA  
ATOM     6   H10 UNL     1       0.842   3.417   0.840  1.00  0.00     0.083 HD  
ENDROOT
BRANCH   1   7
ATOM     7   C7  UNL     1      -1.512   4.859   1.488  1.00  0.00     0.139 C   
BRANCH   7   8
ATOM     8   C6  UNL     1      -2.646   4.362   0.572  1.00  0.00     0.057 C   
BRANCH   8   9
ATOM     9   C5  UNL     1      -2.150   3.455  -0.535  1.00  0.00    -0.044 A   
ATOM     10  C2  UNL     1      -0.975   1.791  -2.483  1.00  0.00     0.104 A   
ATOM     11  C3  UNL     1      -1.202   3.139  -2.757  1.00  0.00     0.036 A   
ATOM     12  C25 UNL     1      -1.348   1.289  -1.234  1.00  0.00     0.102 A   
ATOM     13  C4  UNL     1      -1.770   3.971  -1.781  1.00  0.00     0.006 A   
ATOM     14  C24 UNL     1      -1.976   2.087  -0.287  1.00  0.00     0.039 A   
BRANCH  10  15
ATOM     15  O1  UNL     1      -0.391   0.875  -3.317  1.00  0.00    -0.347 OA  
ATOM     16  C1  UNL     1      -0.139   1.306  -4.652  1.00  0.00     0.203 C   
ENDBRANCH  10  15
BRANCH  12  17
ATOM     17  O4  UNL     1      -1.047  -0.008  -0.898  1.00  0.00    -0.358 OA  
ATOM     18  H31 UNL     1      -0.851  -0.423  -1.770  1.00  0.00     0.218 HD  
ENDBRANCH  12  17
ENDBRANCH   8   9
ENDBRANCH   7   8
ENDBRANCH   1   7
BRANCH   3  19
ATOM     19  C10 UNL     1       1.063   0.664   2.324  1.00  0.00     0.117 C   
BRANCH  19  20
ATOM     20  N2  UNL     1       0.208  -0.401   1.671  1.00  0.00     0.249 N   
ATOM     21  H12 UNL     1      -0.165  -0.062   0.766  1.00  0.00     0.199 HD  
ATOM     22  H13 UNL     1       0.772  -1.223   1.443  1.00  0.00     0.199 HD  
BRANCH  20  23
ATOM     23  C11 UNL     1      -0.956  -0.873   2.481  1.00  0.00     0.164 C   
BRANCH  23  24
ATOM     24  C12 UNL     1      -1.508  -2.156   1.921  1.00  0.00    -0.002 A   
ATOM     25  C13 UNL     1      -2.633  -2.138   1.064  1.00  0.00     0.012 A   
ATOM     26  C17 UNL     1      -0.878  -3.380   2.210  1.00  0.00     0.045 A   
ATOM     27  C14 UNL     1      -3.135  -3.320   0.506  1.00  0.00     0.037 A   
ATOM     28  C16 UNL     1      -1.392  -4.525   1.636  1.00  0.00     0.109 A   
ATOM     29  C15 UNL     1      -2.490  -4.497   0.811  1.00  0.00     0.108 A   
ATOM     30  O2  UNL     1      -0.898  -5.780   1.800  1.00  0.00    -0.316 OA  
ATOM     31  O3  UNL     1      -2.831  -5.732   0.359  1.00  0.00    -0.316 OA  
ATOM     32  C18 UNL     1      -1.824  -6.547   0.996  1.00  0.00     0.337 C   
ENDBRANCH  23  24
ENDBRANCH  20  23
ENDBRANCH  19  20
BRANCH  19  33
ATOM     33  C19 UNL     1       2.373   0.810   1.521  1.00  0.00     0.043 C   
ATOM     34  C20 UNL     1       3.392   1.745   2.197  1.00  0.00     0.010 C   
ATOM     35  C23 UNL     1       3.178  -0.485   1.370  1.00  0.00     0.010 C   
ATOM     36  C21 UNL     1       4.769   1.296   1.712  1.00  0.00     0.001 C   
ATOM     37  C22 UNL     1       4.550   0.005   0.936  1.00  0.00     0.001 C   
ENDBRANCH  19  33
ENDBRANCH   3  19
TORSDOF 10
