REMARK SMILES CC(C)(C)[C@H]([NH2+]Cc1ccc2c(c1)OCO2)c1cn(C[C@@H](O)c2c(F)cccc2F)nn1
REMARK SMILES IDX 17 1 18 2 19 3 31 4 32 5 5 7 2 8 1 9 3 10 4 11 6 12 7 15
REMARK SMILES IDX 8 16 9 17 13 18 10 19 12 20 11 21 14 22 16 23 15 24 20 25
REMARK SMILES IDX 21 26 22 27 23 29 24 30 29 31 26 32 28 33 27 34 25 35 30 36
REMARK H PARENT 18 6 6 13 6 14 22 28
ROOT
ATOM     1   C14 UNL     1       1.068   0.305  -0.045  1.00  0.00     0.127 A   
ATOM     2   C15 UNL     1       0.498   1.476   0.404  1.00  0.00     0.046 A   
ATOM     3   N2  UNL     1       0.262   2.187  -0.738  1.00  0.00    -0.209 N   
ATOM     4   N3  UNL     1       0.650   1.497  -1.826  1.00  0.00    -0.076 NA  
ATOM     5   N4  UNL     1       1.150   0.343  -1.415  1.00  0.00    -0.132 NA  
ATOM     6   H20 UNL     1       0.224   1.847   1.382  1.00  0.00     0.083 HD  
ENDROOT
BRANCH   1   7
ATOM     7   C5  UNL     1       1.473  -0.937   0.686  1.00  0.00     0.120 C   
BRANCH   7   8
ATOM     8   C2  UNL     1       2.997  -0.996   1.060  1.00  0.00     0.010 C   
ATOM     9   C1  UNL     1       3.392   0.251   1.884  1.00  0.00     0.017 C   
ATOM     10  C3  UNL     1       3.915  -1.069  -0.176  1.00  0.00     0.017 C   
ATOM     11  C4  UNL     1       3.282  -2.229   1.949  1.00  0.00     0.017 C   
ENDBRANCH   7   8
BRANCH   7  12
ATOM     12  N1  UNL     1       1.090  -2.142  -0.151  1.00  0.00     0.250 N   
ATOM     13  H11 UNL     1       1.464  -1.964  -1.094  1.00  0.00     0.199 HD  
ATOM     14  H12 UNL     1       1.533  -2.994   0.198  1.00  0.00     0.199 HD  
BRANCH  12  15
ATOM     15  C6  UNL     1      -0.374  -2.397  -0.311  1.00  0.00     0.164 C   
BRANCH  15  16
ATOM     16  C7  UNL     1      -1.037  -2.820   0.970  1.00  0.00    -0.002 A   
ATOM     17  C8  UNL     1      -1.891  -1.927   1.661  1.00  0.00     0.012 A   
ATOM     18  C12 UNL     1      -0.793  -4.096   1.505  1.00  0.00     0.045 A   
ATOM     19  C9  UNL     1      -2.491  -2.295   2.870  1.00  0.00     0.037 A   
ATOM     20  C11 UNL     1      -1.401  -4.428   2.698  1.00  0.00     0.109 A   
ATOM     21  C10 UNL     1      -2.225  -3.553   3.362  1.00  0.00     0.108 A   
ATOM     22  O1  UNL     1      -1.270  -5.613   3.347  1.00  0.00    -0.316 OA  
ATOM     23  O2  UNL     1      -2.716  -4.078   4.515  1.00  0.00    -0.316 OA  
ATOM     24  C13 UNL     1      -2.137  -5.400   4.485  1.00  0.00     0.337 C   
ENDBRANCH  15  16
ENDBRANCH  12  15
ENDBRANCH   7  12
ENDBRANCH   1   7
BRANCH   3  25
ATOM     25  C16 UNL     1      -0.358   3.492  -0.871  1.00  0.00     0.170 C   
BRANCH  25  26
ATOM     26  C17 UNL     1      -1.874   3.362  -1.061  1.00  0.00     0.170 C   
BRANCH  26  27
ATOM     27  O3  UNL     1      -2.475   2.941   0.174  1.00  0.00    -0.386 OA  
ATOM     28  H24 UNL     1      -3.393   3.267   0.188  1.00  0.00     0.211 HD  
ENDBRANCH  26  27
BRANCH  26  29
ATOM     29  C18 UNL     1      -2.530   4.634  -1.537  1.00  0.00     0.054 A   
ATOM     30  C19 UNL     1      -3.383   4.615  -2.644  1.00  0.00     0.132 A   
ATOM     31  C23 UNL     1      -2.335   5.861  -0.897  1.00  0.00     0.132 A   
ATOM     32  C20 UNL     1      -4.014   5.770  -3.103  1.00  0.00     0.040 A   
ATOM     33  C22 UNL     1      -2.956   7.026  -1.343  1.00  0.00     0.040 A   
ATOM     34  C21 UNL     1      -3.800   6.982  -2.451  1.00  0.00     0.006 A   
ATOM     35  F1  UNL     1      -3.612   3.461  -3.286  1.00  0.00    -0.207 F   
ATOM     36  F2  UNL     1      -1.534   5.934   0.175  1.00  0.00    -0.207 F   
ENDBRANCH  26  29
ENDBRANCH  25  26
ENDBRANCH   3  25
TORSDOF 9
