REMARK SMILES CC(C)(C)[C@H]([NH2+]Cc1ccc2c(c1)OCO2)c1cn(C[C@H](O)c2c(F)cccc2F)nn1
REMARK SMILES IDX 17 1 18 2 19 3 31 4 32 5 5 7 2 8 1 9 3 10 4 11 6 12 7 15
REMARK SMILES IDX 8 16 9 17 13 18 10 19 12 20 11 21 14 22 16 23 15 24 20 25
REMARK SMILES IDX 21 26 22 27 23 29 24 30 29 31 26 32 28 33 27 34 25 35 30 36
REMARK H PARENT 18 6 6 13 6 14 22 28
ROOT
ATOM     1   C14 UNL     1       0.773  -1.759  -0.807  1.00  0.00     0.127 A   
ATOM     2   C15 UNL     1       0.331  -1.259  -2.011  1.00  0.00     0.046 A   
ATOM     3   N2  UNL     1      -0.845  -1.919  -2.230  1.00  0.00    -0.209 N   
ATOM     4   N3  UNL     1      -1.095  -2.801  -1.244  1.00  0.00    -0.076 NA  
ATOM     5   N4  UNL     1      -0.113  -2.711  -0.363  1.00  0.00    -0.132 NA  
ATOM     6   H20 UNL     1       0.696  -0.492  -2.680  1.00  0.00     0.083 HD  
ENDROOT
BRANCH   1   7
ATOM     7   C5  UNL     1       1.922  -1.357   0.063  1.00  0.00     0.120 C   
BRANCH   7   8
ATOM     8   C2  UNL     1       3.233  -2.185  -0.172  1.00  0.00     0.010 C   
ATOM     9   C1  UNL     1       3.677  -2.064  -1.649  1.00  0.00     0.017 C   
ATOM     10  C3  UNL     1       3.066  -3.679   0.164  1.00  0.00     0.017 C   
ATOM     11  C4  UNL     1       4.386  -1.620   0.691  1.00  0.00     0.017 C   
ENDBRANCH   7   8
BRANCH   7  12
ATOM     12  N1  UNL     1       1.480  -1.461   1.511  1.00  0.00     0.250 N   
ATOM     13  H11 UNL     1       1.019  -2.378   1.595  1.00  0.00     0.199 HD  
ATOM     14  H12 UNL     1       2.277  -1.460   2.149  1.00  0.00     0.199 HD  
BRANCH  12  15
ATOM     15  C6  UNL     1       0.492  -0.435   1.965  1.00  0.00     0.164 C   
BRANCH  15  16
ATOM     16  C7  UNL     1       1.104   0.930   2.120  1.00  0.00    -0.002 A   
ATOM     17  C8  UNL     1       1.973   1.207   3.204  1.00  0.00     0.012 A   
ATOM     18  C12 UNL     1       0.840   1.934   1.170  1.00  0.00     0.045 A   
ATOM     19  C9  UNL     1       2.575   2.462   3.338  1.00  0.00     0.037 A   
ATOM     20  C11 UNL     1       1.452   3.160   1.331  1.00  0.00     0.109 A   
ATOM     21  C10 UNL     1       2.295   3.417   2.384  1.00  0.00     0.108 A   
ATOM     22  O1  UNL     1       1.318   4.228   0.501  1.00  0.00    -0.316 OA  
ATOM     23  O2  UNL     1       2.794   4.679   2.353  1.00  0.00    -0.316 OA  
ATOM     24  C13 UNL     1       2.148   5.203   1.173  1.00  0.00     0.337 C   
ENDBRANCH  15  16
ENDBRANCH  12  15
ENDBRANCH   7  12
ENDBRANCH   1   7
BRANCH   3  25
ATOM     25  C16 UNL     1      -1.773  -1.749  -3.329  1.00  0.00     0.170 C   
BRANCH  25  26
ATOM     26  C17 UNL     1      -2.627  -0.479  -3.219  1.00  0.00     0.170 C   
BRANCH  26  27
ATOM     27  O3  UNL     1      -1.794   0.684  -3.294  1.00  0.00    -0.386 OA  
ATOM     28  H24 UNL     1      -2.366   1.462  -3.151  1.00  0.00     0.211 HD  
ENDBRANCH  26  27
BRANCH  26  29
ATOM     29  C18 UNL     1      -3.546  -0.448  -2.023  1.00  0.00     0.054 A   
ATOM     30  C19 UNL     1      -4.818  -1.019  -2.126  1.00  0.00     0.132 A   
ATOM     31  C23 UNL     1      -3.186   0.097  -0.787  1.00  0.00     0.132 A   
ATOM     32  C20 UNL     1      -5.713  -1.020  -1.057  1.00  0.00     0.040 A   
ATOM     33  C22 UNL     1      -4.071   0.107   0.293  1.00  0.00     0.040 A   
ATOM     34  C21 UNL     1      -5.341  -0.449   0.158  1.00  0.00     0.006 A   
ATOM     35  F1  UNL     1      -5.194  -1.587  -3.281  1.00  0.00    -0.207 F   
ATOM     36  F2  UNL     1      -1.964   0.619  -0.604  1.00  0.00    -0.207 F   
ENDBRANCH  26  29
ENDBRANCH  25  26
ENDBRANCH   3  25
TORSDOF 9
