REMARK SMILES Cn1nc2c(c1CCn1cc([C@@H]([NH2+]Cc3ccc4c(c3)OCO4)C3CCCC3)nn1)CCC2
REMARK SMILES IDX 9 1 10 2 11 3 29 4 30 5 8 7 7 8 6 9 2 10 3 11 4 12 5 13
REMARK SMILES IDX 33 14 31 15 32 16 1 17 12 18 13 19 14 22 15 23 16 24 20 25
REMARK SMILES IDX 17 26 19 27 18 28 21 29 23 30 22 31 24 32 25 33 28 34 26 35
REMARK SMILES IDX 27 36
REMARK H PARENT 10 6 13 20 13 21
ROOT
ATOM     1   N3  UNL     1      -1.977   3.078  -1.778  1.00  0.00    -0.212 N   
ATOM     2   C7  UNL     1      -0.912   2.221  -1.696  1.00  0.00     0.045 A   
ATOM     3   C8  UNL     1      -0.700   2.085  -0.341  1.00  0.00     0.127 A   
ATOM     4   N5  UNL     1      -1.519   2.962   0.324  1.00  0.00    -0.132 NA  
ATOM     5   N6  UNL     1      -2.291   3.569  -0.567  1.00  0.00    -0.076 NA  
ATOM     6   H8  UNL     1      -0.528   1.700  -2.561  1.00  0.00     0.083 HD  
ENDROOT
BRANCH   1   7
ATOM     7   C6  UNL     1      -2.909   3.184  -2.887  1.00  0.00     0.140 C   
BRANCH   7   8
ATOM     8   C5  UNL     1      -4.142   2.272  -2.712  1.00  0.00     0.075 C   
BRANCH   8   9
ATOM     9   C4  UNL     1      -3.756   0.884  -2.299  1.00  0.00     0.034 A   
ATOM     10  N1  UNL     1      -3.861   0.403  -1.002  1.00  0.00    -0.232 N   
ATOM     11  N2  UNL     1      -3.025  -0.666  -0.766  1.00  0.00    -0.186 NA  
ATOM     12  C2  UNL     1      -2.767  -1.063  -2.011  1.00  0.00     0.064 A   
ATOM     13  C3  UNL     1      -3.161  -0.143  -2.982  1.00  0.00    -0.006 A   
ATOM     14  C25 UNL     1      -1.996  -2.191  -2.568  1.00  0.00     0.058 C   
ATOM     15  C23 UNL     1      -2.699  -0.525  -4.329  1.00  0.00     0.039 C   
ATOM     16  C24 UNL     1      -2.240  -2.006  -4.103  1.00  0.00     0.011 C   
ATOM     17  C1  UNL     1      -4.659   0.942   0.076  1.00  0.00     0.159 C   
ENDBRANCH   8   9
ENDBRANCH   7   8
ENDBRANCH   1   7
BRANCH   3  18
ATOM     18  C9  UNL     1       0.100   1.077   0.429  1.00  0.00     0.117 C   
BRANCH  18  19
ATOM     19  N4  UNL     1      -0.821  -0.051   0.854  1.00  0.00     0.249 N   
ATOM     20  H10 UNL     1      -0.339  -0.950   0.895  1.00  0.00     0.199 HD  
ATOM     21  H11 UNL     1      -1.553  -0.192   0.123  1.00  0.00     0.199 HD  
BRANCH  19  22
ATOM     22  C10 UNL     1      -1.555   0.150   2.134  1.00  0.00     0.164 C   
BRANCH  22  23
ATOM     23  C11 UNL     1      -0.655   0.092   3.338  1.00  0.00    -0.002 A   
ATOM     24  C12 UNL     1      -0.349   1.272   4.058  1.00  0.00     0.012 A   
ATOM     25  C16 UNL     1      -0.084  -1.129   3.736  1.00  0.00     0.045 A   
ATOM     26  C13 UNL     1       0.523   1.242   5.152  1.00  0.00     0.037 A   
ATOM     27  C15 UNL     1       0.776  -1.123   4.815  1.00  0.00     0.109 A   
ATOM     28  C14 UNL     1       1.071   0.029   5.503  1.00  0.00     0.108 A   
ATOM     29  O1  UNL     1       1.424  -2.207   5.313  1.00  0.00    -0.316 OA  
ATOM     30  O2  UNL     1       1.938  -0.187   6.526  1.00  0.00    -0.316 OA  
ATOM     31  C17 UNL     1       2.148  -1.611   6.414  1.00  0.00     0.337 C   
ENDBRANCH  22  23
ENDBRANCH  19  22
ENDBRANCH  18  19
BRANCH  18  32
ATOM     32  C18 UNL     1       1.295   0.478  -0.359  1.00  0.00     0.043 C   
ATOM     33  C19 UNL     1       2.332   1.536  -0.772  1.00  0.00     0.010 C   
ATOM     34  C22 UNL     1       2.185  -0.465   0.468  1.00  0.00     0.010 C   
ATOM     35  C20 UNL     1       3.207   1.743   0.461  1.00  0.00     0.001 C   
ATOM     36  C21 UNL     1       3.104   0.452   1.268  1.00  0.00     0.001 C   
ENDBRANCH  18  32
ENDBRANCH   3  18
TORSDOF 8
