REMARK SMILES CC(C)[C@H]([NH2+]Cc1ccc2c(c1)OCO2)c1cn(CCc2c(F)cccc2F)nn1
REMARK SMILES IDX 16 1 17 2 18 3 29 4 30 5 4 7 2 8 1 9 3 10 5 11 6 14 7 15
REMARK SMILES IDX 8 16 12 17 9 18 11 19 10 20 13 21 15 22 14 23 19 24 20 25
REMARK SMILES IDX 21 26 22 27 27 28 24 29 26 30 25 31 23 32 28 33
REMARK H PARENT 17 6 5 12 5 13
ROOT
ATOM     1   C13 UNL     1      -1.321  -0.725  -1.384  1.00  0.00     0.127 A   
ATOM     2   C14 UNL     1      -0.057  -0.302  -1.731  1.00  0.00     0.045 A   
ATOM     3   N2  UNL     1      -0.251   0.387  -2.894  1.00  0.00    -0.212 N   
ATOM     4   N3  UNL     1      -1.547   0.373  -3.255  1.00  0.00    -0.076 NA  
ATOM     5   N4  UNL     1      -2.213  -0.312  -2.341  1.00  0.00    -0.132 NA  
ATOM     6   H18 UNL     1       0.915  -0.399  -1.267  1.00  0.00     0.083 HD  
ENDROOT
BRANCH   1   7
ATOM     7   C4  UNL     1      -1.819  -1.462  -0.184  1.00  0.00     0.117 C   
BRANCH   7   8
ATOM     8   C2  UNL     1      -1.683  -3.001  -0.342  1.00  0.00     0.037 C   
ATOM     9   C1  UNL     1      -1.875  -3.725   0.997  1.00  0.00     0.014 C   
ATOM     10  C3  UNL     1      -2.616  -3.608  -1.396  1.00  0.00     0.014 C   
ENDBRANCH   7   8
BRANCH   7  11
ATOM     11  N1  UNL     1      -3.256  -1.092   0.107  1.00  0.00     0.249 N   
ATOM     12  H9  UNL     1      -3.758  -1.174  -0.788  1.00  0.00     0.199 HD  
ATOM     13  H10 UNL     1      -3.680  -1.756   0.759  1.00  0.00     0.199 HD  
BRANCH  11  14
ATOM     14  C5  UNL     1      -3.493   0.298   0.603  1.00  0.00     0.164 C   
BRANCH  14  15
ATOM     15  C6  UNL     1      -2.902   0.543   1.964  1.00  0.00    -0.002 A   
ATOM     16  C7  UNL     1      -3.475  -0.044   3.117  1.00  0.00     0.012 A   
ATOM     17  C11 UNL     1      -1.751   1.339   2.093  1.00  0.00     0.045 A   
ATOM     18  C8  UNL     1      -2.906   0.152   4.380  1.00  0.00     0.037 A   
ATOM     19  C10 UNL     1      -1.214   1.512   3.351  1.00  0.00     0.109 A   
ATOM     20  C9  UNL     1      -1.775   0.934   4.463  1.00  0.00     0.108 A   
ATOM     21  O1  UNL     1      -0.105   2.240   3.646  1.00  0.00    -0.316 OA  
ATOM     22  O2  UNL     1      -1.092   1.228   5.599  1.00  0.00    -0.316 OA  
ATOM     23  C12 UNL     1      -0.051   2.084   5.083  1.00  0.00     0.337 C   
ENDBRANCH  14  15
ENDBRANCH  11  14
ENDBRANCH   7  11
ENDBRANCH   1   7
BRANCH   3  24
ATOM     24  C15 UNL     1       0.725   1.100  -3.692  1.00  0.00     0.139 C   
BRANCH  24  25
ATOM     25  C16 UNL     1       0.790   2.588  -3.348  1.00  0.00     0.063 C   
BRANCH  25  26
ATOM     26  C17 UNL     1       1.491   2.865  -2.043  1.00  0.00     0.025 A   
ATOM     27  C18 UNL     1       0.782   3.123  -0.869  1.00  0.00     0.129 A   
ATOM     28  C22 UNL     1       2.886   2.856  -1.971  1.00  0.00     0.129 A   
ATOM     29  C19 UNL     1       1.436   3.384   0.334  1.00  0.00     0.040 A   
ATOM     30  C21 UNL     1       3.557   3.112  -0.778  1.00  0.00     0.040 A   
ATOM     31  C20 UNL     1       2.830   3.381   0.381  1.00  0.00     0.006 A   
ATOM     32  F1  UNL     1      -0.559   3.093  -0.878  1.00  0.00    -0.207 F   
ATOM     33  F2  UNL     1       3.600   2.578  -3.070  1.00  0.00    -0.207 F   
ENDBRANCH  25  26
ENDBRANCH  24  25
ENDBRANCH   3  24
TORSDOF 8
