REMARK SMILES CC(C)C[C@H]([NH2+]Cc1ccc2c(c1)OCO2)c1cn(CCc2cncc(F)c2)nn1
REMARK SMILES IDX 17 1 18 2 19 3 29 4 30 5 5 7 4 8 2 9 1 10 3 11 6 12 7 15
REMARK SMILES IDX 8 16 9 17 13 18 10 19 12 20 11 21 14 22 16 23 15 24 20 25
REMARK SMILES IDX 21 26 22 27 23 28 28 29 24 30 26 31 25 32 27 33
REMARK H PARENT 18 6 6 13 6 14
ROOT
ATOM     1   C14 UNL     1      -0.576  -0.744   2.422  1.00  0.00     0.127 A   
ATOM     2   C15 UNL     1      -0.642  -2.119   2.501  1.00  0.00     0.045 A   
ATOM     3   N2  UNL     1      -1.989  -2.376   2.525  1.00  0.00    -0.212 N   
ATOM     4   N4  UNL     1      -2.693  -1.234   2.630  1.00  0.00    -0.076 NA  
ATOM     5   N5  UNL     1      -1.839  -0.225   2.543  1.00  0.00    -0.132 NA  
ATOM     6   H20 UNL     1       0.094  -2.904   2.393  1.00  0.00     0.083 HD  
ENDROOT
BRANCH   1   7
ATOM     7   C5  UNL     1       0.565   0.155   2.072  1.00  0.00     0.114 C   
BRANCH   7   8
ATOM     8   C4  UNL     1       0.823   1.227   3.146  1.00  0.00     0.064 C   
BRANCH   8   9
ATOM     9   C2  UNL     1       1.148   0.674   4.552  1.00  0.00    -0.012 C   
ATOM     10  C1  UNL     1       1.317   1.837   5.536  1.00  0.00     0.007 C   
ATOM     11  C3  UNL     1       2.406  -0.194   4.559  1.00  0.00     0.007 C   
ENDBRANCH   8   9
ENDBRANCH   7   8
BRANCH   7  12
ATOM     12  N1  UNL     1       0.231   0.817   0.755  1.00  0.00     0.249 N   
ATOM     13  H11 UNL     1      -0.664   1.313   0.862  1.00  0.00     0.199 HD  
ATOM     14  H12 UNL     1       0.003   0.075   0.061  1.00  0.00     0.199 HD  
BRANCH  12  15
ATOM     15  C6  UNL     1       1.244   1.708   0.147  1.00  0.00     0.164 C   
BRANCH  15  16
ATOM     16  C7  UNL     1       0.870   2.086  -1.258  1.00  0.00    -0.002 A   
ATOM     17  C8  UNL     1      -0.116   3.073  -1.496  1.00  0.00     0.012 A   
ATOM     18  C12 UNL     1       1.466   1.427  -2.347  1.00  0.00     0.045 A   
ATOM     19  C9  UNL     1      -0.503   3.403  -2.800  1.00  0.00     0.037 A   
ATOM     20  C11 UNL     1       1.058   1.772  -3.619  1.00  0.00     0.109 A   
ATOM     21  C10 UNL     1       0.102   2.732  -3.839  1.00  0.00     0.108 A   
ATOM     22  O1  UNL     1       1.526   1.228  -4.773  1.00  0.00    -0.316 OA  
ATOM     23  O2  UNL     1      -0.150   2.918  -5.161  1.00  0.00    -0.316 OA  
ATOM     24  C13 UNL     1       0.766   1.973  -5.753  1.00  0.00     0.337 C   
ENDBRANCH  15  16
ENDBRANCH  12  15
ENDBRANCH   7  12
ENDBRANCH   1   7
BRANCH   3  25
ATOM     25  C16 UNL     1      -2.646  -3.595   2.084  1.00  0.00     0.139 C   
BRANCH  25  26
ATOM     26  C17 UNL     1      -3.137  -3.506   0.624  1.00  0.00     0.058 C   
BRANCH  26  27
ATOM     27  C18 UNL     1      -2.048  -3.074  -0.332  1.00  0.00    -0.025 A   
ATOM     28  C19 UNL     1      -1.831  -1.716  -0.587  1.00  0.00     0.115 A   
ATOM     29  C22 UNL     1      -1.146  -3.987  -0.883  1.00  0.00     0.046 A   
ATOM     30  N3  UNL     1      -0.740  -1.214  -1.222  1.00  0.00    -0.261 NA  
ATOM     31  C21 UNL     1      -0.085  -3.509  -1.638  1.00  0.00     0.141 A   
ATOM     32  C20 UNL     1       0.082  -2.141  -1.783  1.00  0.00     0.150 A   
ATOM     33  F1  UNL     1       0.791  -4.360  -2.185  1.00  0.00    -0.205 F   
ENDBRANCH  26  27
ENDBRANCH  25  26
ENDBRANCH   3  25
TORSDOF 9
