REMARK SMILES Cc1cc(CCn2cc([C@@H]([NH2+]Cc3ccc4c(c3)OCO4)C(C)C)nn2)cc(Cl)n1
REMARK SMILES IDX 7 1 8 2 9 3 25 4 26 5 6 7 5 8 4 9 2 10 3 11 30 12 28 13
REMARK SMILES IDX 27 14 1 15 29 16 10 17 11 18 12 21 13 22 14 23 18 24 15 25
REMARK SMILES IDX 17 26 16 27 19 28 21 29 20 30 22 31 23 32 24 33
REMARK H PARENT 8 6 11 19 11 20
ROOT
ATOM     1   N1  UNL     1      -1.893  -1.789   1.449  1.00  0.00    -0.212 N   
ATOM     2   C7  UNL     1      -2.164  -0.525   1.001  1.00  0.00     0.045 A   
ATOM     3   C8  UNL     1      -2.065  -0.628  -0.368  1.00  0.00     0.127 A   
ATOM     4   N3  UNL     1      -1.756  -1.924  -0.698  1.00  0.00    -0.132 NA  
ATOM     5   N4  UNL     1      -1.687  -2.630   0.420  1.00  0.00    -0.076 NA  
ATOM     6   H9  UNL     1      -2.356   0.301   1.671  1.00  0.00     0.083 HD  
ENDROOT
BRANCH   1   7
ATOM     7   C6  UNL     1      -1.682  -2.215   2.818  1.00  0.00     0.139 C   
BRANCH   7   8
ATOM     8   C5  UNL     1      -0.254  -2.707   3.099  1.00  0.00     0.057 C   
BRANCH   8   9
ATOM     9   C4  UNL     1       0.808  -1.761   2.587  1.00  0.00    -0.042 A   
ATOM     10  C2  UNL     1       1.915   0.376   2.581  1.00  0.00     0.039 A   
ATOM     11  C3  UNL     1       1.026  -0.514   3.181  1.00  0.00     0.027 A   
ATOM     12  N5  UNL     1       2.567   0.091   1.432  1.00  0.00    -0.241 NA  
ATOM     13  C22 UNL     1       2.398  -1.144   0.922  1.00  0.00     0.129 A   
ATOM     14  C21 UNL     1       1.539  -2.091   1.442  1.00  0.00     0.044 A   
ATOM     15  C1  UNL     1       2.152   1.728   3.183  1.00  0.00     0.067 C   
ATOM     16  CL1 UNL     1       3.247  -1.432  -0.539  1.00  0.00    -0.062 Cl  
ENDBRANCH   8   9
ENDBRANCH   7   8
ENDBRANCH   1   7
BRANCH   3  17
ATOM     17  C9  UNL     1      -2.148   0.419  -1.434  1.00  0.00     0.117 C   
BRANCH  17  18
ATOM     18  N2  UNL     1      -1.071   0.199  -2.469  1.00  0.00     0.249 N   
ATOM     19  H11 UNL     1      -1.075  -0.810  -2.677  1.00  0.00     0.199 HD  
ATOM     20  H12 UNL     1      -1.290   0.687  -3.339  1.00  0.00     0.199 HD  
BRANCH  18  21
ATOM     21  C10 UNL     1       0.319   0.558  -2.049  1.00  0.00     0.164 C   
BRANCH  21  22
ATOM     22  C11 UNL     1       0.512   2.041  -1.879  1.00  0.00    -0.002 A   
ATOM     23  C12 UNL     1       0.514   2.904  -3.003  1.00  0.00     0.012 A   
ATOM     24  C16 UNL     1       0.668   2.584  -0.592  1.00  0.00     0.045 A   
ATOM     25  C13 UNL     1       0.656   4.285  -2.848  1.00  0.00     0.037 A   
ATOM     26  C15 UNL     1       0.809   3.949  -0.472  1.00  0.00     0.109 A   
ATOM     27  C14 UNL     1       0.802   4.777  -1.569  1.00  0.00     0.108 A   
ATOM     28  O1  UNL     1       0.962   4.628   0.694  1.00  0.00    -0.316 OA  
ATOM     29  O2  UNL     1       0.953   6.083  -1.232  1.00  0.00    -0.316 OA  
ATOM     30  C17 UNL     1       1.089   5.984   0.204  1.00  0.00     0.337 C   
ENDBRANCH  21  22
ENDBRANCH  18  21
ENDBRANCH  17  18
BRANCH  17  31
ATOM     31  C18 UNL     1      -3.545   0.477  -2.108  1.00  0.00     0.037 C   
ATOM     32  C19 UNL     1      -3.852  -0.713  -3.023  1.00  0.00     0.014 C   
ATOM     33  C20 UNL     1      -3.728   1.788  -2.883  1.00  0.00     0.014 C   
ENDBRANCH  17  31
ENDBRANCH   3  17
TORSDOF 8
