REMARK SMILES CC(C)[C@H]([NH2+]Cc1ccc2c(c1)OCO2)c1cn(Cc2ccc(O)c(Cl)c2)nn1
REMARK SMILES IDX 16 1 17 2 18 3 28 4 29 5 4 7 2 8 1 9 3 10 5 11 6 14 7 15
REMARK SMILES IDX 8 16 12 17 9 18 11 19 10 20 13 21 15 22 14 23 19 24 20 25
REMARK SMILES IDX 21 26 27 27 22 28 25 29 23 30 26 31 24 32
REMARK H PARENT 17 6 5 12 5 13 24 33
ROOT
ATOM     1   C13 UNL     1       1.208   0.001  -0.395  1.00  0.00     0.127 A   
ATOM     2   C14 UNL     1       1.665   1.189  -0.921  1.00  0.00     0.046 A   
ATOM     3   N2  UNL     1       0.972   1.319  -2.095  1.00  0.00    -0.208 N   
ATOM     4   N3  UNL     1       0.146   0.272  -2.283  1.00  0.00    -0.076 NA  
ATOM     5   N4  UNL     1       0.285  -0.544  -1.251  1.00  0.00    -0.132 NA  
ATOM     6   H18 UNL     1       2.375   1.931  -0.583  1.00  0.00     0.083 HD  
ENDROOT
BRANCH   1   7
ATOM     7   C4  UNL     1       1.523  -0.700   0.889  1.00  0.00     0.117 C   
BRANCH   7   8
ATOM     8   C2  UNL     1       2.841  -1.513   0.804  1.00  0.00     0.037 C   
ATOM     9   C1  UNL     1       3.326  -1.954   2.190  1.00  0.00     0.014 C   
ATOM     10  C3  UNL     1       2.764  -2.729  -0.127  1.00  0.00     0.014 C   
ENDBRANCH   7   8
BRANCH   7  11
ATOM     11  N1  UNL     1       0.382  -1.596   1.291  1.00  0.00     0.249 N   
ATOM     12  H9  UNL     1       0.076  -2.086   0.436  1.00  0.00     0.199 HD  
ATOM     13  H10 UNL     1       0.671  -2.323   1.951  1.00  0.00     0.199 HD  
BRANCH  11  14
ATOM     14  C5  UNL     1      -0.814  -0.895   1.838  1.00  0.00     0.164 C   
BRANCH  14  15
ATOM     15  C6  UNL     1      -1.910  -1.880   2.128  1.00  0.00    -0.002 A   
ATOM     16  C7  UNL     1      -2.056  -2.433   3.422  1.00  0.00     0.012 A   
ATOM     17  C11 UNL     1      -2.766  -2.300   1.094  1.00  0.00     0.045 A   
ATOM     18  C8  UNL     1      -3.047  -3.384   3.689  1.00  0.00     0.037 A   
ATOM     19  C10 UNL     1      -3.732  -3.239   1.391  1.00  0.00     0.109 A   
ATOM     20  C9  UNL     1      -3.869  -3.766   2.651  1.00  0.00     0.108 A   
ATOM     21  O1  UNL     1      -4.634  -3.749   0.513  1.00  0.00    -0.316 OA  
ATOM     22  O2  UNL     1      -4.876  -4.674   2.727  1.00  0.00    -0.316 OA  
ATOM     23  C12 UNL     1      -5.376  -4.645   1.372  1.00  0.00     0.337 C   
ENDBRANCH  14  15
ENDBRANCH  11  14
ENDBRANCH   7  11
ENDBRANCH   1   7
BRANCH   3  24
ATOM     24  C15 UNL     1       1.035   2.400  -3.065  1.00  0.00     0.169 C   
BRANCH  24  25
ATOM     25  C16 UNL     1       0.304   3.620  -2.561  1.00  0.00    -0.027 A   
ATOM     26  C17 UNL     1      -1.101   3.643  -2.529  1.00  0.00     0.008 A   
ATOM     27  C21 UNL     1       1.013   4.743  -2.102  1.00  0.00     0.028 A   
ATOM     28  C18 UNL     1      -1.783   4.761  -2.044  1.00  0.00     0.035 A   
ATOM     29  C20 UNL     1       0.327   5.858  -1.619  1.00  0.00     0.071 A   
ATOM     30  C19 UNL     1      -1.068   5.862  -1.589  1.00  0.00     0.090 A   
ATOM     31  CL1 UNL     1       1.219   7.218  -1.049  1.00  0.00    -0.081 Cl  
BRANCH  30  32
ATOM     32  O3  UNL     1      -1.786   6.926  -1.121  1.00  0.00    -0.359 OA  
ATOM     33  H23 UNL     1      -1.154   7.636  -0.899  1.00  0.00     0.218 HD  
ENDBRANCH  30  32
ENDBRANCH  24  25
ENDBRANCH   3  24
TORSDOF 8
