REMARK SMILES CC(C)(C)[C@H]([NH2+]Cc1ccc2c(c1)OCO2)c1cn(Cc2ccc(F)c(F)c2F)nn1
REMARK SMILES IDX 17 1 18 2 19 3 30 4 31 5 5 7 2 8 1 9 3 10 4 11 6 12 7 15
REMARK SMILES IDX 8 16 9 17 13 18 10 19 12 20 11 21 14 22 16 23 15 24 20 25
REMARK SMILES IDX 21 26 22 27 28 28 23 29 26 30 24 31 29 32 27 33 25 34
REMARK H PARENT 18 6 6 13 6 14
ROOT
ATOM     1   C14 UNL     1       0.226   1.635   1.405  1.00  0.00     0.127 A   
ATOM     2   C15 UNL     1      -0.860   1.818   0.580  1.00  0.00     0.046 A   
ATOM     3   N2  UNL     1      -0.364   2.551  -0.463  1.00  0.00    -0.208 N   
ATOM     4   N3  UNL     1       0.951   2.796  -0.297  1.00  0.00    -0.076 NA  
ATOM     5   N4  UNL     1       1.324   2.239   0.843  1.00  0.00    -0.132 NA  
ATOM     6   H20 UNL     1      -1.893   1.499   0.624  1.00  0.00     0.083 HD  
ENDROOT
BRANCH   1   7
ATOM     7   C5  UNL     1       0.394   0.861   2.679  1.00  0.00     0.120 C   
BRANCH   7   8
ATOM     8   C2  UNL     1       0.172   1.706   3.981  1.00  0.00     0.010 C   
ATOM     9   C1  UNL     1       0.268   0.796   5.228  1.00  0.00     0.017 C   
ATOM     10  C3  UNL     1      -1.247   2.319   3.981  1.00  0.00     0.017 C   
ATOM     11  C4  UNL     1       1.192   2.853   4.132  1.00  0.00     0.017 C   
ENDBRANCH   7   8
BRANCH   7  12
ATOM     12  N1  UNL     1       1.784   0.246   2.672  1.00  0.00     0.250 N   
ATOM     13  H11 UNL     1       2.330   0.801   1.992  1.00  0.00     0.199 HD  
ATOM     14  H12 UNL     1       2.261   0.381   3.566  1.00  0.00     0.199 HD  
BRANCH  12  15
ATOM     15  C6  UNL     1       1.875  -1.189   2.286  1.00  0.00     0.164 C   
BRANCH  15  16
ATOM     16  C7  UNL     1       1.339  -1.502   0.916  1.00  0.00    -0.002 A   
ATOM     17  C8  UNL     1       1.973  -0.993  -0.243  1.00  0.00     0.012 A   
ATOM     18  C12 UNL     1       0.191  -2.301   0.778  1.00  0.00     0.045 A   
ATOM     19  C9  UNL     1       1.468  -1.267  -1.520  1.00  0.00     0.037 A   
ATOM     20  C11 UNL     1      -0.276  -2.557  -0.494  1.00  0.00     0.109 A   
ATOM     21  C10 UNL     1       0.344  -2.055  -1.611  1.00  0.00     0.108 A   
ATOM     22  O1  UNL     1      -1.364  -3.311  -0.799  1.00  0.00    -0.316 OA  
ATOM     23  O2  UNL     1      -0.275  -2.430  -2.759  1.00  0.00    -0.316 OA  
ATOM     24  C13 UNL     1      -1.334  -3.267  -2.244  1.00  0.00     0.337 C   
ENDBRANCH  15  16
ENDBRANCH  12  15
ENDBRANCH   7  12
ENDBRANCH   1   7
BRANCH   3  25
ATOM     25  C16 UNL     1      -1.074   3.071  -1.617  1.00  0.00     0.172 C   
BRANCH  25  26
ATOM     26  C17 UNL     1      -1.085   2.077  -2.746  1.00  0.00     0.011 A   
ATOM     27  C18 UNL     1      -0.108   2.107  -3.754  1.00  0.00     0.012 A   
ATOM     28  C22 UNL     1      -2.071   1.085  -2.796  1.00  0.00     0.166 A   
ATOM     29  C19 UNL     1      -0.140   1.171  -4.793  1.00  0.00     0.043 A   
ATOM     30  C21 UNL     1      -2.107   0.159  -3.830  1.00  0.00     0.194 A   
ATOM     31  C20 UNL     1      -1.142   0.205  -4.825  1.00  0.00     0.161 A   
ATOM     32  F3  UNL     1      -2.993   1.028  -1.822  1.00  0.00    -0.203 F   
ATOM     33  F2  UNL     1      -3.063  -0.781  -3.856  1.00  0.00    -0.201 F   
ATOM     34  F1  UNL     1      -1.162  -0.686  -5.825  1.00  0.00    -0.204 F   
ENDBRANCH  25  26
ENDBRANCH   3  25
TORSDOF 7
