REMARK SMILES CC(C)C[C@H]([NH2+]Cc1ccc2c(c1)OCO2)c1cn(Cc2ccc3cc[nH]c3c2)nn1
REMARK SMILES IDX 17 1 18 2 19 3 30 4 31 5 5 7 4 8 2 9 1 10 3 11 6 12 7 15
REMARK SMILES IDX 8 16 9 17 13 18 10 19 12 20 11 21 14 22 16 23 15 24 20 25
REMARK SMILES IDX 21 26 22 27 29 28 23 29 28 30 24 31 27 32 25 33 26 34
REMARK H PARENT 18 6 6 13 6 14 27 35
ROOT
ATOM     1   C14 UNL     1       0.418  -1.252  -0.058  1.00  0.00     0.127 A   
ATOM     2   C15 UNL     1      -0.815  -0.753  -0.411  1.00  0.00     0.046 A   
ATOM     3   N2  UNL     1      -1.675  -1.338   0.478  1.00  0.00    -0.208 N   
ATOM     4   N4  UNL     1      -1.018  -2.185   1.294  1.00  0.00    -0.076 NA  
ATOM     5   N5  UNL     1       0.265  -2.147   0.969  1.00  0.00    -0.132 NA  
ATOM     6   H20 UNL     1      -1.140  -0.016  -1.133  1.00  0.00     0.083 HD  
ENDROOT
BRANCH   1   7
ATOM     7   C5  UNL     1       1.781  -0.885  -0.530  1.00  0.00     0.114 C   
BRANCH   7   8
ATOM     8   C4  UNL     1       2.410  -1.963  -1.434  1.00  0.00     0.064 C   
BRANCH   8   9
ATOM     9   C2  UNL     1       1.660  -2.229  -2.757  1.00  0.00    -0.012 C   
ATOM     10  C1  UNL     1       2.345  -3.368  -3.518  1.00  0.00     0.007 C   
ATOM     11  C3  UNL     1       1.588  -0.987  -3.647  1.00  0.00     0.007 C   
ENDBRANCH   8   9
ENDBRANCH   7   8
BRANCH   7  12
ATOM     12  N1  UNL     1       2.724  -0.696   0.645  1.00  0.00     0.249 N   
ATOM     13  H11 UNL     1       3.664  -0.485   0.299  1.00  0.00     0.199 HD  
ATOM     14  H12 UNL     1       2.770  -1.601   1.132  1.00  0.00     0.199 HD  
BRANCH  12  15
ATOM     15  C6  UNL     1       2.333   0.325   1.668  1.00  0.00     0.164 C   
BRANCH  15  16
ATOM     16  C7  UNL     1       2.075   1.695   1.105  1.00  0.00    -0.002 A   
ATOM     17  C8  UNL     1       0.776   2.255   1.174  1.00  0.00     0.012 A   
ATOM     18  C12 UNL     1       3.111   2.428   0.500  1.00  0.00     0.045 A   
ATOM     19  C9  UNL     1       0.504   3.518   0.639  1.00  0.00     0.037 A   
ATOM     20  C11 UNL     1       2.808   3.670  -0.020  1.00  0.00     0.109 A   
ATOM     21  C10 UNL     1       1.542   4.200   0.046  1.00  0.00     0.108 A   
ATOM     22  O1  UNL     1       3.687   4.500  -0.642  1.00  0.00    -0.316 OA  
ATOM     23  O2  UNL     1       1.465   5.430  -0.525  1.00  0.00    -0.316 OA  
ATOM     24  C13 UNL     1       2.835   5.633  -0.930  1.00  0.00     0.337 C   
ENDBRANCH  15  16
ENDBRANCH  12  15
ENDBRANCH   7  12
ENDBRANCH   1   7
BRANCH   3  25
ATOM     25  C16 UNL     1      -3.082  -1.036   0.686  1.00  0.00     0.169 C   
BRANCH  25  26
ATOM     26  C17 UNL     1      -3.226   0.331   1.314  1.00  0.00    -0.027 A   
ATOM     27  C18 UNL     1      -3.535   1.444   0.520  1.00  0.00     0.006 A   
ATOM     28  C24 UNL     1      -2.990   0.494   2.692  1.00  0.00     0.029 A   
ATOM     29  C19 UNL     1      -3.598   2.730   1.070  1.00  0.00     0.010 A   
ATOM     30  C23 UNL     1      -3.057   1.788   3.223  1.00  0.00     0.037 A   
ATOM     31  C20 UNL     1      -3.347   2.907   2.443  1.00  0.00    -0.003 A   
ATOM     32  N3  UNL     1      -2.882   2.231   4.516  1.00  0.00    -0.321 N   
ATOM     33  C21 UNL     1      -3.317   4.038   3.303  1.00  0.00     0.025 A   
ATOM     34  C22 UNL     1      -3.022   3.592   4.571  1.00  0.00     0.072 A   
ATOM     35  H27 UNL     1      -2.693   1.634   5.310  1.00  0.00     0.152 HD  
ENDBRANCH  25  26
ENDBRANCH   3  25
TORSDOF 8
