REMARK SMILES Cc1cc(Cn2cc([C@@H]([NH2+]Cc3ccc4c(c3)OCO4)C(C)C)nn2)ccc1F
REMARK SMILES IDX 6 1 7 2 8 3 24 4 25 5 5 7 4 8 2 9 3 10 28 11 27 12 26 13
REMARK SMILES IDX 1 14 29 15 9 16 10 17 11 20 12 21 13 22 17 23 14 24 16 25
REMARK SMILES IDX 15 26 18 27 20 28 19 29 21 30 22 31 23 32
REMARK H PARENT 7 6 10 18 10 19
ROOT
ATOM     1   N1  UNL     1       1.105  -0.063   0.954  1.00  0.00    -0.208 N   
ATOM     2   C6  UNL     1       0.731   1.092   0.320  1.00  0.00     0.046 A   
ATOM     3   C7  UNL     1      -0.601   1.228   0.639  1.00  0.00     0.127 A   
ATOM     4   N3  UNL     1      -0.980   0.186   1.449  1.00  0.00    -0.132 NA  
ATOM     5   N4  UNL     1       0.071  -0.592   1.638  1.00  0.00    -0.076 NA  
ATOM     6   H7  UNL     1       1.416   1.666  -0.288  1.00  0.00     0.083 HD  
ENDROOT
BRANCH   1   7
ATOM     7   C5  UNL     1       2.414  -0.693   0.976  1.00  0.00     0.169 C   
BRANCH   7   8
ATOM     8   C4  UNL     1       2.688  -1.420  -0.317  1.00  0.00    -0.028 A   
ATOM     9   C2  UNL     1       3.740  -1.501  -2.518  1.00  0.00    -0.015 A   
ATOM     10  C3  UNL     1       3.505  -0.841  -1.304  1.00  0.00     0.011 A   
ATOM     11  C22 UNL     1       3.170  -2.759  -2.719  1.00  0.00     0.126 A   
ATOM     12  C21 UNL     1       2.361  -3.348  -1.754  1.00  0.00     0.040 A   
ATOM     13  C20 UNL     1       2.115  -2.680  -0.555  1.00  0.00     0.008 A   
ATOM     14  C1  UNL     1       4.636  -0.898  -3.558  1.00  0.00     0.047 C   
ATOM     15  F1  UNL     1       3.385  -3.412  -3.870  1.00  0.00    -0.207 F   
ENDBRANCH   7   8
ENDBRANCH   1   7
BRANCH   3  16
ATOM     16  C8  UNL     1      -1.621   2.239   0.226  1.00  0.00     0.117 C   
BRANCH  16  17
ATOM     17  N2  UNL     1      -2.991   1.599   0.205  1.00  0.00     0.249 N   
ATOM     18  H9  UNL     1      -2.917   0.762   0.808  1.00  0.00     0.199 HD  
ATOM     19  H10 UNL     1      -3.689   2.197   0.653  1.00  0.00     0.199 HD  
BRANCH  17  20
ATOM     20  C9  UNL     1      -3.502   1.170  -1.127  1.00  0.00     0.164 C   
BRANCH  20  21
ATOM     21  C10 UNL     1      -2.650   0.141  -1.816  1.00  0.00    -0.002 A   
ATOM     22  C11 UNL     1      -2.571  -1.180  -1.314  1.00  0.00     0.012 A   
ATOM     23  C15 UNL     1      -1.911   0.489  -2.961  1.00  0.00     0.045 A   
ATOM     24  C12 UNL     1      -1.770  -2.141  -1.940  1.00  0.00     0.037 A   
ATOM     25  C14 UNL     1      -1.131  -0.483  -3.554  1.00  0.00     0.109 A   
ATOM     26  C13 UNL     1      -1.065  -1.762  -3.060  1.00  0.00     0.108 A   
ATOM     27  O1  UNL     1      -0.361  -0.312  -4.660  1.00  0.00    -0.316 OA  
ATOM     28  O2  UNL     1      -0.253  -2.561  -3.799  1.00  0.00    -0.316 OA  
ATOM     29  C16 UNL     1       0.172  -1.646  -4.830  1.00  0.00     0.337 C   
ENDBRANCH  20  21
ENDBRANCH  17  20
ENDBRANCH  16  17
BRANCH  16  30
ATOM     30  C17 UNL     1      -1.616   3.490   1.144  1.00  0.00     0.037 C   
ATOM     31  C18 UNL     1      -2.047   3.213   2.590  1.00  0.00     0.014 C   
ATOM     32  C19 UNL     1      -2.467   4.622   0.555  1.00  0.00     0.014 C   
ENDBRANCH  16  30
ENDBRANCH   3  16
TORSDOF 7
