REMARK SMILES Cc1cncc([C@H](CO)n2cc([C@@H]([NH2+]Cc3ccc4c(c3)OCO4)C(C)C)nn2)c1
REMARK SMILES IDX 10 1 11 2 12 3 28 4 29 5 7 7 6 8 2 9 3 10 30 11 4 12 5 13
REMARK SMILES IDX 1 14 8 15 9 16 13 18 14 19 15 22 16 23 17 24 21 25 18 26
REMARK SMILES IDX 20 27 19 28 22 29 24 30 23 31 25 32 26 33 27 34
REMARK H PARENT 11 6 9 17 14 20 14 21
ROOT
ATOM     1   N2  UNL     1       1.043   2.285  -0.700  1.00  0.00    -0.202 N   
ATOM     2   C8  UNL     1       0.327   1.119  -0.649  1.00  0.00     0.046 A   
ATOM     3   C9  UNL     1      -0.386   1.212   0.524  1.00  0.00     0.127 A   
ATOM     4   N4  UNL     1      -0.062   2.386   1.155  1.00  0.00    -0.132 NA  
ATOM     5   N5  UNL     1       0.819   3.028   0.405  1.00  0.00    -0.075 NA  
ATOM     6   H10 UNL     1       0.380   0.376  -1.434  1.00  0.00     0.083 HD  
ENDROOT
BRANCH   1   7
ATOM     7   C6  UNL     1       1.917   2.787  -1.761  1.00  0.00     0.157 C   
BRANCH   7   8
ATOM     8   C5  UNL     1       1.209   2.730  -3.102  1.00  0.00    -0.005 A   
ATOM     9   C2  UNL     1       0.812   1.842  -5.328  1.00  0.00    -0.032 A   
ATOM     10  C3  UNL     1      -0.238   2.743  -5.443  1.00  0.00     0.114 A   
ATOM     11  C22 UNL     1       1.530   1.833  -4.128  1.00  0.00     0.012 A   
ATOM     12  N1  UNL     1      -0.587   3.617  -4.476  1.00  0.00    -0.264 NA  
ATOM     13  C4  UNL     1       0.144   3.599  -3.343  1.00  0.00     0.116 A   
ATOM     14  C1  UNL     1       1.121   0.875  -6.428  1.00  0.00     0.046 C   
ENDBRANCH   7   8
BRANCH   7  15
ATOM     15  C7  UNL     1       3.317   2.150  -1.666  1.00  0.00     0.186 C   
BRANCH  15  16
ATOM     16  O1  UNL     1       3.287   0.724  -1.752  1.00  0.00    -0.394 OA  
ATOM     17  H9  UNL     1       4.214   0.419  -1.741  1.00  0.00     0.210 HD  
ENDBRANCH  15  16
ENDBRANCH   7  15
ENDBRANCH   1   7
BRANCH   3  18
ATOM     18  C10 UNL     1      -1.366   0.274   1.152  1.00  0.00     0.117 C   
BRANCH  18  19
ATOM     19  N3  UNL     1      -1.425   0.495   2.645  1.00  0.00     0.249 N   
ATOM     20  H12 UNL     1      -1.467   1.516   2.778  1.00  0.00     0.199 HD  
ATOM     21  H13 UNL     1      -2.282   0.103   3.042  1.00  0.00     0.199 HD  
BRANCH  19  22
ATOM     22  C11 UNL     1      -0.253   0.001   3.426  1.00  0.00     0.164 C   
BRANCH  22  23
ATOM     23  C12 UNL     1      -0.191  -1.500   3.492  1.00  0.00    -0.002 A   
ATOM     24  C13 UNL     1       0.792  -2.206   2.758  1.00  0.00     0.012 A   
ATOM     25  C17 UNL     1      -1.124  -2.214   4.263  1.00  0.00     0.045 A   
ATOM     26  C14 UNL     1       0.843  -3.603   2.785  1.00  0.00     0.037 A   
ATOM     27  C16 UNL     1      -1.045  -3.591   4.266  1.00  0.00     0.109 A   
ATOM     28  C15 UNL     1      -0.091  -4.266   3.548  1.00  0.00     0.108 A   
ATOM     29  O2  UNL     1      -1.868  -4.426   4.952  1.00  0.00    -0.316 OA  
ATOM     30  O3  UNL     1      -0.191  -5.613   3.691  1.00  0.00    -0.316 OA  
ATOM     31  C18 UNL     1      -1.311  -5.712   4.596  1.00  0.00     0.337 C   
ENDBRANCH  22  23
ENDBRANCH  19  22
ENDBRANCH  18  19
BRANCH  18  32
ATOM     32  C19 UNL     1      -2.783   0.411   0.534  1.00  0.00     0.037 C   
ATOM     33  C20 UNL     1      -3.479   1.738   0.859  1.00  0.00     0.014 C   
ATOM     34  C21 UNL     1      -3.689  -0.760   0.932  1.00  0.00     0.014 C   
ENDBRANCH  18  32
ENDBRANCH   3  18
TORSDOF 9
