REMARK SMILES Cc1cncc([C@@H](CO)n2cc([C@@H]([NH2+]Cc3ccc4c(c3)OCO4)C(C)C)nn2)c1
REMARK SMILES IDX 10 1 11 2 12 3 28 4 29 5 7 7 6 8 2 9 3 10 30 11 4 12 5 13
REMARK SMILES IDX 1 14 8 15 9 16 13 18 14 19 15 22 16 23 17 24 21 25 18 26
REMARK SMILES IDX 20 27 19 28 22 29 24 30 23 31 25 32 26 33 27 34
REMARK H PARENT 11 6 9 17 14 20 14 21
ROOT
ATOM     1   N2  UNL     1      -1.102  -0.058   1.780  1.00  0.00    -0.202 N   
ATOM     2   C8  UNL     1      -2.004  -0.143   0.751  1.00  0.00     0.046 A   
ATOM     3   C9  UNL     1      -1.221  -0.156  -0.382  1.00  0.00     0.127 A   
ATOM     4   N4  UNL     1       0.098  -0.069  -0.018  1.00  0.00    -0.132 NA  
ATOM     5   N5  UNL     1       0.159   0.001   1.300  1.00  0.00    -0.075 NA  
ATOM     6   H10 UNL     1      -3.071  -0.192   0.921  1.00  0.00     0.083 HD  
ENDROOT
BRANCH   1   7
ATOM     7   C6  UNL     1      -1.381  -0.044   3.218  1.00  0.00     0.157 C   
BRANCH   7   8
ATOM     8   C5  UNL     1      -1.135  -1.411   3.819  1.00  0.00    -0.005 A   
ATOM     9   C2  UNL     1      -1.948  -3.411   4.932  1.00  0.00    -0.032 A   
ATOM     10  C3  UNL     1      -0.643  -3.885   4.907  1.00  0.00     0.114 A   
ATOM     11  C22 UNL     1      -2.190  -2.158   4.363  1.00  0.00     0.012 A   
ATOM     12  N1  UNL     1       0.398  -3.197   4.390  1.00  0.00    -0.264 NA  
ATOM     13  C4  UNL     1       0.134  -1.982   3.866  1.00  0.00     0.116 A   
ATOM     14  C1  UNL     1      -3.057  -4.242   5.496  1.00  0.00     0.046 C   
ENDBRANCH   7   8
BRANCH   7  15
ATOM     15  C7  UNL     1      -0.628   1.078   3.953  1.00  0.00     0.186 C   
BRANCH  15  16
ATOM     16  O1  UNL     1      -1.171   2.350   3.589  1.00  0.00    -0.394 OA  
ATOM     17  H9  UNL     1      -0.690   3.022   4.107  1.00  0.00     0.210 HD  
ENDBRANCH  15  16
ENDBRANCH   7  15
ENDBRANCH   1   7
BRANCH   3  18
ATOM     18  C10 UNL     1      -1.581  -0.224  -1.833  1.00  0.00     0.117 C   
BRANCH  18  19
ATOM     19  N3  UNL     1      -0.452   0.308  -2.675  1.00  0.00     0.249 N   
ATOM     20  H12 UNL     1       0.418  -0.076  -2.276  1.00  0.00     0.199 HD  
ATOM     21  H13 UNL     1      -0.495  -0.026  -3.642  1.00  0.00     0.199 HD  
BRANCH  19  22
ATOM     22  C11 UNL     1      -0.309   1.791  -2.680  1.00  0.00     0.164 C   
BRANCH  22  23
ATOM     23  C12 UNL     1       0.921   2.193  -3.443  1.00  0.00    -0.002 A   
ATOM     24  C13 UNL     1       2.175   2.246  -2.788  1.00  0.00     0.012 A   
ATOM     25  C17 UNL     1       0.846   2.463  -4.819  1.00  0.00     0.045 A   
ATOM     26  C14 UNL     1       3.339   2.575  -3.490  1.00  0.00     0.037 A   
ATOM     27  C16 UNL     1       2.013   2.783  -5.482  1.00  0.00     0.109 A   
ATOM     28  C15 UNL     1       3.224   2.838  -4.837  1.00  0.00     0.108 A   
ATOM     29  O2  UNL     1       2.116   3.069  -6.806  1.00  0.00    -0.316 OA  
ATOM     30  O3  UNL     1       4.242   3.168  -5.673  1.00  0.00    -0.316 OA  
ATOM     31  C18 UNL     1       3.533   3.336  -6.919  1.00  0.00     0.337 C   
ENDBRANCH  22  23
ENDBRANCH  19  22
ENDBRANCH  18  19
BRANCH  18  32
ATOM     32  C19 UNL     1      -1.950  -1.664  -2.277  1.00  0.00     0.037 C   
ATOM     33  C20 UNL     1      -0.768  -2.641  -2.262  1.00  0.00     0.014 C   
ATOM     34  C21 UNL     1      -2.616  -1.679  -3.658  1.00  0.00     0.014 C   
ENDBRANCH  18  32
ENDBRANCH   3  18
TORSDOF 9
