REMARK SMILES Oc1cccc(CCn2cc([C@@H]([NH2+]Cc3ccc4c(c3)OCO4)C3CCCC3)nn2)c1
REMARK SMILES IDX 9 1 10 2 11 3 29 4 30 5 8 7 7 8 6 9 2 10 3 11 31 12 4 13
REMARK SMILES IDX 5 14 1 15 12 17 13 18 14 21 15 22 16 23 20 24 17 25 19 26
REMARK SMILES IDX 18 27 21 28 23 29 22 30 24 31 25 32 28 33 26 34 27 35
REMARK H PARENT 10 6 1 16 13 19 13 20
ROOT
ATOM     1   N1  UNL     1       2.108  -2.079  -1.690  1.00  0.00    -0.212 N   
ATOM     2   C8  UNL     1       1.583  -2.242  -0.438  1.00  0.00     0.045 A   
ATOM     3   C9  UNL     1       0.283  -1.807  -0.567  1.00  0.00     0.127 A   
ATOM     4   N3  UNL     1       0.051  -1.459  -1.873  1.00  0.00    -0.132 NA  
ATOM     5   N4  UNL     1       1.176  -1.628  -2.549  1.00  0.00    -0.076 NA  
ATOM     6   H9  UNL     1       2.180  -2.568   0.403  1.00  0.00     0.083 HD  
ENDROOT
BRANCH   1   7
ATOM     7   C7  UNL     1       3.495  -2.193  -2.094  1.00  0.00     0.139 C   
BRANCH   7   8
ATOM     8   C6  UNL     1       4.200  -0.835  -2.179  1.00  0.00     0.057 C   
BRANCH   8   9
ATOM     9   C5  UNL     1       4.228  -0.106  -0.853  1.00  0.00    -0.044 A   
ATOM     10  C1  UNL     1       3.213   1.446   0.704  1.00  0.00     0.071 A   
ATOM     11  C2  UNL     1       4.194   1.170   1.649  1.00  0.00     0.033 A   
ATOM     12  C24 UNL     1       3.228   0.828  -0.542  1.00  0.00     0.037 A   
ATOM     13  C3  UNL     1       5.199   0.252   1.341  1.00  0.00     0.003 A   
ATOM     14  C4  UNL     1       5.215  -0.388   0.100  1.00  0.00     0.004 A   
BRANCH  10  15
ATOM     15  O1  UNL     1       2.197   2.318   0.975  1.00  0.00    -0.361 OA  
ATOM     16  H1  UNL     1       2.520   2.930   1.665  1.00  0.00     0.218 HD  
ENDBRANCH  10  15
ENDBRANCH   8   9
ENDBRANCH   7   8
ENDBRANCH   1   7
BRANCH   3  17
ATOM     17  C10 UNL     1      -0.782  -1.587   0.455  1.00  0.00     0.117 C   
BRANCH  17  18
ATOM     18  N2  UNL     1      -1.495  -0.288   0.175  1.00  0.00     0.249 N   
ATOM     19  H11 UNL     1      -1.792  -0.312  -0.811  1.00  0.00     0.199 HD  
ATOM     20  H12 UNL     1      -2.346  -0.195   0.736  1.00  0.00     0.199 HD  
BRANCH  18  21
ATOM     21  C11 UNL     1      -0.672   0.945   0.357  1.00  0.00     0.164 C   
BRANCH  21  22
ATOM     22  C12 UNL     1      -1.531   2.168   0.192  1.00  0.00    -0.002 A   
ATOM     23  C13 UNL     1      -2.120   2.787   1.321  1.00  0.00     0.012 A   
ATOM     24  C17 UNL     1      -1.802   2.667  -1.094  1.00  0.00     0.045 A   
ATOM     25  C14 UNL     1      -2.962   3.894   1.172  1.00  0.00     0.037 A   
ATOM     26  C16 UNL     1      -2.637   3.758  -1.204  1.00  0.00     0.109 A   
ATOM     27  C15 UNL     1      -3.202   4.354  -0.104  1.00  0.00     0.108 A   
ATOM     28  O2  UNL     1      -3.005   4.359  -2.366  1.00  0.00    -0.316 OA  
ATOM     29  O3  UNL     1      -3.993   5.407  -0.433  1.00  0.00    -0.316 OA  
ATOM     30  C18 UNL     1      -3.856   5.416  -1.871  1.00  0.00     0.337 C   
ENDBRANCH  21  22
ENDBRANCH  18  21
ENDBRANCH  17  18
BRANCH  17  31
ATOM     31  C19 UNL     1      -1.821  -2.724   0.463  1.00  0.00     0.043 C   
ATOM     32  C20 UNL     1      -2.947  -2.546   1.491  1.00  0.00     0.010 C   
ATOM     33  C23 UNL     1      -1.234  -4.082   0.859  1.00  0.00     0.010 C   
ATOM     34  C21 UNL     1      -3.448  -3.954   1.814  1.00  0.00     0.001 C   
ATOM     35  C22 UNL     1      -2.466  -4.919   1.161  1.00  0.00     0.001 C   
ENDBRANCH  17  31
ENDBRANCH   3  17
TORSDOF 9
