REMARK SMILES COc1c(F)cccc1CCn1cc([C@@H]([NH2+]Cc2ccc3c(c2)OCO3)C(C)(C)C)nn1
REMARK SMILES IDX 12 1 13 2 14 3 31 4 32 5 11 7 10 8 9 9 3 10 4 11 6 12 8 13
REMARK SMILES IDX 7 14 5 15 2 16 1 17 15 18 16 19 17 22 18 23 19 24 23 25
REMARK SMILES IDX 20 26 22 27 21 28 24 29 26 30 25 31 27 32 28 33 29 34 30 35
REMARK H PARENT 13 6 16 20 16 21
ROOT
ATOM     1   N1  UNL     1      -2.785   1.599  -0.553  1.00  0.00    -0.212 N   
ATOM     2   C10 UNL     1      -2.104   1.289   0.591  1.00  0.00     0.045 A   
ATOM     3   C11 UNL     1      -0.781   1.339   0.213  1.00  0.00     0.127 A   
ATOM     4   N3  UNL     1      -0.708   1.704  -1.109  1.00  0.00    -0.132 NA  
ATOM     5   N4  UNL     1      -1.941   1.870  -1.563  1.00  0.00    -0.076 NA  
ATOM     6   H11 UNL     1      -2.603   1.023   1.510  1.00  0.00     0.083 HD  
ENDROOT
BRANCH   1   7
ATOM     7   C9  UNL     1      -4.216   1.616  -0.762  1.00  0.00     0.139 C   
BRANCH   7   8
ATOM     8   C8  UNL     1      -4.750   0.336  -1.407  1.00  0.00     0.060 C   
BRANCH   8   9
ATOM     9   C7  UNL     1      -4.685  -0.869  -0.490  1.00  0.00    -0.013 A   
ATOM     10  C2  UNL     1      -3.637  -1.800  -0.556  1.00  0.00     0.113 A   
ATOM     11  C3  UNL     1      -3.595  -2.867   0.350  1.00  0.00     0.153 A   
ATOM     12  C4  UNL     1      -4.602  -3.046   1.292  1.00  0.00     0.042 A   
ATOM     13  C6  UNL     1      -5.700  -1.058   0.466  1.00  0.00     0.007 A   
ATOM     14  C5  UNL     1      -5.660  -2.141   1.348  1.00  0.00     0.004 A   
ATOM     15  F1  UNL     1      -2.561  -3.721   0.349  1.00  0.00    -0.204 F   
BRANCH  10  16
ATOM     16  O1  UNL     1      -2.646  -1.583  -1.477  1.00  0.00    -0.346 OA  
ATOM     17  C1  UNL     1      -2.371  -2.735  -2.276  1.00  0.00     0.203 C   
ENDBRANCH  10  16
ENDBRANCH   8   9
ENDBRANCH   7   8
ENDBRANCH   1   7
BRANCH   3  18
ATOM     18  C12 UNL     1       0.474   0.962   0.940  1.00  0.00     0.120 C   
BRANCH  18  19
ATOM     19  N2  UNL     1       1.346   0.171  -0.008  1.00  0.00     0.250 N   
ATOM     20  H13 UNL     1       1.309   0.663  -0.915  1.00  0.00     0.199 HD  
ATOM     21  H14 UNL     1       2.329   0.159   0.273  1.00  0.00     0.199 HD  
BRANCH  19  22
ATOM     22  C13 UNL     1       0.896  -1.230  -0.256  1.00  0.00     0.164 C   
BRANCH  22  23
ATOM     23  C14 UNL     1       1.807  -1.904  -1.241  1.00  0.00    -0.002 A   
ATOM     24  C15 UNL     1       3.017  -2.505  -0.819  1.00  0.00     0.012 A   
ATOM     25  C19 UNL     1       1.483  -1.883  -2.611  1.00  0.00     0.045 A   
ATOM     26  C16 UNL     1       3.891  -3.085  -1.747  1.00  0.00     0.037 A   
ATOM     27  C18 UNL     1       2.362  -2.472  -3.495  1.00  0.00     0.109 A   
ATOM     28  C17 UNL     1       3.536  -3.052  -3.078  1.00  0.00     0.108 A   
ATOM     29  O2  UNL     1       2.191  -2.548  -4.840  1.00  0.00    -0.316 OA  
ATOM     30  O3  UNL     1       4.260  -3.555  -4.111  1.00  0.00    -0.316 OA  
ATOM     31  C20 UNL     1       3.393  -3.253  -5.227  1.00  0.00     0.337 C   
ENDBRANCH  22  23
ENDBRANCH  19  22
ENDBRANCH  18  19
BRANCH  18  32
ATOM     32  C21 UNL     1       1.269   2.176   1.537  1.00  0.00     0.010 C   
ATOM     33  C22 UNL     1       0.373   2.957   2.524  1.00  0.00     0.017 C   
ATOM     34  C23 UNL     1       1.766   3.159   0.454  1.00  0.00     0.017 C   
ATOM     35  C24 UNL     1       2.499   1.679   2.335  1.00  0.00     0.017 C   
ENDBRANCH  18  32
ENDBRANCH   3  18
TORSDOF 9
