REMARK SMILES CC(C)[C@H]([NH2+]Cc1ccc2c(c1)OCO2)c1cn(-c2cncc(Cl)c2)nn1
REMARK SMILES IDX 4 1 2 2 1 3 3 4 5 5 6 8 7 9 8 10 12 11 9 12 11 13 10 14
REMARK SMILES IDX 13 15 15 16 14 17 16 18 17 19 27 20 18 21 26 22 19 23 20 24
REMARK SMILES IDX 25 25 21 26 23 27 22 28 24 29
REMARK H PARENT 5 6 5 7
ROOT
ATOM     1   C4  UNL     1       1.282   0.730  -0.482  1.00  0.00     0.117 C   
ENDROOT
BRANCH   1   2
ATOM     2   C2  UNL     1       2.383   1.479   0.316  1.00  0.00     0.037 C   
ATOM     3   C1  UNL     1       2.016   1.745   1.780  1.00  0.00     0.014 C   
ATOM     4   C3  UNL     1       2.783   2.794  -0.365  1.00  0.00     0.014 C   
ENDBRANCH   1   2
BRANCH   1   5
ATOM     5   N1  UNL     1      -0.021   1.479  -0.397  1.00  0.00     0.249 N   
ATOM     6   H9  UNL     1      -0.456   1.228   0.505  1.00  0.00     0.199 HD  
ATOM     7   H10 UNL     1       0.116   2.494  -0.372  1.00  0.00     0.199 HD  
BRANCH   5   8
ATOM     8   C5  UNL     1      -1.013   1.159  -1.462  1.00  0.00     0.164 C   
BRANCH   8   9
ATOM     9   C6  UNL     1      -2.302   1.887  -1.209  1.00  0.00    -0.002 A   
ATOM     10  C7  UNL     1      -3.290   1.312  -0.374  1.00  0.00     0.012 A   
ATOM     11  C11 UNL     1      -2.512   3.166  -1.751  1.00  0.00     0.045 A   
ATOM     12  C8  UNL     1      -4.477   1.995  -0.090  1.00  0.00     0.037 A   
ATOM     13  C10 UNL     1      -3.693   3.812  -1.451  1.00  0.00     0.109 A   
ATOM     14  C9  UNL     1      -4.648   3.244  -0.644  1.00  0.00     0.108 A   
ATOM     15  O1  UNL     1      -4.051   5.047  -1.889  1.00  0.00    -0.316 OA  
ATOM     16  O2  UNL     1      -5.730   4.048  -0.476  1.00  0.00    -0.316 OA  
ATOM     17  C12 UNL     1      -5.359   5.184  -1.287  1.00  0.00     0.337 C   
ENDBRANCH   8   9
ENDBRANCH   5   8
ENDBRANCH   1   5
BRANCH   1  18
ATOM     18  C13 UNL     1       1.111  -0.684  -0.013  1.00  0.00     0.127 A   
ATOM     19  C14 UNL     1       1.866  -1.815  -0.233  1.00  0.00     0.135 A   
ATOM     20  N5  UNL     1       0.037  -1.011   0.766  1.00  0.00    -0.131 NA  
ATOM     21  N2  UNL     1       1.212  -2.822   0.452  1.00  0.00    -0.179 N   
ATOM     22  N4  UNL     1       0.100  -2.304   1.031  1.00  0.00    -0.071 NA  
BRANCH  21  23
ATOM     23  C15 UNL     1       1.556  -4.184   0.578  1.00  0.00     0.077 A   
ATOM     24  C16 UNL     1       0.742  -5.037   1.319  1.00  0.00     0.137 A   
ATOM     25  C19 UNL     1       2.701  -4.718  -0.023  1.00  0.00     0.049 A   
ATOM     26  N3  UNL     1       0.997  -6.356   1.486  1.00  0.00    -0.261 NA  
ATOM     27  C18 UNL     1       2.980  -6.074   0.141  1.00  0.00     0.061 A   
ATOM     28  C17 UNL     1       2.112  -6.848   0.894  1.00  0.00     0.131 A   
ATOM     29  CL1 UNL     1       4.375  -6.763  -0.583  1.00  0.00    -0.083 Cl  
ENDBRANCH  21  23
ENDBRANCH   1  18
TORSDOF 6
