REMARK SMILES CC(C)C[C@H]([NH2+]Cc1ccc2c(c1)OCO2)c1cn(-c2cccc(O)c2)nn1
REMARK SMILES IDX 17 1 18 2 19 3 27 4 28 5 5 6 4 7 2 8 1 9 3 10 6 11 7 14 8 15
REMARK SMILES IDX 9 16 13 17 10 18 12 19 11 20 14 21 16 22 15 23 20 24 21 25
REMARK SMILES IDX 26 26 22 27 24 28 23 29 25 30
REMARK H PARENT 6 12 6 13 25 31
ROOT
ATOM     1   C14 UNL     1       0.445  -1.353  -0.189  1.00  0.00     0.127 A   
ATOM     2   C15 UNL     1       0.183  -0.452   0.816  1.00  0.00     0.135 A   
ATOM     3   N2  UNL     1       1.405   0.122   1.109  1.00  0.00    -0.181 N   
ATOM     4   N3  UNL     1       2.363  -0.487   0.360  1.00  0.00    -0.071 NA  
ATOM     5   N4  UNL     1       1.788  -1.368  -0.442  1.00  0.00    -0.131 NA  
ENDROOT
BRANCH   1   6
ATOM     6   C5  UNL     1      -0.470  -2.162  -1.051  1.00  0.00     0.114 C   
BRANCH   6   7
ATOM     7   C4  UNL     1      -0.391  -3.658  -0.689  1.00  0.00     0.064 C   
BRANCH   7   8
ATOM     8   C2  UNL     1      -1.392  -4.585  -1.411  1.00  0.00    -0.012 C   
ATOM     9   C1  UNL     1      -1.160  -6.033  -0.967  1.00  0.00     0.007 C   
ATOM     10  C3  UNL     1      -2.847  -4.195  -1.151  1.00  0.00     0.007 C   
ENDBRANCH   7   8
ENDBRANCH   6   7
BRANCH   6  11
ATOM     11  N1  UNL     1      -0.079  -1.974  -2.502  1.00  0.00     0.249 N   
ATOM     12  H11 UNL     1      -0.215  -2.837  -3.035  1.00  0.00     0.199 HD  
ATOM     13  H12 UNL     1       0.940  -1.808  -2.502  1.00  0.00     0.199 HD  
BRANCH  11  14
ATOM     14  C6  UNL     1      -0.741  -0.849  -3.231  1.00  0.00     0.164 C   
BRANCH  14  15
ATOM     15  C7  UNL     1      -0.461   0.506  -2.644  1.00  0.00    -0.002 A   
ATOM     16  C8  UNL     1       0.817   1.099  -2.788  1.00  0.00     0.012 A   
ATOM     17  C12 UNL     1      -1.445   1.167  -1.888  1.00  0.00     0.045 A   
ATOM     18  C9  UNL     1       1.121   2.316  -2.168  1.00  0.00     0.037 A   
ATOM     19  C11 UNL     1      -1.109   2.360  -1.281  1.00  0.00     0.109 A   
ATOM     20  C10 UNL     1       0.138   2.917  -1.415  1.00  0.00     0.108 A   
ATOM     21  O1  UNL     1      -1.924   3.095  -0.480  1.00  0.00    -0.316 OA  
ATOM     22  O2  UNL     1       0.263   4.078  -0.722  1.00  0.00    -0.316 OA  
ATOM     23  C13 UNL     1      -1.054   4.201  -0.145  1.00  0.00     0.337 C   
ENDBRANCH  14  15
ENDBRANCH  11  14
ENDBRANCH   6  11
ENDBRANCH   1   6
BRANCH   3  24
ATOM     24  C16 UNL     1       1.699   1.198   1.980  1.00  0.00     0.060 A   
ATOM     25  C17 UNL     1       3.027   1.623   2.137  1.00  0.00     0.026 A   
ATOM     26  C21 UNL     1       0.677   1.862   2.670  1.00  0.00     0.059 A   
ATOM     27  C18 UNL     1       3.326   2.698   2.978  1.00  0.00     0.005 A   
ATOM     28  C20 UNL     1       0.992   2.935   3.498  1.00  0.00     0.073 A   
ATOM     29  C19 UNL     1       2.306   3.359   3.661  1.00  0.00     0.033 A   
BRANCH  28  30
ATOM     30  O3  UNL     1      -0.040   3.558   4.137  1.00  0.00    -0.361 OA  
ATOM     31  H24 UNL     1       0.323   4.240   4.727  1.00  0.00     0.218 HD  
ENDBRANCH  28  30
ENDBRANCH   3  24
TORSDOF 8
