REMARK SMILES OC[C@@H](c1ccncc1F)n1cc([C@@H]([NH2+]Cc2ccc3c(c2)OCO3)C2CCCCC2)nn1
REMARK SMILES IDX 11 1 12 2 13 3 32 4 33 5 3 7 2 8 1 9 4 11 5 12 9 13 6 14
REMARK SMILES IDX 8 15 7 16 10 17 14 18 15 19 16 22 17 23 18 24 22 25 19 26
REMARK SMILES IDX 21 27 20 28 23 29 25 30 24 31 26 32 27 33 31 34 28 35 30 36
REMARK SMILES IDX 29 37
REMARK H PARENT 12 6 1 10 15 20 15 21
ROOT
ATOM     1   N2  UNL     1       1.214   1.861  -0.608  1.00  0.00    -0.202 N   
ATOM     2   C8  UNL     1       1.500   0.553  -0.900  1.00  0.00     0.046 A   
ATOM     3   C9  UNL     1       0.276  -0.076  -0.896  1.00  0.00     0.127 A   
ATOM     4   N4  UNL     1      -0.705   0.849  -0.663  1.00  0.00    -0.132 NA  
ATOM     5   N5  UNL     1      -0.128   2.030  -0.528  1.00  0.00    -0.075 NA  
ATOM     6   H8  UNL     1       2.507   0.187  -1.048  1.00  0.00     0.083 HD  
ENDROOT
BRANCH   1   7
ATOM     7   C2  UNL     1       2.087   3.036  -0.486  1.00  0.00     0.158 C   
BRANCH   7   8
ATOM     8   C1  UNL     1       1.768   3.887   0.767  1.00  0.00     0.186 C   
BRANCH   8   9
ATOM     9   O1  UNL     1       1.933   3.162   1.984  1.00  0.00    -0.394 OA  
ATOM     10  H1  UNL     1       1.748   3.780   2.714  1.00  0.00     0.210 HD  
ENDBRANCH   8   9
ENDBRANCH   7   8
BRANCH   7  11
ATOM     11  C3  UNL     1       3.573   2.744  -0.624  1.00  0.00     0.016 A   
ATOM     12  C4  UNL     1       4.321   3.376  -1.632  1.00  0.00     0.029 A   
ATOM     13  C7  UNL     1       4.263   1.893   0.246  1.00  0.00     0.146 A   
ATOM     14  C5  UNL     1       5.685   3.125  -1.724  1.00  0.00     0.111 A   
ATOM     15  C6  UNL     1       5.626   1.705   0.082  1.00  0.00     0.150 A   
ATOM     16  N1  UNL     1       6.351   2.299  -0.891  1.00  0.00    -0.262 NA  
ATOM     17  F1  UNL     1       3.618   1.211   1.201  1.00  0.00    -0.205 F   
ENDBRANCH   7  11
ENDBRANCH   1   7
BRANCH   3  18
ATOM     18  C10 UNL     1      -0.088  -1.518  -1.017  1.00  0.00     0.117 C   
BRANCH  18  19
ATOM     19  N3  UNL     1      -1.219  -1.836  -0.070  1.00  0.00     0.249 N   
ATOM     20  H10 UNL     1      -1.681  -2.716  -0.320  1.00  0.00     0.199 HD  
ATOM     21  H11 UNL     1      -1.923  -1.091  -0.184  1.00  0.00     0.199 HD  
BRANCH  19  22
ATOM     22  C11 UNL     1      -0.847  -1.869   1.373  1.00  0.00     0.164 C   
BRANCH  22  23
ATOM     23  C12 UNL     1      -2.047  -2.199   2.215  1.00  0.00    -0.002 A   
ATOM     24  C13 UNL     1      -2.306  -3.535   2.600  1.00  0.00     0.012 A   
ATOM     25  C17 UNL     1      -2.949  -1.184   2.579  1.00  0.00     0.045 A   
ATOM     26  C14 UNL     1      -3.445  -3.859   3.345  1.00  0.00     0.037 A   
ATOM     27  C16 UNL     1      -4.063  -1.538   3.311  1.00  0.00     0.109 A   
ATOM     28  C15 UNL     1      -4.304  -2.837   3.684  1.00  0.00     0.108 A   
ATOM     29  O2  UNL     1      -5.032  -0.688   3.738  1.00  0.00    -0.316 OA  
ATOM     30  O3  UNL     1      -5.454  -2.968   4.394  1.00  0.00    -0.316 OA  
ATOM     31  C18 UNL     1      -5.909  -1.599   4.438  1.00  0.00     0.337 C   
ENDBRANCH  22  23
ENDBRANCH  19  22
ENDBRANCH  18  19
BRANCH  18  32
ATOM     32  C19 UNL     1      -0.500  -1.962  -2.445  1.00  0.00     0.043 C   
ATOM     33  C20 UNL     1       0.681  -1.867  -3.430  1.00  0.00     0.010 C   
ATOM     34  C24 UNL     1      -1.728  -1.222  -3.013  1.00  0.00     0.010 C   
ATOM     35  C21 UNL     1       0.301  -2.379  -4.818  1.00  0.00     0.001 C   
ATOM     36  C23 UNL     1      -2.097  -1.725  -4.409  1.00  0.00     0.001 C   
ATOM     37  C22 UNL     1      -0.916  -1.646  -5.370  1.00  0.00     0.000 C   
ENDBRANCH  18  32
ENDBRANCH   3  18
TORSDOF 9
