REMARK SMILES OC[C@H](c1ccncc1F)n1cc([C@@H]([NH2+]Cc2ccc3c(c2)OCO3)C2CCCCC2)nn1
REMARK SMILES IDX 11 1 12 2 13 3 32 4 33 5 3 7 2 8 1 9 4 11 5 12 9 13 6 14
REMARK SMILES IDX 8 15 7 16 10 17 14 18 15 19 16 22 17 23 18 24 22 25 19 26
REMARK SMILES IDX 21 27 20 28 23 29 25 30 24 31 26 32 27 33 31 34 28 35 30 36
REMARK SMILES IDX 29 37
REMARK H PARENT 12 6 1 10 15 20 15 21
ROOT
ATOM     1   N2  UNL     1      -1.098  -2.226  -1.301  1.00  0.00    -0.202 N   
ATOM     2   C8  UNL     1      -1.031  -0.955  -1.806  1.00  0.00     0.046 A   
ATOM     3   C9  UNL     1      -0.853  -0.159  -0.696  1.00  0.00     0.127 A   
ATOM     4   N4  UNL     1      -0.857  -0.953   0.425  1.00  0.00    -0.132 NA  
ATOM     5   N5  UNL     1      -1.042  -2.205   0.046  1.00  0.00    -0.075 NA  
ATOM     6   H8  UNL     1      -1.071  -0.752  -2.869  1.00  0.00     0.083 HD  
ENDROOT
BRANCH   1   7
ATOM     7   C2  UNL     1      -1.178  -3.490  -2.037  1.00  0.00     0.158 C   
BRANCH   7   8
ATOM     8   C1  UNL     1      -2.488  -4.219  -1.682  1.00  0.00     0.186 C   
BRANCH   8   9
ATOM     9   O1  UNL     1      -2.698  -5.370  -2.498  1.00  0.00    -0.394 OA  
ATOM     10  H1  UNL     1      -2.956  -5.088  -3.395  1.00  0.00     0.210 HD  
ENDBRANCH   8   9
ENDBRANCH   7   8
BRANCH   7  11
ATOM     11  C3  UNL     1       0.117  -4.269  -1.865  1.00  0.00     0.016 A   
ATOM     12  C4  UNL     1       0.225  -5.453  -1.124  1.00  0.00     0.029 A   
ATOM     13  C7  UNL     1       1.282  -3.782  -2.466  1.00  0.00     0.146 A   
ATOM     14  C5  UNL     1       1.465  -6.073  -1.018  1.00  0.00     0.111 A   
ATOM     15  C6  UNL     1       2.477  -4.463  -2.309  1.00  0.00     0.150 A   
ATOM     16  N1  UNL     1       2.594  -5.600  -1.590  1.00  0.00    -0.262 NA  
ATOM     17  F1  UNL     1       1.246  -2.653  -3.188  1.00  0.00    -0.205 F   
ENDBRANCH   7  11
ENDBRANCH   1   7
BRANCH   3  18
ATOM     18  C10 UNL     1      -0.627   1.319  -0.554  1.00  0.00     0.117 C   
BRANCH  18  19
ATOM     19  N3  UNL     1      -0.448   1.681   0.897  1.00  0.00     0.249 N   
ATOM     20  H10 UNL     1       0.063   0.899   1.336  1.00  0.00     0.199 HD  
ATOM     21  H11 UNL     1       0.139   2.510   1.031  1.00  0.00     0.199 HD  
BRANCH  19  22
ATOM     22  C11 UNL     1      -1.708   1.856   1.672  1.00  0.00     0.164 C   
BRANCH  22  23
ATOM     23  C12 UNL     1      -1.395   2.070   3.124  1.00  0.00    -0.002 A   
ATOM     24  C13 UNL     1      -1.186   0.959   3.977  1.00  0.00     0.012 A   
ATOM     25  C17 UNL     1      -1.239   3.371   3.631  1.00  0.00     0.045 A   
ATOM     26  C14 UNL     1      -0.835   1.137   5.319  1.00  0.00     0.037 A   
ATOM     27  C16 UNL     1      -0.891   3.512   4.958  1.00  0.00     0.109 A   
ATOM     28  C15 UNL     1      -0.694   2.428   5.779  1.00  0.00     0.108 A   
ATOM     29  O2  UNL     1      -0.694   4.693   5.602  1.00  0.00    -0.316 OA  
ATOM     30  O3  UNL     1      -0.351   2.789   7.043  1.00  0.00    -0.316 OA  
ATOM     31  C18 UNL     1      -0.362   4.230   6.931  1.00  0.00     0.337 C   
ENDBRANCH  22  23
ENDBRANCH  19  22
ENDBRANCH  18  19
BRANCH  18  32
ATOM     32  C19 UNL     1       0.588   1.814  -1.387  1.00  0.00     0.043 C   
ATOM     33  C20 UNL     1       1.940   1.246  -0.912  1.00  0.00     0.010 C   
ATOM     34  C24 UNL     1       0.651   3.353  -1.458  1.00  0.00     0.010 C   
ATOM     35  C21 UNL     1       3.086   1.721  -1.806  1.00  0.00     0.001 C   
ATOM     36  C23 UNL     1       1.800   3.825  -2.350  1.00  0.00     0.001 C   
ATOM     37  C22 UNL     1       3.136   3.243  -1.900  1.00  0.00     0.000 C   
ENDBRANCH  18  32
ENDBRANCH   3  18
TORSDOF 9
