REMARK SMILES COc1ccc(OC)c(Cn2cc([C@@H]([NH2+]Cc3ccc4c(c3)OCO4)C(C)(C)C)nn2)c1
REMARK SMILES IDX 11 1 12 2 13 3 30 4 31 5 10 7 9 8 3 9 4 10 32 11 5 12 6 13
REMARK SMILES IDX 2 14 1 15 7 16 8 17 14 18 15 19 16 22 17 23 18 24 22 25
REMARK SMILES IDX 19 26 21 27 20 28 23 29 25 30 24 31 26 32 27 33 28 34 29 35
REMARK H PARENT 12 6 15 20 15 21
ROOT
ATOM     1   N1  UNL     1       1.302  -0.017   2.377  1.00  0.00    -0.208 N   
ATOM     2   C9  UNL     1       0.045   0.376   2.010  1.00  0.00     0.046 A   
ATOM     3   C10 UNL     1      -0.742  -0.718   2.291  1.00  0.00     0.127 A   
ATOM     4   N3  UNL     1       0.042  -1.715   2.813  1.00  0.00    -0.132 NA  
ATOM     5   N4  UNL     1       1.288  -1.275   2.860  1.00  0.00    -0.076 NA  
ATOM     6   H11 UNL     1      -0.153   1.348   1.579  1.00  0.00     0.083 HD  
ENDROOT
BRANCH   1   7
ATOM     7   C8  UNL     1       2.544   0.729   2.275  1.00  0.00     0.172 C   
BRANCH   7   8
ATOM     8   C7  UNL     1       3.050   0.735   0.852  1.00  0.00     0.004 A   
ATOM     9   C2  UNL     1       4.318  -0.387  -0.908  1.00  0.00     0.075 A   
ATOM     10  C3  UNL     1       4.011   0.652  -1.780  1.00  0.00     0.036 A   
ATOM     11  C24 UNL     1       3.831  -0.344   0.399  1.00  0.00     0.041 A   
ATOM     12  C4  UNL     1       3.225   1.728  -1.347  1.00  0.00     0.036 A   
ATOM     13  C5  UNL     1       2.742   1.778  -0.036  1.00  0.00     0.080 A   
BRANCH   9  14
ATOM     14  O1  UNL     1       5.059  -1.495  -1.205  1.00  0.00    -0.349 OA  
ATOM     15  C1  UNL     1       5.740  -1.498  -2.455  1.00  0.00     0.203 C   
ENDBRANCH   9  14
BRANCH  13  16
ATOM     16  O2  UNL     1       1.946   2.776   0.462  1.00  0.00    -0.349 OA  
ATOM     17  C6  UNL     1       1.848   3.969  -0.310  1.00  0.00     0.203 C   
ENDBRANCH  13  16
ENDBRANCH   7   8
ENDBRANCH   1   7
BRANCH   3  18
ATOM     18  C11 UNL     1      -2.192  -0.975   2.029  1.00  0.00     0.120 C   
BRANCH  18  19
ATOM     19  N2  UNL     1      -2.365  -2.404   1.548  1.00  0.00     0.250 N   
ATOM     20  H13 UNL     1      -3.352  -2.663   1.513  1.00  0.00     0.199 HD  
ATOM     21  H14 UNL     1      -1.911  -3.002   2.252  1.00  0.00     0.199 HD  
BRANCH  19  22
ATOM     22  C12 UNL     1      -1.737  -2.744   0.232  1.00  0.00     0.164 C   
BRANCH  22  23
ATOM     23  C13 UNL     1      -2.285  -1.938  -0.912  1.00  0.00    -0.002 A   
ATOM     24  C14 UNL     1      -1.469  -0.980  -1.560  1.00  0.00     0.012 A   
ATOM     25  C18 UNL     1      -3.618  -2.105  -1.326  1.00  0.00     0.045 A   
ATOM     26  C15 UNL     1      -1.974  -0.190  -2.597  1.00  0.00     0.037 A   
ATOM     27  C17 UNL     1      -4.085  -1.305  -2.347  1.00  0.00     0.109 A   
ATOM     28  C16 UNL     1      -3.288  -0.373  -2.964  1.00  0.00     0.108 A   
ATOM     29  O3  UNL     1      -5.346  -1.324  -2.850  1.00  0.00    -0.316 OA  
ATOM     30  O4  UNL     1      -3.946   0.311  -3.934  1.00  0.00    -0.316 OA  
ATOM     31  C19 UNL     1      -5.246  -0.315  -3.880  1.00  0.00     0.337 C   
ENDBRANCH  22  23
ENDBRANCH  19  22
ENDBRANCH  18  19
BRANCH  18  32
ATOM     32  C20 UNL     1      -3.128  -0.697   3.259  1.00  0.00     0.010 C   
ATOM     33  C21 UNL     1      -4.612  -0.853   2.852  1.00  0.00     0.017 C   
ATOM     34  C22 UNL     1      -2.852  -1.637   4.448  1.00  0.00     0.017 C   
ATOM     35  C23 UNL     1      -2.947   0.761   3.742  1.00  0.00     0.017 C   
ENDBRANCH  18  32
ENDBRANCH   3  18
TORSDOF 9
