REMARK SMILES COc1ccc(-n2cc([C@H](CC(C)C)[NH2+]Cc3ccc4c(c3)OCO4)nn2)c(F)c1
REMARK SMILES IDX 7 1 8 2 9 3 26 4 27 5 6 6 3 7 4 8 30 9 5 10 28 11 29 12 2 13
REMARK SMILES IDX 1 14 10 15 11 16 12 17 13 18 14 19 15 20 16 23 17 24 18 25
REMARK SMILES IDX 22 26 19 27 21 28 20 29 23 30 25 31 24 32
REMARK H PARENT 15 21 15 22
ROOT
ATOM     1   N1  UNL     1      -2.795   1.008  -0.693  1.00  0.00    -0.178 N   
ATOM     2   C6  UNL     1      -1.495   0.557  -0.567  1.00  0.00     0.135 A   
ATOM     3   C7  UNL     1      -1.601  -0.742  -0.123  1.00  0.00     0.127 A   
ATOM     4   N3  UNL     1      -2.920  -1.052   0.035  1.00  0.00    -0.131 NA  
ATOM     5   N4  UNL     1      -3.632   0.011  -0.296  1.00  0.00    -0.071 NA  
ENDROOT
BRANCH   1   6
ATOM     6   C5  UNL     1      -3.292   2.261  -1.122  1.00  0.00     0.093 A   
ATOM     7   C2  UNL     1      -4.324   4.742  -1.971  1.00  0.00     0.078 A   
ATOM     8   C3  UNL     1      -5.183   3.708  -1.590  1.00  0.00     0.035 A   
ATOM     9   C22 UNL     1      -2.948   4.533  -1.923  1.00  0.00     0.074 A   
ATOM     10  C4  UNL     1      -4.678   2.474  -1.169  1.00  0.00     0.032 A   
ATOM     11  C21 UNL     1      -2.442   3.301  -1.502  1.00  0.00     0.149 A   
ATOM     12  F1  UNL     1      -1.109   3.162  -1.478  1.00  0.00    -0.205 F   
BRANCH   7  13
ATOM     13  O1  UNL     1      -4.952   5.891  -2.357  1.00  0.00    -0.349 OA  
ATOM     14  C1  UNL     1      -4.131   6.951  -2.834  1.00  0.00     0.203 C   
ENDBRANCH   7  13
ENDBRANCH   1   6
BRANCH   3  15
ATOM     15  C8  UNL     1      -0.560  -1.753   0.228  1.00  0.00     0.114 C   
BRANCH  15  16
ATOM     16  C9  UNL     1      -0.276  -2.739  -0.922  1.00  0.00     0.064 C   
BRANCH  16  17
ATOM     17  C10 UNL     1       0.334  -2.110  -2.194  1.00  0.00    -0.012 C   
ATOM     18  C11 UNL     1       1.678  -1.432  -1.924  1.00  0.00     0.007 C   
ATOM     19  C12 UNL     1       0.509  -3.188  -3.268  1.00  0.00     0.007 C   
ENDBRANCH  16  17
ENDBRANCH  15  16
BRANCH  15  20
ATOM     20  N2  UNL     1      -1.028  -2.584   1.409  1.00  0.00     0.249 N   
ATOM     21  H17 UNL     1      -1.984  -2.895   1.183  1.00  0.00     0.199 HD  
ATOM     22  H18 UNL     1      -0.450  -3.425   1.501  1.00  0.00     0.199 HD  
BRANCH  20  23
ATOM     23  C13 UNL     1      -1.085  -1.884   2.727  1.00  0.00     0.164 C   
BRANCH  23  24
ATOM     24  C14 UNL     1       0.276  -1.508   3.245  1.00  0.00    -0.002 A   
ATOM     25  C15 UNL     1       0.686  -0.154   3.256  1.00  0.00     0.012 A   
ATOM     26  C19 UNL     1       1.163  -2.504   3.691  1.00  0.00     0.045 A   
ATOM     27  C16 UNL     1       1.966   0.206   3.693  1.00  0.00     0.037 A   
ATOM     28  C18 UNL     1       2.416  -2.114   4.115  1.00  0.00     0.109 A   
ATOM     29  C17 UNL     1       2.808  -0.799   4.115  1.00  0.00     0.108 A   
ATOM     30  O2  UNL     1       3.390  -2.947   4.567  1.00  0.00    -0.316 OA  
ATOM     31  O3  UNL     1       4.079  -0.636   4.566  1.00  0.00    -0.316 OA  
ATOM     32  C20 UNL     1       4.439  -2.000   4.876  1.00  0.00     0.337 C   
ENDBRANCH  23  24
ENDBRANCH  20  23
ENDBRANCH  15  20
ENDBRANCH   3  15
TORSDOF 8
