REMARK SMILES CC(C)[C@H]([NH2+]Cc1ccc2c(c1)OCO2)c1cn(Cc2c[nH]nc2-c2ccoc2)nn1
REMARK SMILES IDX 16 1 17 2 18 3 30 4 31 5 4 7 2 8 1 9 3 10 5 11 6 14 7 15
REMARK SMILES IDX 8 16 12 17 9 18 11 19 10 20 13 21 15 22 14 23 19 24 20 25
REMARK SMILES IDX 21 26 24 27 22 28 23 29 25 31 26 32 29 33 27 34 28 35
REMARK H PARENT 17 6 5 12 5 13 22 30
ROOT
ATOM     1   C13 UNL     1       1.687  -0.706   1.234  1.00  0.00     0.127 A   
ATOM     2   C14 UNL     1       0.978  -1.627   0.496  1.00  0.00     0.046 A   
ATOM     3   N2  UNL     1       0.280  -2.337   1.436  1.00  0.00    -0.208 N   
ATOM     4   N5  UNL     1       0.608  -1.931   2.679  1.00  0.00    -0.076 NA  
ATOM     5   N6  UNL     1       1.445  -0.914   2.567  1.00  0.00    -0.132 NA  
ATOM     6   H18 UNL     1       0.857  -1.796  -0.566  1.00  0.00     0.083 HD  
ENDROOT
BRANCH   1   7
ATOM     7   C4  UNL     1       2.511   0.466   0.810  1.00  0.00     0.117 C   
BRANCH   7   8
ATOM     8   C2  UNL     1       4.042   0.243   0.905  1.00  0.00     0.037 C   
ATOM     9   C1  UNL     1       4.508  -0.851  -0.064  1.00  0.00     0.014 C   
ATOM     10  C3  UNL     1       4.559  -0.063   2.316  1.00  0.00     0.014 C   
ENDBRANCH   7   8
BRANCH   7  11
ATOM     11  N1  UNL     1       2.144   1.675   1.645  1.00  0.00     0.249 N   
ATOM     12  H9  UNL     1       2.848   2.410   1.540  1.00  0.00     0.199 HD  
ATOM     13  H10 UNL     1       2.162   1.364   2.626  1.00  0.00     0.199 HD  
BRANCH  11  14
ATOM     14  C5  UNL     1       0.786   2.254   1.400  1.00  0.00     0.164 C   
BRANCH  14  15
ATOM     15  C6  UNL     1       0.688   2.951   0.072  1.00  0.00    -0.002 A   
ATOM     16  C7  UNL     1       1.254   4.236  -0.106  1.00  0.00     0.012 A   
ATOM     17  C11 UNL     1       0.061   2.316  -1.014  1.00  0.00     0.045 A   
ATOM     18  C8  UNL     1       1.201   4.880  -1.348  1.00  0.00     0.037 A   
ATOM     19  C10 UNL     1       0.027   2.976  -2.224  1.00  0.00     0.109 A   
ATOM     20  C9  UNL     1       0.581   4.222  -2.388  1.00  0.00     0.108 A   
ATOM     21  O1  UNL     1      -0.527   2.500  -3.370  1.00  0.00    -0.316 OA  
ATOM     22  O2  UNL     1       0.441   4.689  -3.655  1.00  0.00    -0.316 OA  
ATOM     23  C12 UNL     1      -0.300   3.611  -4.266  1.00  0.00     0.337 C   
ENDBRANCH  14  15
ENDBRANCH  11  14
ENDBRANCH   7  11
ENDBRANCH   1   7
BRANCH   3  24
ATOM     24  C15 UNL     1      -0.745  -3.354   1.242  1.00  0.00     0.173 C   
BRANCH  24  25
ATOM     25  C16 UNL     1      -1.776  -2.925   0.252  1.00  0.00     0.015 A   
ATOM     26  C17 UNL     1      -2.143  -3.612  -0.893  1.00  0.00     0.099 A   
ATOM     27  C18 UNL     1      -2.585  -1.753   0.214  1.00  0.00     0.097 A   
ATOM     28  N3  UNL     1      -3.076  -2.848  -1.527  1.00  0.00    -0.245 N   
ATOM     29  N4  UNL     1      -3.310  -1.685  -0.907  1.00  0.00    -0.184 NA  
ATOM     30  H22 UNL     1      -3.576  -3.044  -2.391  1.00  0.00     0.175 HD  
BRANCH  27  31
ATOM     31  C19 UNL     1      -2.616  -0.664   1.186  1.00  0.00     0.028 A   
ATOM     32  C20 UNL     1      -2.472  -0.756   2.591  1.00  0.00     0.038 A   
ATOM     33  C22 UNL     1      -2.843   0.667   0.914  1.00  0.00     0.145 A   
ATOM     34  C21 UNL     1      -2.566   0.531   3.071  1.00  0.00     0.136 A   
ATOM     35  O3  UNL     1      -2.760   1.407   2.051  1.00  0.00    -0.325 OA  
ENDBRANCH  27  31
ENDBRANCH  24  25
ENDBRANCH   3  24
TORSDOF 8
