REMARK SMILES CC(C)[C@H]([NH2+]Cc1ccc2c(c1)OCO2)c1cn([C@@H](CO)c2ccc(O)cc2F)nn1
REMARK SMILES IDX 16 1 17 2 18 3 30 4 31 5 4 7 2 8 1 9 3 10 5 11 6 14 7 15
REMARK SMILES IDX 8 16 12 17 9 18 11 19 10 20 13 21 15 22 14 23 19 24 20 25
REMARK SMILES IDX 21 26 22 28 23 29 28 30 24 31 27 32 25 33 29 34 26 35
REMARK H PARENT 17 6 5 12 5 13 21 27 26 36
ROOT
ATOM     1   C13 UNL     1      -1.683  -1.102  -0.465  1.00  0.00     0.127 A   
ATOM     2   C14 UNL     1      -0.751  -0.959  -1.467  1.00  0.00     0.046 A   
ATOM     3   N2  UNL     1      -1.084   0.227  -2.065  1.00  0.00    -0.202 N   
ATOM     4   N3  UNL     1      -2.156   0.783  -1.458  1.00  0.00    -0.075 NA  
ATOM     5   N4  UNL     1      -2.536  -0.028  -0.484  1.00  0.00    -0.132 NA  
ATOM     6   H18 UNL     1       0.094  -1.551  -1.791  1.00  0.00     0.083 HD  
ENDROOT
BRANCH   1   7
ATOM     7   C4  UNL     1      -1.829  -2.147   0.592  1.00  0.00     0.117 C   
BRANCH   7   8
ATOM     8   C2  UNL     1      -2.718  -3.333   0.130  1.00  0.00     0.037 C   
ATOM     9   C1  UNL     1      -4.198  -2.976  -0.054  1.00  0.00     0.014 C   
ATOM     10  C3  UNL     1      -2.592  -4.535   1.075  1.00  0.00     0.014 C   
ENDBRANCH   7   8
BRANCH   7  11
ATOM     11  N1  UNL     1      -2.380  -1.542   1.863  1.00  0.00     0.249 N   
ATOM     12  H9  UNL     1      -2.674  -2.273   2.514  1.00  0.00     0.199 HD  
ATOM     13  H10 UNL     1      -3.219  -1.014   1.589  1.00  0.00     0.199 HD  
BRANCH  11  14
ATOM     14  C5  UNL     1      -1.482  -0.585   2.579  1.00  0.00     0.164 C   
BRANCH  14  15
ATOM     15  C6  UNL     1      -0.238  -1.235   3.119  1.00  0.00    -0.002 A   
ATOM     16  C7  UNL     1       1.018  -0.976   2.519  1.00  0.00     0.012 A   
ATOM     17  C11 UNL     1      -0.317  -2.127   4.202  1.00  0.00     0.045 A   
ATOM     18  C8  UNL     1       2.180  -1.599   2.986  1.00  0.00     0.037 A   
ATOM     19  C10 UNL     1       0.848  -2.724   4.636  1.00  0.00     0.109 A   
ATOM     20  C9  UNL     1       2.061  -2.469   4.046  1.00  0.00     0.108 A   
ATOM     21  O1  UNL     1       0.945  -3.611   5.661  1.00  0.00    -0.316 OA  
ATOM     22  O2  UNL     1       3.075  -3.161   4.626  1.00  0.00    -0.316 OA  
ATOM     23  C12 UNL     1       2.369  -3.866   5.670  1.00  0.00     0.337 C   
ENDBRANCH  14  15
ENDBRANCH  11  14
ENDBRANCH   7  11
ENDBRANCH   1   7
BRANCH   3  24
ATOM     24  C15 UNL     1      -0.381   0.909  -3.155  1.00  0.00     0.158 C   
BRANCH  24  25
ATOM     25  C16 UNL     1      -1.294   1.060  -4.384  1.00  0.00     0.186 C   
BRANCH  25  26
ATOM     26  O3  UNL     1      -1.525  -0.217  -4.984  1.00  0.00    -0.394 OA  
ATOM     27  H22 UNL     1      -2.084  -0.071  -5.769  1.00  0.00     0.210 HD  
ENDBRANCH  25  26
ENDBRANCH  24  25
BRANCH  24  28
ATOM     28  C17 UNL     1       0.249   2.189  -2.634  1.00  0.00     0.013 A   
ATOM     29  C18 UNL     1      -0.312   3.462  -2.827  1.00  0.00     0.011 A   
ATOM     30  C22 UNL     1       1.431   2.097  -1.883  1.00  0.00     0.131 A   
ATOM     31  C19 UNL     1       0.311   4.600  -2.302  1.00  0.00     0.034 A   
ATOM     32  C21 UNL     1       2.056   3.222  -1.358  1.00  0.00     0.072 A   
ATOM     33  C20 UNL     1       1.490   4.469  -1.575  1.00  0.00     0.074 A   
ATOM     34  F1  UNL     1       1.971   0.892  -1.648  1.00  0.00    -0.207 F   
BRANCH  33  35
ATOM     35  O4  UNL     1       2.124   5.551  -1.043  1.00  0.00    -0.361 OA  
ATOM     36  H25 UNL     1       1.664   6.363  -1.317  1.00  0.00     0.218 HD  
ENDBRANCH  33  35
ENDBRANCH  24  28
ENDBRANCH   3  24
TORSDOF 10
