REMARK SMILES CC(C)[C@H]([NH2+]Cc1ccc2c(c1)OCO2)c1cn([C@H](CO)c2ccc(O)cc2F)nn1
REMARK SMILES IDX 16 1 17 2 18 3 30 4 31 5 4 7 2 8 1 9 3 10 5 11 6 14 7 15
REMARK SMILES IDX 8 16 12 17 9 18 11 19 10 20 13 21 15 22 14 23 19 24 20 25
REMARK SMILES IDX 21 26 22 28 23 29 28 30 24 31 27 32 25 33 29 34 26 35
REMARK H PARENT 17 6 5 12 5 13 21 27 26 36
ROOT
ATOM     1   C13 UNL     1       1.777  -0.217  -0.309  1.00  0.00     0.127 A   
ATOM     2   C14 UNL     1       0.982  -1.335  -0.406  1.00  0.00     0.046 A   
ATOM     3   N2  UNL     1       1.823  -2.370  -0.095  1.00  0.00    -0.202 N   
ATOM     4   N3  UNL     1       3.074  -1.915   0.127  1.00  0.00    -0.075 NA  
ATOM     5   N4  UNL     1       3.057  -0.598   0.001  1.00  0.00    -0.132 NA  
ATOM     6   H18 UNL     1      -0.068  -1.488  -0.618  1.00  0.00     0.083 HD  
ENDROOT
BRANCH   1   7
ATOM     7   C4  UNL     1       1.429   1.231  -0.396  1.00  0.00     0.117 C   
BRANCH   7   8
ATOM     8   C2  UNL     1       1.631   1.806  -1.823  1.00  0.00     0.037 C   
ATOM     9   C1  UNL     1       3.095   1.891  -2.271  1.00  0.00     0.014 C   
ATOM     10  C3  UNL     1       0.969   3.182  -1.978  1.00  0.00     0.014 C   
ENDBRANCH   7   8
BRANCH   7  11
ATOM     11  N1  UNL     1       2.214   2.038   0.614  1.00  0.00     0.249 N   
ATOM     12  H9  UNL     1       2.050   3.038   0.478  1.00  0.00     0.199 HD  
ATOM     13  H10 UNL     1       3.208   1.855   0.427  1.00  0.00     0.199 HD  
BRANCH  11  14
ATOM     14  C5  UNL     1       1.988   1.701   2.056  1.00  0.00     0.164 C   
BRANCH  14  15
ATOM     15  C6  UNL     1       0.554   1.829   2.488  1.00  0.00    -0.002 A   
ATOM     16  C7  UNL     1      -0.195   0.668   2.804  1.00  0.00     0.012 A   
ATOM     17  C11 UNL     1      -0.063   3.089   2.554  1.00  0.00     0.045 A   
ATOM     18  C8  UNL     1      -1.542   0.758   3.170  1.00  0.00     0.037 A   
ATOM     19  C10 UNL     1      -1.392   3.142   2.919  1.00  0.00     0.109 A   
ATOM     20  C9  UNL     1      -2.112   2.010   3.217  1.00  0.00     0.108 A   
ATOM     21  O1  UNL     1      -2.138   4.273   3.023  1.00  0.00    -0.316 OA  
ATOM     22  O2  UNL     1      -3.399   2.288   3.548  1.00  0.00    -0.316 OA  
ATOM     23  C12 UNL     1      -3.404   3.728   3.457  1.00  0.00     0.337 C   
ENDBRANCH  14  15
ENDBRANCH  11  14
ENDBRANCH   7  11
ENDBRANCH   1   7
BRANCH   3  24
ATOM     24  C15 UNL     1       1.511  -3.792   0.082  1.00  0.00     0.158 C   
BRANCH  24  25
ATOM     25  C16 UNL     1       1.573  -4.518  -1.276  1.00  0.00     0.186 C   
BRANCH  25  26
ATOM     26  O3  UNL     1       0.628  -4.006  -2.217  1.00  0.00    -0.394 OA  
ATOM     27  H22 UNL     1       0.767  -4.490  -3.052  1.00  0.00     0.210 HD  
ENDBRANCH  25  26
ENDBRANCH  24  25
BRANCH  24  28
ATOM     28  C17 UNL     1       0.254  -3.972   0.925  1.00  0.00     0.013 A   
ATOM     29  C18 UNL     1      -0.939  -4.532   0.441  1.00  0.00     0.011 A   
ATOM     30  C22 UNL     1       0.276  -3.545   2.264  1.00  0.00     0.131 A   
ATOM     31  C19 UNL     1      -2.062  -4.652   1.269  1.00  0.00     0.034 A   
ATOM     32  C21 UNL     1      -0.834  -3.658   3.093  1.00  0.00     0.072 A   
ATOM     33  C20 UNL     1      -2.000  -4.212   2.587  1.00  0.00     0.074 A   
ATOM     34  F1  UNL     1       1.387  -2.985   2.761  1.00  0.00    -0.207 F   
BRANCH  33  35
ATOM     35  O4  UNL     1      -3.072  -4.300   3.421  1.00  0.00    -0.361 OA  
ATOM     36  H25 UNL     1      -3.794  -4.772   2.971  1.00  0.00     0.218 HD  
ENDBRANCH  33  35
ENDBRANCH  24  28
ENDBRANCH   3  24
TORSDOF 10
