REMARK SMILES CC(C)(C)[C@H]([NH2+]Cc1ccc2c(c1)OCO2)c1cn([C@H](CO)c2ccc(O)c(F)c2)nn1
REMARK SMILES IDX 17 1 18 2 19 3 31 4 32 5 5 7 2 8 1 9 3 10 4 11 6 12 7 15
REMARK SMILES IDX 8 16 9 17 13 18 10 19 12 20 11 21 14 22 16 23 15 24 20 25
REMARK SMILES IDX 21 26 22 27 23 29 24 30 30 31 25 32 28 33 26 34 29 35 27 36
REMARK H PARENT 18 6 6 13 6 14 22 28 27 37
ROOT
ATOM     1   C14 UNL     1      -0.441  -0.381   0.881  1.00  0.00     0.127 A   
ATOM     2   C15 UNL     1      -1.539   0.398   1.173  1.00  0.00     0.046 A   
ATOM     3   N2  UNL     1      -1.344   1.540   0.440  1.00  0.00    -0.202 N   
ATOM     4   N3  UNL     1      -0.212   1.446  -0.290  1.00  0.00    -0.075 NA  
ATOM     5   N4  UNL     1       0.351   0.281  -0.023  1.00  0.00    -0.132 NA  
ATOM     6   H20 UNL     1      -2.403   0.260   1.808  1.00  0.00     0.083 HD  
ENDROOT
BRANCH   1   7
ATOM     7   C5  UNL     1      -0.063  -1.766   1.311  1.00  0.00     0.120 C   
BRANCH   7   8
ATOM     8   C2  UNL     1       0.839  -1.817   2.595  1.00  0.00     0.010 C   
ATOM     9   C1  UNL     1       0.141  -1.089   3.767  1.00  0.00     0.017 C   
ATOM     10  C3  UNL     1       2.220  -1.169   2.376  1.00  0.00     0.017 C   
ATOM     11  C4  UNL     1       1.054  -3.282   3.042  1.00  0.00     0.017 C   
ENDBRANCH   7   8
BRANCH   7  12
ATOM     12  N1  UNL     1       0.627  -2.455   0.157  1.00  0.00     0.250 N   
ATOM     13  H11 UNL     1       1.302  -1.776  -0.227  1.00  0.00     0.199 HD  
ATOM     14  H12 UNL     1       1.175  -3.267   0.451  1.00  0.00     0.199 HD  
BRANCH  12  15
ATOM     15  C6  UNL     1      -0.263  -2.863  -0.966  1.00  0.00     0.164 C   
BRANCH  15  16
ATOM     16  C7  UNL     1       0.547  -3.444  -2.090  1.00  0.00    -0.002 A   
ATOM     17  C8  UNL     1       1.112  -2.592  -3.070  1.00  0.00     0.012 A   
ATOM     18  C12 UNL     1       0.799  -4.825  -2.143  1.00  0.00     0.045 A   
ATOM     19  C9  UNL     1       1.907  -3.110  -4.098  1.00  0.00     0.037 A   
ATOM     20  C11 UNL     1       1.588  -5.301  -3.170  1.00  0.00     0.109 A   
ATOM     21  C10 UNL     1       2.126  -4.469  -4.120  1.00  0.00     0.108 A   
ATOM     22  O1  UNL     1       1.928  -6.602  -3.366  1.00  0.00    -0.316 OA  
ATOM     23  O2  UNL     1       2.870  -5.141  -5.036  1.00  0.00    -0.316 OA  
ATOM     24  C13 UNL     1       2.726  -6.499  -4.567  1.00  0.00     0.337 C   
ENDBRANCH  15  16
ENDBRANCH  12  15
ENDBRANCH   7  12
ENDBRANCH   1   7
BRANCH   3  25
ATOM     25  C16 UNL     1      -2.198   2.728   0.390  1.00  0.00     0.155 C   
BRANCH  25  26
ATOM     26  C17 UNL     1      -2.580   3.109  -1.051  1.00  0.00     0.185 C   
BRANCH  26  27
ATOM     27  O3  UNL     1      -3.474   2.133  -1.595  1.00  0.00    -0.394 OA  
ATOM     28  H24 UNL     1      -3.736   2.452  -2.479  1.00  0.00     0.210 HD  
ENDBRANCH  26  27
ENDBRANCH  25  26
BRANCH  25  29
ATOM     29  C18 UNL     1      -1.565   3.867   1.176  1.00  0.00    -0.020 A   
ATOM     30  C19 UNL     1      -2.096   4.232   2.429  1.00  0.00     0.009 A   
ATOM     31  C23 UNL     1      -0.446   4.568   0.692  1.00  0.00     0.048 A   
ATOM     32  C20 UNL     1      -1.528   5.269   3.175  1.00  0.00     0.036 A   
ATOM     33  C22 UNL     1       0.112   5.598   1.444  1.00  0.00     0.153 A   
ATOM     34  C21 UNL     1      -0.424   5.947   2.677  1.00  0.00     0.107 A   
ATOM     35  F1  UNL     1       1.181   6.258   0.977  1.00  0.00    -0.204 F   
BRANCH  34  36
ATOM     36  O4  UNL     1       0.115   6.953   3.424  1.00  0.00    -0.358 OA  
ATOM     37  H27 UNL     1       0.861   7.325   2.916  1.00  0.00     0.218 HD  
ENDBRANCH  34  36
ENDBRANCH  25  29
ENDBRANCH   3  25
TORSDOF 10
