REMARK SMILES CC(C)(C)[C@H]([NH2+]Cc1ccc2c(c1)OCO2)c1cn([C@@H](CO)c2ccc(O)c(F)c2)nn1
REMARK SMILES IDX 17 1 18 2 19 3 31 4 32 5 5 7 2 8 1 9 3 10 4 11 6 12 7 15
REMARK SMILES IDX 8 16 9 17 13 18 10 19 12 20 11 21 14 22 16 23 15 24 20 25
REMARK SMILES IDX 21 26 22 27 23 29 24 30 30 31 25 32 28 33 26 34 29 35 27 36
REMARK H PARENT 18 6 6 13 6 14 22 28 27 37
ROOT
ATOM     1   C14 UNL     1      -0.742   0.400   0.066  1.00  0.00     0.127 A   
ATOM     2   C15 UNL     1       0.240  -0.435  -0.415  1.00  0.00     0.046 A   
ATOM     3   N2  UNL     1      -0.382  -1.156  -1.398  1.00  0.00    -0.202 N   
ATOM     4   N3  UNL     1      -1.662  -0.752  -1.543  1.00  0.00    -0.075 NA  
ATOM     5   N4  UNL     1      -1.894   0.195  -0.649  1.00  0.00    -0.132 NA  
ATOM     6   H20 UNL     1       1.283  -0.578  -0.166  1.00  0.00     0.083 HD  
ENDROOT
BRANCH   1   7
ATOM     7   C5  UNL     1      -0.688   1.474   1.107  1.00  0.00     0.120 C   
BRANCH   7   8
ATOM     8   C2  UNL     1      -1.207   1.025   2.519  1.00  0.00     0.010 C   
ATOM     9   C1  UNL     1      -0.428  -0.221   2.999  1.00  0.00     0.017 C   
ATOM     10  C3  UNL     1      -2.711   0.687   2.529  1.00  0.00     0.017 C   
ATOM     11  C4  UNL     1      -0.956   2.141   3.561  1.00  0.00     0.017 C   
ENDBRANCH   7   8
BRANCH   7  12
ATOM     12  N1  UNL     1      -1.467   2.680   0.617  1.00  0.00     0.250 N   
ATOM     13  H11 UNL     1      -1.596   3.362   1.367  1.00  0.00     0.199 HD  
ATOM     14  H12 UNL     1      -2.398   2.333   0.350  1.00  0.00     0.199 HD  
BRANCH  12  15
ATOM     15  C6  UNL     1      -0.911   3.385  -0.579  1.00  0.00     0.164 C   
BRANCH  15  16
ATOM     16  C7  UNL     1       0.432   4.009  -0.322  1.00  0.00    -0.002 A   
ATOM     17  C8  UNL     1       1.602   3.429  -0.870  1.00  0.00     0.012 A   
ATOM     18  C12 UNL     1       0.541   5.148   0.495  1.00  0.00     0.045 A   
ATOM     19  C9  UNL     1       2.865   3.966  -0.600  1.00  0.00     0.037 A   
ATOM     20  C11 UNL     1       1.802   5.652   0.740  1.00  0.00     0.109 A   
ATOM     21  C10 UNL     1       2.931   5.078   0.210  1.00  0.00     0.108 A   
ATOM     22  O1  UNL     1       2.082   6.735   1.510  1.00  0.00    -0.316 OA  
ATOM     23  O2  UNL     1       4.065   5.726   0.581  1.00  0.00    -0.316 OA  
ATOM     24  C13 UNL     1       3.523   6.791   1.391  1.00  0.00     0.337 C   
ENDBRANCH  15  16
ENDBRANCH  12  15
ENDBRANCH   7  12
ENDBRANCH   1   7
BRANCH   3  25
ATOM     25  C16 UNL     1       0.161  -2.211  -2.255  1.00  0.00     0.155 C   
BRANCH  25  26
ATOM     26  C17 UNL     1       0.874  -1.610  -3.483  1.00  0.00     0.185 C   
BRANCH  26  27
ATOM     27  O3  UNL     1       1.906  -0.681  -3.135  1.00  0.00    -0.394 OA  
ATOM     28  H24 UNL     1       2.355  -0.437  -3.968  1.00  0.00     0.210 HD  
ENDBRANCH  26  27
ENDBRANCH  25  26
BRANCH  25  29
ATOM     29  C18 UNL     1       0.934  -3.235  -1.431  1.00  0.00    -0.020 A   
ATOM     30  C19 UNL     1       2.339  -3.270  -1.370  1.00  0.00     0.009 A   
ATOM     31  C23 UNL     1       0.212  -4.177  -0.670  1.00  0.00     0.048 A   
ATOM     32  C20 UNL     1       3.004  -4.217  -0.582  1.00  0.00     0.036 A   
ATOM     33  C22 UNL     1       0.883  -5.115   0.110  1.00  0.00     0.153 A   
ATOM     34  C21 UNL     1       2.270  -5.136   0.154  1.00  0.00     0.107 A   
ATOM     35  F1  UNL     1       0.184  -6.003   0.831  1.00  0.00    -0.204 F   
BRANCH  34  36
ATOM     36  O4  UNL     1       2.938  -6.048   0.916  1.00  0.00    -0.358 OA  
ATOM     37  H27 UNL     1       2.272  -6.637   1.316  1.00  0.00     0.218 HD  
ENDBRANCH  34  36
ENDBRANCH  25  29
ENDBRANCH   3  25
TORSDOF 10
