REMARK SMILES Cc1ncccc1[C@H](CO)n1cc([C@@H]([NH2+]Cc2ccc3c(c2)OCO3)C(C)(C)C)nn1
REMARK SMILES IDX 11 1 12 2 13 3 30 4 31 5 8 7 7 8 2 9 3 10 4 11 6 12 5 13
REMARK SMILES IDX 1 14 9 15 10 16 14 18 15 19 16 22 17 23 18 24 22 25 19 26
REMARK SMILES IDX 21 27 20 28 23 29 25 30 24 31 26 32 27 33 28 34 29 35
REMARK H PARENT 12 6 10 17 15 20 15 21
ROOT
ATOM     1   N2  UNL     1      -1.285  -0.229  -1.528  1.00  0.00    -0.202 N   
ATOM     2   C9  UNL     1      -1.537   0.466  -0.374  1.00  0.00     0.046 A   
ATOM     3   C10 UNL     1      -0.407   1.230  -0.189  1.00  0.00     0.127 A   
ATOM     4   N4  UNL     1       0.487   0.964  -1.194  1.00  0.00    -0.132 NA  
ATOM     5   N5  UNL     1      -0.058   0.072  -2.005  1.00  0.00    -0.075 NA  
ATOM     6   H11 UNL     1      -2.459   0.356   0.179  1.00  0.00     0.083 HD  
ENDROOT
BRANCH   1   7
ATOM     7   C7  UNL     1      -2.168  -1.181  -2.206  1.00  0.00     0.157 C   
BRANCH   7   8
ATOM     8   C6  UNL     1      -1.688  -2.603  -1.975  1.00  0.00    -0.002 A   
ATOM     9   C2  UNL     1      -2.302  -3.461  -1.050  1.00  0.00     0.042 A   
ATOM     10  N1  UNL     1      -1.881  -4.732  -0.840  1.00  0.00    -0.261 NA  
ATOM     11  C3  UNL     1      -0.823  -5.179  -1.547  1.00  0.00     0.111 A   
ATOM     12  C5  UNL     1      -0.583  -3.110  -2.683  1.00  0.00     0.009 A   
ATOM     13  C4  UNL     1      -0.145  -4.411  -2.470  1.00  0.00     0.020 A   
ATOM     14  C1  UNL     1      -3.477  -3.047  -0.213  1.00  0.00     0.067 C   
ENDBRANCH   7   8
BRANCH   7  15
ATOM     15  C8  UNL     1      -2.370  -0.823  -3.690  1.00  0.00     0.186 C   
BRANCH  15  16
ATOM     16  O1  UNL     1      -3.200   0.336  -3.802  1.00  0.00    -0.394 OA  
ATOM     17  H10 UNL     1      -3.338   0.499  -4.754  1.00  0.00     0.210 HD  
ENDBRANCH  15  16
ENDBRANCH   7  15
ENDBRANCH   1   7
BRANCH   3  18
ATOM     18  C11 UNL     1      -0.019   2.173   0.907  1.00  0.00     0.120 C   
BRANCH  18  19
ATOM     19  N3  UNL     1       1.472   2.030   1.153  1.00  0.00     0.250 N   
ATOM     20  H13 UNL     1       1.921   2.939   1.285  1.00  0.00     0.199 HD  
ATOM     21  H14 UNL     1       1.865   1.656   0.274  1.00  0.00     0.199 HD  
BRANCH  19  22
ATOM     22  C12 UNL     1       1.875   1.125   2.265  1.00  0.00     0.164 C   
BRANCH  22  23
ATOM     23  C13 UNL     1       1.558  -0.323   2.021  1.00  0.00    -0.002 A   
ATOM     24  C14 UNL     1       2.331  -1.078   1.105  1.00  0.00     0.012 A   
ATOM     25  C18 UNL     1       0.483  -0.939   2.686  1.00  0.00     0.045 A   
ATOM     26  C15 UNL     1       2.048  -2.426   0.863  1.00  0.00     0.037 A   
ATOM     27  C17 UNL     1       0.230  -2.269   2.422  1.00  0.00     0.109 A   
ATOM     28  C16 UNL     1       0.995  -2.994   1.543  1.00  0.00     0.108 A   
ATOM     29  O2  UNL     1      -0.762  -3.010   2.982  1.00  0.00    -0.316 OA  
ATOM     30  O3  UNL     1       0.597  -4.289   1.454  1.00  0.00    -0.316 OA  
ATOM     31  C19 UNL     1      -0.512  -4.302   2.377  1.00  0.00     0.337 C   
ENDBRANCH  22  23
ENDBRANCH  19  22
ENDBRANCH  18  19
BRANCH  18  32
ATOM     32  C20 UNL     1      -0.390   3.671   0.629  1.00  0.00     0.010 C   
ATOM     33  C21 UNL     1       0.358   4.257  -0.586  1.00  0.00     0.017 C   
ATOM     34  C22 UNL     1      -1.908   3.805   0.371  1.00  0.00     0.017 C   
ATOM     35  C23 UNL     1      -0.069   4.537   1.869  1.00  0.00     0.017 C   
ENDBRANCH  18  32
ENDBRANCH   3  18
TORSDOF 9
