REMARK SMILES Cc1ncccc1[C@@H](CO)n1cc([C@@H]([NH2+]Cc2ccc3c(c2)OCO3)C(C)(C)C)nn1
REMARK SMILES IDX 11 1 12 2 13 3 30 4 31 5 8 7 7 8 2 9 3 10 4 11 6 12 5 13
REMARK SMILES IDX 1 14 9 15 10 16 14 18 15 19 16 22 17 23 18 24 22 25 19 26
REMARK SMILES IDX 21 27 20 28 23 29 25 30 24 31 26 32 27 33 28 34 29 35
REMARK H PARENT 12 6 10 17 15 20 15 21
ROOT
ATOM     1   N2  UNL     1       0.261   0.097   1.955  1.00  0.00    -0.202 N   
ATOM     2   C9  UNL     1      -0.621  -0.104   0.927  1.00  0.00     0.046 A   
ATOM     3   C10 UNL     1      -0.096  -1.171   0.233  1.00  0.00     0.127 A   
ATOM     4   N4  UNL     1       1.087  -1.546   0.818  1.00  0.00    -0.132 NA  
ATOM     5   N5  UNL     1       1.281  -0.784   1.881  1.00  0.00    -0.075 NA  
ATOM     6   H11 UNL     1      -1.519   0.488   0.812  1.00  0.00     0.083 HD  
ENDROOT
BRANCH   1   7
ATOM     7   C7  UNL     1       0.209   1.064   3.052  1.00  0.00     0.157 C   
BRANCH   7   8
ATOM     8   C6  UNL     1       0.358   2.494   2.533  1.00  0.00    -0.002 A   
ATOM     9   C2  UNL     1       1.603   3.000   2.107  1.00  0.00     0.042 A   
ATOM     10  N1  UNL     1       1.768   4.273   1.662  1.00  0.00    -0.261 NA  
ATOM     11  C3  UNL     1       0.695   5.088   1.638  1.00  0.00     0.111 A   
ATOM     12  C5  UNL     1      -0.736   3.379   2.469  1.00  0.00     0.009 A   
ATOM     13  C4  UNL     1      -0.567   4.687   2.024  1.00  0.00     0.020 A   
ATOM     14  C1  UNL     1       2.863   2.180   2.101  1.00  0.00     0.067 C   
ENDBRANCH   7   8
BRANCH   7  15
ATOM     15  C8  UNL     1      -0.972   0.755   4.007  1.00  0.00     0.186 C   
BRANCH  15  16
ATOM     16  O1  UNL     1      -2.258   0.796   3.365  1.00  0.00    -0.394 OA  
ATOM     17  H10 UNL     1      -2.925   0.636   4.058  1.00  0.00     0.210 HD  
ENDBRANCH  15  16
ENDBRANCH   7  15
ENDBRANCH   1   7
BRANCH   3  18
ATOM     18  C11 UNL     1      -0.542  -1.875  -1.012  1.00  0.00     0.120 C   
BRANCH  18  19
ATOM     19  N3  UNL     1       0.706  -2.372  -1.727  1.00  0.00     0.250 N   
ATOM     20  H13 UNL     1       0.719  -3.392  -1.797  1.00  0.00     0.199 HD  
ATOM     21  H14 UNL     1       1.492  -2.160  -1.087  1.00  0.00     0.199 HD  
BRANCH  19  22
ATOM     22  C12 UNL     1       1.014  -1.759  -3.047  1.00  0.00     0.164 C   
BRANCH  22  23
ATOM     23  C13 UNL     1       1.134  -0.258  -3.008  1.00  0.00    -0.002 A   
ATOM     24  C14 UNL     1       0.172   0.547  -3.665  1.00  0.00     0.012 A   
ATOM     25  C18 UNL     1       2.179   0.356  -2.293  1.00  0.00     0.045 A   
ATOM     26  C15 UNL     1       0.235   1.944  -3.598  1.00  0.00     0.037 A   
ATOM     27  C17 UNL     1       2.210   1.734  -2.246  1.00  0.00     0.109 A   
ATOM     28  C16 UNL     1       1.264   2.503  -2.877  1.00  0.00     0.108 A   
ATOM     29  O2  UNL     1       3.148   2.482  -1.608  1.00  0.00    -0.316 OA  
ATOM     30  O3  UNL     1       1.480   3.833  -2.708  1.00  0.00    -0.316 OA  
ATOM     31  C19 UNL     1       2.656   3.819  -1.867  1.00  0.00     0.337 C   
ENDBRANCH  22  23
ENDBRANCH  19  22
ENDBRANCH  18  19
BRANCH  18  32
ATOM     32  C20 UNL     1      -1.558  -3.046  -0.773  1.00  0.00     0.010 C   
ATOM     33  C21 UNL     1      -1.915  -3.732  -2.109  1.00  0.00     0.017 C   
ATOM     34  C22 UNL     1      -1.021  -4.116   0.191  1.00  0.00     0.017 C   
ATOM     35  C23 UNL     1      -2.876  -2.483  -0.190  1.00  0.00     0.017 C   
ENDBRANCH  18  32
ENDBRANCH   3  18
TORSDOF 9
