REMARK SMILES CC(=O)n1ccc(C(=O)n2cc([C@H](CC(C)C)[NH2+]Cc3ccc4c(c3)OCO4)nn2)c1
REMARK SMILES IDX 10 1 11 2 12 3 29 4 30 5 8 6 9 7 7 8 4 9 5 10 31 11 6 12
REMARK SMILES IDX 2 13 1 14 3 15 13 16 14 17 15 18 16 19 17 20 18 21 19 24
REMARK SMILES IDX 20 25 21 26 25 27 22 28 24 29 23 30 26 31 28 32 27 33
REMARK H PARENT 18 22 18 23
ROOT
ATOM     1   N2  UNL     1      -0.309  -1.934  -0.296  1.00  0.00    -0.143 N   
ATOM     2   C7  UNL     1      -0.997  -0.909   0.342  1.00  0.00     0.139 A   
ATOM     3   C8  UNL     1      -0.728   0.220  -0.395  1.00  0.00     0.127 A   
ATOM     4   N4  UNL     1       0.106  -0.112  -1.427  1.00  0.00    -0.131 NA  
ATOM     5   N5  UNL     1       0.363  -1.408  -1.352  1.00  0.00    -0.068 NA  
ENDROOT
BRANCH   1   6
ATOM     6   C6  UNL     1      -0.264  -3.300   0.052  1.00  0.00     0.272 C   
ATOM     7   O2  UNL     1      -0.920  -3.596   1.051  1.00  0.00    -0.269 OA  
BRANCH   6   8
ATOM     8   C5  UNL     1       0.485  -4.338  -0.667  1.00  0.00     0.055 A   
ATOM     9   N1  UNL     1       1.810  -5.462  -2.142  1.00  0.00    -0.254 N   
ATOM     10  C3  UNL     1       1.327  -6.376  -1.226  1.00  0.00     0.084 A   
ATOM     11  C22 UNL     1       1.286  -4.223  -1.788  1.00  0.00     0.096 A   
ATOM     12  C4  UNL     1       0.522  -5.721  -0.320  1.00  0.00     0.031 A   
BRANCH   9  13
ATOM     13  C2  UNL     1       2.667  -5.686  -3.238  1.00  0.00     0.219 C   
ATOM     14  C1  UNL     1       3.106  -7.104  -3.437  1.00  0.00     0.112 C   
ATOM     15  O1  UNL     1       2.998  -4.740  -3.941  1.00  0.00    -0.277 OA  
ENDBRANCH   9  13
ENDBRANCH   6   8
ENDBRANCH   1   6
BRANCH   3  16
ATOM     16  C9  UNL     1      -1.173   1.640  -0.224  1.00  0.00     0.114 C   
BRANCH  16  17
ATOM     17  C10 UNL     1      -2.526   1.872  -0.928  1.00  0.00     0.064 C   
BRANCH  17  18
ATOM     18  C11 UNL     1      -3.167   3.264  -0.740  1.00  0.00    -0.012 C   
ATOM     19  C12 UNL     1      -3.401   3.609   0.732  1.00  0.00     0.007 C   
ATOM     20  C13 UNL     1      -4.497   3.321  -1.499  1.00  0.00     0.007 C   
ENDBRANCH  17  18
ENDBRANCH  16  17
BRANCH  16  21
ATOM     21  N3  UNL     1      -0.148   2.586  -0.805  1.00  0.00     0.249 N   
ATOM     22  H17 UNL     1       0.086   2.226  -1.741  1.00  0.00     0.199 HD  
ATOM     23  H18 UNL     1      -0.546   3.519  -0.935  1.00  0.00     0.199 HD  
BRANCH  21  24
ATOM     24  C14 UNL     1       1.131   2.723  -0.044  1.00  0.00     0.164 C   
BRANCH  24  25
ATOM     25  C15 UNL     1       0.947   3.435   1.268  1.00  0.00    -0.002 A   
ATOM     26  C16 UNL     1       1.028   2.720   2.486  1.00  0.00     0.012 A   
ATOM     27  C20 UNL     1       0.660   4.811   1.291  1.00  0.00     0.045 A   
ATOM     28  C17 UNL     1       0.816   3.361   3.712  1.00  0.00     0.037 A   
ATOM     29  C19 UNL     1       0.454   5.411   2.516  1.00  0.00     0.109 A   
ATOM     30  C18 UNL     1       0.528   4.707   3.692  1.00  0.00     0.108 A   
ATOM     31  O3  UNL     1       0.157   6.722   2.713  1.00  0.00    -0.316 OA  
ATOM     32  O4  UNL     1       0.289   5.487   4.778  1.00  0.00    -0.316 OA  
ATOM     33  C21 UNL     1       0.082   6.773   4.156  1.00  0.00     0.337 C   
ENDBRANCH  24  25
ENDBRANCH  21  24
ENDBRANCH  16  21
ENDBRANCH   3  16
TORSDOF 9
