REMARK SMILES COc1ccc(CCn2cc([C@@H]([NH2+]Cc3ccc4c(c3)OCO4)C(C)(C)C)nn2)cn1
REMARK SMILES IDX 9 1 10 2 11 3 28 4 29 5 8 7 7 8 6 9 3 10 4 11 31 12 5 13
REMARK SMILES IDX 30 14 2 15 1 16 12 17 13 18 14 21 15 22 16 23 20 24 17 25
REMARK SMILES IDX 19 26 18 27 21 28 23 29 22 30 24 31 25 32 26 33 27 34
REMARK H PARENT 10 6 13 19 13 20
ROOT
ATOM     1   N1  UNL     1      -2.999   0.119  -1.470  1.00  0.00    -0.212 N   
ATOM     2   C8  UNL     1      -2.096   1.115  -1.219  1.00  0.00     0.045 A   
ATOM     3   C9  UNL     1      -0.873   0.511  -1.414  1.00  0.00     0.127 A   
ATOM     4   N3  UNL     1      -1.072  -0.788  -1.806  1.00  0.00    -0.132 NA  
ATOM     5   N4  UNL     1      -2.376  -1.014  -1.840  1.00  0.00    -0.076 NA  
ATOM     6   H10 UNL     1      -2.394   2.096  -0.875  1.00  0.00     0.083 HD  
ENDROOT
BRANCH   1   7
ATOM     7   C7  UNL     1      -4.422   0.128  -1.191  1.00  0.00     0.139 C   
BRANCH   7   8
ATOM     8   C6  UNL     1      -4.793  -0.682   0.059  1.00  0.00     0.058 C   
BRANCH   8   9
ATOM     9   C5  UNL     1      -3.984  -0.289   1.270  1.00  0.00    -0.028 A   
ATOM     10  C2  UNL     1      -2.316   0.436   3.318  1.00  0.00     0.166 A   
ATOM     11  C3  UNL     1      -3.397   1.252   3.025  1.00  0.00     0.055 A   
ATOM     12  N5  UNL     1      -2.015  -0.688   2.634  1.00  0.00    -0.233 NA  
ATOM     13  C4  UNL     1      -4.244   0.883   1.983  1.00  0.00     0.010 A   
ATOM     14  C23 UNL     1      -2.878  -1.044   1.656  1.00  0.00     0.117 A   
BRANCH  10  15
ATOM     15  O1  UNL     1      -1.468   0.867   4.316  1.00  0.00    -0.333 OA  
ATOM     16  C1  UNL     1      -0.741  -0.205   4.911  1.00  0.00     0.205 C   
ENDBRANCH  10  15
ENDBRANCH   8   9
ENDBRANCH   7   8
ENDBRANCH   1   7
BRANCH   3  17
ATOM     17  C10 UNL     1       0.513   1.016  -1.152  1.00  0.00     0.120 C   
BRANCH  17  18
ATOM     18  N2  UNL     1       1.319  -0.049  -0.447  1.00  0.00     0.250 N   
ATOM     19  H12 UNL     1       2.305   0.209  -0.373  1.00  0.00     0.199 HD  
ATOM     20  H13 UNL     1       1.275  -0.903  -1.019  1.00  0.00     0.199 HD  
BRANCH  18  21
ATOM     21  C11 UNL     1       0.830  -0.421   0.917  1.00  0.00     0.164 C   
BRANCH  21  22
ATOM     22  C12 UNL     1       1.836  -1.299   1.608  1.00  0.00    -0.002 A   
ATOM     23  C13 UNL     1       1.774  -2.705   1.462  1.00  0.00     0.012 A   
ATOM     24  C17 UNL     1       2.873  -0.726   2.363  1.00  0.00     0.045 A   
ATOM     25  C14 UNL     1       2.727  -3.533   2.066  1.00  0.00     0.037 A   
ATOM     26  C16 UNL     1       3.795  -1.570   2.946  1.00  0.00     0.109 A   
ATOM     27  C15 UNL     1       3.725  -2.933   2.801  1.00  0.00     0.108 A   
ATOM     28  O2  UNL     1       4.853  -1.181   3.704  1.00  0.00    -0.316 OA  
ATOM     29  O3  UNL     1       4.729  -3.575   3.452  1.00  0.00    -0.316 OA  
ATOM     30  C18 UNL     1       5.432  -2.462   4.043  1.00  0.00     0.337 C   
ENDBRANCH  21  22
ENDBRANCH  18  21
ENDBRANCH  17  18
BRANCH  17  31
ATOM     31  C19 UNL     1       1.268   1.519  -2.433  1.00  0.00     0.010 C   
ATOM     32  C20 UNL     1       0.438   2.616  -3.139  1.00  0.00     0.017 C   
ATOM     33  C21 UNL     1       2.621   2.159  -2.044  1.00  0.00     0.017 C   
ATOM     34  C22 UNL     1       1.544   0.392  -3.448  1.00  0.00     0.017 C   
ENDBRANCH  17  31
ENDBRANCH   3  17
TORSDOF 9
