REMARK SMILES CC(C)C[C@H]([NH2+]Cc1ccc2c(c1)OCO2)c1cn(CCc2cccn2C)nn1
REMARK SMILES IDX 17 1 18 2 19 3 28 4 29 5 5 7 4 8 2 9 1 10 3 11 6 12 7 15
REMARK SMILES IDX 8 16 9 17 13 18 10 19 12 20 11 21 14 22 16 23 15 24 20 25
REMARK SMILES IDX 21 26 22 27 23 28 26 29 24 30 25 31 27 32
REMARK H PARENT 18 6 6 13 6 14
ROOT
ATOM     1   C14 UNL     1       0.874   1.063  -1.792  1.00  0.00     0.127 A   
ATOM     2   C15 UNL     1      -0.447   1.440  -1.871  1.00  0.00     0.045 A   
ATOM     3   N2  UNL     1      -0.827   1.046  -3.123  1.00  0.00    -0.212 N   
ATOM     4   N4  UNL     1       0.198   0.472  -3.780  1.00  0.00    -0.076 NA  
ATOM     5   N5  UNL     1       1.245   0.469  -2.971  1.00  0.00    -0.132 NA  
ATOM     6   H20 UNL     1      -1.132   1.907  -1.176  1.00  0.00     0.083 HD  
ENDROOT
BRANCH   1   7
ATOM     7   C5  UNL     1       1.843   1.127  -0.662  1.00  0.00     0.114 C   
BRANCH   7   8
ATOM     8   C4  UNL     1       2.946   2.180  -0.886  1.00  0.00     0.064 C   
BRANCH   8   9
ATOM     9   C2  UNL     1       2.449   3.640  -0.957  1.00  0.00    -0.012 C   
ATOM     10  C1  UNL     1       3.623   4.569  -1.278  1.00  0.00     0.007 C   
ATOM     11  C3  UNL     1       1.776   4.090   0.341  1.00  0.00     0.007 C   
ENDBRANCH   8   9
ENDBRANCH   7   8
BRANCH   7  12
ATOM     12  N1  UNL     1       2.540  -0.211  -0.506  1.00  0.00     0.249 N   
ATOM     13  H11 UNL     1       3.311  -0.126   0.163  1.00  0.00     0.199 HD  
ATOM     14  H12 UNL     1       2.951  -0.431  -1.424  1.00  0.00     0.199 HD  
BRANCH  12  15
ATOM     15  C6  UNL     1       1.675  -1.364  -0.113  1.00  0.00     0.164 C   
BRANCH  15  16
ATOM     16  C7  UNL     1       1.078  -1.211   1.257  1.00  0.00    -0.002 A   
ATOM     17  C8  UNL     1      -0.296  -0.903   1.403  1.00  0.00     0.012 A   
ATOM     18  C12 UNL     1       1.884  -1.338   2.401  1.00  0.00     0.045 A   
ATOM     19  C9  UNL     1      -0.864  -0.722   2.669  1.00  0.00     0.037 A   
ATOM     20  C11 UNL     1       1.293  -1.152   3.635  1.00  0.00     0.109 A   
ATOM     21  C10 UNL     1      -0.041  -0.853   3.765  1.00  0.00     0.108 A   
ATOM     22  O1  UNL     1       1.926  -1.234   4.834  1.00  0.00    -0.316 OA  
ATOM     23  O2  UNL     1      -0.417  -0.715   5.062  1.00  0.00    -0.316 OA  
ATOM     24  C13 UNL     1       0.823  -1.006   5.741  1.00  0.00     0.337 C   
ENDBRANCH  15  16
ENDBRANCH  12  15
ENDBRANCH   7  12
ENDBRANCH   1   7
BRANCH   3  25
ATOM     25  C16 UNL     1      -2.140   1.142  -3.727  1.00  0.00     0.140 C   
BRANCH  25  26
ATOM     26  C17 UNL     1      -2.795  -0.221  -3.965  1.00  0.00     0.073 C   
BRANCH  26  27
ATOM     27  C18 UNL     1      -2.961  -1.016  -2.700  1.00  0.00     0.011 A   
ATOM     28  C19 UNL     1      -3.728  -0.730  -1.583  1.00  0.00     0.020 A   
ATOM     29  N3  UNL     1      -2.357  -2.236  -2.474  1.00  0.00    -0.314 N   
ATOM     30  C20 UNL     1      -3.555  -1.781  -0.655  1.00  0.00     0.017 A   
ATOM     31  C21 UNL     1      -2.690  -2.688  -1.224  1.00  0.00     0.074 A   
ATOM     32  C22 UNL     1      -1.524  -2.968  -3.406  1.00  0.00     0.135 C   
ENDBRANCH  26  27
ENDBRANCH  25  26
ENDBRANCH   3  25
TORSDOF 9
