REMARK SMILES Cc1cc(CCn2cc([C@@H]([NH2+]Cc3ccc4c(c3)OCO4)C3CCCCC3)nn2)ccn1
REMARK SMILES IDX 7 1 8 2 9 3 28 4 29 5 6 7 5 8 4 9 2 10 3 11 32 12 31 13
REMARK SMILES IDX 30 14 1 15 10 16 11 17 12 20 13 21 14 22 18 23 15 24 17 25
REMARK SMILES IDX 16 26 19 27 21 28 20 29 22 30 23 31 27 32 24 33 26 34 25 35
REMARK H PARENT 8 6 11 18 11 19
ROOT
ATOM     1   N1  UNL     1       0.626  -1.422  -2.567  1.00  0.00    -0.212 N   
ATOM     2   C7  UNL     1       0.412  -0.927  -1.311  1.00  0.00     0.045 A   
ATOM     3   C8  UNL     1      -0.923  -1.169  -1.083  1.00  0.00     0.127 A   
ATOM     4   N3  UNL     1      -1.462  -1.792  -2.179  1.00  0.00    -0.132 NA  
ATOM     5   N4  UNL     1      -0.503  -1.945  -3.078  1.00  0.00    -0.076 NA  
ATOM     6   H9  UNL     1       1.189  -0.443  -0.735  1.00  0.00     0.083 HD  
ENDROOT
BRANCH   1   7
ATOM     7   C6  UNL     1       1.835  -1.340  -3.360  1.00  0.00     0.139 C   
BRANCH   7   8
ATOM     8   C5  UNL     1       1.716  -0.376  -4.545  1.00  0.00     0.057 C   
BRANCH   8   9
ATOM     9   C4  UNL     1       1.226   0.998  -4.152  1.00  0.00    -0.043 A   
ATOM     10  C2  UNL     1       1.458   3.059  -2.933  1.00  0.00     0.037 A   
ATOM     11  C3  UNL     1       1.991   1.837  -3.337  1.00  0.00     0.027 A   
ATOM     12  N5  UNL     1       0.216   3.464  -3.290  1.00  0.00    -0.262 NA  
ATOM     13  C25 UNL     1      -0.480   2.672  -4.132  1.00  0.00     0.111 A   
ATOM     14  C24 UNL     1      -0.030   1.441  -4.573  1.00  0.00     0.024 A   
ATOM     15  C1  UNL     1       2.255   3.978  -2.055  1.00  0.00     0.067 C   
ENDBRANCH   8   9
ENDBRANCH   7   8
ENDBRANCH   1   7
BRANCH   3  16
ATOM     16  C9  UNL     1      -1.810  -0.795   0.063  1.00  0.00     0.117 C   
BRANCH  16  17
ATOM     17  N2  UNL     1      -3.081  -0.199  -0.512  1.00  0.00     0.249 N   
ATOM     18  H11 UNL     1      -3.846  -0.216   0.163  1.00  0.00     0.199 HD  
ATOM     19  H12 UNL     1      -3.358  -0.818  -1.288  1.00  0.00     0.199 HD  
BRANCH  17  20
ATOM     20  C10 UNL     1      -2.962   1.188  -1.057  1.00  0.00     0.164 C   
BRANCH  20  21
ATOM     21  C11 UNL     1      -2.706   2.214   0.013  1.00  0.00    -0.002 A   
ATOM     22  C12 UNL     1      -1.498   2.949   0.015  1.00  0.00     0.012 A   
ATOM     23  C16 UNL     1      -3.651   2.439   1.030  1.00  0.00     0.045 A   
ATOM     24  C13 UNL     1      -1.222   3.882   1.020  1.00  0.00     0.037 A   
ATOM     25  C15 UNL     1      -3.345   3.360   2.010  1.00  0.00     0.109 A   
ATOM     26  C14 UNL     1      -2.164   4.061   2.007  1.00  0.00     0.108 A   
ATOM     27  O1  UNL     1      -4.135   3.677   3.068  1.00  0.00    -0.316 OA  
ATOM     28  O2  UNL     1      -2.064   4.912   3.060  1.00  0.00    -0.316 OA  
ATOM     29  C17 UNL     1      -3.330   4.688   3.718  1.00  0.00     0.337 C   
ENDBRANCH  20  21
ENDBRANCH  17  20
ENDBRANCH  16  17
BRANCH  16  30
ATOM     30  C18 UNL     1      -2.179  -2.015   0.962  1.00  0.00     0.043 C   
ATOM     31  C19 UNL     1      -0.932  -2.756   1.501  1.00  0.00     0.010 C   
ATOM     32  C23 UNL     1      -3.065  -1.651   2.176  1.00  0.00     0.010 C   
ATOM     33  C20 UNL     1      -0.160  -1.938   2.535  1.00  0.00     0.001 C   
ATOM     34  C22 UNL     1      -2.325  -0.821   3.225  1.00  0.00     0.001 C   
ATOM     35  C21 UNL     1      -1.053  -1.518   3.699  1.00  0.00     0.000 C   
ENDBRANCH  16  30
ENDBRANCH   3  16
TORSDOF 8
