REMARK SMILES CC(C)(C)[C@H]([NH2+]Cc1ccc2c(c1)OCO2)c1cn(Cc2ccc(N([O-])[O-])c(F)c2)nn1
REMARK SMILES IDX 17 1 18 2 19 3 31 4 32 5 5 7 2 8 1 9 3 10 4 11 6 12 7 15
REMARK SMILES IDX 8 16 9 17 13 18 10 19 12 20 11 21 14 22 16 23 15 24 20 25
REMARK SMILES IDX 21 26 22 27 30 28 23 29 28 30 24 31 29 32 25 33 26 34 27 35
REMARK H PARENT 18 6 6 13 6 14
ROOT
ATOM     1   C14 UNL     1      -1.671  -1.685  -0.534  1.00  0.00     0.127 A   
ATOM     2   C15 UNL     1      -1.926  -0.701   0.395  1.00  0.00     0.046 A   
ATOM     3   N2  UNL     1      -1.577  -1.273   1.587  1.00  0.00    -0.208 N   
ATOM     4   N4  UNL     1      -1.124  -2.529   1.405  1.00  0.00    -0.076 NA  
ATOM     5   N5  UNL     1      -1.174  -2.792   0.110  1.00  0.00    -0.132 NA  
ATOM     6   H20 UNL     1      -2.295   0.313   0.323  1.00  0.00     0.083 HD  
ENDROOT
BRANCH   1   7
ATOM     7   C5  UNL     1      -1.766  -1.697  -2.032  1.00  0.00     0.120 C   
BRANCH   7   8
ATOM     8   C2  UNL     1      -3.133  -2.226  -2.587  1.00  0.00     0.010 C   
ATOM     9   C1  UNL     1      -3.166  -2.099  -4.128  1.00  0.00     0.017 C   
ATOM     10  C3  UNL     1      -4.296  -1.366  -2.041  1.00  0.00     0.017 C   
ATOM     11  C4  UNL     1      -3.404  -3.697  -2.210  1.00  0.00     0.017 C   
ENDBRANCH   7   8
BRANCH   7  12
ATOM     12  N1  UNL     1      -0.614  -2.530  -2.568  1.00  0.00     0.250 N   
ATOM     13  H11 UNL     1      -0.923  -3.180  -3.295  1.00  0.00     0.199 HD  
ATOM     14  H12 UNL     1      -0.315  -3.132  -1.783  1.00  0.00     0.199 HD  
BRANCH  12  15
ATOM     15  C6  UNL     1       0.575  -1.780  -3.063  1.00  0.00     0.164 C   
BRANCH  15  16
ATOM     16  C7  UNL     1       1.230  -0.907  -2.029  1.00  0.00    -0.002 A   
ATOM     17  C8  UNL     1       1.885  -1.479  -0.912  1.00  0.00     0.012 A   
ATOM     18  C12 UNL     1       1.184   0.492  -2.158  1.00  0.00     0.045 A   
ATOM     19  C9  UNL     1       2.477  -0.673   0.067  1.00  0.00     0.037 A   
ATOM     20  C11 UNL     1       1.783   1.257  -1.179  1.00  0.00     0.109 A   
ATOM     21  C10 UNL     1       2.409   0.692  -0.097  1.00  0.00     0.108 A   
ATOM     22  O1  UNL     1       1.830   2.615  -1.156  1.00  0.00    -0.316 OA  
ATOM     23  O2  UNL     1       2.930   1.622   0.744  1.00  0.00    -0.316 OA  
ATOM     24  C13 UNL     1       2.614   2.844   0.038  1.00  0.00     0.337 C   
ENDBRANCH  15  16
ENDBRANCH  12  15
ENDBRANCH   7  12
ENDBRANCH   1   7
BRANCH   3  25
ATOM     25  C16 UNL     1      -1.670  -0.705   2.921  1.00  0.00     0.169 C   
BRANCH  25  26
ATOM     26  C17 UNL     1      -0.460   0.140   3.241  1.00  0.00    -0.026 A   
ATOM     27  C18 UNL     1       0.724  -0.458   3.707  1.00  0.00     0.008 A   
ATOM     28  C22 UNL     1      -0.496   1.532   3.064  1.00  0.00     0.047 A   
ATOM     29  C19 UNL     1       1.850   0.320   3.992  1.00  0.00     0.035 A   
ATOM     30  C21 UNL     1       0.628   2.309   3.345  1.00  0.00     0.152 A   
ATOM     31  C20 UNL     1       1.793   1.706   3.801  1.00  0.00     0.153 A   
ATOM     32  F1  UNL     1       0.536   3.634   3.168  1.00  0.00    -0.205 F   
BRANCH  31  33
ATOM     33  N3  UNL     1       2.969   2.515   4.066  1.00  0.00     0.095 N   
ATOM     34  O3  UNL     1       3.701   2.152   4.998  1.00  0.00    -0.138 OA  
ATOM     35  O4  UNL     1       3.182   3.489   3.333  1.00  0.00    -0.138 OA  
ENDBRANCH  31  33
ENDBRANCH  25  26
ENDBRANCH   3  25
TORSDOF 8
