REMARK SMILES CN(C)c1ccc(Cn2cc([C@@H]([NH2+]Cc3ccc4c(c3)OCO4)C(C)(C)C)nn2)cc1
REMARK SMILES IDX 9 1 10 2 11 3 28 4 29 5 8 7 7 8 4 9 5 10 31 11 6 12 30 13
REMARK SMILES IDX 2 14 1 15 3 16 12 17 13 18 14 21 15 22 16 23 20 24 17 25
REMARK SMILES IDX 19 26 18 27 21 28 23 29 22 30 24 31 25 32 26 33 27 34
REMARK H PARENT 10 6 13 19 13 20
ROOT
ATOM     1   N2  UNL     1       1.114  -0.698  -2.641  1.00  0.00    -0.208 N   
ATOM     2   C8  UNL     1      -0.172  -0.910  -2.225  1.00  0.00     0.046 A   
ATOM     3   C9  UNL     1      -0.876   0.136  -2.777  1.00  0.00     0.127 A   
ATOM     4   N4  UNL     1      -0.029   0.898  -3.538  1.00  0.00    -0.132 NA  
ATOM     5   N5  UNL     1       1.185   0.380  -3.447  1.00  0.00    -0.076 NA  
ATOM     6   H11 UNL     1      -0.437  -1.706  -1.542  1.00  0.00     0.083 HD  
ENDROOT
BRANCH   1   7
ATOM     7   C7  UNL     1       2.319  -1.372  -2.185  1.00  0.00     0.169 C   
BRANCH   7   8
ATOM     8   C6  UNL     1       2.603  -0.990  -0.754  1.00  0.00    -0.028 A   
ATOM     9   C3  UNL     1       2.964  -0.173   1.969  1.00  0.00     0.028 A   
ATOM     10  C4  UNL     1       2.433  -1.429   1.630  1.00  0.00     0.024 A   
ATOM     11  C24 UNL     1       3.315   0.655   0.888  1.00  0.00     0.024 A   
ATOM     12  C5  UNL     1       2.259  -1.838   0.300  1.00  0.00     0.007 A   
ATOM     13  C23 UNL     1       3.144   0.261  -0.446  1.00  0.00     0.007 A   
BRANCH   9  14
ATOM     14  N1  UNL     1       3.085   0.262   3.296  1.00  0.00    -0.337 N   
ATOM     15  C1  UNL     1       4.134   1.242   3.598  1.00  0.00     0.129 C   
ATOM     16  C2  UNL     1       2.807  -0.681   4.382  1.00  0.00     0.129 C   
ENDBRANCH   9  14
ENDBRANCH   7   8
ENDBRANCH   1   7
BRANCH   3  17
ATOM     17  C10 UNL     1      -2.286   0.583  -2.548  1.00  0.00     0.120 C   
BRANCH  17  18
ATOM     18  N3  UNL     1      -2.314   2.083  -2.313  1.00  0.00     0.250 N   
ATOM     19  H13 UNL     1      -1.916   2.521  -3.154  1.00  0.00     0.199 HD  
ATOM     20  H14 UNL     1      -3.276   2.414  -2.216  1.00  0.00     0.199 HD  
BRANCH  18  21
ATOM     21  C11 UNL     1      -1.515   2.600  -1.155  1.00  0.00     0.164 C   
BRANCH  21  22
ATOM     22  C12 UNL     1      -1.865   1.973   0.165  1.00  0.00    -0.002 A   
ATOM     23  C13 UNL     1      -0.894   1.217   0.866  1.00  0.00     0.012 A   
ATOM     24  C17 UNL     1      -3.149   2.122   0.714  1.00  0.00     0.045 A   
ATOM     25  C14 UNL     1      -1.196   0.607   2.088  1.00  0.00     0.037 A   
ATOM     26  C16 UNL     1      -3.415   1.505   1.920  1.00  0.00     0.109 A   
ATOM     27  C15 UNL     1      -2.468   0.767   2.587  1.00  0.00     0.108 A   
ATOM     28  O1  UNL     1      -4.602   1.547   2.580  1.00  0.00    -0.316 OA  
ATOM     29  O2  UNL     1      -2.939   0.251   3.751  1.00  0.00    -0.316 OA  
ATOM     30  C18 UNL     1      -4.281   0.783   3.766  1.00  0.00     0.337 C   
ENDBRANCH  21  22
ENDBRANCH  18  21
ENDBRANCH  17  18
BRANCH  17  31
ATOM     31  C19 UNL     1      -3.282   0.188  -3.695  1.00  0.00     0.010 C   
ATOM     32  C20 UNL     1      -4.729   0.580  -3.311  1.00  0.00     0.017 C   
ATOM     33  C21 UNL     1      -2.949   0.856  -5.044  1.00  0.00     0.017 C   
ATOM     34  C22 UNL     1      -3.268  -1.345  -3.897  1.00  0.00     0.017 C   
ENDBRANCH  17  31
ENDBRANCH   3  17
TORSDOF 8
