REMARK SMILES Cc1ccc(CCn2cc([C@@H]([NH2+]Cc3ccc4c(c3)OCO4)C3CCCCC3)nn2)c(O)c1
REMARK SMILES IDX 8 1 9 2 10 3 29 4 30 5 7 7 6 8 5 9 2 10 3 11 33 12 4 13
REMARK SMILES IDX 31 14 1 15 32 16 11 18 12 19 13 22 14 23 15 24 19 25 16 26
REMARK SMILES IDX 18 27 17 28 20 29 22 30 21 31 23 32 24 33 28 34 25 35 27 36
REMARK SMILES IDX 26 37
REMARK H PARENT 9 6 32 17 12 20 12 21
ROOT
ATOM     1   N1  UNL     1      -2.373  -0.170  -2.600  1.00  0.00    -0.212 N   
ATOM     2   C8  UNL     1      -1.795   0.337  -1.471  1.00  0.00     0.045 A   
ATOM     3   C9  UNL     1      -1.123  -0.733  -0.931  1.00  0.00     0.127 A   
ATOM     4   N3  UNL     1      -1.396  -1.854  -1.682  1.00  0.00    -0.132 NA  
ATOM     5   N4  UNL     1      -2.180  -1.500  -2.685  1.00  0.00    -0.076 NA  
ATOM     6   H10 UNL     1      -1.858   1.387  -1.215  1.00  0.00     0.083 HD  
ENDROOT
BRANCH   1   7
ATOM     7   C7  UNL     1      -3.119   0.542  -3.615  1.00  0.00     0.139 C   
BRANCH   7   8
ATOM     8   C6  UNL     1      -2.425   0.544  -4.978  1.00  0.00     0.059 C   
BRANCH   8   9
ATOM     9   C5  UNL     1      -1.035   1.143  -4.969  1.00  0.00    -0.016 A   
ATOM     10  C2  UNL     1       1.569   2.231  -5.058  1.00  0.00    -0.049 A   
ATOM     11  C3  UNL     1       1.366   0.858  -5.243  1.00  0.00     0.004 A   
ATOM     12  C26 UNL     1       0.466   3.054  -4.795  1.00  0.00     0.036 A   
ATOM     13  C4  UNL     1       0.077   0.320  -5.201  1.00  0.00     0.007 A   
ATOM     14  C25 UNL     1      -0.820   2.508  -4.758  1.00  0.00     0.075 A   
ATOM     15  C1  UNL     1       2.958   2.799  -5.134  1.00  0.00     0.044 C   
BRANCH  14  16
ATOM     16  O3  UNL     1      -1.899   3.312  -4.513  1.00  0.00    -0.361 OA  
ATOM     17  H32 UNL     1      -1.622   4.242  -4.603  1.00  0.00     0.218 HD  
ENDBRANCH  14  16
ENDBRANCH   8   9
ENDBRANCH   7   8
ENDBRANCH   1   7
BRANCH   3  18
ATOM     18  C10 UNL     1      -0.244  -0.865   0.272  1.00  0.00     0.117 C   
BRANCH  18  19
ATOM     19  N2  UNL     1      -0.091  -2.335   0.620  1.00  0.00     0.249 N   
ATOM     20  H12 UNL     1       0.801  -2.514   1.088  1.00  0.00     0.199 HD  
ATOM     21  H13 UNL     1      -0.064  -2.835  -0.283  1.00  0.00     0.199 HD  
BRANCH  19  22
ATOM     22  C11 UNL     1      -1.199  -2.933   1.422  1.00  0.00     0.164 C   
BRANCH  22  23
ATOM     23  C12 UNL     1      -1.114  -2.539   2.872  1.00  0.00    -0.002 A   
ATOM     24  C13 UNL     1      -1.988  -1.563   3.408  1.00  0.00     0.012 A   
ATOM     25  C17 UNL     1      -0.128  -3.111   3.696  1.00  0.00     0.045 A   
ATOM     26  C14 UNL     1      -1.880  -1.154   4.741  1.00  0.00     0.037 A   
ATOM     27  C16 UNL     1      -0.050  -2.687   5.006  1.00  0.00     0.109 A   
ATOM     28  C15 UNL     1      -0.899  -1.735   5.515  1.00  0.00     0.108 A   
ATOM     29  O1  UNL     1       0.839  -3.138   5.928  1.00  0.00    -0.316 OA  
ATOM     30  O2  UNL     1      -0.651  -1.465   6.822  1.00  0.00    -0.316 OA  
ATOM     31  C18 UNL     1       0.432  -2.381   7.093  1.00  0.00     0.337 C   
ENDBRANCH  22  23
ENDBRANCH  19  22
ENDBRANCH  18  19
BRANCH  18  32
ATOM     32  C19 UNL     1       1.176  -0.262   0.114  1.00  0.00     0.043 C   
ATOM     33  C20 UNL     1       1.151   1.280   0.097  1.00  0.00     0.010 C   
ATOM     34  C24 UNL     1       1.956  -0.796  -1.105  1.00  0.00     0.010 C   
ATOM     35  C21 UNL     1       2.563   1.861   0.049  1.00  0.00     0.001 C   
ATOM     36  C23 UNL     1       3.363  -0.200  -1.173  1.00  0.00     0.001 C   
ATOM     37  C22 UNL     1       3.338   1.328  -1.152  1.00  0.00     0.000 C   
ENDBRANCH  18  32
ENDBRANCH   3  18
TORSDOF 9
