REMARK SMILES O[C@@H](Cn1cc([C@@H]([NH2+]Cc2ccc3c(c2)OCO3)C2CCCC2)nn1)c1cc(F)ccc1F
REMARK SMILES IDX 4 1 5 2 6 3 24 4 25 5 3 7 2 8 1 9 26 11 27 12 32 13 28 14
REMARK SMILES IDX 31 15 30 16 33 17 29 18 7 19 8 20 9 23 10 24 11 25 15 26
REMARK SMILES IDX 12 27 14 28 13 29 16 30 18 31 17 32 19 33 20 34 23 35 21 36
REMARK SMILES IDX 22 37
REMARK H PARENT 5 6 1 10 8 21 8 22
ROOT
ATOM     1   N1  UNL     1       0.723   1.292  -2.194  1.00  0.00    -0.209 N   
ATOM     2   C3  UNL     1       0.731  -0.009  -1.777  1.00  0.00     0.045 A   
ATOM     3   C4  UNL     1      -0.588  -0.274  -1.486  1.00  0.00     0.127 A   
ATOM     4   N3  UNL     1      -1.340   0.841  -1.758  1.00  0.00    -0.132 NA  
ATOM     5   N4  UNL     1      -0.529   1.787  -2.200  1.00  0.00    -0.076 NA  
ATOM     6   H5  UNL     1       1.646  -0.578  -1.678  1.00  0.00     0.083 HD  
ENDROOT
BRANCH   1   7
ATOM     7   C2  UNL     1       1.852   2.136  -2.529  1.00  0.00     0.170 C   
BRANCH   7   8
ATOM     8   C1  UNL     1       2.650   2.605  -1.301  1.00  0.00     0.167 C   
BRANCH   8   9
ATOM     9   O1  UNL     1       3.341   1.492  -0.720  1.00  0.00    -0.387 OA  
ATOM     10  H1  UNL     1       3.983   1.863  -0.088  1.00  0.00     0.211 HD  
ENDBRANCH   8   9
BRANCH   8  11
ATOM     11  C19 UNL     1       1.812   3.309  -0.260  1.00  0.00     0.021 A   
ATOM     12  C20 UNL     1       1.290   2.645   0.862  1.00  0.00     0.048 A   
ATOM     13  C24 UNL     1       1.486   4.658  -0.437  1.00  0.00     0.129 A   
ATOM     14  C21 UNL     1       0.469   3.326   1.758  1.00  0.00     0.123 A   
ATOM     15  C23 UNL     1       0.677   5.342   0.468  1.00  0.00     0.042 A   
ATOM     16  C22 UNL     1       0.162   4.669   1.575  1.00  0.00     0.042 A   
ATOM     17  F2  UNL     1       1.954   5.312  -1.510  1.00  0.00    -0.207 F   
ATOM     18  F1  UNL     1      -0.052   2.666   2.801  1.00  0.00    -0.207 F   
ENDBRANCH   8  11
ENDBRANCH   7   8
ENDBRANCH   1   7
BRANCH   3  19
ATOM     19  C5  UNL     1      -1.235  -1.459  -0.843  1.00  0.00     0.117 C   
BRANCH  19  20
ATOM     20  N2  UNL     1      -2.416  -0.959  -0.036  1.00  0.00     0.249 N   
ATOM     21  H7  UNL     1      -2.165  -0.009   0.275  1.00  0.00     0.199 HD  
ATOM     22  H8  UNL     1      -3.204  -0.794  -0.674  1.00  0.00     0.199 HD  
BRANCH  20  23
ATOM     23  C6  UNL     1      -2.837  -1.746   1.149  1.00  0.00     0.164 C   
BRANCH  23  24
ATOM     24  C7  UNL     1      -1.816  -1.726   2.253  1.00  0.00    -0.002 A   
ATOM     25  C8  UNL     1      -1.540  -0.526   2.954  1.00  0.00     0.012 A   
ATOM     26  C12 UNL     1      -1.103  -2.894   2.579  1.00  0.00     0.045 A   
ATOM     27  C9  UNL     1      -0.563  -0.484   3.954  1.00  0.00     0.037 A   
ATOM     28  C11 UNL     1      -0.147  -2.819   3.571  1.00  0.00     0.109 A   
ATOM     29  C10 UNL     1       0.117  -1.648   4.239  1.00  0.00     0.108 A   
ATOM     30  O2  UNL     1       0.632  -3.847   3.998  1.00  0.00    -0.316 OA  
ATOM     31  O3  UNL     1       1.094  -1.792   5.171  1.00  0.00    -0.316 OA  
ATOM     32  C13 UNL     1       1.400  -3.197   5.036  1.00  0.00     0.337 C   
ENDBRANCH  23  24
ENDBRANCH  20  23
ENDBRANCH  19  20
BRANCH  19  33
ATOM     33  C14 UNL     1      -1.703  -2.561  -1.809  1.00  0.00     0.043 C   
ATOM     34  C15 UNL     1      -2.744  -2.156  -2.862  1.00  0.00     0.010 C   
ATOM     35  C18 UNL     1      -0.590  -3.189  -2.651  1.00  0.00     0.010 C   
ATOM     36  C16 UNL     1      -2.578  -3.149  -4.015  1.00  0.00     0.001 C   
ATOM     37  C17 UNL     1      -1.364  -4.007  -3.674  1.00  0.00     0.001 C   
ENDBRANCH  19  33
ENDBRANCH   3  19
TORSDOF 9
