REMARK SMILES O[C@H](Cn1cc([C@@H]([NH2+]Cc2ccc3c(c2)OCO3)C2CCCC2)nn1)c1cc(F)ccc1F
REMARK SMILES IDX 4 1 5 2 6 3 24 4 25 5 3 7 2 8 1 9 26 11 27 12 32 13 28 14
REMARK SMILES IDX 31 15 30 16 33 17 29 18 7 19 8 20 9 23 10 24 11 25 15 26
REMARK SMILES IDX 12 27 14 28 13 29 16 30 18 31 17 32 19 33 20 34 23 35 21 36
REMARK SMILES IDX 22 37
REMARK H PARENT 5 6 1 10 8 21 8 22
ROOT
ATOM     1   N1  UNL     1       0.495  -1.944  -1.269  1.00  0.00    -0.209 N   
ATOM     2   C3  UNL     1      -0.647  -1.198  -1.357  1.00  0.00     0.045 A   
ATOM     3   C4  UNL     1      -0.438  -0.165  -0.471  1.00  0.00     0.127 A   
ATOM     4   N3  UNL     1       0.798  -0.311   0.106  1.00  0.00    -0.132 NA  
ATOM     5   N4  UNL     1       1.354  -1.408  -0.384  1.00  0.00    -0.076 NA  
ATOM     6   H5  UNL     1      -1.467  -1.474  -2.006  1.00  0.00     0.083 HD  
ENDROOT
BRANCH   1   7
ATOM     7   C2  UNL     1       0.835  -3.149  -2.001  1.00  0.00     0.170 C   
BRANCH   7   8
ATOM     8   C1  UNL     1       0.329  -4.402  -1.282  1.00  0.00     0.167 C   
BRANCH   8   9
ATOM     9   O1  UNL     1      -1.105  -4.439  -1.338  1.00  0.00    -0.387 OA  
ATOM     10  H1  UNL     1      -1.379  -5.326  -1.038  1.00  0.00     0.211 HD  
ENDBRANCH   8   9
BRANCH   8  11
ATOM     11  C19 UNL     1       0.876  -5.659  -1.913  1.00  0.00     0.021 A   
ATOM     12  C20 UNL     1       0.385  -6.148  -3.136  1.00  0.00     0.048 A   
ATOM     13  C24 UNL     1       1.916  -6.358  -1.295  1.00  0.00     0.129 A   
ATOM     14  C21 UNL     1       0.923  -7.307  -3.691  1.00  0.00     0.123 A   
ATOM     15  C23 UNL     1       2.447  -7.524  -1.846  1.00  0.00     0.042 A   
ATOM     16  C22 UNL     1       1.946  -8.003  -3.053  1.00  0.00     0.042 A   
ATOM     17  F2  UNL     1       2.425  -5.903  -0.141  1.00  0.00    -0.207 F   
ATOM     18  F1  UNL     1       0.438  -7.762  -4.853  1.00  0.00    -0.207 F   
ENDBRANCH   8  11
ENDBRANCH   7   8
ENDBRANCH   1   7
BRANCH   3  19
ATOM     19  C5  UNL     1      -1.315   0.980  -0.076  1.00  0.00     0.117 C   
BRANCH  19  20
ATOM     20  N2  UNL     1      -0.849   1.577   1.225  1.00  0.00     0.249 N   
ATOM     21  H7  UNL     1       0.182   1.589   1.196  1.00  0.00     0.199 HD  
ATOM     22  H8  UNL     1      -1.141   2.553   1.329  1.00  0.00     0.199 HD  
BRANCH  20  23
ATOM     23  C6  UNL     1      -1.235   0.821   2.449  1.00  0.00     0.164 C   
BRANCH  23  24
ATOM     24  C7  UNL     1      -0.748   1.541   3.674  1.00  0.00    -0.002 A   
ATOM     25  C8  UNL     1       0.546   1.283   4.187  1.00  0.00     0.012 A   
ATOM     26  C12 UNL     1      -1.545   2.531   4.272  1.00  0.00     0.045 A   
ATOM     27  C9  UNL     1       1.036   1.990   5.290  1.00  0.00     0.037 A   
ATOM     28  C11 UNL     1      -1.034   3.207   5.360  1.00  0.00     0.109 A   
ATOM     29  C10 UNL     1       0.219   2.945   5.856  1.00  0.00     0.108 A   
ATOM     30  O2  UNL     1      -1.667   4.191   6.045  1.00  0.00    -0.316 OA  
ATOM     31  O3  UNL     1       0.530   3.733   6.916  1.00  0.00    -0.316 OA  
ATOM     32  C13 UNL     1      -0.681   4.504   7.054  1.00  0.00     0.337 C   
ENDBRANCH  23  24
ENDBRANCH  20  23
ENDBRANCH  19  20
BRANCH  19  33
ATOM     33  C14 UNL     1      -1.373   2.068  -1.171  1.00  0.00     0.043 C   
ATOM     34  C15 UNL     1      -2.494   3.100  -0.944  1.00  0.00     0.010 C   
ATOM     35  C18 UNL     1      -0.084   2.894  -1.363  1.00  0.00     0.010 C   
ATOM     36  C16 UNL     1      -1.944   4.396  -1.516  1.00  0.00     0.001 C   
ATOM     37  C17 UNL     1      -0.480   4.347  -1.124  1.00  0.00     0.001 C   
ENDBRANCH  19  33
ENDBRANCH   3  19
TORSDOF 9
