REMARK SMILES Cc1cc(CCn2cc([C@@H]([NH2+]Cc3ccc4c(c3)OCO4)C(C)C)nn2)cc(C)c1O
REMARK SMILES IDX 7 1 8 2 9 3 25 4 26 5 6 7 5 8 4 9 2 10 3 11 30 12 28 13
REMARK SMILES IDX 27 14 1 15 29 16 31 17 10 19 11 20 12 23 13 24 14 25 18 26
REMARK SMILES IDX 15 27 17 28 16 29 19 30 21 31 20 32 22 33 23 34 24 35
REMARK H PARENT 8 6 31 18 11 21 11 22
ROOT
ATOM     1   N1  UNL     1      -2.748  -0.231   2.074  1.00  0.00    -0.212 N   
ATOM     2   C7  UNL     1      -1.701  -0.607   2.870  1.00  0.00     0.045 A   
ATOM     3   C8  UNL     1      -0.839   0.464   2.805  1.00  0.00     0.127 A   
ATOM     4   N3  UNL     1      -1.414   1.461   2.058  1.00  0.00    -0.132 NA  
ATOM     5   N4  UNL     1      -2.589   1.028   1.628  1.00  0.00    -0.076 NA  
ATOM     6   H9  UNL     1      -1.627  -1.594   3.304  1.00  0.00     0.083 HD  
ENDROOT
BRANCH   1   7
ATOM     7   C6  UNL     1      -3.812  -1.073   1.566  1.00  0.00     0.139 C   
BRANCH   7   8
ATOM     8   C5  UNL     1      -3.675  -1.384   0.069  1.00  0.00     0.057 C   
BRANCH   8   9
ATOM     9   C4  UNL     1      -2.302  -1.865  -0.359  1.00  0.00    -0.046 A   
ATOM     10  C2  UNL     1      -0.368  -3.319  -0.065  1.00  0.00    -0.021 A   
ATOM     11  C3  UNL     1      -1.670  -2.937   0.285  1.00  0.00     0.010 A   
ATOM     12  C24 UNL     1       0.277  -2.649  -1.113  1.00  0.00     0.077 A   
ATOM     13  C22 UNL     1      -0.346  -1.605  -1.807  1.00  0.00    -0.021 A   
ATOM     14  C21 UNL     1      -1.639  -1.225  -1.417  1.00  0.00     0.010 A   
ATOM     15  C1  UNL     1       0.300  -4.464   0.643  1.00  0.00     0.047 C   
ATOM     16  C23 UNL     1       0.308  -0.911  -2.967  1.00  0.00     0.047 C   
BRANCH  12  17
ATOM     17  O3  UNL     1       1.550  -3.039  -1.423  1.00  0.00    -0.360 OA  
ATOM     18  H31 UNL     1       1.676  -2.933  -2.382  1.00  0.00     0.218 HD  
ENDBRANCH  12  17
ENDBRANCH   8   9
ENDBRANCH   7   8
ENDBRANCH   1   7
BRANCH   3  19
ATOM     19  C9  UNL     1       0.581   0.597   3.250  1.00  0.00     0.117 C   
BRANCH  19  20
ATOM     20  N2  UNL     1       1.396   1.205   2.137  1.00  0.00     0.249 N   
ATOM     21  H11 UNL     1       2.310   1.528   2.466  1.00  0.00     0.199 HD  
ATOM     22  H12 UNL     1       0.882   2.039   1.819  1.00  0.00     0.199 HD  
BRANCH  20  23
ATOM     23  C10 UNL     1       1.581   0.328   0.942  1.00  0.00     0.164 C   
BRANCH  23  24
ATOM     24  C11 UNL     1       2.218   1.097  -0.180  1.00  0.00    -0.002 A   
ATOM     25  C12 UNL     1       1.435   1.984  -0.961  1.00  0.00     0.012 A   
ATOM     26  C16 UNL     1       3.591   0.974  -0.441  1.00  0.00     0.045 A   
ATOM     27  C13 UNL     1       2.010   2.731  -1.993  1.00  0.00     0.037 A   
ATOM     28  C15 UNL     1       4.127   1.725  -1.466  1.00  0.00     0.109 A   
ATOM     29  C14 UNL     1       3.359   2.579  -2.220  1.00  0.00     0.108 A   
ATOM     30  O1  UNL     1       5.430   1.723  -1.849  1.00  0.00    -0.316 OA  
ATOM     31  O2  UNL     1       4.083   3.220  -3.174  1.00  0.00    -0.316 OA  
ATOM     32  C17 UNL     1       5.397   2.669  -2.942  1.00  0.00     0.337 C   
ENDBRANCH  23  24
ENDBRANCH  20  23
ENDBRANCH  19  20
BRANCH  19  33
ATOM     33  C18 UNL     1       0.779   1.433   4.537  1.00  0.00     0.037 C   
ATOM     34  C19 UNL     1       0.325   2.892   4.426  1.00  0.00     0.014 C   
ATOM     35  C20 UNL     1       0.102   0.771   5.743  1.00  0.00     0.014 C   
ENDBRANCH  19  33
ENDBRANCH   3  19
TORSDOF 9
