REMARK SMILES COc1ccc(Cn2cc([C@@H]([NH2+]Cc3ccc4c(c3)OCO4)C(C)(C)C)nn2)cn1
REMARK SMILES IDX 8 1 9 2 10 3 27 4 28 5 7 7 6 8 3 9 4 10 30 11 5 12 29 13
REMARK SMILES IDX 2 14 1 15 11 16 12 17 13 20 14 21 15 22 19 23 16 24 18 25
REMARK SMILES IDX 17 26 20 27 22 28 21 29 23 30 24 31 25 32 26 33
REMARK H PARENT 9 6 12 18 12 19
ROOT
ATOM     1   N1  UNL     1      -1.864   0.804  -2.184  1.00  0.00    -0.208 N   
ATOM     2   C7  UNL     1      -0.693   0.098  -2.118  1.00  0.00     0.046 A   
ATOM     3   C8  UNL     1      -1.099  -1.200  -1.899  1.00  0.00     0.127 A   
ATOM     4   N3  UNL     1      -2.470  -1.246  -1.887  1.00  0.00    -0.132 NA  
ATOM     5   N4  UNL     1      -2.925  -0.015  -2.052  1.00  0.00    -0.076 NA  
ATOM     6   H8  UNL     1       0.276   0.576  -2.161  1.00  0.00     0.083 HD  
ENDROOT
BRANCH   1   7
ATOM     7   C6  UNL     1      -2.037   2.250  -2.170  1.00  0.00     0.171 C   
BRANCH   7   8
ATOM     8   C5  UNL     1      -1.514   2.817  -0.877  1.00  0.00    -0.010 A   
ATOM     9   C2  UNL     1      -0.524   3.652   1.538  1.00  0.00     0.166 A   
ATOM     10  C3  UNL     1       0.069   4.126   0.382  1.00  0.00     0.055 A   
ATOM     11  N5  UNL     1      -1.572   2.803   1.546  1.00  0.00    -0.232 NA  
ATOM     12  C4  UNL     1      -0.432   3.699  -0.846  1.00  0.00     0.011 A   
ATOM     13  C22 UNL     1      -2.062   2.432   0.345  1.00  0.00     0.119 A   
BRANCH   9  14
ATOM     14  O1  UNL     1       0.041   4.065   2.725  1.00  0.00    -0.333 OA  
ATOM     15  C1  UNL     1      -0.698   3.655   3.870  1.00  0.00     0.205 C   
ENDBRANCH   9  14
ENDBRANCH   7   8
ENDBRANCH   1   7
BRANCH   3  16
ATOM     16  C9  UNL     1      -0.308  -2.430  -1.569  1.00  0.00     0.120 C   
BRANCH  16  17
ATOM     17  N2  UNL     1      -1.025  -3.215  -0.485  1.00  0.00     0.250 N   
ATOM     18  H10 UNL     1      -1.971  -3.405  -0.838  1.00  0.00     0.199 HD  
ATOM     19  H11 UNL     1      -0.569  -4.115  -0.325  1.00  0.00     0.199 HD  
BRANCH  17  20
ATOM     20  C10 UNL     1      -1.196  -2.533   0.838  1.00  0.00     0.164 C   
BRANCH  20  21
ATOM     21  C11 UNL     1       0.099  -2.142   1.492  1.00  0.00    -0.002 A   
ATOM     22  C12 UNL     1       0.404  -0.774   1.695  1.00  0.00     0.012 A   
ATOM     23  C16 UNL     1       1.018  -3.123   1.902  1.00  0.00     0.045 A   
ATOM     24  C13 UNL     1       1.609  -0.384   2.289  1.00  0.00     0.037 A   
ATOM     25  C15 UNL     1       2.197  -2.704   2.484  1.00  0.00     0.109 A   
ATOM     26  C14 UNL     1       2.484  -1.374   2.673  1.00  0.00     0.108 A   
ATOM     27  O2  UNL     1       3.189  -3.518   2.930  1.00  0.00    -0.316 OA  
ATOM     28  O3  UNL     1       3.692  -1.185   3.264  1.00  0.00    -0.316 OA  
ATOM     29  C17 UNL     1       4.118  -2.549   3.468  1.00  0.00     0.337 C   
ENDBRANCH  20  21
ENDBRANCH  17  20
ENDBRANCH  16  17
BRANCH  16  30
ATOM     30  C18 UNL     1      -0.010  -3.351  -2.805  1.00  0.00     0.010 C   
ATOM     31  C19 UNL     1      -1.286  -3.932  -3.445  1.00  0.00     0.017 C   
ATOM     32  C20 UNL     1       0.902  -4.530  -2.392  1.00  0.00     0.017 C   
ATOM     33  C21 UNL     1       0.753  -2.551  -3.887  1.00  0.00     0.017 C   
ENDBRANCH  16  30
ENDBRANCH   3  16
TORSDOF 8
