REMARK SMILES CC(C)C[C@H]([NH2+]Cc1ccc2c(c1)OCO2)c1cn(Cc2n[nH]c3ccccc23)nn1
REMARK SMILES IDX 17 1 18 2 19 3 30 4 31 5 5 7 4 8 2 9 1 10 3 11 6 12 7 15
REMARK SMILES IDX 8 16 9 17 13 18 10 19 12 20 11 21 14 22 16 23 15 24 20 25
REMARK SMILES IDX 21 26 22 27 29 28 23 29 24 30 28 31 25 32 27 33 26 34
REMARK H PARENT 18 6 6 13 6 14 23 35
ROOT
ATOM     1   C14 UNL     1       0.907   0.265  -0.678  1.00  0.00     0.127 A   
ATOM     2   C15 UNL     1       1.101  -0.146  -1.977  1.00  0.00     0.046 A   
ATOM     3   N2  UNL     1      -0.014   0.296  -2.637  1.00  0.00    -0.206 N   
ATOM     4   N5  UNL     1      -0.806   1.010  -1.812  1.00  0.00    -0.076 NA  
ATOM     5   N6  UNL     1      -0.258   0.988  -0.607  1.00  0.00    -0.132 NA  
ATOM     6   H20 UNL     1       1.862  -0.735  -2.471  1.00  0.00     0.083 HD  
ENDROOT
BRANCH   1   7
ATOM     7   C5  UNL     1       1.722   0.044   0.553  1.00  0.00     0.114 C   
BRANCH   7   8
ATOM     8   C4  UNL     1       1.869  -1.443   0.945  1.00  0.00     0.064 C   
BRANCH   8   9
ATOM     9   C2  UNL     1       0.652  -2.163   1.573  1.00  0.00    -0.012 C   
ATOM     10  C1  UNL     1      -0.527  -2.321   0.614  1.00  0.00     0.007 C   
ATOM     11  C3  UNL     1       1.087  -3.549   2.066  1.00  0.00     0.007 C   
ENDBRANCH   8   9
ENDBRANCH   7   8
BRANCH   7  12
ATOM     12  N1  UNL     1       1.182   0.809   1.727  1.00  0.00     0.249 N   
ATOM     13  H11 UNL     1       1.494   0.408   2.616  1.00  0.00     0.199 HD  
ATOM     14  H12 UNL     1       0.157   0.707   1.702  1.00  0.00     0.199 HD  
BRANCH  12  15
ATOM     15  C6  UNL     1       1.474   2.270   1.731  1.00  0.00     0.164 C   
BRANCH  15  16
ATOM     16  C7  UNL     1       0.752   2.939   2.866  1.00  0.00    -0.002 A   
ATOM     17  C8  UNL     1      -0.596   3.341   2.708  1.00  0.00     0.012 A   
ATOM     18  C12 UNL     1       1.385   3.112   4.108  1.00  0.00     0.045 A   
ATOM     19  C9  UNL     1      -1.305   3.915   3.767  1.00  0.00     0.037 A   
ATOM     20  C11 UNL     1       0.659   3.686   5.131  1.00  0.00     0.109 A   
ATOM     21  C10 UNL     1      -0.647   4.076   4.966  1.00  0.00     0.108 A   
ATOM     22  O1  UNL     1       1.118   3.923   6.386  1.00  0.00    -0.316 OA  
ATOM     23  O2  UNL     1      -1.175   4.608   6.098  1.00  0.00    -0.316 OA  
ATOM     24  C13 UNL     1      -0.039   4.550   6.986  1.00  0.00     0.337 C   
ENDBRANCH  15  16
ENDBRANCH  12  15
ENDBRANCH   7  12
ENDBRANCH   1   7
BRANCH   3  25
ATOM     25  C16 UNL     1      -0.389   0.069  -4.021  1.00  0.00     0.192 C   
BRANCH  25  26
ATOM     26  C17 UNL     1      -0.814  -1.347  -4.196  1.00  0.00     0.087 A   
ATOM     27  N3  UNL     1       0.032  -2.251  -4.714  1.00  0.00    -0.186 NA  
ATOM     28  C23 UNL     1      -2.065  -1.927  -3.851  1.00  0.00     0.022 A   
ATOM     29  N4  UNL     1      -0.693  -3.387  -4.747  1.00  0.00    -0.238 N   
ATOM     30  C18 UNL     1      -1.948  -3.263  -4.218  1.00  0.00     0.057 A   
ATOM     31  C22 UNL     1      -3.267  -1.479  -3.274  1.00  0.00     0.012 A   
ATOM     32  C19 UNL     1      -2.977  -4.194  -4.044  1.00  0.00     0.026 A   
ATOM     33  C21 UNL     1      -4.311  -2.395  -3.091  1.00  0.00     0.001 A   
ATOM     34  C20 UNL     1      -4.165  -3.729  -3.471  1.00  0.00     0.002 A   
ATOM     35  H23 UNL     1      -0.270  -4.222  -5.137  1.00  0.00     0.176 HD  
ENDBRANCH  25  26
ENDBRANCH   3  25
TORSDOF 8
