REMARK SMILES FC(F)(F)c1cc(Cn2cc([C@@H]([NH2+]Cc3ccc4c(c3)OCO4)C3CCCC3)nn2)no1
REMARK SMILES IDX 9 1 10 2 11 3 29 4 30 5 8 7 7 8 5 9 6 10 32 11 31 12 2 13
REMARK SMILES IDX 1 14 3 15 4 16 12 17 13 18 14 21 15 22 16 23 20 24 17 25
REMARK SMILES IDX 19 26 18 27 21 28 23 29 22 30 24 31 25 32 28 33 26 34 27 35
REMARK H PARENT 10 6 13 19 13 20
ROOT
ATOM     1   N1  UNL     1      -1.986   1.777  -1.034  1.00  0.00    -0.206 N   
ATOM     2   C6  UNL     1      -1.236   1.783   0.110  1.00  0.00     0.046 A   
ATOM     3   C7  UNL     1       0.046   1.549  -0.331  1.00  0.00     0.127 A   
ATOM     4   N3  UNL     1       0.040   1.449  -1.699  1.00  0.00    -0.132 NA  
ATOM     5   N4  UNL     1      -1.207   1.592  -2.117  1.00  0.00    -0.076 NA  
ATOM     6   H4  UNL     1      -1.677   1.907   1.090  1.00  0.00     0.083 HD  
ENDROOT
BRANCH   1   7
ATOM     7   C5  UNL     1      -3.422   1.950  -1.171  1.00  0.00     0.192 C   
BRANCH   7   8
ATOM     8   C4  UNL     1      -4.136   0.753  -0.657  1.00  0.00     0.090 A   
ATOM     9   C2  UNL     1      -5.245  -1.141  -0.420  1.00  0.00     0.190 A   
ATOM     10  C3  UNL     1      -4.706  -0.319  -1.385  1.00  0.00     0.069 A   
ATOM     11  O3  UNL     1      -5.015  -0.596   0.805  1.00  0.00    -0.208 OA  
ATOM     12  N5  UNL     1      -4.325   0.593   0.661  1.00  0.00    -0.132 NA  
BRANCH   9  13
ATOM     13  C1  UNL     1      -5.981  -2.419  -0.446  1.00  0.00     0.440 C   
ATOM     14  F1  UNL     1      -7.318  -2.230  -0.337  1.00  0.00    -0.164 F   
ATOM     15  F2  UNL     1      -5.611  -3.256   0.555  1.00  0.00    -0.164 F   
ATOM     16  F3  UNL     1      -5.776  -3.085  -1.613  1.00  0.00    -0.164 F   
ENDBRANCH   9  13
ENDBRANCH   7   8
ENDBRANCH   1   7
BRANCH   3  17
ATOM     17  C8  UNL     1       1.323   1.344   0.417  1.00  0.00     0.117 C   
BRANCH  17  18
ATOM     18  N2  UNL     1       2.190   0.342  -0.311  1.00  0.00     0.249 N   
ATOM     19  H6  UNL     1       3.174   0.621  -0.292  1.00  0.00     0.199 HD  
ATOM     20  H7  UNL     1       1.906   0.394  -1.303  1.00  0.00     0.199 HD  
BRANCH  18  21
ATOM     21  C9  UNL     1       2.072  -1.075   0.131  1.00  0.00     0.164 C   
BRANCH  21  22
ATOM     22  C10 UNL     1       0.737  -1.700  -0.163  1.00  0.00    -0.002 A   
ATOM     23  C11 UNL     1      -0.164  -2.000   0.887  1.00  0.00     0.012 A   
ATOM     24  C15 UNL     1       0.369  -1.986  -1.490  1.00  0.00     0.045 A   
ATOM     25  C12 UNL     1      -1.414  -2.572   0.622  1.00  0.00     0.037 A   
ATOM     26  C14 UNL     1      -0.865  -2.560  -1.714  1.00  0.00     0.109 A   
ATOM     27  C13 UNL     1      -1.732  -2.844  -0.690  1.00  0.00     0.108 A   
ATOM     28  O1  UNL     1      -1.358  -2.924  -2.928  1.00  0.00    -0.316 OA  
ATOM     29  O2  UNL     1      -2.883  -3.417  -1.129  1.00  0.00    -0.316 OA  
ATOM     30  C16 UNL     1      -2.609  -3.534  -2.542  1.00  0.00     0.337 C   
ENDBRANCH  21  22
ENDBRANCH  18  21
ENDBRANCH  17  18
BRANCH  17  31
ATOM     31  C17 UNL     1       2.083   2.670   0.619  1.00  0.00     0.043 C   
ATOM     32  C18 UNL     1       2.680   3.314  -0.649  1.00  0.00     0.010 C   
ATOM     33  C21 UNL     1       3.258   2.572   1.602  1.00  0.00     0.010 C   
ATOM     34  C19 UNL     1       4.080   3.794  -0.264  1.00  0.00     0.001 C   
ATOM     35  C20 UNL     1       4.101   3.788   1.255  1.00  0.00     0.001 C   
ENDBRANCH  17  31
ENDBRANCH   3  17
TORSDOF 8
