REMARK SMILES CC(C)(C)[C@H]([NH2+]Cc1ccc2c(c1)OCO2)c1cn(Cc2ccc(O)cc2Cl)nn1
REMARK SMILES IDX 17 1 18 2 19 3 29 4 30 5 5 7 2 8 1 9 3 10 4 11 6 12 7 15
REMARK SMILES IDX 8 16 9 17 13 18 10 19 12 20 11 21 14 22 16 23 15 24 20 25
REMARK SMILES IDX 21 26 22 27 27 28 23 29 26 30 24 31 28 32 25 33
REMARK H PARENT 18 6 6 13 6 14 25 34
ROOT
ATOM     1   C14 UNL     1       0.228   0.272   1.784  1.00  0.00     0.127 A   
ATOM     2   C15 UNL     1       0.896  -0.556   2.659  1.00  0.00     0.046 A   
ATOM     3   N2  UNL     1      -0.011  -1.538   2.947  1.00  0.00    -0.208 N   
ATOM     4   N3  UNL     1      -1.177  -1.315   2.307  1.00  0.00    -0.076 NA  
ATOM     5   N4  UNL     1      -1.039  -0.216   1.584  1.00  0.00    -0.132 NA  
ATOM     6   H20 UNL     1       1.896  -0.550   3.071  1.00  0.00     0.083 HD  
ENDROOT
BRANCH   1   7
ATOM     7   C5  UNL     1       0.682   1.476   1.014  1.00  0.00     0.120 C   
BRANCH   7   8
ATOM     8   C2  UNL     1       0.391   2.843   1.726  1.00  0.00     0.010 C   
ATOM     9   C1  UNL     1      -1.116   3.126   1.880  1.00  0.00     0.017 C   
ATOM     10  C3  UNL     1       1.024   4.008   0.929  1.00  0.00     0.017 C   
ATOM     11  C4  UNL     1       1.035   2.860   3.131  1.00  0.00     0.017 C   
ENDBRANCH   7   8
BRANCH   7  12
ATOM     12  N1  UNL     1       0.032   1.443  -0.350  1.00  0.00     0.250 N   
ATOM     13  H11 UNL     1      -0.961   1.209  -0.195  1.00  0.00     0.199 HD  
ATOM     14  H12 UNL     1       0.041   2.353  -0.815  1.00  0.00     0.199 HD  
BRANCH  12  15
ATOM     15  C6  UNL     1       0.577   0.422  -1.290  1.00  0.00     0.164 C   
BRANCH  15  16
ATOM     16  C7  UNL     1      -0.219   0.410  -2.564  1.00  0.00    -0.002 A   
ATOM     17  C8  UNL     1      -1.388  -0.383  -2.661  1.00  0.00     0.012 A   
ATOM     18  C12 UNL     1       0.156   1.227  -3.644  1.00  0.00     0.045 A   
ATOM     19  C9  UNL     1      -2.168  -0.374  -3.823  1.00  0.00     0.037 A   
ATOM     20  C11 UNL     1      -0.635   1.212  -4.773  1.00  0.00     0.109 A   
ATOM     21  C10 UNL     1      -1.764   0.435  -4.861  1.00  0.00     0.108 A   
ATOM     22  O1  UNL     1      -0.416   1.939  -5.900  1.00  0.00    -0.316 OA  
ATOM     23  O2  UNL     1      -2.396   0.572  -6.056  1.00  0.00    -0.316 OA  
ATOM     24  C13 UNL     1      -1.525   1.510  -6.723  1.00  0.00     0.337 C   
ENDBRANCH  15  16
ENDBRANCH  12  15
ENDBRANCH   7  12
ENDBRANCH   1   7
BRANCH   3  25
ATOM     25  C16 UNL     1       0.151  -2.691   3.818  1.00  0.00     0.171 C   
BRANCH  25  26
ATOM     26  C17 UNL     1       0.279  -3.970   3.026  1.00  0.00    -0.010 A   
ATOM     27  C18 UNL     1      -0.861  -4.776   2.845  1.00  0.00     0.009 A   
ATOM     28  C22 UNL     1       1.487  -4.381   2.435  1.00  0.00     0.048 A   
ATOM     29  C19 UNL     1      -0.796  -5.960   2.107  1.00  0.00     0.033 A   
ATOM     30  C21 UNL     1       1.551  -5.564   1.696  1.00  0.00     0.054 A   
ATOM     31  C20 UNL     1       0.412  -6.343   1.539  1.00  0.00     0.073 A   
ATOM     32  CL1 UNL     1       2.937  -3.453   2.583  1.00  0.00    -0.084 Cl  
BRANCH  31  33
ATOM     33  O3  UNL     1       0.525  -7.486   0.808  1.00  0.00    -0.361 OA  
ATOM     34  H25 UNL     1      -0.319  -7.969   0.830  1.00  0.00     0.218 HD  
ENDBRANCH  31  33
ENDBRANCH  25  26
ENDBRANCH   3  25
TORSDOF 8
