REMARK SMILES Cn1cc(Cn2cc([C@@H]([NH2+]Cc3ccc4c(c3)OCO4)C3CCCCC3)nn2)c(C(F)F)n1
REMARK SMILES IDX 6 1 7 2 8 3 27 4 28 5 5 7 4 8 2 9 3 10 33 11 29 12 1 13
REMARK SMILES IDX 30 14 31 15 32 16 9 17 10 18 11 21 12 22 13 23 17 24 14 25
REMARK SMILES IDX 16 26 15 27 18 28 20 29 19 30 21 31 22 32 26 33 23 34 25 35
REMARK SMILES IDX 24 36
REMARK H PARENT 7 6 10 19 10 20
ROOT
ATOM     1   N2  UNL     1       2.386  -0.797   1.665  1.00  0.00    -0.208 N   
ATOM     2   C5  UNL     1       2.502  -0.826   0.301  1.00  0.00     0.046 A   
ATOM     3   C6  UNL     1       1.766   0.265  -0.116  1.00  0.00     0.127 A   
ATOM     4   N4  UNL     1       1.230   0.891   0.976  1.00  0.00    -0.132 NA  
ATOM     5   N5  UNL     1       1.645   0.256   2.061  1.00  0.00    -0.076 NA  
ATOM     6   H7  UNL     1       3.044  -1.606  -0.223  1.00  0.00     0.083 HD  
ENDROOT
BRANCH   1   7
ATOM     7   C4  UNL     1       2.936  -1.745   2.624  1.00  0.00     0.173 C   
BRANCH   7   8
ATOM     8   C3  UNL     1       1.872  -2.478   3.371  1.00  0.00     0.016 A   
ATOM     9   N1  UNL     1       0.605  -3.281   4.983  1.00  0.00    -0.235 N   
ATOM     10  C2  UNL     1       1.667  -2.462   4.740  1.00  0.00     0.102 A   
ATOM     11  N6  UNL     1       0.084  -3.824   3.866  1.00  0.00    -0.180 NA  
ATOM     12  C22 UNL     1       0.866  -3.366   2.872  1.00  0.00     0.131 A   
ATOM     13  C1  UNL     1       0.048  -3.610   6.274  1.00  0.00     0.159 C   
BRANCH  12  14
ATOM     14  C23 UNL     1       0.619  -3.787   1.457  1.00  0.00     0.393 C   
ATOM     15  F1  UNL     1       0.097  -2.758   0.718  1.00  0.00    -0.203 F   
ATOM     16  F2  UNL     1       1.793  -4.113   0.830  1.00  0.00    -0.203 F   
ENDBRANCH  12  14
ENDBRANCH   7   8
ENDBRANCH   1   7
BRANCH   3  17
ATOM     17  C7  UNL     1       1.421   0.719  -1.493  1.00  0.00     0.117 C   
BRANCH  17  18
ATOM     18  N3  UNL     1      -0.069   0.654  -1.699  1.00  0.00     0.249 N   
ATOM     19  H9  UNL     1      -0.366   1.313  -2.424  1.00  0.00     0.199 HD  
ATOM     20  H10 UNL     1      -0.515   0.965  -0.820  1.00  0.00     0.199 HD  
BRANCH  18  21
ATOM     21  C8  UNL     1      -0.586  -0.704  -2.025  1.00  0.00     0.164 C   
BRANCH  21  22
ATOM     22  C9  UNL     1      -2.080  -0.715  -2.185  1.00  0.00    -0.002 A   
ATOM     23  C10 UNL     1      -2.694  -0.046  -3.273  1.00  0.00     0.012 A   
ATOM     24  C14 UNL     1      -2.877  -1.407  -1.259  1.00  0.00     0.045 A   
ATOM     25  C11 UNL     1      -4.084  -0.059  -3.433  1.00  0.00     0.037 A   
ATOM     26  C13 UNL     1      -4.242  -1.420  -1.458  1.00  0.00     0.109 A   
ATOM     27  C12 UNL     1      -4.829  -0.761  -2.510  1.00  0.00     0.108 A   
ATOM     28  O1  UNL     1      -5.150  -2.063  -0.678  1.00  0.00    -0.316 OA  
ATOM     29  O2  UNL     1      -6.181  -0.898  -2.515  1.00  0.00    -0.316 OA  
ATOM     30  C15 UNL     1      -6.372  -1.794  -1.400  1.00  0.00     0.337 C   
ENDBRANCH  21  22
ENDBRANCH  18  21
ENDBRANCH  17  18
BRANCH  17  31
ATOM     31  C16 UNL     1       1.936   2.129  -1.882  1.00  0.00     0.043 C   
ATOM     32  C17 UNL     1       1.250   3.314  -1.179  1.00  0.00     0.010 C   
ATOM     33  C21 UNL     1       3.463   2.241  -1.714  1.00  0.00     0.010 C   
ATOM     34  C18 UNL     1       1.755   4.641  -1.746  1.00  0.00     0.001 C   
ATOM     35  C20 UNL     1       3.995   3.569  -2.245  1.00  0.00     0.001 C   
ATOM     36  C19 UNL     1       3.274   4.768  -1.642  1.00  0.00     0.000 C   
ENDBRANCH  17  31
ENDBRANCH   3  17
TORSDOF 8
