REMARK SMILES CC(C)[C@H]([NH2+]Cc1ccc2c(c1)OCO2)c1cn(CCc2ccc(Cl)cn2)nn1
REMARK SMILES IDX 16 1 17 2 18 3 28 4 29 5 4 7 2 8 1 9 3 10 5 11 6 14 7 15
REMARK SMILES IDX 8 16 12 17 9 18 11 19 10 20 13 21 15 22 14 23 19 24 20 25
REMARK SMILES IDX 21 26 22 27 27 28 23 29 26 30 24 31 25 32
REMARK H PARENT 17 6 5 12 5 13
ROOT
ATOM     1   C13 UNL     1       0.594   2.072  -1.461  1.00  0.00     0.127 A   
ATOM     2   C14 UNL     1       0.761   0.900  -2.164  1.00  0.00     0.045 A   
ATOM     3   N2  UNL     1       2.063   0.940  -2.570  1.00  0.00    -0.212 N   
ATOM     4   N4  UNL     1       2.661   2.075  -2.159  1.00  0.00    -0.076 NA  
ATOM     5   N5  UNL     1       1.771   2.777  -1.477  1.00  0.00    -0.132 NA  
ATOM     6   H18 UNL     1       0.117   0.057  -2.376  1.00  0.00     0.083 HD  
ENDROOT
BRANCH   1   7
ATOM     7   C4  UNL     1      -0.566   2.580  -0.674  1.00  0.00     0.117 C   
BRANCH   7   8
ATOM     8   C2  UNL     1      -1.484   3.562  -1.450  1.00  0.00     0.037 C   
ATOM     9   C1  UNL     1      -2.183   2.865  -2.624  1.00  0.00     0.014 C   
ATOM     10  C3  UNL     1      -0.783   4.830  -1.949  1.00  0.00     0.014 C   
ENDBRANCH   7   8
BRANCH   7  11
ATOM     11  N1  UNL     1      -0.087   3.269   0.589  1.00  0.00     0.249 N   
ATOM     12  H9  UNL     1       0.584   3.989   0.289  1.00  0.00     0.199 HD  
ATOM     13  H10 UNL     1      -0.870   3.744   1.047  1.00  0.00     0.199 HD  
BRANCH  11  14
ATOM     14  C5  UNL     1       0.625   2.413   1.586  1.00  0.00     0.164 C   
BRANCH  14  15
ATOM     15  C6  UNL     1      -0.230   1.313   2.150  1.00  0.00    -0.002 A   
ATOM     16  C7  UNL     1      -1.223   1.596   3.117  1.00  0.00     0.012 A   
ATOM     17  C11 UNL     1      -0.066  -0.005   1.689  1.00  0.00     0.045 A   
ATOM     18  C8  UNL     1      -2.044   0.580   3.619  1.00  0.00     0.037 A   
ATOM     19  C10 UNL     1      -0.895  -0.981   2.201  1.00  0.00     0.109 A   
ATOM     20  C9  UNL     1      -1.854  -0.698   3.140  1.00  0.00     0.108 A   
ATOM     21  O1  UNL     1      -0.879  -2.294   1.854  1.00  0.00    -0.316 OA  
ATOM     22  O2  UNL     1      -2.557  -1.799   3.511  1.00  0.00    -0.316 OA  
ATOM     23  C12 UNL     1      -1.903  -2.821   2.729  1.00  0.00     0.337 C   
ENDBRANCH  14  15
ENDBRANCH  11  14
ENDBRANCH   7  11
ENDBRANCH   1   7
BRANCH   3  24
ATOM     24  C15 UNL     1       2.795  -0.043  -3.341  1.00  0.00     0.140 C   
BRANCH  24  25
ATOM     25  C16 UNL     1       3.885  -0.751  -2.536  1.00  0.00     0.077 C   
BRANCH  25  26
ATOM     26  C17 UNL     1       3.381  -1.665  -1.442  1.00  0.00     0.042 A   
ATOM     27  C18 UNL     1       4.292  -2.203  -0.531  1.00  0.00     0.025 A   
ATOM     28  N3  UNL     1       2.062  -1.976  -1.413  1.00  0.00    -0.260 NA  
ATOM     29  C19 UNL     1       3.836  -3.088   0.447  1.00  0.00     0.024 A   
ATOM     30  C21 UNL     1       1.651  -2.855  -0.461  1.00  0.00     0.131 A   
ATOM     31  C20 UNL     1       2.491  -3.424   0.482  1.00  0.00     0.059 A   
ATOM     32  CL1 UNL     1       1.888  -4.512   1.662  1.00  0.00    -0.083 Cl  
ENDBRANCH  25  26
ENDBRANCH  24  25
ENDBRANCH   3  24
TORSDOF 8
