REMARK SMILES Cc1ccc([C@@H](CO)n2cc([C@@H]([NH2+]Cc3ccc4c(c3)OCO4)C3CCCC3)nn2)nc1
REMARK SMILES IDX 9 1 10 2 11 3 29 4 30 5 6 7 5 8 2 9 3 10 32 11 4 12 31 13
REMARK SMILES IDX 1 14 7 15 8 16 12 18 13 19 14 22 15 23 16 24 20 25 17 26
REMARK SMILES IDX 19 27 18 28 21 29 23 30 22 31 24 32 25 33 28 34 26 35 27 36
REMARK H PARENT 10 6 8 17 13 20 13 21
ROOT
ATOM     1   N1  UNL     1      -2.596  -2.134  -0.419  1.00  0.00    -0.201 N   
ATOM     2   C8  UNL     1      -1.515  -1.486   0.121  1.00  0.00     0.046 A   
ATOM     3   C9  UNL     1      -1.739  -0.160  -0.164  1.00  0.00     0.127 A   
ATOM     4   N3  UNL     1      -2.879  -0.047  -0.925  1.00  0.00    -0.132 NA  
ATOM     5   N4  UNL     1      -3.382  -1.260  -1.091  1.00  0.00    -0.075 NA  
ATOM     6   H10 UNL     1      -0.757  -2.015   0.690  1.00  0.00     0.083 HD  
ENDROOT
BRANCH   1   7
ATOM     7   C6  UNL     1      -3.007  -3.525  -0.267  1.00  0.00     0.174 C   
BRANCH   7   8
ATOM     8   C5  UNL     1      -1.917  -4.462  -0.755  1.00  0.00     0.065 A   
ATOM     9   C2  UNL     1       0.122  -6.111  -1.628  1.00  0.00    -0.033 A   
ATOM     10  C3  UNL     1      -0.807  -5.619  -2.542  1.00  0.00     0.007 A   
ATOM     11  C24 UNL     1      -0.044  -5.757  -0.297  1.00  0.00     0.114 A   
ATOM     12  C4  UNL     1      -1.833  -4.783  -2.109  1.00  0.00     0.026 A   
ATOM     13  N5  UNL     1      -1.025  -4.938   0.154  1.00  0.00    -0.259 NA  
ATOM     14  C1  UNL     1       1.214  -7.040  -2.056  1.00  0.00     0.046 C   
ENDBRANCH   7   8
BRANCH   7  15
ATOM     15  C7  UNL     1      -3.480  -3.810   1.170  1.00  0.00     0.187 C   
BRANCH  15  16
ATOM     16  O1  UNL     1      -2.447  -3.668   2.147  1.00  0.00    -0.394 OA  
ATOM     17  H9  UNL     1      -1.788  -4.365   1.928  1.00  0.00     0.210 HD  
ENDBRANCH  15  16
ENDBRANCH   7  15
ENDBRANCH   1   7
BRANCH   3  18
ATOM     18  C10 UNL     1      -0.995   1.077   0.230  1.00  0.00     0.117 C   
BRANCH  18  19
ATOM     19  N2  UNL     1      -1.324   2.186  -0.741  1.00  0.00     0.249 N   
ATOM     20  H12 UNL     1      -1.271   3.106  -0.303  1.00  0.00     0.199 HD  
ATOM     21  H13 UNL     1      -2.310   2.042  -0.998  1.00  0.00     0.199 HD  
BRANCH  19  22
ATOM     22  C11 UNL     1      -0.549   2.190  -2.016  1.00  0.00     0.164 C   
BRANCH  22  23
ATOM     23  C12 UNL     1       0.900   2.547  -1.828  1.00  0.00    -0.002 A   
ATOM     24  C13 UNL     1       1.909   1.599  -2.122  1.00  0.00     0.012 A   
ATOM     25  C17 UNL     1       1.266   3.813  -1.336  1.00  0.00     0.045 A   
ATOM     26  C14 UNL     1       3.261   1.900  -1.918  1.00  0.00     0.037 A   
ATOM     27  C16 UNL     1       2.608   4.070  -1.135  1.00  0.00     0.109 A   
ATOM     28  C15 UNL     1       3.577   3.141  -1.415  1.00  0.00     0.108 A   
ATOM     29  O2  UNL     1       3.124   5.220  -0.628  1.00  0.00    -0.316 OA  
ATOM     30  O3  UNL     1       4.823   3.582  -1.114  1.00  0.00    -0.316 OA  
ATOM     31  C18 UNL     1       4.537   4.912  -0.629  1.00  0.00     0.337 C   
ENDBRANCH  22  23
ENDBRANCH  19  22
ENDBRANCH  18  19
BRANCH  18  32
ATOM     32  C19 UNL     1      -1.341   1.492   1.672  1.00  0.00     0.043 C   
ATOM     33  C20 UNL     1      -0.495   2.636   2.242  1.00  0.00     0.010 C   
ATOM     34  C23 UNL     1      -2.767   1.987   1.917  1.00  0.00     0.010 C   
ATOM     35  C21 UNL     1      -1.277   3.128   3.462  1.00  0.00     0.001 C   
ATOM     36  C22 UNL     1      -2.687   2.552   3.329  1.00  0.00     0.001 C   
ENDBRANCH  18  32
ENDBRANCH   3  18
TORSDOF 9
