REMARK SMILES Cc1ccc([C@H](CO)n2cc([C@@H]([NH2+]Cc3ccc4c(c3)OCO4)C3CCCC3)nn2)nc1
REMARK SMILES IDX 9 1 10 2 11 3 29 4 30 5 6 7 5 8 2 9 3 10 32 11 4 12 31 13
REMARK SMILES IDX 1 14 7 15 8 16 12 18 13 19 14 22 15 23 16 24 20 25 17 26
REMARK SMILES IDX 19 27 18 28 21 29 23 30 22 31 24 32 25 33 28 34 26 35 27 36
REMARK H PARENT 10 6 8 17 13 20 13 21
ROOT
ATOM     1   N1  UNL     1      -0.361   1.304   0.343  1.00  0.00    -0.201 N   
ATOM     2   C8  UNL     1       0.325   0.127   0.470  1.00  0.00     0.046 A   
ATOM     3   C9  UNL     1      -0.031  -0.594  -0.645  1.00  0.00     0.127 A   
ATOM     4   N3  UNL     1      -0.875   0.159  -1.418  1.00  0.00    -0.132 NA  
ATOM     5   N4  UNL     1      -1.070   1.317  -0.807  1.00  0.00    -0.075 NA  
ATOM     6   H10 UNL     1       0.953  -0.083   1.325  1.00  0.00     0.083 HD  
ENDROOT
BRANCH   1   7
ATOM     7   C6  UNL     1      -0.420   2.438   1.257  1.00  0.00     0.174 C   
BRANCH   7   8
ATOM     8   C5  UNL     1       0.961   3.047   1.425  1.00  0.00     0.065 A   
ATOM     9   C2  UNL     1       3.490   4.115   1.747  1.00  0.00    -0.033 A   
ATOM     10  C3  UNL     1       2.711   4.505   0.658  1.00  0.00     0.007 A   
ATOM     11  C24 UNL     1       2.938   3.199   2.634  1.00  0.00     0.114 A   
ATOM     12  C4  UNL     1       1.438   3.963   0.488  1.00  0.00     0.026 A   
ATOM     13  N5  UNL     1       1.708   2.651   2.492  1.00  0.00    -0.259 NA  
ATOM     14  C1  UNL     1       4.840   4.712   1.989  1.00  0.00     0.046 C   
ENDBRANCH   7   8
BRANCH   7  15
ATOM     15  C7  UNL     1      -1.091   2.061   2.591  1.00  0.00     0.187 C   
BRANCH  15  16
ATOM     16  O1  UNL     1      -0.365   1.081   3.339  1.00  0.00    -0.394 OA  
ATOM     17  H9  UNL     1       0.521   1.477   3.500  1.00  0.00     0.210 HD  
ENDBRANCH  15  16
ENDBRANCH   7  15
ENDBRANCH   1   7
BRANCH   3  18
ATOM     18  C10 UNL     1       0.322  -1.982  -1.059  1.00  0.00     0.117 C   
BRANCH  18  19
ATOM     19  N2  UNL     1      -0.857  -2.659  -1.716  1.00  0.00     0.249 N   
ATOM     20  H12 UNL     1      -1.347  -1.923  -2.248  1.00  0.00     0.199 HD  
ATOM     21  H13 UNL     1      -0.544  -3.349  -2.405  1.00  0.00     0.199 HD  
BRANCH  19  22
ATOM     22  C11 UNL     1      -1.849  -3.298  -0.803  1.00  0.00     0.164 C   
BRANCH  22  23
ATOM     23  C12 UNL     1      -2.942  -2.367  -0.359  1.00  0.00    -0.002 A   
ATOM     24  C13 UNL     1      -3.979  -2.014  -1.260  1.00  0.00     0.012 A   
ATOM     25  C17 UNL     1      -2.939  -1.820   0.935  1.00  0.00     0.045 A   
ATOM     26  C14 UNL     1      -4.996  -1.134  -0.879  1.00  0.00     0.037 A   
ATOM     27  C16 UNL     1      -3.954  -0.951   1.277  1.00  0.00     0.109 A   
ATOM     28  C15 UNL     1      -4.955  -0.621   0.398  1.00  0.00     0.108 A   
ATOM     29  O2  UNL     1      -4.098  -0.333   2.479  1.00  0.00    -0.316 OA  
ATOM     30  O3  UNL     1      -5.855   0.242   0.935  1.00  0.00    -0.316 OA  
ATOM     31  C18 UNL     1      -5.308   0.424   2.257  1.00  0.00     0.337 C   
ENDBRANCH  22  23
ENDBRANCH  19  22
ENDBRANCH  18  19
BRANCH  18  32
ATOM     32  C19 UNL     1       1.546  -1.994  -2.002  1.00  0.00     0.043 C   
ATOM     33  C20 UNL     1       2.143  -3.388  -2.242  1.00  0.00     0.010 C   
ATOM     34  C23 UNL     1       1.327  -1.408  -3.411  1.00  0.00     0.010 C   
ATOM     35  C21 UNL     1       2.951  -3.207  -3.517  1.00  0.00     0.001 C   
ATOM     36  C22 UNL     1       2.044  -2.346  -4.381  1.00  0.00     0.001 C   
ENDBRANCH  18  32
ENDBRANCH   3  18
TORSDOF 9
