REMARK SMILES COc1ccc(O)c(Cn2cc([C@H](CC(C)C)[NH2+]Cc3ccc4c(c3)OCO4)nn2)c1
REMARK SMILES IDX 10 1 11 2 12 3 29 4 30 5 9 7 8 8 3 9 4 10 31 11 5 12 6 13
REMARK SMILES IDX 2 14 1 15 7 16 13 18 14 19 15 20 16 21 17 22 18 23 19 26
REMARK SMILES IDX 20 27 21 28 25 29 22 30 24 31 23 32 26 33 28 34 27 35
REMARK H PARENT 11 6 7 17 18 24 18 25
ROOT
ATOM     1   N1  UNL     1       0.842   0.648  -1.448  1.00  0.00    -0.208 N   
ATOM     2   C8  UNL     1       1.107   0.285  -0.157  1.00  0.00     0.046 A   
ATOM     3   C9  UNL     1       0.143  -0.654   0.129  1.00  0.00     0.127 A   
ATOM     4   N3  UNL     1      -0.620  -0.874  -0.988  1.00  0.00    -0.132 NA  
ATOM     5   N4  UNL     1      -0.182  -0.074  -1.947  1.00  0.00    -0.076 NA  
ATOM     6   H9  UNL     1       1.878   0.765   0.430  1.00  0.00     0.083 HD  
ENDROOT
BRANCH   1   7
ATOM     7   C7  UNL     1       1.450   1.719  -2.219  1.00  0.00     0.172 C   
BRANCH   7   8
ATOM     8   C6  UNL     1       0.704   3.014  -2.004  1.00  0.00     0.004 A   
ATOM     9   C2  UNL     1      -1.030   4.578  -2.703  1.00  0.00     0.075 A   
ATOM     10  C3  UNL     1      -0.755   5.369  -1.587  1.00  0.00     0.036 A   
ATOM     11  C23 UNL     1      -0.304   3.402  -2.907  1.00  0.00     0.041 A   
ATOM     12  C4  UNL     1       0.235   4.998  -0.678  1.00  0.00     0.036 A   
ATOM     13  C5  UNL     1       0.953   3.824  -0.890  1.00  0.00     0.076 A   
BRANCH   9  14
ATOM     14  O1  UNL     1      -2.035   5.050  -3.499  1.00  0.00    -0.349 OA  
ATOM     15  C1  UNL     1      -2.230   4.402  -4.748  1.00  0.00     0.203 C   
ENDBRANCH   9  14
BRANCH  13  16
ATOM     16  O2  UNL     1       1.900   3.430   0.013  1.00  0.00    -0.361 OA  
ATOM     17  H6  UNL     1       1.977   4.120   0.704  1.00  0.00     0.218 HD  
ENDBRANCH  13  16
ENDBRANCH   7   8
ENDBRANCH   1   7
BRANCH   3  18
ATOM     18  C10 UNL     1      -0.234  -1.286   1.421  1.00  0.00     0.114 C   
BRANCH  18  19
ATOM     19  C11 UNL     1       0.036  -2.803   1.480  1.00  0.00     0.064 C   
BRANCH  19  20
ATOM     20  C12 UNL     1       1.508  -3.273   1.511  1.00  0.00    -0.012 C   
ATOM     21  C13 UNL     1       2.352  -2.532   2.547  1.00  0.00     0.007 C   
ATOM     22  C14 UNL     1       2.183  -3.248   0.140  1.00  0.00     0.007 C   
ENDBRANCH  19  20
ENDBRANCH  18  19
BRANCH  18  23
ATOM     23  N2  UNL     1      -1.728  -1.108   1.662  1.00  0.00     0.249 N   
ATOM     24  H20 UNL     1      -1.997  -1.590   2.523  1.00  0.00     0.199 HD  
ATOM     25  H21 UNL     1      -2.203  -1.580   0.881  1.00  0.00     0.199 HD  
BRANCH  23  26
ATOM     26  C15 UNL     1      -2.248   0.296   1.699  1.00  0.00     0.164 C   
BRANCH  26  27
ATOM     27  C16 UNL     1      -1.582   1.164   2.729  1.00  0.00    -0.002 A   
ATOM     28  C17 UNL     1      -1.787   0.936   4.111  1.00  0.00     0.012 A   
ATOM     29  C21 UNL     1      -0.721   2.199   2.321  1.00  0.00     0.045 A   
ATOM     30  C18 UNL     1      -1.133   1.714   5.071  1.00  0.00     0.037 A   
ATOM     31  C20 UNL     1      -0.085   2.945   3.290  1.00  0.00     0.109 A   
ATOM     32  C19 UNL     1      -0.285   2.707   4.628  1.00  0.00     0.108 A   
ATOM     33  O3  UNL     1       0.789   3.963   3.064  1.00  0.00    -0.316 OA  
ATOM     34  O4  UNL     1       0.432   3.549   5.416  1.00  0.00    -0.316 OA  
ATOM     35  C22 UNL     1       1.096   4.360   4.423  1.00  0.00     0.337 C   
ENDBRANCH  26  27
ENDBRANCH  23  26
ENDBRANCH  18  23
ENDBRANCH   3  18
TORSDOF 10
