REMARK SMILES Cc1cc(N([O-])[O-])ccc1-n1cc([C@@H]([NH2+]Cc2ccc3c(c2)OCO3)C2CCCC2)nn1
REMARK SMILES IDX 11 1 12 2 13 3 31 4 32 5 10 6 2 7 3 8 4 9 9 10 8 11 1 12
REMARK SMILES IDX 5 13 6 14 7 15 14 16 15 17 16 20 17 21 18 22 22 23 19 24
REMARK SMILES IDX 21 25 20 26 23 27 25 28 24 29 26 30 27 31 30 32 28 33 29 34
REMARK H PARENT 15 18 15 19
ROOT
ATOM     1   N2  UNL     1      -0.565  -0.154  -0.592  1.00  0.00    -0.180 N   
ATOM     2   C8  UNL     1       0.334  -0.645   0.344  1.00  0.00     0.135 A   
ATOM     3   C9  UNL     1       0.111  -2.003   0.384  1.00  0.00     0.127 A   
ATOM     4   N4  UNL     1      -0.840  -2.326  -0.537  1.00  0.00    -0.131 NA  
ATOM     5   N5  UNL     1      -1.232  -1.208  -1.123  1.00  0.00    -0.071 NA  
ENDROOT
BRANCH   1   6
ATOM     6   C7  UNL     1      -0.818   1.205  -0.958  1.00  0.00     0.061 A   
ATOM     7   C2  UNL     1      -1.838   1.578  -1.871  1.00  0.00    -0.025 A   
ATOM     8   C3  UNL     1      -2.024   2.947  -2.169  1.00  0.00     0.036 A   
ATOM     9   C4  UNL     1      -1.221   3.928  -1.578  1.00  0.00     0.118 A   
ATOM     10  C6  UNL     1      -0.021   2.215  -0.374  1.00  0.00     0.028 A   
ATOM     11  C5  UNL     1      -0.218   3.566  -0.680  1.00  0.00     0.033 A   
ATOM     12  C1  UNL     1      -2.769   0.613  -2.562  1.00  0.00     0.046 C   
BRANCH   9  13
ATOM     13  N1  UNL     1      -1.437   5.345  -1.899  1.00  0.00     0.092 N   
ATOM     14  O1  UNL     1      -0.803   6.182  -1.242  1.00  0.00    -0.138 OA  
ATOM     15  O2  UNL     1      -2.239   5.614  -2.803  1.00  0.00    -0.138 OA  
ENDBRANCH   9  13
ENDBRANCH   1   6
BRANCH   3  16
ATOM     16  C10 UNL     1       0.642  -3.068   1.290  1.00  0.00     0.117 C   
BRANCH  16  17
ATOM     17  N3  UNL     1      -0.517  -3.906   1.799  1.00  0.00     0.249 N   
ATOM     18  H9  UNL     1      -1.203  -3.943   1.029  1.00  0.00     0.199 HD  
ATOM     19  H10 UNL     1      -0.225  -4.875   1.960  1.00  0.00     0.199 HD  
BRANCH  17  20
ATOM     20  C11 UNL     1      -1.210  -3.412   3.029  1.00  0.00     0.164 C   
BRANCH  20  21
ATOM     21  C12 UNL     1      -1.912  -2.095   2.850  1.00  0.00    -0.002 A   
ATOM     22  C13 UNL     1      -3.084  -2.015   2.058  1.00  0.00     0.012 A   
ATOM     23  C17 UNL     1      -1.380  -0.923   3.414  1.00  0.00     0.045 A   
ATOM     24  C14 UNL     1      -3.701  -0.785   1.810  1.00  0.00     0.037 A   
ATOM     25  C16 UNL     1      -2.009   0.274   3.142  1.00  0.00     0.109 A   
ATOM     26  C15 UNL     1      -3.135   0.342   2.362  1.00  0.00     0.108 A   
ATOM     27  O3  UNL     1      -1.602   1.498   3.571  1.00  0.00    -0.316 OA  
ATOM     28  O4  UNL     1      -3.582   1.615   2.203  1.00  0.00    -0.316 OA  
ATOM     29  C18 UNL     1      -2.647   2.339   3.030  1.00  0.00     0.337 C   
ENDBRANCH  20  21
ENDBRANCH  17  20
ENDBRANCH  16  17
BRANCH  16  30
ATOM     30  C19 UNL     1       1.639  -3.991   0.562  1.00  0.00     0.043 C   
ATOM     31  C20 UNL     1       2.260  -5.080   1.444  1.00  0.00     0.010 C   
ATOM     32  C23 UNL     1       2.889  -3.253   0.065  1.00  0.00     0.010 C   
ATOM     33  C21 UNL     1       3.522  -5.514   0.703  1.00  0.00     0.001 C   
ATOM     34  C22 UNL     1       3.877  -4.370  -0.243  1.00  0.00     0.001 C   
ENDBRANCH  16  30
ENDBRANCH   3  16
TORSDOF 7
