REMARK SMILES Cc1csc(C[C@@H](C)n2cc([C@@H]([NH2+]Cc3ccc4c(c3)OCO4)C3CCCC3)nn2)n1
REMARK SMILES IDX 9 1 10 2 11 3 29 4 30 5 7 7 8 8 6 9 5 10 2 11 3 12 31 13
REMARK SMILES IDX 4 14 1 15 12 16 13 17 14 20 15 21 16 22 20 23 17 24 19 25
REMARK SMILES IDX 18 26 21 27 23 28 22 29 24 30 25 31 28 32 26 33 27 34
REMARK H PARENT 10 6 13 18 13 19
ROOT
ATOM     1   N1  UNL     1      -1.435   0.515   2.333  1.00  0.00    -0.209 N   
ATOM     2   C8  UNL     1      -0.230   0.775   1.742  1.00  0.00     0.046 A   
ATOM     3   C9  UNL     1      -0.281   0.071   0.560  1.00  0.00     0.127 A   
ATOM     4   N3  UNL     1      -1.458  -0.630   0.504  1.00  0.00    -0.132 NA  
ATOM     5   N4  UNL     1      -2.150  -0.359   1.598  1.00  0.00    -0.076 NA  
ATOM     6   H11 UNL     1       0.490   1.459   2.173  1.00  0.00     0.083 HD  
ENDROOT
BRANCH   1   7
ATOM     7   C6  UNL     1      -1.986   1.117   3.540  1.00  0.00     0.103 C   
ATOM     8   C7  UNL     1      -2.408   0.047   4.551  1.00  0.00     0.031 C   
BRANCH   7   9
ATOM     9   C5  UNL     1      -3.157   2.055   3.209  1.00  0.00     0.088 C   
BRANCH   9  10
ATOM     10  C4  UNL     1      -2.729   3.196   2.333  1.00  0.00     0.080 A   
ATOM     11  C2  UNL     1      -1.492   4.842   1.506  1.00  0.00     0.045 A   
ATOM     12  C3  UNL     1      -2.600   4.965   0.690  1.00  0.00     0.070 A   
ATOM     13  N5  UNL     1      -1.569   3.813   2.435  1.00  0.00    -0.250 NA  
ATOM     14  S1  UNL     1      -3.766   3.775   1.091  1.00  0.00    -0.081 S   
ATOM     15  C1  UNL     1      -0.267   5.681   1.474  1.00  0.00     0.067 C   
ENDBRANCH   9  10
ENDBRANCH   7   9
ENDBRANCH   1   7
BRANCH   3  16
ATOM     16  C10 UNL     1       0.692  -0.032  -0.569  1.00  0.00     0.117 C   
BRANCH  16  17
ATOM     17  N2  UNL     1       0.543  -1.379  -1.237  1.00  0.00     0.249 N   
ATOM     18  H13 UNL     1       0.929  -1.387  -2.185  1.00  0.00     0.199 HD  
ATOM     19  H14 UNL     1      -0.470  -1.544  -1.336  1.00  0.00     0.199 HD  
BRANCH  17  20
ATOM     20  C11 UNL     1       1.103  -2.530  -0.475  1.00  0.00     0.164 C   
BRANCH  20  21
ATOM     21  C12 UNL     1       0.806  -3.823  -1.181  1.00  0.00    -0.002 A   
ATOM     22  C13 UNL     1      -0.395  -4.521  -0.908  1.00  0.00     0.012 A   
ATOM     23  C17 UNL     1       1.691  -4.321  -2.152  1.00  0.00     0.045 A   
ATOM     24  C14 UNL     1      -0.704  -5.708  -1.578  1.00  0.00     0.037 A   
ATOM     25  C16 UNL     1       1.354  -5.494  -2.796  1.00  0.00     0.109 A   
ATOM     26  C15 UNL     1       0.193  -6.169  -2.516  1.00  0.00     0.108 A   
ATOM     27  O1  UNL     1       2.094  -6.109  -3.756  1.00  0.00    -0.316 OA  
ATOM     28  O2  UNL     1       0.059  -7.297  -3.259  1.00  0.00    -0.316 OA  
ATOM     29  C18 UNL     1       1.276  -7.267  -4.032  1.00  0.00     0.337 C   
ENDBRANCH  20  21
ENDBRANCH  17  20
ENDBRANCH  16  17
BRANCH  16  30
ATOM     30  C19 UNL     1       0.465   1.066  -1.629  1.00  0.00     0.043 C   
ATOM     31  C20 UNL     1       1.469   1.033  -2.791  1.00  0.00     0.010 C   
ATOM     32  C23 UNL     1       0.632   2.491  -1.091  1.00  0.00     0.010 C   
ATOM     33  C21 UNL     1       1.570   2.469  -3.310  1.00  0.00     0.001 C   
ATOM     34  C22 UNL     1       0.755   3.328  -2.353  1.00  0.00     0.001 C   
ENDBRANCH  16  30
ENDBRANCH   3  16
TORSDOF 8
