REMARK SMILES OC[C@@H](c1ncccc1F)n1cc([C@@H]([NH2+]Cc2ccc3c(c2)OCO3)C2CCCC2)nn1
REMARK SMILES IDX 11 1 12 2 13 3 31 4 32 5 3 7 2 8 1 9 4 11 5 12 9 13 6 14
REMARK SMILES IDX 8 15 7 16 10 17 14 18 15 19 16 22 17 23 18 24 22 25 19 26
REMARK SMILES IDX 21 27 20 28 23 29 25 30 24 31 26 32 27 33 30 34 28 35 29 36
REMARK H PARENT 12 6 1 10 15 20 15 21
ROOT
ATOM     1   N2  UNL     1       1.680  -0.537   1.980  1.00  0.00    -0.201 N   
ATOM     2   C8  UNL     1       1.788   0.681   1.362  1.00  0.00     0.046 A   
ATOM     3   C9  UNL     1       0.721   0.717   0.496  1.00  0.00     0.127 A   
ATOM     4   N4  UNL     1       0.015  -0.453   0.603  1.00  0.00    -0.132 NA  
ATOM     5   N5  UNL     1       0.601  -1.206   1.517  1.00  0.00    -0.075 NA  
ATOM     6   H8  UNL     1       2.583   1.377   1.602  1.00  0.00     0.083 HD  
ENDROOT
BRANCH   1   7
ATOM     7   C2  UNL     1       2.549  -1.096   3.015  1.00  0.00     0.177 C   
BRANCH   7   8
ATOM     8   C1  UNL     1       1.892  -0.994   4.396  1.00  0.00     0.187 C   
BRANCH   8   9
ATOM     9   O1  UNL     1       1.922   0.365   4.847  1.00  0.00    -0.394 OA  
ATOM     10  H1  UNL     1       1.635   0.365   5.780  1.00  0.00     0.210 HD  
ENDBRANCH   8   9
ENDBRANCH   7   8
BRANCH   7  11
ATOM     11  C3  UNL     1       3.024  -2.472   2.608  1.00  0.00     0.101 A   
ATOM     12  N1  UNL     1       4.169  -2.519   1.867  1.00  0.00    -0.256 NA  
ATOM     13  C7  UNL     1       2.323  -3.629   2.942  1.00  0.00     0.146 A   
ATOM     14  C4  UNL     1       4.612  -3.738   1.479  1.00  0.00     0.111 A   
ATOM     15  C6  UNL     1       2.797  -4.866   2.526  1.00  0.00     0.043 A   
ATOM     16  C5  UNL     1       3.966  -4.925   1.780  1.00  0.00     0.023 A   
ATOM     17  F1  UNL     1       1.200  -3.573   3.670  1.00  0.00    -0.205 F   
ENDBRANCH   7  11
ENDBRANCH   1   7
BRANCH   3  18
ATOM     18  C10 UNL     1       0.275   1.750  -0.484  1.00  0.00     0.117 C   
BRANCH  18  19
ATOM     19  N3  UNL     1      -0.476   1.090  -1.610  1.00  0.00     0.249 N   
ATOM     20  H10 UNL     1      -1.118   1.731  -2.084  1.00  0.00     0.199 HD  
ATOM     21  H11 UNL     1      -1.065   0.364  -1.173  1.00  0.00     0.199 HD  
BRANCH  19  22
ATOM     22  C11 UNL     1       0.377   0.405  -2.620  1.00  0.00     0.164 C   
BRANCH  22  23
ATOM     23  C12 UNL     1      -0.475  -0.359  -3.591  1.00  0.00    -0.002 A   
ATOM     24  C13 UNL     1      -0.845   0.210  -4.831  1.00  0.00     0.012 A   
ATOM     25  C17 UNL     1      -0.957  -1.633  -3.241  1.00  0.00     0.045 A   
ATOM     26  C14 UNL     1      -1.679  -0.483  -5.718  1.00  0.00     0.037 A   
ATOM     27  C16 UNL     1      -1.779  -2.287  -4.137  1.00  0.00     0.109 A   
ATOM     28  C15 UNL     1      -2.129  -1.728  -5.341  1.00  0.00     0.108 A   
ATOM     29  O2  UNL     1      -2.332  -3.514  -3.955  1.00  0.00    -0.316 OA  
ATOM     30  O3  UNL     1      -2.944  -2.533  -6.071  1.00  0.00    -0.316 OA  
ATOM     31  C18 UNL     1      -3.074  -3.668  -5.185  1.00  0.00     0.337 C   
ENDBRANCH  22  23
ENDBRANCH  19  22
ENDBRANCH  18  19
BRANCH  18  32
ATOM     32  C19 UNL     1      -0.595   2.835   0.182  1.00  0.00     0.043 C   
ATOM     33  C20 UNL     1      -1.955   2.368   0.723  1.00  0.00     0.010 C   
ATOM     34  C23 UNL     1      -0.919   4.035  -0.730  1.00  0.00     0.010 C   
ATOM     35  C21 UNL     1      -2.770   3.651   0.778  1.00  0.00     0.001 C   
ATOM     36  C22 UNL     1      -2.403   4.340  -0.524  1.00  0.00     0.001 C   
ENDBRANCH  18  32
ENDBRANCH   3  18
TORSDOF 9
