REMARK SMILES OC[C@H](c1ncccc1F)n1cc([C@@H]([NH2+]Cc2ccc3c(c2)OCO3)C2CCCC2)nn1
REMARK SMILES IDX 11 1 12 2 13 3 31 4 32 5 3 7 2 8 1 9 4 11 5 12 9 13 6 14
REMARK SMILES IDX 8 15 7 16 10 17 14 18 15 19 16 22 17 23 18 24 22 25 19 26
REMARK SMILES IDX 21 27 20 28 23 29 25 30 24 31 26 32 27 33 30 34 28 35 29 36
REMARK H PARENT 12 6 1 10 15 20 15 21
ROOT
ATOM     1   N2  UNL     1      -2.927  -1.085   0.410  1.00  0.00    -0.201 N   
ATOM     2   C8  UNL     1      -1.870  -0.248   0.655  1.00  0.00     0.046 A   
ATOM     3   C9  UNL     1      -1.099  -0.335  -0.480  1.00  0.00     0.127 A   
ATOM     4   N4  UNL     1      -1.677  -1.223  -1.349  1.00  0.00    -0.132 NA  
ATOM     5   N5  UNL     1      -2.785  -1.683  -0.793  1.00  0.00    -0.075 NA  
ATOM     6   H8  UNL     1      -1.792   0.329   1.567  1.00  0.00     0.083 HD  
ENDROOT
BRANCH   1   7
ATOM     7   C2  UNL     1      -4.103  -1.354   1.230  1.00  0.00     0.177 C   
BRANCH   7   8
ATOM     8   C1  UNL     1      -5.042  -0.135   1.286  1.00  0.00     0.187 C   
BRANCH   8   9
ATOM     9   O1  UNL     1      -4.454   1.004   1.921  1.00  0.00    -0.394 OA  
ATOM     10  H1  UNL     1      -4.253   0.724   2.841  1.00  0.00     0.210 HD  
ENDBRANCH   8   9
ENDBRANCH   7   8
BRANCH   7  11
ATOM     11  C3  UNL     1      -3.691  -1.867   2.596  1.00  0.00     0.101 A   
ATOM     12  N1  UNL     1      -3.621  -0.981   3.633  1.00  0.00    -0.256 NA  
ATOM     13  C7  UNL     1      -3.362  -3.212   2.755  1.00  0.00     0.146 A   
ATOM     14  C4  UNL     1      -3.247  -1.467   4.842  1.00  0.00     0.111 A   
ATOM     15  C6  UNL     1      -2.974  -3.682   4.002  1.00  0.00     0.043 A   
ATOM     16  C5  UNL     1      -2.918  -2.794   5.071  1.00  0.00     0.023 A   
ATOM     17  F1  UNL     1      -3.411  -4.055   1.716  1.00  0.00    -0.205 F   
ENDBRANCH   7  11
ENDBRANCH   1   7
BRANCH   3  18
ATOM     18  C10 UNL     1       0.178   0.343  -0.855  1.00  0.00     0.117 C   
BRANCH  18  19
ATOM     19  N3  UNL     1       0.920  -0.480  -1.884  1.00  0.00     0.249 N   
ATOM     20  H10 UNL     1       0.206  -0.795  -2.557  1.00  0.00     0.199 HD  
ATOM     21  H11 UNL     1       1.591   0.092  -2.402  1.00  0.00     0.199 HD  
BRANCH  19  22
ATOM     22  C11 UNL     1       1.601  -1.706  -1.375  1.00  0.00     0.164 C   
BRANCH  22  23
ATOM     23  C12 UNL     1       2.805  -1.395  -0.529  1.00  0.00    -0.002 A   
ATOM     24  C13 UNL     1       3.995  -0.912  -1.125  1.00  0.00     0.012 A   
ATOM     25  C17 UNL     1       2.745  -1.552   0.866  1.00  0.00     0.045 A   
ATOM     26  C14 UNL     1       5.108  -0.585  -0.344  1.00  0.00     0.037 A   
ATOM     27  C16 UNL     1       3.860  -1.220   1.607  1.00  0.00     0.109 A   
ATOM     28  C15 UNL     1       5.008  -0.748   1.020  1.00  0.00     0.108 A   
ATOM     29  O2  UNL     1       3.965  -1.305   2.959  1.00  0.00    -0.316 OA  
ATOM     30  O3  UNL     1       5.981  -0.479   1.928  1.00  0.00    -0.316 OA  
ATOM     31  C18 UNL     1       5.326  -0.860   3.157  1.00  0.00     0.337 C   
ENDBRANCH  22  23
ENDBRANCH  19  22
ENDBRANCH  18  19
BRANCH  18  32
ATOM     32  C19 UNL     1      -0.066   1.769  -1.388  1.00  0.00     0.043 C   
ATOM     33  C20 UNL     1       1.214   2.609  -1.565  1.00  0.00     0.010 C   
ATOM     34  C23 UNL     1      -0.792   1.874  -2.735  1.00  0.00     0.010 C   
ATOM     35  C21 UNL     1       1.028   3.405  -2.857  1.00  0.00     0.001 C   
ATOM     36  C22 UNL     1      -0.448   3.280  -3.199  1.00  0.00     0.001 C   
ENDBRANCH  18  32
ENDBRANCH   3  18
TORSDOF 9
