REMARK SMILES CC(C)[C@H]([NH2+]Cc1ccc2c(c1)OCO2)c1cn(Cc2ccc(N([O-])[O-])cc2F)nn1
REMARK SMILES IDX 16 1 17 2 18 3 30 4 31 5 4 7 2 8 1 9 3 10 5 11 6 14 7 15
REMARK SMILES IDX 8 16 12 17 9 18 11 19 10 20 13 21 15 22 14 23 19 24 20 25
REMARK SMILES IDX 21 26 28 27 22 28 27 29 23 30 29 31 24 32 25 33 26 34
REMARK H PARENT 17 6 5 12 5 13
ROOT
ATOM     1   C13 UNL     1      -0.987  -0.850   0.851  1.00  0.00     0.127 A   
ATOM     2   C14 UNL     1      -1.028  -1.977   0.061  1.00  0.00     0.046 A   
ATOM     3   N2  UNL     1      -1.493  -1.519  -1.140  1.00  0.00    -0.208 N   
ATOM     4   N4  UNL     1      -1.747  -0.197  -1.087  1.00  0.00    -0.076 NA  
ATOM     5   N5  UNL     1      -1.432   0.226   0.126  1.00  0.00    -0.132 NA  
ATOM     6   H18 UNL     1      -0.760  -3.012   0.222  1.00  0.00     0.083 HD  
ENDROOT
BRANCH   1   7
ATOM     7   C4  UNL     1      -0.518  -0.644   2.255  1.00  0.00     0.117 C   
BRANCH   7   8
ATOM     8   C2  UNL     1      -1.647  -0.881   3.292  1.00  0.00     0.037 C   
ATOM     9   C1  UNL     1      -2.787   0.143   3.227  1.00  0.00     0.014 C   
ATOM     10  C3  UNL     1      -1.093  -0.953   4.720  1.00  0.00     0.014 C   
ENDBRANCH   7   8
BRANCH   7  11
ATOM     11  N1  UNL     1       0.063   0.743   2.408  1.00  0.00     0.249 N   
ATOM     12  H9  UNL     1      -0.377   1.317   1.670  1.00  0.00     0.199 HD  
ATOM     13  H10 UNL     1      -0.221   1.166   3.295  1.00  0.00     0.199 HD  
BRANCH  11  14
ATOM     14  C5  UNL     1       1.541   0.857   2.271  1.00  0.00     0.164 C   
BRANCH  14  15
ATOM     15  C6  UNL     1       2.049   0.606   0.879  1.00  0.00    -0.002 A   
ATOM     16  C7  UNL     1       2.657  -0.628   0.544  1.00  0.00     0.012 A   
ATOM     17  C11 UNL     1       1.913   1.597  -0.109  1.00  0.00     0.045 A   
ATOM     18  C8  UNL     1       3.126  -0.872  -0.752  1.00  0.00     0.037 A   
ATOM     19  C10 UNL     1       2.395   1.329  -1.373  1.00  0.00     0.109 A   
ATOM     20  C9  UNL     1       2.983   0.129  -1.687  1.00  0.00     0.108 A   
ATOM     21  O1  UNL     1       2.366   2.185  -2.428  1.00  0.00    -0.316 OA  
ATOM     22  O2  UNL     1       3.392   0.076  -2.981  1.00  0.00    -0.316 OA  
ATOM     23  C12 UNL     1       3.058   1.409  -3.431  1.00  0.00     0.337 C   
ENDBRANCH  14  15
ENDBRANCH  11  14
ENDBRANCH   7  11
ENDBRANCH   1   7
BRANCH   3  24
ATOM     24  C15 UNL     1      -1.719  -2.271  -2.362  1.00  0.00     0.172 C   
BRANCH  24  25
ATOM     25  C16 UNL     1      -0.514  -2.206  -3.262  1.00  0.00     0.007 A   
ATOM     26  C17 UNL     1      -0.443  -1.276  -4.309  1.00  0.00     0.010 A   
ATOM     27  C21 UNL     1       0.577  -3.054  -3.036  1.00  0.00     0.130 A   
ATOM     28  C18 UNL     1       0.699  -1.205  -5.112  1.00  0.00     0.032 A   
ATOM     29  C20 UNL     1       1.721  -3.001  -3.824  1.00  0.00     0.070 A   
ATOM     30  C19 UNL     1       1.778  -2.065  -4.859  1.00  0.00     0.121 A   
ATOM     31  F1  UNL     1       0.531  -3.929  -2.021  1.00  0.00    -0.207 F   
BRANCH  30  32
ATOM     32  N3  UNL     1       2.997  -1.953  -5.664  1.00  0.00     0.092 N   
ATOM     33  O3  UNL     1       3.808  -2.886  -5.606  1.00  0.00    -0.138 OA  
ATOM     34  O4  UNL     1       3.141  -0.925  -6.342  1.00  0.00    -0.138 OA  
ENDBRANCH  30  32
ENDBRANCH  24  25
ENDBRANCH   3  24
TORSDOF 8
