REMARK SMILES CC(C)[C@H]([NH2+]Cc1ccc2c(c1)OCO2)c1cn(CCCOc2c(F)c(F)cc(F)c2F)nn1
REMARK SMILES IDX 19 1 18 2 16 3 17 4 34 5 33 6 4 8 2 9 1 10 3 11 5 12 6 15
REMARK SMILES IDX 7 16 8 17 12 18 9 19 11 20 10 21 13 22 15 23 14 24 20 25
REMARK SMILES IDX 21 26 22 27 23 28 24 29 31 30 26 31 29 32 28 33 25 34 32 35
REMARK SMILES IDX 27 36 30 37
REMARK H PARENT 17 7 5 13 5 14
ROOT
ATOM     1   C15 UNL     1      -4.654   1.125   0.273  1.00  0.00     0.136 C   
ENDROOT
BRANCH   1   2
ATOM     2   N2  UNL     1      -3.720   0.109   0.705  1.00  0.00    -0.212 N   
ATOM     3   C13 UNL     1      -2.364  -1.568   0.864  1.00  0.00     0.127 A   
ATOM     4   C14 UNL     1      -3.352  -1.038   0.061  1.00  0.00     0.045 A   
ATOM     5   N4  UNL     1      -2.216  -0.771   1.967  1.00  0.00    -0.132 NA  
ATOM     6   N3  UNL     1      -3.044   0.253   1.857  1.00  0.00    -0.076 NA  
ATOM     7   H18 UNL     1      -3.768  -1.327  -0.894  1.00  0.00     0.083 HD  
BRANCH   3   8
ATOM     8   C4  UNL     1      -1.451  -2.736   0.635  1.00  0.00     0.117 C   
BRANCH   8   9
ATOM     9   C2  UNL     1      -1.813  -4.012   1.433  1.00  0.00     0.037 C   
ATOM     10  C1  UNL     1      -0.898  -5.191   1.075  1.00  0.00     0.014 C   
ATOM     11  C3  UNL     1      -3.268  -4.441   1.185  1.00  0.00     0.014 C   
ENDBRANCH   8   9
BRANCH   8  12
ATOM     12  N1  UNL     1      -0.015  -2.325   0.857  1.00  0.00     0.249 N   
ATOM     13  H9  UNL     1       0.626  -2.932   0.336  1.00  0.00     0.199 HD  
ATOM     14  H10 UNL     1       0.076  -1.402   0.403  1.00  0.00     0.199 HD  
BRANCH  12  15
ATOM     15  C5  UNL     1       0.474  -2.166   2.260  1.00  0.00     0.164 C   
BRANCH  15  16
ATOM     16  C6  UNL     1       1.515  -1.085   2.350  1.00  0.00    -0.002 A   
ATOM     17  C7  UNL     1       1.134   0.235   2.695  1.00  0.00     0.012 A   
ATOM     18  C11 UNL     1       2.858  -1.362   2.047  1.00  0.00     0.045 A   
ATOM     19  C8  UNL     1       2.078   1.266   2.747  1.00  0.00     0.037 A   
ATOM     20  C10 UNL     1       3.763  -0.322   2.106  1.00  0.00     0.109 A   
ATOM     21  C9  UNL     1       3.384   0.955   2.444  1.00  0.00     0.108 A   
ATOM     22  O1  UNL     1       5.092  -0.416   1.839  1.00  0.00    -0.316 OA  
ATOM     23  O2  UNL     1       4.426   1.827   2.425  1.00  0.00    -0.316 OA  
ATOM     24  C12 UNL     1       5.515   0.946   2.072  1.00  0.00     0.337 C   
ENDBRANCH  15  16
ENDBRANCH  12  15
ENDBRANCH   8  12
ENDBRANCH   3   8
ENDBRANCH   1   2
BRANCH   1  25
ATOM     25  C16 UNL     1      -4.263   1.844  -1.022  1.00  0.00     0.050 C   
BRANCH  25  26
ATOM     26  C17 UNL     1      -2.928   2.588  -0.939  1.00  0.00     0.170 C   
BRANCH  26  27
ATOM     27  O3  UNL     1      -1.867   1.631  -0.956  1.00  0.00    -0.340 OA  
BRANCH  27  28
ATOM     28  C18 UNL     1      -0.581   2.098  -0.937  1.00  0.00     0.153 A   
ATOM     29  C19 UNL     1      -0.168   3.432  -0.921  1.00  0.00     0.192 A   
ATOM     30  C23 UNL     1       0.407   1.108  -0.937  1.00  0.00     0.192 A   
ATOM     31  C20 UNL     1       1.193   3.753  -0.910  1.00  0.00     0.164 A   
ATOM     32  C22 UNL     1       1.761   1.438  -0.938  1.00  0.00     0.164 A   
ATOM     33  C21 UNL     1       2.167   2.763  -0.920  1.00  0.00     0.085 A   
ATOM     34  F1  UNL     1      -1.056   4.436  -0.911  1.00  0.00    -0.201 F   
ATOM     35  F4  UNL     1       0.060  -0.192  -0.905  1.00  0.00    -0.201 F   
ATOM     36  F2  UNL     1       1.570   5.037  -0.886  1.00  0.00    -0.204 F   
ATOM     37  F3  UNL     1       2.677   0.461  -0.940  1.00  0.00    -0.204 F   
ENDBRANCH  27  28
ENDBRANCH  26  27
ENDBRANCH  25  26
ENDBRANCH   1  25
TORSDOF 10
