REMARK SMILES Cc1ccc([C@H](CO)n2cc([C@H](CC(C)C)[NH2+]Cc3ccc4c(c3)OCO4)nn2)c(C)c1
REMARK SMILES IDX 9 1 10 2 11 3 28 4 29 5 6 7 5 8 2 9 3 10 32 11 4 12 30 13
REMARK SMILES IDX 1 14 31 15 7 16 8 17 12 19 13 20 14 21 15 22 16 23 17 24
REMARK SMILES IDX 18 27 19 28 20 29 24 30 21 31 23 32 22 33 25 34 27 35 26 36
REMARK H PARENT 10 6 8 18 17 25 17 26
ROOT
ATOM     1   N1  UNL     1       0.281   2.012   0.126  1.00  0.00    -0.202 N   
ATOM     2   C8  UNL     1       0.025   0.690  -0.124  1.00  0.00     0.046 A   
ATOM     3   C9  UNL     1      -1.306   0.661  -0.466  1.00  0.00     0.127 A   
ATOM     4   N3  UNL     1      -1.818   1.931  -0.402  1.00  0.00    -0.132 NA  
ATOM     5   N4  UNL     1      -0.843   2.748  -0.025  1.00  0.00    -0.075 NA  
ATOM     6   H10 UNL     1       0.783  -0.078  -0.033  1.00  0.00     0.083 HD  
ENDROOT
BRANCH   1   7
ATOM     7   C6  UNL     1       1.534   2.649   0.532  1.00  0.00     0.155 C   
BRANCH   7   8
ATOM     8   C5  UNL     1       2.717   2.076  -0.254  1.00  0.00    -0.020 A   
ATOM     9   C2  UNL     1       4.874   0.941  -1.708  1.00  0.00    -0.051 A   
ATOM     10  C3  UNL     1       4.563   0.477  -0.433  1.00  0.00     0.004 A   
ATOM     11  C25 UNL     1       4.097   1.962  -2.265  1.00  0.00     0.007 A   
ATOM     12  C4  UNL     1       3.506   1.040   0.285  1.00  0.00     0.006 A   
ATOM     13  C23 UNL     1       3.020   2.534  -1.560  1.00  0.00    -0.046 A   
ATOM     14  C1  UNL     1       5.994   0.328  -2.496  1.00  0.00     0.044 C   
ATOM     15  C24 UNL     1       2.240   3.634  -2.235  1.00  0.00     0.045 C   
ENDBRANCH   7   8
BRANCH   7  16
ATOM     16  C7  UNL     1       1.666   2.674   2.073  1.00  0.00     0.185 C   
BRANCH  16  17
ATOM     17  O1  UNL     1       1.471   1.393   2.678  1.00  0.00    -0.394 OA  
ATOM     18  H9  UNL     1       1.733   1.479   3.615  1.00  0.00     0.210 HD  
ENDBRANCH  16  17
ENDBRANCH   7  16
ENDBRANCH   1   7
BRANCH   3  19
ATOM     19  C10 UNL     1      -2.184  -0.497  -0.787  1.00  0.00     0.114 C   
BRANCH  19  20
ATOM     20  C11 UNL     1      -2.426  -0.662  -2.299  1.00  0.00     0.064 C   
BRANCH  20  21
ATOM     21  C12 UNL     1      -1.170  -0.999  -3.133  1.00  0.00    -0.012 C   
ATOM     22  C13 UNL     1      -1.551  -1.082  -4.616  1.00  0.00     0.007 C   
ATOM     23  C14 UNL     1      -0.506  -2.305  -2.694  1.00  0.00     0.007 C   
ENDBRANCH  20  21
ENDBRANCH  19  20
BRANCH  19  24
ATOM     24  N2  UNL     1      -3.545  -0.345  -0.137  1.00  0.00     0.249 N   
ATOM     25  H21 UNL     1      -4.151  -1.117  -0.430  1.00  0.00     0.199 HD  
ATOM     26  H22 UNL     1      -3.951   0.527  -0.501  1.00  0.00     0.199 HD  
BRANCH  24  27
ATOM     27  C15 UNL     1      -3.560  -0.259   1.357  1.00  0.00     0.164 C   
BRANCH  27  28
ATOM     28  C16 UNL     1      -2.910  -1.433   2.035  1.00  0.00    -0.002 A   
ATOM     29  C17 UNL     1      -1.710  -1.252   2.767  1.00  0.00     0.012 A   
ATOM     30  C21 UNL     1      -3.464  -2.722   1.924  1.00  0.00     0.045 A   
ATOM     31  C18 UNL     1      -1.064  -2.337   3.369  1.00  0.00     0.037 A   
ATOM     32  C20 UNL     1      -2.798  -3.770   2.526  1.00  0.00     0.109 A   
ATOM     33  C19 UNL     1      -1.633  -3.584   3.229  1.00  0.00     0.108 A   
ATOM     34  O2  UNL     1      -3.187  -5.072   2.497  1.00  0.00    -0.316 OA  
ATOM     35  O3  UNL     1      -1.141  -4.746   3.731  1.00  0.00    -0.316 OA  
ATOM     36  C22 UNL     1      -2.153  -5.684   3.305  1.00  0.00     0.337 C   
ENDBRANCH  27  28
ENDBRANCH  24  27
ENDBRANCH  19  24
ENDBRANCH   3  19
TORSDOF 10
