REMARK SMILES Cc1ccc([C@@H](CO)n2cc([C@H](CC(C)C)[NH2+]Cc3ccc4c(c3)OCO4)nn2)c(C)c1
REMARK SMILES IDX 9 1 10 2 11 3 28 4 29 5 6 7 5 8 2 9 3 10 32 11 4 12 30 13
REMARK SMILES IDX 1 14 31 15 7 16 8 17 12 19 13 20 14 21 15 22 16 23 17 24
REMARK SMILES IDX 18 27 19 28 20 29 24 30 21 31 23 32 22 33 25 34 27 35 26 36
REMARK H PARENT 10 6 8 18 17 25 17 26
ROOT
ATOM     1   N1  UNL     1       2.218   1.634   0.772  1.00  0.00    -0.202 N   
ATOM     2   C8  UNL     1       0.986   1.423   1.331  1.00  0.00     0.046 A   
ATOM     3   C9  UNL     1       1.070   0.159   1.862  1.00  0.00     0.127 A   
ATOM     4   N3  UNL     1       2.317  -0.354   1.615  1.00  0.00    -0.132 NA  
ATOM     5   N4  UNL     1       3.013   0.555   0.952  1.00  0.00    -0.075 NA  
ATOM     6   H10 UNL     1       0.204   2.170   1.300  1.00  0.00     0.083 HD  
ENDROOT
BRANCH   1   7
ATOM     7   C6  UNL     1       2.721   2.813   0.065  1.00  0.00     0.155 C   
BRANCH   7   8
ATOM     8   C5  UNL     1       1.707   3.303  -0.973  1.00  0.00    -0.020 A   
ATOM     9   C2  UNL     1      -0.234   4.191  -2.848  1.00  0.00    -0.051 A   
ATOM     10  C3  UNL     1      -0.070   4.853  -1.633  1.00  0.00     0.004 A   
ATOM     11  C25 UNL     1       0.585   3.094  -3.134  1.00  0.00     0.007 A   
ATOM     12  C4  UNL     1       0.879   4.410  -0.708  1.00  0.00     0.006 A   
ATOM     13  C23 UNL     1       1.552   2.640  -2.217  1.00  0.00    -0.046 A   
ATOM     14  C1  UNL     1      -1.230   4.681  -3.859  1.00  0.00     0.044 C   
ATOM     15  C24 UNL     1       2.380   1.441  -2.604  1.00  0.00     0.045 C   
ENDBRANCH   7   8
BRANCH   7  16
ATOM     16  C7  UNL     1       3.278   3.850   1.067  1.00  0.00     0.185 C   
BRANCH  16  17
ATOM     17  O1  UNL     1       2.330   4.244   2.061  1.00  0.00    -0.394 OA  
ATOM     18  H9  UNL     1       2.773   4.904   2.628  1.00  0.00     0.210 HD  
ENDBRANCH  16  17
ENDBRANCH   7  16
ENDBRANCH   1   7
BRANCH   3  19
ATOM     19  C10 UNL     1       0.060  -0.668   2.584  1.00  0.00     0.114 C   
BRANCH  19  20
ATOM     20  C11 UNL     1       0.010  -0.305   4.081  1.00  0.00     0.064 C   
BRANCH  20  21
ATOM     21  C12 UNL     1      -1.110  -0.989   4.894  1.00  0.00    -0.012 C   
ATOM     22  C13 UNL     1      -2.505  -0.604   4.401  1.00  0.00     0.007 C   
ATOM     23  C14 UNL     1      -0.969  -0.617   6.374  1.00  0.00     0.007 C   
ENDBRANCH  20  21
ENDBRANCH  19  20
BRANCH  19  24
ATOM     24  N2  UNL     1       0.413  -2.132   2.443  1.00  0.00     0.249 N   
ATOM     25  H21 UNL     1       0.460  -2.591   3.357  1.00  0.00     0.199 HD  
ATOM     26  H22 UNL     1       1.384  -2.151   2.088  1.00  0.00     0.199 HD  
BRANCH  24  27
ATOM     27  C15 UNL     1      -0.437  -2.926   1.519  1.00  0.00     0.164 C   
BRANCH  27  28
ATOM     28  C16 UNL     1      -0.293  -2.534   0.075  1.00  0.00    -0.002 A   
ATOM     29  C17 UNL     1      -1.347  -1.867  -0.598  1.00  0.00     0.012 A   
ATOM     30  C21 UNL     1       0.894  -2.822  -0.621  1.00  0.00     0.045 A   
ATOM     31  C18 UNL     1      -1.224  -1.496  -1.942  1.00  0.00     0.037 A   
ATOM     32  C20 UNL     1       0.981  -2.448  -1.946  1.00  0.00     0.109 A   
ATOM     33  C19 UNL     1      -0.048  -1.805  -2.589  1.00  0.00     0.108 A   
ATOM     34  O2  UNL     1       2.050  -2.660  -2.758  1.00  0.00    -0.316 OA  
ATOM     35  O3  UNL     1       0.241  -1.534  -3.888  1.00  0.00    -0.316 OA  
ATOM     36  C22 UNL     1       1.557  -2.120  -4.005  1.00  0.00     0.337 C   
ENDBRANCH  27  28
ENDBRANCH  24  27
ENDBRANCH  19  24
ENDBRANCH   3  19
TORSDOF 10
