REMARK SMILES Cc1ncccc1Cn1cc([C@@H]([NH2+]Cc2ccc3c(c2)OCO3)C(C)C)nn1
REMARK SMILES IDX 9 1 10 2 11 3 27 4 28 5 8 7 7 8 2 9 3 10 4 11 6 12 5 13 1 14
REMARK SMILES IDX 12 15 13 16 14 19 15 20 16 21 20 22 17 23 19 24 18 25 21 26
REMARK SMILES IDX 23 27 22 28 24 29 25 30 26 31
REMARK H PARENT 10 6 13 17 13 18
ROOT
ATOM     1   N2  UNL     1       0.543  -0.725   2.438  1.00  0.00    -0.208 N   
ATOM     2   C8  UNL     1       0.064  -1.885   1.891  1.00  0.00     0.046 A   
ATOM     3   C9  UNL     1       0.885  -2.106   0.807  1.00  0.00     0.127 A   
ATOM     4   N4  UNL     1       1.824  -1.109   0.743  1.00  0.00    -0.132 NA  
ATOM     5   N5  UNL     1       1.612  -0.277   1.750  1.00  0.00    -0.076 NA  
ATOM     6   H9  UNL     1      -0.788  -2.411   2.297  1.00  0.00     0.083 HD  
ENDROOT
BRANCH   1   7
ATOM     7   C7  UNL     1       0.091  -0.025   3.632  1.00  0.00     0.171 C   
BRANCH   7   8
ATOM     8   C6  UNL     1      -1.385   0.270   3.591  1.00  0.00    -0.007 A   
ATOM     9   C2  UNL     1      -1.926   1.323   2.841  1.00  0.00     0.042 A   
ATOM     10  N1  UNL     1      -3.260   1.558   2.780  1.00  0.00    -0.261 NA  
ATOM     11  C3  UNL     1      -4.083   0.760   3.491  1.00  0.00     0.111 A   
ATOM     12  C5  UNL     1      -2.276  -0.541   4.313  1.00  0.00     0.009 A   
ATOM     13  C4  UNL     1      -3.642  -0.292   4.267  1.00  0.00     0.020 A   
ATOM     14  C1  UNL     1      -1.066   2.285   2.072  1.00  0.00     0.067 C   
ENDBRANCH   7   8
ENDBRANCH   1   7
BRANCH   3  15
ATOM     15  C10 UNL     1       0.881  -3.179  -0.235  1.00  0.00     0.117 C   
BRANCH  15  16
ATOM     16  N3  UNL     1       1.507  -2.663  -1.511  1.00  0.00     0.249 N   
ATOM     17  H11 UNL     1       2.166  -3.340  -1.903  1.00  0.00     0.199 HD  
ATOM     18  H12 UNL     1       2.078  -1.847  -1.233  1.00  0.00     0.199 HD  
BRANCH  16  19
ATOM     19  C11 UNL     1       0.565  -2.228  -2.580  1.00  0.00     0.164 C   
BRANCH  19  20
ATOM     20  C12 UNL     1      -0.255  -1.024  -2.215  1.00  0.00    -0.002 A   
ATOM     21  C13 UNL     1       0.333   0.264  -2.210  1.00  0.00     0.012 A   
ATOM     22  C17 UNL     1      -1.605  -1.167  -1.848  1.00  0.00     0.045 A   
ATOM     23  C14 UNL     1      -0.410   1.393  -1.850  1.00  0.00     0.037 A   
ATOM     24  C16 UNL     1      -2.307  -0.035  -1.492  1.00  0.00     0.109 A   
ATOM     25  C15 UNL     1      -1.728   1.210  -1.496  1.00  0.00     0.108 A   
ATOM     26  O1  UNL     1      -3.608  -0.002  -1.104  1.00  0.00    -0.316 OA  
ATOM     27  O2  UNL     1      -2.592   2.186  -1.116  1.00  0.00    -0.316 OA  
ATOM     28  C18 UNL     1      -3.787   1.415  -0.865  1.00  0.00     0.337 C   
ENDBRANCH  19  20
ENDBRANCH  16  19
ENDBRANCH  15  16
BRANCH  15  29
ATOM     29  C19 UNL     1       1.603  -4.466   0.244  1.00  0.00     0.037 C   
ATOM     30  C20 UNL     1       3.107  -4.288   0.490  1.00  0.00     0.014 C   
ATOM     31  C21 UNL     1       1.368  -5.636  -0.719  1.00  0.00     0.014 C   
ENDBRANCH  15  29
ENDBRANCH   3  15
TORSDOF 7
