REMARK SMILES COc1cccc(-n2cc([C@@H]([NH2+]Cc3ccc4c(c3)OCO4)C(C)(C)C)nn2)c1C
REMARK SMILES IDX 8 1 9 2 10 3 27 4 28 5 7 6 3 7 4 8 29 9 5 10 6 11 30 12 2 13
REMARK SMILES IDX 1 14 11 15 12 16 13 19 14 20 15 21 19 22 16 23 18 24 17 25
REMARK SMILES IDX 20 26 22 27 21 28 23 29 24 30 25 31 26 32
REMARK H PARENT 12 17 12 18
ROOT
ATOM     1   N1  UNL     1       1.266   1.261   2.138  1.00  0.00    -0.180 N   
ATOM     2   C7  UNL     1       0.257   2.216   2.117  1.00  0.00     0.135 A   
ATOM     3   C8  UNL     1      -0.882   1.544   1.736  1.00  0.00     0.128 A   
ATOM     4   N3  UNL     1      -0.568   0.239   1.506  1.00  0.00    -0.131 NA  
ATOM     5   N4  UNL     1       0.723   0.084   1.737  1.00  0.00    -0.071 NA  
ENDROOT
BRANCH   1   6
ATOM     6   C6  UNL     1       2.643   1.424   2.489  1.00  0.00     0.063 A   
ATOM     7   C2  UNL     1       4.946   0.635   2.764  1.00  0.00     0.079 A   
ATOM     8   C3  UNL     1       5.321   1.899   3.224  1.00  0.00     0.034 A   
ATOM     9   C22 UNL     1       3.601   0.376   2.384  1.00  0.00     0.003 A   
ATOM     10  C4  UNL     1       4.382   2.917   3.323  1.00  0.00     0.005 A   
ATOM     11  C5  UNL     1       3.057   2.685   2.962  1.00  0.00     0.026 A   
ATOM     12  C23 UNL     1       3.255  -1.009   1.881  1.00  0.00     0.049 C   
BRANCH   7  13
ATOM     13  O1  UNL     1       5.823  -0.415   2.644  1.00  0.00    -0.349 OA  
ATOM     14  C1  UNL     1       7.171  -0.216   3.050  1.00  0.00     0.203 C   
ENDBRANCH   7  13
ENDBRANCH   1   6
BRANCH   3  15
ATOM     15  C9  UNL     1      -2.283   2.018   1.480  1.00  0.00     0.120 C   
BRANCH  15  16
ATOM     16  N2  UNL     1      -2.870   1.202   0.351  1.00  0.00     0.250 N   
ATOM     17  H9  UNL     1      -3.892   1.249   0.319  1.00  0.00     0.199 HD  
ATOM     18  H10 UNL     1      -2.637   0.217   0.547  1.00  0.00     0.199 HD  
BRANCH  16  19
ATOM     19  C10 UNL     1      -2.340   1.512  -1.008  1.00  0.00     0.164 C   
BRANCH  19  20
ATOM     20  C11 UNL     1      -2.937   0.585  -2.027  1.00  0.00    -0.002 A   
ATOM     21  C12 UNL     1      -4.056   0.985  -2.796  1.00  0.00     0.012 A   
ATOM     22  C16 UNL     1      -2.413  -0.710  -2.186  1.00  0.00     0.045 A   
ATOM     23  C13 UNL     1      -4.641   0.111  -3.718  1.00  0.00     0.037 A   
ATOM     24  C15 UNL     1      -3.017  -1.547  -3.102  1.00  0.00     0.109 A   
ATOM     25  C14 UNL     1      -4.099  -1.149  -3.847  1.00  0.00     0.108 A   
ATOM     26  O2  UNL     1      -2.640  -2.824  -3.374  1.00  0.00    -0.316 OA  
ATOM     27  O3  UNL     1      -4.538  -2.123  -4.684  1.00  0.00    -0.316 OA  
ATOM     28  C17 UNL     1      -3.599  -3.181  -4.395  1.00  0.00     0.337 C   
ENDBRANCH  19  20
ENDBRANCH  16  19
ENDBRANCH  15  16
BRANCH  15  29
ATOM     29  C18 UNL     1      -3.221   1.961   2.737  1.00  0.00     0.010 C   
ATOM     30  C19 UNL     1      -2.612   2.779   3.899  1.00  0.00     0.017 C   
ATOM     31  C20 UNL     1      -3.461   0.521   3.233  1.00  0.00     0.017 C   
ATOM     32  C21 UNL     1      -4.593   2.598   2.414  1.00  0.00     0.017 C   
ENDBRANCH  15  29
ENDBRANCH   3  15
TORSDOF 7
