REMARK SMILES COc1cccc(F)c1CCn1cc([C@@H]([NH2+]Cc2ccc3c(c2)OCO3)C2CCCC2)nn1
REMARK SMILES IDX 12 1 13 2 14 3 32 4 33 5 11 7 10 8 9 9 3 10 4 11 5 12 7 13
REMARK SMILES IDX 6 14 8 15 2 16 1 17 15 18 16 19 17 22 18 23 19 24 23 25
REMARK SMILES IDX 20 26 22 27 21 28 24 29 26 30 25 31 27 32 28 33 31 34 29 35
REMARK SMILES IDX 30 36
REMARK H PARENT 13 6 16 20 16 21
ROOT
ATOM     1   N1  UNL     1      -3.043   1.046  -0.261  1.00  0.00    -0.212 N   
ATOM     2   C10 UNL     1      -2.628  -0.230  -0.526  1.00  0.00     0.045 A   
ATOM     3   C11 UNL     1      -1.712  -0.490   0.468  1.00  0.00     0.127 A   
ATOM     4   N3  UNL     1      -1.645   0.588   1.314  1.00  0.00    -0.132 NA  
ATOM     5   N4  UNL     1      -2.463   1.520   0.857  1.00  0.00    -0.076 NA  
ATOM     6   H11 UNL     1      -2.963  -0.779  -1.394  1.00  0.00     0.083 HD  
ENDROOT
BRANCH   1   7
ATOM     7   C9  UNL     1      -3.904   1.889  -1.065  1.00  0.00     0.139 C   
BRANCH   7   8
ATOM     8   C8  UNL     1      -3.227   2.359  -2.353  1.00  0.00     0.063 C   
BRANCH   8   9
ATOM     9   C7  UNL     1      -2.083   3.319  -2.117  1.00  0.00     0.020 A   
ATOM     10  C2  UNL     1      -2.316   4.683  -1.861  1.00  0.00     0.081 A   
ATOM     11  C3  UNL     1      -1.231   5.542  -1.650  1.00  0.00     0.034 A   
ATOM     12  C4  UNL     1       0.080   5.054  -1.683  1.00  0.00     0.006 A   
ATOM     13  C6  UNL     1      -0.763   2.851  -2.128  1.00  0.00     0.129 A   
ATOM     14  C5  UNL     1       0.314   3.704  -1.920  1.00  0.00     0.040 A   
ATOM     15  F1  UNL     1      -0.515   1.546  -2.326  1.00  0.00    -0.207 F   
BRANCH  10  16
ATOM     16  O1  UNL     1      -3.632   5.063  -1.833  1.00  0.00    -0.349 OA  
ATOM     17  C1  UNL     1      -3.912   6.441  -1.608  1.00  0.00     0.203 C   
ENDBRANCH  10  16
ENDBRANCH   8   9
ENDBRANCH   7   8
ENDBRANCH   1   7
BRANCH   3  18
ATOM     18  C12 UNL     1      -0.776  -1.635   0.676  1.00  0.00     0.117 C   
BRANCH  18  19
ATOM     19  N2  UNL     1       0.529  -1.111   1.212  1.00  0.00     0.249 N   
ATOM     20  H13 UNL     1       0.284  -0.431   1.948  1.00  0.00     0.199 HD  
ATOM     21  H14 UNL     1       1.092  -1.835   1.665  1.00  0.00     0.199 HD  
BRANCH  19  22
ATOM     22  C13 UNL     1       1.368  -0.381   0.219  1.00  0.00     0.164 C   
BRANCH  22  23
ATOM     23  C14 UNL     1       2.514   0.306   0.905  1.00  0.00    -0.002 A   
ATOM     24  C15 UNL     1       2.330   1.595   1.463  1.00  0.00     0.012 A   
ATOM     25  C19 UNL     1       3.751  -0.344   1.049  1.00  0.00     0.045 A   
ATOM     26  C16 UNL     1       3.368   2.235   2.149  1.00  0.00     0.037 A   
ATOM     27  C18 UNL     1       4.753   0.316   1.730  1.00  0.00     0.109 A   
ATOM     28  C17 UNL     1       4.568   1.568   2.265  1.00  0.00     0.108 A   
ATOM     29  O2  UNL     1       6.001  -0.168   1.959  1.00  0.00    -0.316 OA  
ATOM     30  O3  UNL     1       5.677   2.029   2.898  1.00  0.00    -0.316 OA  
ATOM     31  C20 UNL     1       6.592   0.933   2.688  1.00  0.00     0.337 C   
ENDBRANCH  22  23
ENDBRANCH  19  22
ENDBRANCH  18  19
BRANCH  18  32
ATOM     32  C21 UNL     1      -1.373  -2.702   1.611  1.00  0.00     0.043 C   
ATOM     33  C22 UNL     1      -0.574  -4.007   1.682  1.00  0.00     0.010 C   
ATOM     34  C25 UNL     1      -1.502  -2.323   3.088  1.00  0.00     0.010 C   
ATOM     35  C23 UNL     1      -1.115  -4.723   2.918  1.00  0.00     0.001 C   
ATOM     36  C24 UNL     1      -1.801  -3.654   3.769  1.00  0.00     0.001 C   
ENDBRANCH  18  32
ENDBRANCH   3  18
TORSDOF 9
