REMARK SMILES CC(C)[C@H]([NH2+]Cc1ccc2c(c1)OCO2)c1cn(CCc2cncc(F)c2)nn1
REMARK SMILES IDX 16 1 17 2 18 3 28 4 29 5 4 7 2 8 1 9 3 10 5 11 6 14 7 15
REMARK SMILES IDX 8 16 12 17 9 18 11 19 10 20 13 21 15 22 14 23 19 24 20 25
REMARK SMILES IDX 21 26 22 27 27 28 23 29 25 30 24 31 26 32
REMARK H PARENT 17 6 5 12 5 13
ROOT
ATOM     1   C13 UNL     1      -2.322  -0.720   1.161  1.00  0.00     0.127 A   
ATOM     2   C14 UNL     1      -2.843  -1.855   0.575  1.00  0.00     0.045 A   
ATOM     3   N2  UNL     1      -2.447  -2.870   1.406  1.00  0.00    -0.212 N   
ATOM     4   N4  UNL     1      -1.872  -2.379   2.517  1.00  0.00    -0.076 NA  
ATOM     5   N5  UNL     1      -1.801  -1.063   2.383  1.00  0.00    -0.132 NA  
ATOM     6   H18 UNL     1      -3.312  -2.051  -0.378  1.00  0.00     0.083 HD  
ENDROOT
BRANCH   1   7
ATOM     7   C4  UNL     1      -2.140   0.680   0.655  1.00  0.00     0.117 C   
BRANCH   7   8
ATOM     8   C2  UNL     1      -3.040   1.048  -0.558  1.00  0.00     0.037 C   
ATOM     9   C1  UNL     1      -3.244   2.567  -0.649  1.00  0.00     0.014 C   
ATOM     10  C3  UNL     1      -2.533   0.534  -1.912  1.00  0.00     0.014 C   
ENDBRANCH   7   8
BRANCH   7  11
ATOM     11  N1  UNL     1      -0.693   0.958   0.325  1.00  0.00     0.249 N   
ATOM     12  H9  UNL     1      -0.606   1.749  -0.316  1.00  0.00     0.199 HD  
ATOM     13  H10 UNL     1      -0.286   0.144  -0.177  1.00  0.00     0.199 HD  
BRANCH  11  14
ATOM     14  C5  UNL     1       0.195   1.220   1.496  1.00  0.00     0.164 C   
BRANCH  14  15
ATOM     15  C6  UNL     1       1.494   1.831   1.048  1.00  0.00    -0.002 A   
ATOM     16  C7  UNL     1       1.615   3.237   0.911  1.00  0.00     0.012 A   
ATOM     17  C11 UNL     1       2.585   1.010   0.717  1.00  0.00     0.045 A   
ATOM     18  C8  UNL     1       2.801   3.814   0.451  1.00  0.00     0.037 A   
ATOM     19  C10 UNL     1       3.742   1.614   0.272  1.00  0.00     0.109 A   
ATOM     20  C9  UNL     1       3.845   2.975   0.136  1.00  0.00     0.108 A   
ATOM     21  O1  UNL     1       4.881   0.967  -0.088  1.00  0.00    -0.316 OA  
ATOM     22  O2  UNL     1       5.066   3.358  -0.321  1.00  0.00    -0.316 OA  
ATOM     23  C12 UNL     1       5.730   2.083  -0.444  1.00  0.00     0.337 C   
ENDBRANCH  14  15
ENDBRANCH  11  14
ENDBRANCH   7  11
ENDBRANCH   1   7
BRANCH   3  24
ATOM     24  C15 UNL     1      -2.255  -4.260   1.036  1.00  0.00     0.139 C   
BRANCH  24  25
ATOM     25  C16 UNL     1      -0.792  -4.578   0.661  1.00  0.00     0.058 C   
BRANCH  25  26
ATOM     26  C17 UNL     1      -0.234  -3.635  -0.382  1.00  0.00    -0.025 A   
ATOM     27  C18 UNL     1       0.384  -2.443   0.005  1.00  0.00     0.115 A   
ATOM     28  C21 UNL     1      -0.422  -3.850  -1.748  1.00  0.00     0.046 A   
ATOM     29  N3  UNL     1       0.706  -1.428  -0.841  1.00  0.00    -0.261 NA  
ATOM     30  C20 UNL     1      -0.000  -2.880  -2.648  1.00  0.00     0.141 A   
ATOM     31  C19 UNL     1       0.549  -1.703  -2.163  1.00  0.00     0.150 A   
ATOM     32  F1  UNL     1      -0.168  -3.062  -3.963  1.00  0.00    -0.205 F   
ENDBRANCH  25  26
ENDBRANCH  24  25
ENDBRANCH   3  24
TORSDOF 8
