REMARK SMILES COc1cccc([C@@H](O)Cn2cc([C@@H]([NH2+]Cc3ccc4c(c3)OCO4)C(C)C)nn2)c1
REMARK SMILES IDX 11 1 12 2 13 3 29 4 30 5 10 7 8 8 7 9 3 10 4 11 31 12 5 13
REMARK SMILES IDX 6 14 2 15 1 16 9 17 14 19 15 20 16 23 17 24 18 25 22 26
REMARK SMILES IDX 19 27 21 28 20 29 23 30 25 31 24 32 26 33 27 34 28 35
REMARK H PARENT 12 6 9 18 15 21 15 22
ROOT
ATOM     1   N1  UNL     1       2.772  -2.167  -1.571  1.00  0.00    -0.209 N   
ATOM     2   C9  UNL     1       1.707  -2.988  -1.322  1.00  0.00     0.045 A   
ATOM     3   C10 UNL     1       0.628  -2.269  -1.784  1.00  0.00     0.127 A   
ATOM     4   N3  UNL     1       1.073  -1.123  -2.389  1.00  0.00    -0.132 NA  
ATOM     5   N4  UNL     1       2.391  -1.085  -2.277  1.00  0.00    -0.076 NA  
ATOM     6   H11 UNL     1       1.808  -3.906  -0.757  1.00  0.00     0.083 HD  
ENDROOT
BRANCH   1   7
ATOM     7   C8  UNL     1       4.111  -2.241  -1.019  1.00  0.00     0.170 C   
BRANCH   7   8
ATOM     8   C7  UNL     1       4.151  -2.059   0.513  1.00  0.00     0.164 C   
BRANCH   8   9
ATOM     9   C6  UNL     1       3.308  -0.899   1.010  1.00  0.00    -0.015 A   
ATOM     10  C2  UNL     1       1.190  -0.013   1.831  1.00  0.00     0.075 A   
ATOM     11  C3  UNL     1       1.674   1.286   1.701  1.00  0.00     0.033 A   
ATOM     12  C23 UNL     1       2.001  -1.096   1.492  1.00  0.00     0.040 A   
ATOM     13  C4  UNL     1       2.976   1.497   1.248  1.00  0.00     0.003 A   
ATOM     14  C5  UNL     1       3.788   0.413   0.904  1.00  0.00     0.006 A   
BRANCH  10  15
ATOM     15  O1  UNL     1      -0.093  -0.305   2.213  1.00  0.00    -0.349 OA  
ATOM     16  C1  UNL     1      -0.459   0.382   3.417  1.00  0.00     0.203 C   
ENDBRANCH  10  15
ENDBRANCH   8   9
BRANCH   8  17
ATOM     17  O2  UNL     1       3.740  -3.278   1.144  1.00  0.00    -0.387 OA  
ATOM     18  H8  UNL     1       4.169  -3.295   2.022  1.00  0.00     0.211 HD  
ENDBRANCH   8  17
ENDBRANCH   7   8
ENDBRANCH   1   7
BRANCH   3  19
ATOM     19  C11 UNL     1      -0.837  -2.479  -1.595  1.00  0.00     0.117 C   
BRANCH  19  20
ATOM     20  N2  UNL     1      -1.413  -1.178  -1.102  1.00  0.00     0.249 N   
ATOM     21  H13 UNL     1      -0.869  -0.896  -0.268  1.00  0.00     0.199 HD  
ATOM     22  H14 UNL     1      -1.172  -0.444  -1.786  1.00  0.00     0.199 HD  
BRANCH  20  23
ATOM     23  C12 UNL     1      -2.849  -1.131  -0.752  1.00  0.00     0.164 C   
BRANCH  23  24
ATOM     24  C13 UNL     1      -3.224   0.215  -0.197  1.00  0.00    -0.002 A   
ATOM     25  C14 UNL     1      -3.462   1.306  -1.067  1.00  0.00     0.012 A   
ATOM     26  C18 UNL     1      -3.294   0.411   1.194  1.00  0.00     0.045 A   
ATOM     27  C15 UNL     1      -3.769   2.575  -0.563  1.00  0.00     0.037 A   
ATOM     28  C17 UNL     1      -3.592   1.676   1.657  1.00  0.00     0.109 A   
ATOM     29  C16 UNL     1      -3.824   2.728   0.804  1.00  0.00     0.108 A   
ATOM     30  O3  UNL     1      -3.682   2.037   2.963  1.00  0.00    -0.316 OA  
ATOM     31  O4  UNL     1      -4.097   3.882   1.464  1.00  0.00    -0.316 OA  
ATOM     32  C19 UNL     1      -3.994   3.444   2.838  1.00  0.00     0.337 C   
ENDBRANCH  23  24
ENDBRANCH  20  23
ENDBRANCH  19  20
BRANCH  19  33
ATOM     33  C20 UNL     1      -1.567  -2.997  -2.860  1.00  0.00     0.037 C   
ATOM     34  C21 UNL     1      -1.593  -2.014  -4.035  1.00  0.00     0.014 C   
ATOM     35  C22 UNL     1      -0.994  -4.341  -3.327  1.00  0.00     0.014 C   
ENDBRANCH  19  33
ENDBRANCH   3  19
TORSDOF 10
