REMARK SMILES COc1cccc([C@H](O)Cn2cc([C@@H]([NH2+]Cc3ccc4c(c3)OCO4)C(C)C)nn2)c1
REMARK SMILES IDX 11 1 12 2 13 3 29 4 30 5 10 7 8 8 7 9 3 10 4 11 31 12 5 13
REMARK SMILES IDX 6 14 2 15 1 16 9 17 14 19 15 20 16 23 17 24 18 25 22 26
REMARK SMILES IDX 19 27 21 28 20 29 23 30 25 31 24 32 26 33 27 34 28 35
REMARK H PARENT 12 6 9 18 15 21 15 22
ROOT
ATOM     1   N1  UNL     1      -2.522   0.607  -3.099  1.00  0.00    -0.209 N   
ATOM     2   C9  UNL     1      -2.570  -0.246  -2.034  1.00  0.00     0.045 A   
ATOM     3   C10 UNL     1      -2.354   0.572  -0.947  1.00  0.00     0.127 A   
ATOM     4   N3  UNL     1      -2.215   1.867  -1.378  1.00  0.00    -0.132 NA  
ATOM     5   N4  UNL     1      -2.332   1.878  -2.695  1.00  0.00    -0.076 NA  
ATOM     6   H11 UNL     1      -2.691  -1.315  -2.148  1.00  0.00     0.083 HD  
ENDROOT
BRANCH   1   7
ATOM     7   C8  UNL     1      -2.522   0.287  -4.514  1.00  0.00     0.170 C   
BRANCH   7   8
ATOM     8   C7  UNL     1      -1.143   0.493  -5.165  1.00  0.00     0.164 C   
BRANCH   8   9
ATOM     9   C6  UNL     1      -0.044  -0.323  -4.509  1.00  0.00    -0.015 A   
ATOM     10  C2  UNL     1       1.780  -0.542  -2.899  1.00  0.00     0.075 A   
ATOM     11  C3  UNL     1       1.923  -1.885  -3.240  1.00  0.00     0.033 A   
ATOM     12  C23 UNL     1       0.798   0.228  -3.528  1.00  0.00     0.040 A   
ATOM     13  C4  UNL     1       1.097  -2.448  -4.216  1.00  0.00     0.003 A   
ATOM     14  C5  UNL     1       0.120  -1.674  -4.845  1.00  0.00     0.006 A   
BRANCH  10  15
ATOM     15  O1  UNL     1       2.502   0.108  -1.933  1.00  0.00    -0.349 OA  
ATOM     16  C1  UNL     1       3.789  -0.442  -1.657  1.00  0.00     0.203 C   
ENDBRANCH  10  15
ENDBRANCH   8   9
BRANCH   8  17
ATOM     17  O2  UNL     1      -0.778   1.873  -5.237  1.00  0.00    -0.387 OA  
ATOM     18  H8  UNL     1      -1.178   2.344  -4.482  1.00  0.00     0.211 HD  
ENDBRANCH   8  17
ENDBRANCH   7   8
ENDBRANCH   1   7
BRANCH   3  19
ATOM     19  C11 UNL     1      -2.162   0.253   0.501  1.00  0.00     0.117 C   
BRANCH  19  20
ATOM     20  N2  UNL     1      -1.085   1.135   1.084  1.00  0.00     0.249 N   
ATOM     21  H13 UNL     1      -1.290   2.090   0.754  1.00  0.00     0.199 HD  
ATOM     22  H14 UNL     1      -1.130   1.151   2.106  1.00  0.00     0.199 HD  
BRANCH  20  23
ATOM     23  C12 UNL     1       0.314   0.817   0.663  1.00  0.00     0.164 C   
BRANCH  23  24
ATOM     24  C13 UNL     1       0.850  -0.411   1.346  1.00  0.00    -0.002 A   
ATOM     25  C14 UNL     1       1.295  -0.346   2.688  1.00  0.00     0.012 A   
ATOM     26  C18 UNL     1       0.885  -1.641   0.667  1.00  0.00     0.045 A   
ATOM     27  C15 UNL     1       1.768  -1.488   3.345  1.00  0.00     0.037 A   
ATOM     28  C17 UNL     1       1.358  -2.746   1.341  1.00  0.00     0.109 A   
ATOM     29  C16 UNL     1       1.786  -2.672   2.643  1.00  0.00     0.108 A   
ATOM     30  O3  UNL     1       1.458  -4.001   0.830  1.00  0.00    -0.316 OA  
ATOM     31  O4  UNL     1       2.211  -3.872   3.117  1.00  0.00    -0.316 OA  
ATOM     32  C19 UNL     1       2.020  -4.711   1.958  1.00  0.00     0.337 C   
ENDBRANCH  23  24
ENDBRANCH  20  23
ENDBRANCH  19  20
BRANCH  19  33
ATOM     33  C20 UNL     1      -3.474   0.385   1.318  1.00  0.00     0.037 C   
ATOM     34  C21 UNL     1      -3.976   1.824   1.477  1.00  0.00     0.014 C   
ATOM     35  C22 UNL     1      -3.342  -0.270   2.699  1.00  0.00     0.014 C   
ENDBRANCH  19  33
ENDBRANCH   3  19
TORSDOF 10
