REMARK SMILES Cc1ccc([C@H](CO)n2cc([C@@H]([NH2+]Cc3ccc4c(c3)OCO4)C(C)(C)C)nn2)c(C)c1
REMARK SMILES IDX 9 1 10 2 11 3 28 4 29 5 6 7 5 8 2 9 3 10 32 11 4 12 30 13
REMARK SMILES IDX 1 14 31 15 7 16 8 17 12 19 13 20 14 23 15 24 16 25 20 26
REMARK SMILES IDX 17 27 19 28 18 29 21 30 23 31 22 32 24 33 25 34 26 35 27 36
REMARK H PARENT 10 6 8 18 13 21 13 22
ROOT
ATOM     1   N1  UNL     1       0.963  -1.428  -0.170  1.00  0.00    -0.202 N   
ATOM     2   C8  UNL     1       1.164  -0.079  -0.292  1.00  0.00     0.046 A   
ATOM     3   C9  UNL     1      -0.103   0.443  -0.412  1.00  0.00     0.127 A   
ATOM     4   N3  UNL     1      -1.013  -0.584  -0.416  1.00  0.00    -0.132 NA  
ATOM     5   N4  UNL     1      -0.351  -1.722  -0.280  1.00  0.00    -0.075 NA  
ATOM     6   H10 UNL     1       2.152   0.360  -0.269  1.00  0.00     0.083 HD  
ENDROOT
BRANCH   1   7
ATOM     7   C6  UNL     1       1.943  -2.495   0.038  1.00  0.00     0.155 C   
BRANCH   7   8
ATOM     8   C5  UNL     1       2.953  -2.108   1.123  1.00  0.00    -0.020 A   
ATOM     9   C2  UNL     1       4.825  -1.325   3.110  1.00  0.00    -0.051 A   
ATOM     10  C3  UNL     1       5.160  -1.263   1.759  1.00  0.00     0.004 A   
ATOM     11  C25 UNL     1       3.558  -1.795   3.469  1.00  0.00     0.007 A   
ATOM     12  C4  UNL     1       4.237  -1.642   0.781  1.00  0.00     0.006 A   
ATOM     13  C23 UNL     1       2.615  -2.180   2.498  1.00  0.00    -0.046 A   
ATOM     14  C1  UNL     1       5.828  -0.956   4.162  1.00  0.00     0.044 C   
ATOM     15  C24 UNL     1       1.272  -2.670   2.977  1.00  0.00     0.045 C   
ENDBRANCH   7   8
BRANCH   7  16
ATOM     16  C7  UNL     1       2.503  -2.990  -1.313  1.00  0.00     0.185 C   
BRANCH  16  17
ATOM     17  O1  UNL     1       3.053  -1.943  -2.116  1.00  0.00    -0.394 OA  
ATOM     18  H9  UNL     1       3.441  -2.368  -2.905  1.00  0.00     0.210 HD  
ENDBRANCH  16  17
ENDBRANCH   7  16
ENDBRANCH   1   7
BRANCH   3  19
ATOM     19  C10 UNL     1      -0.574   1.851  -0.604  1.00  0.00     0.120 C   
BRANCH  19  20
ATOM     20  N2  UNL     1      -1.778   1.835  -1.516  1.00  0.00     0.250 N   
ATOM     21  H12 UNL     1      -2.336   2.689  -1.450  1.00  0.00     0.199 HD  
ATOM     22  H13 UNL     1      -2.384   1.069  -1.185  1.00  0.00     0.199 HD  
BRANCH  20  23
ATOM     23  C11 UNL     1      -1.481   1.567  -2.951  1.00  0.00     0.164 C   
BRANCH  23  24
ATOM     24  C12 UNL     1      -2.755   1.499  -3.745  1.00  0.00    -0.002 A   
ATOM     25  C13 UNL     1      -3.256   2.649  -4.399  1.00  0.00     0.012 A   
ATOM     26  C17 UNL     1      -3.487   0.299  -3.793  1.00  0.00     0.045 A   
ATOM     27  C14 UNL     1      -4.465   2.604  -5.103  1.00  0.00     0.037 A   
ATOM     28  C16 UNL     1      -4.674   0.290  -4.495  1.00  0.00     0.109 A   
ATOM     29  C15 UNL     1      -5.150   1.409  -5.131  1.00  0.00     0.108 A   
ATOM     30  O2  UNL     1      -5.499  -0.780  -4.639  1.00  0.00    -0.316 OA  
ATOM     31  O3  UNL     1      -6.333   1.186  -5.758  1.00  0.00    -0.316 OA  
ATOM     32  C18 UNL     1      -6.546  -0.210  -5.458  1.00  0.00     0.337 C   
ENDBRANCH  23  24
ENDBRANCH  20  23
ENDBRANCH  19  20
BRANCH  19  33
ATOM     33  C19 UNL     1      -0.911   2.601   0.733  1.00  0.00     0.010 C   
ATOM     34  C20 UNL     1      -1.250   4.083   0.447  1.00  0.00     0.017 C   
ATOM     35  C21 UNL     1       0.316   2.596   1.673  1.00  0.00     0.017 C   
ATOM     36  C22 UNL     1      -2.100   1.970   1.486  1.00  0.00     0.017 C   
ENDBRANCH  19  33
ENDBRANCH   3  19
TORSDOF 9
