REMARK SMILES Cc1ccc([C@@H](CO)n2cc([C@@H]([NH2+]Cc3ccc4c(c3)OCO4)C(C)(C)C)nn2)c(C)c1
REMARK SMILES IDX 9 1 10 2 11 3 28 4 29 5 6 7 5 8 2 9 3 10 32 11 4 12 30 13
REMARK SMILES IDX 1 14 31 15 7 16 8 17 12 19 13 20 14 23 15 24 16 25 20 26
REMARK SMILES IDX 17 27 19 28 18 29 21 30 23 31 22 32 24 33 25 34 26 35 27 36
REMARK H PARENT 10 6 8 18 13 21 13 22
ROOT
ATOM     1   N1  UNL     1       1.262   0.235  -1.935  1.00  0.00    -0.202 N   
ATOM     2   C8  UNL     1       0.998   0.335  -0.596  1.00  0.00     0.046 A   
ATOM     3   C9  UNL     1       1.834  -0.589  -0.015  1.00  0.00     0.127 A   
ATOM     4   N3  UNL     1       2.588  -1.189  -0.990  1.00  0.00    -0.132 NA  
ATOM     5   N4  UNL     1       2.236  -0.674  -2.158  1.00  0.00    -0.075 NA  
ATOM     6   H10 UNL     1       0.238   0.998  -0.206  1.00  0.00     0.083 HD  
ENDROOT
BRANCH   1   7
ATOM     7   C6  UNL     1       0.563   0.868  -3.055  1.00  0.00     0.155 C   
BRANCH   7   8
ATOM     8   C5  UNL     1      -0.935   0.542  -2.987  1.00  0.00    -0.020 A   
ATOM     9   C2  UNL     1      -3.695  -0.080  -2.729  1.00  0.00    -0.051 A   
ATOM     10  C3  UNL     1      -3.193   1.125  -2.241  1.00  0.00     0.004 A   
ATOM     11  C25 UNL     1      -2.821  -0.964  -3.368  1.00  0.00     0.007 A   
ATOM     12  C4  UNL     1      -1.835   1.427  -2.363  1.00  0.00     0.006 A   
ATOM     13  C23 UNL     1      -1.449  -0.675  -3.500  1.00  0.00    -0.046 A   
ATOM     14  C1  UNL     1      -5.159  -0.392  -2.635  1.00  0.00     0.044 C   
ATOM     15  C24 UNL     1      -0.582  -1.691  -4.201  1.00  0.00     0.045 C   
ENDBRANCH   7   8
BRANCH   7  16
ATOM     16  C7  UNL     1       0.965   2.352  -3.204  1.00  0.00     0.185 C   
BRANCH  16  17
ATOM     17  O1  UNL     1       0.767   3.120  -2.016  1.00  0.00    -0.394 OA  
ATOM     18  H9  UNL     1       1.038   4.034  -2.222  1.00  0.00     0.210 HD  
ENDBRANCH  16  17
ENDBRANCH   7  16
ENDBRANCH   1   7
BRANCH   3  19
ATOM     19  C10 UNL     1       1.908  -1.064   1.400  1.00  0.00     0.120 C   
BRANCH  19  20
ATOM     20  N2  UNL     1       1.965  -2.580   1.429  1.00  0.00     0.250 N   
ATOM     21  H12 UNL     1       2.068  -2.917   2.388  1.00  0.00     0.199 HD  
ATOM     22  H13 UNL     1       2.808  -2.854   0.908  1.00  0.00     0.199 HD  
BRANCH  20  23
ATOM     23  C11 UNL     1       0.820  -3.307   0.792  1.00  0.00     0.164 C   
BRANCH  23  24
ATOM     24  C12 UNL     1      -0.523  -2.953   1.369  1.00  0.00    -0.002 A   
ATOM     25  C13 UNL     1      -1.460  -2.230   0.591  1.00  0.00     0.012 A   
ATOM     26  C17 UNL     1      -0.851  -3.314   2.687  1.00  0.00     0.045 A   
ATOM     27  C14 UNL     1      -2.701  -1.859   1.118  1.00  0.00     0.037 A   
ATOM     28  C16 UNL     1      -2.084  -2.932   3.175  1.00  0.00     0.109 A   
ATOM     29  C15 UNL     1      -2.983  -2.225   2.415  1.00  0.00     0.108 A   
ATOM     30  O2  UNL     1      -2.551  -3.192   4.425  1.00  0.00    -0.316 OA  
ATOM     31  O3  UNL     1      -4.130  -1.953   3.089  1.00  0.00    -0.316 OA  
ATOM     32  C18 UNL     1      -3.864  -2.591   4.357  1.00  0.00     0.337 C   
ENDBRANCH  23  24
ENDBRANCH  20  23
ENDBRANCH  19  20
BRANCH  19  33
ATOM     33  C19 UNL     1       3.097  -0.452   2.224  1.00  0.00     0.010 C   
ATOM     34  C20 UNL     1       4.482  -0.860   1.683  1.00  0.00     0.017 C   
ATOM     35  C21 UNL     1       3.006   1.091   2.209  1.00  0.00     0.017 C   
ATOM     36  C22 UNL     1       3.010  -0.896   3.703  1.00  0.00     0.017 C   
ENDBRANCH  19  33
ENDBRANCH   3  19
TORSDOF 9
