REMARK SMILES CC(C)C[C@H]([NH2+]Cc1ccc2c(c1)OCO2)c1cn(Cc2ncoc2C2CC2)nn1
REMARK SMILES IDX 17 1 18 2 19 3 29 4 30 5 5 7 4 8 2 9 1 10 3 11 6 12 7 15
REMARK SMILES IDX 8 16 9 17 13 18 10 19 12 20 11 21 14 22 16 23 15 24 20 25
REMARK SMILES IDX 21 26 22 27 25 28 23 29 24 30 26 31 27 32 28 33
REMARK H PARENT 18 6 6 13 6 14
ROOT
ATOM     1   C14 UNL     1      -1.514  -0.356   0.836  1.00  0.00     0.127 A   
ATOM     2   C15 UNL     1      -1.687  -1.476   0.056  1.00  0.00     0.046 A   
ATOM     3   N2  UNL     1      -2.522  -1.058  -0.944  1.00  0.00    -0.206 N   
ATOM     4   N4  UNL     1      -2.873   0.232  -0.766  1.00  0.00    -0.076 NA  
ATOM     5   N5  UNL     1      -2.262   0.671   0.322  1.00  0.00    -0.132 NA  
ATOM     6   H20 UNL     1      -1.271  -2.475   0.078  1.00  0.00     0.083 HD  
ENDROOT
BRANCH   1   7
ATOM     7   C5  UNL     1      -0.618  -0.112   2.001  1.00  0.00     0.114 C   
BRANCH   7   8
ATOM     8   C4  UNL     1      -1.385  -0.030   3.335  1.00  0.00     0.064 C   
BRANCH   8   9
ATOM     9   C2  UNL     1      -2.123  -1.323   3.746  1.00  0.00    -0.012 C   
ATOM     10  C1  UNL     1      -1.171  -2.506   3.926  1.00  0.00     0.007 C   
ATOM     11  C3  UNL     1      -2.898  -1.082   5.045  1.00  0.00     0.007 C   
ENDBRANCH   8   9
ENDBRANCH   7   8
BRANCH   7  12
ATOM     12  N1  UNL     1       0.112   1.207   1.833  1.00  0.00     0.249 N   
ATOM     13  H11 UNL     1       0.651   1.414   2.678  1.00  0.00     0.199 HD  
ATOM     14  H12 UNL     1      -0.613   1.932   1.743  1.00  0.00     0.199 HD  
BRANCH  12  15
ATOM     15  C6  UNL     1       1.004   1.328   0.638  1.00  0.00     0.164 C   
BRANCH  15  16
ATOM     16  C7  UNL     1       2.107   0.308   0.609  1.00  0.00    -0.002 A   
ATOM     17  C8  UNL     1       2.067  -0.757  -0.324  1.00  0.00     0.012 A   
ATOM     18  C12 UNL     1       3.169   0.382   1.528  1.00  0.00     0.045 A   
ATOM     19  C9  UNL     1       3.063  -1.739  -0.339  1.00  0.00     0.037 A   
ATOM     20  C11 UNL     1       4.134  -0.602   1.485  1.00  0.00     0.109 A   
ATOM     21  C10 UNL     1       4.083  -1.634   0.580  1.00  0.00     0.108 A   
ATOM     22  O1  UNL     1       5.217  -0.681   2.302  1.00  0.00    -0.316 OA  
ATOM     23  O2  UNL     1       5.127  -2.492   0.712  1.00  0.00    -0.316 OA  
ATOM     24  C13 UNL     1       5.862  -1.869   1.788  1.00  0.00     0.337 C   
ENDBRANCH  15  16
ENDBRANCH  12  15
ENDBRANCH   7  12
ENDBRANCH   1   7
BRANCH   3  25
ATOM     25  C16 UNL     1      -2.977  -1.807  -2.101  1.00  0.00     0.192 C   
BRANCH  25  26
ATOM     26  C17 UNL     1      -1.923  -1.799  -3.146  1.00  0.00     0.089 A   
ATOM     27  N3  UNL     1      -0.741  -2.502  -2.979  1.00  0.00    -0.232 NA  
ATOM     28  C19 UNL     1      -1.902  -1.160  -4.370  1.00  0.00     0.087 A   
ATOM     29  C18 UNL     1      -0.091  -2.284  -4.101  1.00  0.00     0.247 A   
ATOM     30  O3  UNL     1      -0.724  -1.470  -4.985  1.00  0.00    -0.301 OA  
BRANCH  28  31
ATOM     31  C20 UNL     1      -3.004  -0.262  -4.980  1.00  0.00     0.045 C   
ATOM     32  C21 UNL     1      -2.591   0.980  -5.726  1.00  0.00     0.011 C   
ATOM     33  C22 UNL     1      -3.256   1.099  -4.385  1.00  0.00     0.011 C   
ENDBRANCH  28  31
ENDBRANCH  25  26
ENDBRANCH   3  25
TORSDOF 9
