REMARK SMILES CC(C)[C@H]([NH2+]Cc1ccc2c(c1)OCO2)c1cn(CCc2cccnc2F)nn1
REMARK SMILES IDX 16 1 17 2 18 3 28 4 29 5 4 7 2 8 1 9 3 10 5 11 6 14 7 15
REMARK SMILES IDX 8 16 12 17 9 18 11 19 10 20 13 21 15 22 14 23 19 24 20 25
REMARK SMILES IDX 21 26 22 27 26 28 23 29 25 30 24 31 27 32
REMARK H PARENT 17 6 5 12 5 13
ROOT
ATOM     1   C13 UNL     1       1.098   1.473   1.352  1.00  0.00     0.127 A   
ATOM     2   C14 UNL     1       2.098   2.339   0.960  1.00  0.00     0.045 A   
ATOM     3   N2  UNL     1       3.160   1.507   0.722  1.00  0.00    -0.212 N   
ATOM     4   N4  UNL     1       2.898   0.262   1.162  1.00  0.00    -0.076 NA  
ATOM     5   N5  UNL     1       1.627   0.221   1.524  1.00  0.00    -0.132 NA  
ATOM     6   H18 UNL     1       2.099   3.378   0.660  1.00  0.00     0.083 HD  
ENDROOT
BRANCH   1   7
ATOM     7   C4  UNL     1      -0.388   1.658   1.394  1.00  0.00     0.117 C   
BRANCH   7   8
ATOM     8   C2  UNL     1      -0.972   1.751   2.826  1.00  0.00     0.037 C   
ATOM     9   C1  UNL     1      -0.826   0.475   3.662  1.00  0.00     0.014 C   
ATOM     10  C3  UNL     1      -0.380   2.941   3.593  1.00  0.00     0.014 C   
ENDBRANCH   7   8
BRANCH   7  11
ATOM     11  N1  UNL     1      -1.010   0.532   0.606  1.00  0.00     0.249 N   
ATOM     12  H9  UNL     1      -0.755  -0.359   1.050  1.00  0.00     0.199 HD  
ATOM     13  H10 UNL     1      -0.521   0.473  -0.309  1.00  0.00     0.199 HD  
BRANCH  11  14
ATOM     14  C5  UNL     1      -2.458   0.595   0.314  1.00  0.00     0.164 C   
BRANCH  14  15
ATOM     15  C6  UNL     1      -2.911  -0.624  -0.440  1.00  0.00    -0.002 A   
ATOM     16  C7  UNL     1      -3.303  -1.790   0.262  1.00  0.00     0.012 A   
ATOM     17  C11 UNL     1      -2.899  -0.634  -1.845  1.00  0.00     0.045 A   
ATOM     18  C8  UNL     1      -3.690  -2.946  -0.424  1.00  0.00     0.037 A   
ATOM     19  C10 UNL     1      -3.285  -1.791  -2.490  1.00  0.00     0.109 A   
ATOM     20  C9  UNL     1      -3.670  -2.914  -1.800  1.00  0.00     0.108 A   
ATOM     21  O1  UNL     1      -3.321  -1.972  -3.837  1.00  0.00    -0.316 OA  
ATOM     22  O2  UNL     1      -4.005  -3.939  -2.625  1.00  0.00    -0.316 OA  
ATOM     23  C12 UNL     1      -3.822  -3.325  -3.918  1.00  0.00     0.337 C   
ENDBRANCH  14  15
ENDBRANCH  11  14
ENDBRANCH   7  11
ENDBRANCH   1   7
BRANCH   3  24
ATOM     24  C15 UNL     1       4.245   1.718  -0.220  1.00  0.00     0.139 C   
BRANCH  24  25
ATOM     25  C16 UNL     1       3.766   1.869  -1.680  1.00  0.00     0.061 C   
BRANCH  25  26
ATOM     26  C17 UNL     1       2.752   0.829  -2.095  1.00  0.00     0.009 A   
ATOM     27  C18 UNL     1       3.125  -0.475  -2.418  1.00  0.00     0.010 A   
ATOM     28  C21 UNL     1       1.385   1.098  -2.026  1.00  0.00     0.216 A   
ATOM     29  C19 UNL     1       2.138  -1.435  -2.627  1.00  0.00     0.021 A   
ATOM     30  N3  UNL     1       0.401   0.175  -2.126  1.00  0.00    -0.228 NA  
ATOM     31  C20 UNL     1       0.809  -1.071  -2.465  1.00  0.00     0.114 A   
ATOM     32  F1  UNL     1       0.979   2.339  -1.710  1.00  0.00    -0.185 F   
ENDBRANCH  25  26
ENDBRANCH  24  25
ENDBRANCH   3  24
TORSDOF 8
