REMARK SMILES Cc1cc(F)ccc1[C@H](CO)n1cc([C@@H]([NH2+]Cc2ccc3c(c2)OCO3)C2CCCC2)nn1
REMARK SMILES IDX 12 1 13 2 14 3 32 4 33 5 9 7 8 8 2 9 3 10 4 11 7 12 6 13
REMARK SMILES IDX 1 14 5 15 10 16 11 17 15 19 16 20 17 23 18 24 19 25 23 26
REMARK SMILES IDX 20 27 22 28 21 29 24 30 26 31 25 32 27 33 28 34 31 35 29 36
REMARK SMILES IDX 30 37
REMARK H PARENT 13 6 11 18 16 21 16 22
ROOT
ATOM     1   N1  UNL     1       0.755  -1.603  -0.317  1.00  0.00    -0.202 N   
ATOM     2   C10 UNL     1      -0.032  -0.558  -0.728  1.00  0.00     0.046 A   
ATOM     3   C11 UNL     1       0.654   0.560  -0.311  1.00  0.00     0.127 A   
ATOM     4   N3  UNL     1       1.801   0.174   0.331  1.00  0.00    -0.132 NA  
ATOM     5   N4  UNL     1       1.861  -1.146   0.310  1.00  0.00    -0.075 NA  
ATOM     6   H11 UNL     1      -0.969  -0.709  -1.244  1.00  0.00     0.083 HD  
ENDROOT
BRANCH   1   7
ATOM     7   C8  UNL     1       0.502  -3.037  -0.489  1.00  0.00     0.155 C   
BRANCH   7   8
ATOM     8   C7  UNL     1       0.266  -3.715   0.861  1.00  0.00    -0.020 A   
ATOM     9   C2  UNL     1      -1.025  -4.124   1.277  1.00  0.00    -0.043 A   
ATOM     10  C3  UNL     1      -1.182  -4.743   2.529  1.00  0.00     0.043 A   
ATOM     11  C4  UNL     1      -0.088  -4.948   3.360  1.00  0.00     0.123 A   
ATOM     12  C6  UNL     1       1.357  -3.942   1.731  1.00  0.00     0.009 A   
ATOM     13  C5  UNL     1       1.180  -4.553   2.972  1.00  0.00     0.039 A   
ATOM     14  C1  UNL     1      -2.252  -3.934   0.423  1.00  0.00     0.045 C   
ATOM     15  F1  UNL     1      -0.265  -5.529   4.553  1.00  0.00    -0.207 F   
ENDBRANCH   7   8
BRANCH   7  16
ATOM     16  C9  UNL     1       1.598  -3.713  -1.333  1.00  0.00     0.185 C   
BRANCH  16  17
ATOM     17  O1  UNL     1       1.464  -3.327  -2.704  1.00  0.00    -0.394 OA  
ATOM     18  H10 UNL     1       1.998  -3.951  -3.232  1.00  0.00     0.210 HD  
ENDBRANCH  16  17
ENDBRANCH   7  16
ENDBRANCH   1   7
BRANCH   3  19
ATOM     19  C12 UNL     1       0.317   2.014  -0.377  1.00  0.00     0.117 C   
BRANCH  19  20
ATOM     20  N2  UNL     1       0.660   2.659   0.949  1.00  0.00     0.249 N   
ATOM     21  H13 UNL     1       1.393   2.064   1.365  1.00  0.00     0.199 HD  
ATOM     22  H14 UNL     1       1.099   3.572   0.812  1.00  0.00     0.199 HD  
BRANCH  20  23
ATOM     23  C13 UNL     1      -0.454   2.799   1.927  1.00  0.00     0.164 C   
BRANCH  23  24
ATOM     24  C14 UNL     1      -1.122   1.508   2.311  1.00  0.00    -0.002 A   
ATOM     25  C15 UNL     1      -0.416   0.511   3.027  1.00  0.00     0.012 A   
ATOM     26  C19 UNL     1      -2.463   1.277   1.954  1.00  0.00     0.045 A   
ATOM     27  C16 UNL     1      -1.030  -0.698   3.376  1.00  0.00     0.037 A   
ATOM     28  C18 UNL     1      -3.041   0.079   2.321  1.00  0.00     0.109 A   
ATOM     29  C17 UNL     1      -2.345  -0.880   3.014  1.00  0.00     0.108 A   
ATOM     30  O2  UNL     1      -4.320  -0.295   2.058  1.00  0.00    -0.316 OA  
ATOM     31  O3  UNL     1      -3.102  -1.975   3.282  1.00  0.00    -0.316 OA  
ATOM     32  C20 UNL     1      -4.372  -1.576   2.725  1.00  0.00     0.337 C   
ENDBRANCH  23  24
ENDBRANCH  20  23
ENDBRANCH  19  20
BRANCH  19  33
ATOM     33  C21 UNL     1       1.056   2.720  -1.532  1.00  0.00     0.043 C   
ATOM     34  C22 UNL     1       0.608   4.166  -1.777  1.00  0.00     0.010 C   
ATOM     35  C25 UNL     1       2.591   2.805  -1.411  1.00  0.00     0.010 C   
ATOM     36  C23 UNL     1       1.740   4.740  -2.611  1.00  0.00     0.001 C   
ATOM     37  C24 UNL     1       2.988   4.183  -1.943  1.00  0.00     0.001 C   
ENDBRANCH  19  33
ENDBRANCH   3  19
TORSDOF 9
