REMARK SMILES Cc1cc(F)ccc1[C@@H](CO)n1cc([C@@H]([NH2+]Cc2ccc3c(c2)OCO3)C2CCCC2)nn1
REMARK SMILES IDX 12 1 13 2 14 3 32 4 33 5 9 7 8 8 2 9 3 10 4 11 7 12 6 13
REMARK SMILES IDX 1 14 5 15 10 16 11 17 15 19 16 20 17 23 18 24 19 25 23 26
REMARK SMILES IDX 20 27 22 28 21 29 24 30 26 31 25 32 27 33 28 34 31 35 29 36
REMARK SMILES IDX 30 37
REMARK H PARENT 13 6 11 18 16 21 16 22
ROOT
ATOM     1   N1  UNL     1      -1.296   1.946  -1.183  1.00  0.00    -0.202 N   
ATOM     2   C10 UNL     1      -1.020   0.645  -0.861  1.00  0.00     0.046 A   
ATOM     3   C11 UNL     1      -1.941   0.332   0.113  1.00  0.00     0.127 A   
ATOM     4   N3  UNL     1      -2.745   1.419   0.338  1.00  0.00    -0.132 NA  
ATOM     5   N4  UNL     1      -2.322   2.409  -0.435  1.00  0.00    -0.075 NA  
ATOM     6   H11 UNL     1      -0.221   0.086  -1.329  1.00  0.00     0.083 HD  
ENDROOT
BRANCH   1   7
ATOM     7   C8  UNL     1      -0.629   2.830  -2.145  1.00  0.00     0.155 C   
BRANCH   7   8
ATOM     8   C7  UNL     1       0.877   2.532  -2.223  1.00  0.00    -0.020 A   
ATOM     9   C2  UNL     1       1.774   3.008  -1.227  1.00  0.00    -0.043 A   
ATOM     10  C3  UNL     1       3.140   2.682  -1.309  1.00  0.00     0.043 A   
ATOM     11  C4  UNL     1       3.614   1.891  -2.350  1.00  0.00     0.123 A   
ATOM     12  C6  UNL     1       1.398   1.732  -3.264  1.00  0.00     0.009 A   
ATOM     13  C5  UNL     1       2.756   1.416  -3.327  1.00  0.00     0.039 A   
ATOM     14  C1  UNL     1       1.323   3.879  -0.081  1.00  0.00     0.045 C   
ATOM     15  F1  UNL     1       4.916   1.581  -2.406  1.00  0.00    -0.207 F   
ENDBRANCH   7   8
BRANCH   7  16
ATOM     16  C9  UNL     1      -1.415   2.861  -3.476  1.00  0.00     0.185 C   
BRANCH  16  17
ATOM     17  O1  UNL     1      -1.623   1.557  -4.026  1.00  0.00    -0.394 OA  
ATOM     18  H10 UNL     1      -2.162   1.666  -4.831  1.00  0.00     0.210 HD  
ENDBRANCH  16  17
ENDBRANCH   7  16
ENDBRANCH   1   7
BRANCH   3  19
ATOM     19  C12 UNL     1      -2.109  -0.915   0.916  1.00  0.00     0.117 C   
BRANCH  19  20
ATOM     20  N2  UNL     1      -2.581  -0.595   2.321  1.00  0.00     0.249 N   
ATOM     21  H13 UNL     1      -2.730  -1.465   2.840  1.00  0.00     0.199 HD  
ATOM     22  H14 UNL     1      -3.493  -0.125   2.226  1.00  0.00     0.199 HD  
BRANCH  20  23
ATOM     23  C13 UNL     1      -1.703   0.295   3.141  1.00  0.00     0.164 C   
BRANCH  23  24
ATOM     24  C14 UNL     1      -0.331  -0.271   3.379  1.00  0.00    -0.002 A   
ATOM     25  C15 UNL     1      -0.156  -1.368   4.256  1.00  0.00     0.012 A   
ATOM     26  C19 UNL     1       0.784   0.270   2.711  1.00  0.00     0.045 A   
ATOM     27  C16 UNL     1       1.109  -1.926   4.460  1.00  0.00     0.037 A   
ATOM     28  C18 UNL     1       2.018  -0.304   2.935  1.00  0.00     0.109 A   
ATOM     29  C17 UNL     1       2.174  -1.371   3.784  1.00  0.00     0.108 A   
ATOM     30  O2  UNL     1       3.191   0.091   2.371  1.00  0.00    -0.316 OA  
ATOM     31  O3  UNL     1       3.462  -1.791   3.856  1.00  0.00    -0.316 OA  
ATOM     32  C20 UNL     1       4.108  -0.852   2.970  1.00  0.00     0.337 C   
ENDBRANCH  23  24
ENDBRANCH  20  23
ENDBRANCH  19  20
BRANCH  19  33
ATOM     33  C21 UNL     1      -3.129  -1.883   0.279  1.00  0.00     0.043 C   
ATOM     34  C22 UNL     1      -3.294  -3.206   1.034  1.00  0.00     0.010 C   
ATOM     35  C25 UNL     1      -2.724  -2.372  -1.115  1.00  0.00     0.010 C   
ATOM     36  C23 UNL     1      -3.924  -4.159   0.023  1.00  0.00     0.001 C   
ATOM     37  C24 UNL     1      -3.606  -3.590  -1.357  1.00  0.00     0.001 C   
ENDBRANCH  19  33
ENDBRANCH   3  19
TORSDOF 9
