REMARK SMILES Cc1cccc(-n2cc([C@H](CC(C)C)[NH2+]Cc3ccc4c(c3)OCO4)nn2)n1
REMARK SMILES IDX 10 1 9 2 7 3 8 4 27 5 26 6 6 7 2 8 3 9 28 10 4 11 5 12 1 13
REMARK SMILES IDX 11 14 12 15 13 16 14 17 15 18 16 21 17 22 18 23 22 24 19 25
REMARK SMILES IDX 21 26 20 27 23 28 25 29 24 30
REMARK H PARENT 15 19 15 20
ROOT
ATOM     1   C9  UNL     1       1.589  -0.945   0.705  1.00  0.00     0.114 C   
ENDROOT
BRANCH   1   2
ATOM     2   C8  UNL     1       0.363  -0.129   0.450  1.00  0.00     0.127 A   
ATOM     3   N1  UNL     1      -1.644   0.640   0.061  1.00  0.00    -0.162 N   
ATOM     4   C7  UNL     1      -0.968  -0.421   0.631  1.00  0.00     0.137 A   
ATOM     5   N4  UNL     1      -0.743   1.558  -0.378  1.00  0.00    -0.070 NA  
ATOM     6   N3  UNL     1       0.477   1.093  -0.155  1.00  0.00    -0.131 NA  
BRANCH   3   7
ATOM     7   C6  UNL     1      -3.048   0.768  -0.097  1.00  0.00     0.146 A   
ATOM     8   C2  UNL     1      -5.167  -0.141   0.203  1.00  0.00     0.040 A   
ATOM     9   C3  UNL     1      -5.760   0.965  -0.397  1.00  0.00     0.023 A   
ATOM     10  N5  UNL     1      -3.825  -0.256   0.355  1.00  0.00    -0.236 NA  
ATOM     11  C4  UNL     1      -4.948   1.997  -0.857  1.00  0.00     0.006 A   
ATOM     12  C5  UNL     1      -3.568   1.904  -0.708  1.00  0.00     0.047 A   
ATOM     13  C1  UNL     1      -6.018  -1.267   0.709  1.00  0.00     0.067 C   
ENDBRANCH   3   7
ENDBRANCH   1   2
BRANCH   1  14
ATOM     14  C10 UNL     1       2.339  -0.431   1.950  1.00  0.00     0.064 C   
BRANCH  14  15
ATOM     15  C11 UNL     1       3.549  -1.272   2.412  1.00  0.00    -0.012 C   
ATOM     16  C12 UNL     1       3.171  -2.719   2.731  1.00  0.00     0.007 C   
ATOM     17  C13 UNL     1       4.184  -0.622   3.646  1.00  0.00     0.007 C   
ENDBRANCH  14  15
ENDBRANCH   1  14
BRANCH   1  18
ATOM     18  N2  UNL     1       2.505  -0.870  -0.499  1.00  0.00     0.249 N   
ATOM     19  H18 UNL     1       2.354   0.064  -0.911  1.00  0.00     0.199 HD  
ATOM     20  H19 UNL     1       3.487  -0.894  -0.216  1.00  0.00     0.199 HD  
BRANCH  18  21
ATOM     21  C14 UNL     1       2.287  -1.896  -1.565  1.00  0.00     0.164 C   
BRANCH  21  22
ATOM     22  C15 UNL     1       0.937  -1.812  -2.220  1.00  0.00    -0.002 A   
ATOM     23  C16 UNL     1       0.642  -0.758  -3.119  1.00  0.00     0.012 A   
ATOM     24  C20 UNL     1      -0.069  -2.736  -1.887  1.00  0.00     0.045 A   
ATOM     25  C17 UNL     1      -0.643  -0.606  -3.652  1.00  0.00     0.037 A   
ATOM     26  C19 UNL     1      -1.327  -2.549  -2.421  1.00  0.00     0.109 A   
ATOM     27  C18 UNL     1      -1.608  -1.511  -3.274  1.00  0.00     0.108 A   
ATOM     28  O1  UNL     1      -2.416  -3.318  -2.161  1.00  0.00    -0.316 OA  
ATOM     29  O2  UNL     1      -2.909  -1.497  -3.662  1.00  0.00    -0.316 OA  
ATOM     30  C21 UNL     1      -3.425  -2.636  -2.940  1.00  0.00     0.337 C   
ENDBRANCH  21  22
ENDBRANCH  18  21
ENDBRANCH   1  18
TORSDOF 7
