REMARK SMILES CC(C)[C@H]([NH2+]Cc1ccc2c(c1)OCO2)c1cn(Cc2c(Cl)ncn2C)nn1
REMARK SMILES IDX 16 1 17 2 18 3 27 4 28 5 4 7 2 8 1 9 3 10 5 11 6 14 7 15
REMARK SMILES IDX 8 16 12 17 9 18 11 19 10 20 13 21 15 22 14 23 19 24 20 25
REMARK SMILES IDX 21 26 25 27 23 28 24 29 22 30 26 31
REMARK H PARENT 17 6 5 12 5 13
ROOT
ATOM     1   C13 UNL     1      -0.215  -1.443  -0.781  1.00  0.00     0.127 A   
ATOM     2   C14 UNL     1      -0.196  -0.184  -1.339  1.00  0.00     0.046 A   
ATOM     3   N2  UNL     1      -1.485   0.018  -1.750  1.00  0.00    -0.206 N   
ATOM     4   N5  UNL     1      -2.242  -1.071  -1.502  1.00  0.00    -0.076 NA  
ATOM     5   N6  UNL     1      -1.478  -1.966  -0.896  1.00  0.00    -0.132 NA  
ATOM     6   H18 UNL     1       0.569   0.571  -1.445  1.00  0.00     0.083 HD  
ENDROOT
BRANCH   1   7
ATOM     7   C4  UNL     1       0.846  -2.229  -0.075  1.00  0.00     0.117 C   
BRANCH   7   8
ATOM     8   C2  UNL     1       1.717  -3.054  -1.059  1.00  0.00     0.037 C   
ATOM     9   C1  UNL     1       2.978  -3.590  -0.373  1.00  0.00     0.014 C   
ATOM     10  C3  UNL     1       0.974  -4.204  -1.751  1.00  0.00     0.014 C   
ENDBRANCH   7   8
BRANCH   7  11
ATOM     11  N1  UNL     1       0.212  -3.134   0.958  1.00  0.00     0.249 N   
ATOM     12  H9  UNL     1      -0.760  -3.277   0.639  1.00  0.00     0.199 HD  
ATOM     13  H10 UNL     1       0.645  -4.062   0.958  1.00  0.00     0.199 HD  
BRANCH  11  14
ATOM     14  C5  UNL     1       0.174  -2.618   2.356  1.00  0.00     0.164 C   
BRANCH  14  15
ATOM     15  C6  UNL     1      -0.605  -1.342   2.523  1.00  0.00    -0.002 A   
ATOM     16  C7  UNL     1      -2.014  -1.337   2.372  1.00  0.00     0.012 A   
ATOM     17  C11 UNL     1       0.063  -0.139   2.811  1.00  0.00     0.045 A   
ATOM     18  C8  UNL     1      -2.747  -0.150   2.492  1.00  0.00     0.037 A   
ATOM     19  C10 UNL     1      -0.691   1.012   2.933  1.00  0.00     0.109 A   
ATOM     20  C9  UNL     1      -2.055   1.007   2.776  1.00  0.00     0.108 A   
ATOM     21  O1  UNL     1      -0.202   2.248   3.214  1.00  0.00    -0.316 OA  
ATOM     22  O2  UNL     1      -2.598   2.243   2.934  1.00  0.00    -0.316 OA  
ATOM     23  C12 UNL     1      -1.423   3.018   3.272  1.00  0.00     0.337 C   
ENDBRANCH  14  15
ENDBRANCH  11  14
ENDBRANCH   7  11
ENDBRANCH   1   7
BRANCH   3  24
ATOM     24  C15 UNL     1      -2.069   1.192  -2.382  1.00  0.00     0.188 C   
BRANCH  24  25
ATOM     25  C16 UNL     1      -2.191   2.317  -1.419  1.00  0.00     0.068 A   
ATOM     26  C17 UNL     1      -1.314   3.340  -1.113  1.00  0.00     0.149 A   
ATOM     27  N4  UNL     1      -3.291   2.560  -0.626  1.00  0.00    -0.294 N   
ATOM     28  N3  UNL     1      -1.840   4.157  -0.150  1.00  0.00    -0.227 NA  
ATOM     29  C18 UNL     1      -3.035   3.680   0.108  1.00  0.00     0.190 A   
ATOM     30  CL1 UNL     1       0.224   3.608  -1.786  1.00  0.00    -0.060 Cl  
ATOM     31  C19 UNL     1      -4.516   1.797  -0.553  1.00  0.00     0.137 C   
ENDBRANCH  24  25
ENDBRANCH   3  24
TORSDOF 7
