REMARK SMILES Cc1cc(C(=O)n2cc([C@@H]([NH2+]Cc3ccc4c(c3)OCO4)C(C)C)nn2)no1
REMARK SMILES IDX 7 1 8 2 9 3 25 4 26 5 5 6 6 7 4 8 2 9 3 10 28 11 27 12 1 13
REMARK SMILES IDX 10 14 11 15 12 18 13 19 14 20 18 21 15 22 17 23 16 24 19 25
REMARK SMILES IDX 21 26 20 27 22 28 23 29 24 30
REMARK H PARENT 11 16 11 17
ROOT
ATOM     1   N1  UNL     1      -0.777  -0.560  -0.534  1.00  0.00    -0.142 N   
ATOM     2   C6  UNL     1      -0.191  -0.456   0.719  1.00  0.00     0.139 A   
ATOM     3   C7  UNL     1      -0.939   0.481   1.395  1.00  0.00     0.128 A   
ATOM     4   N3  UNL     1      -1.971   0.886   0.600  1.00  0.00    -0.131 NA  
ATOM     5   N4  UNL     1      -1.889   0.235  -0.547  1.00  0.00    -0.068 NA  
ENDROOT
BRANCH   1   6
ATOM     6   C5  UNL     1      -0.410  -1.275  -1.699  1.00  0.00     0.292 C   
ATOM     7   O1  UNL     1      -1.188  -1.215  -2.652  1.00  0.00    -0.267 OA  
BRANCH   6   8
ATOM     8   C4  UNL     1       0.824  -2.050  -1.817  1.00  0.00     0.158 A   
ATOM     9   C2  UNL     1       2.442  -3.353  -2.583  1.00  0.00     0.084 A   
ATOM     10  C3  UNL     1       1.221  -2.837  -2.933  1.00  0.00     0.068 A   
ATOM     11  O4  UNL     1       2.772  -2.908  -1.343  1.00  0.00    -0.218 OA  
ATOM     12  N5  UNL     1       1.767  -2.091  -0.863  1.00  0.00    -0.124 NA  
ATOM     13  C1  UNL     1       3.415  -4.242  -3.244  1.00  0.00     0.075 C   
ENDBRANCH   6   8
ENDBRANCH   1   6
BRANCH   3  14
ATOM     14  C8  UNL     1      -0.718   1.158   2.712  1.00  0.00     0.117 C   
BRANCH  14  15
ATOM     15  N2  UNL     1      -0.926   2.653   2.546  1.00  0.00     0.249 N   
ATOM     16  H7  UNL     1      -1.339   3.054   3.394  1.00  0.00     0.199 HD  
ATOM     17  H8  UNL     1      -1.637   2.763   1.805  1.00  0.00     0.199 HD  
BRANCH  15  18
ATOM     18  C9  UNL     1       0.275   3.462   2.171  1.00  0.00     0.164 C   
BRANCH  18  19
ATOM     19  C10 UNL     1       0.953   3.013   0.907  1.00  0.00    -0.002 A   
ATOM     20  C11 UNL     1       0.343   3.225  -0.353  1.00  0.00     0.012 A   
ATOM     21  C15 UNL     1       2.173   2.316   0.972  1.00  0.00     0.045 A   
ATOM     22  C12 UNL     1       0.916   2.719  -1.526  1.00  0.00     0.037 A   
ATOM     23  C14 UNL     1       2.710   1.830  -0.202  1.00  0.00     0.109 A   
ATOM     24  C13 UNL     1       2.096   2.017  -1.415  1.00  0.00     0.108 A   
ATOM     25  O2  UNL     1       3.855   1.108  -0.304  1.00  0.00    -0.316 OA  
ATOM     26  O3  UNL     1       2.772   1.427  -2.433  1.00  0.00    -0.316 OA  
ATOM     27  C16 UNL     1       3.915   0.889  -1.732  1.00  0.00     0.337 C   
ENDBRANCH  18  19
ENDBRANCH  15  18
ENDBRANCH  14  15
BRANCH  14  28
ATOM     28  C17 UNL     1      -1.638   0.647   3.851  1.00  0.00     0.037 C   
ATOM     29  C18 UNL     1      -1.342  -0.818   4.192  1.00  0.00     0.014 C   
ATOM     30  C19 UNL     1      -3.138   0.824   3.587  1.00  0.00     0.014 C   
ENDBRANCH  14  28
ENDBRANCH   3  14
TORSDOF 7
