REMARK SMILES Fc1ccc(F)c(CCn2cc([C@@H]([NH2+]Cc3ccc4c(c3)OCO4)C3CCCCC3)nn2)c1
REMARK SMILES IDX 10 1 11 2 12 3 31 4 32 5 9 7 8 8 7 9 2 10 3 11 33 12 4 13
REMARK SMILES IDX 5 14 1 15 6 16 13 17 14 18 15 21 16 22 17 23 21 24 18 25
REMARK SMILES IDX 20 26 19 27 22 28 24 29 23 30 25 31 26 32 30 33 27 34 29 35
REMARK SMILES IDX 28 36
REMARK H PARENT 11 6 14 19 14 20
ROOT
ATOM     1   N1  UNL     1       1.673  -0.734   2.293  1.00  0.00    -0.212 N   
ATOM     2   C8  UNL     1       1.097  -0.026   1.277  1.00  0.00     0.045 A   
ATOM     3   C9  UNL     1       0.990  -0.945   0.256  1.00  0.00     0.127 A   
ATOM     4   N3  UNL     1       1.565  -2.126   0.653  1.00  0.00    -0.132 NA  
ATOM     5   N4  UNL     1       1.998  -1.976   1.894  1.00  0.00    -0.076 NA  
ATOM     6   H7  UNL     1       0.788   1.005   1.388  1.00  0.00     0.083 HD  
ENDROOT
BRANCH   1   7
ATOM     7   C7  UNL     1       1.949  -0.302   3.648  1.00  0.00     0.139 C   
BRANCH   7   8
ATOM     8   C6  UNL     1       0.872  -0.740   4.642  1.00  0.00     0.060 C   
BRANCH   8   9
ATOM     9   C5  UNL     1      -0.404   0.059   4.529  1.00  0.00    -0.008 A   
ATOM     10  C1  UNL     1      -1.716   2.019   5.069  1.00  0.00     0.123 A   
ATOM     11  C2  UNL     1      -2.781   1.549   4.308  1.00  0.00     0.042 A   
ATOM     12  C25 UNL     1      -0.534   1.290   5.186  1.00  0.00     0.046 A   
ATOM     13  C3  UNL     1      -2.661   0.328   3.647  1.00  0.00     0.042 A   
ATOM     14  C4  UNL     1      -1.479  -0.402   3.759  1.00  0.00     0.126 A   
ATOM     15  F1  UNL     1      -1.825   3.196   5.698  1.00  0.00    -0.207 F   
ATOM     16  F2  UNL     1      -1.373  -1.557   3.088  1.00  0.00    -0.207 F   
ENDBRANCH   8   9
ENDBRANCH   7   8
ENDBRANCH   1   7
BRANCH   3  17
ATOM     17  C10 UNL     1       0.416  -0.838  -1.119  1.00  0.00     0.117 C   
BRANCH  17  18
ATOM     18  N2  UNL     1       1.125  -1.798  -2.054  1.00  0.00     0.249 N   
ATOM     19  H9  UNL     1       0.579  -1.934  -2.909  1.00  0.00     0.199 HD  
ATOM     20  H10 UNL     1       1.157  -2.701  -1.560  1.00  0.00     0.199 HD  
BRANCH  18  21
ATOM     21  C11 UNL     1       2.532  -1.453  -2.414  1.00  0.00     0.164 C   
BRANCH  21  22
ATOM     22  C12 UNL     1       2.631  -0.226  -3.277  1.00  0.00    -0.002 A   
ATOM     23  C13 UNL     1       2.249  -0.274  -4.639  1.00  0.00     0.012 A   
ATOM     24  C17 UNL     1       3.077   0.988  -2.726  1.00  0.00     0.045 A   
ATOM     25  C14 UNL     1       2.304   0.872  -5.441  1.00  0.00     0.037 A   
ATOM     26  C16 UNL     1       3.116   2.098  -3.543  1.00  0.00     0.109 A   
ATOM     27  C15 UNL     1       2.739   2.043  -4.862  1.00  0.00     0.108 A   
ATOM     28  O1  UNL     1       3.508   3.343  -3.166  1.00  0.00    -0.316 OA  
ATOM     29  O2  UNL     1       2.851   3.245  -5.483  1.00  0.00    -0.316 OA  
ATOM     30  C18 UNL     1       3.373   4.062  -4.414  1.00  0.00     0.337 C   
ENDBRANCH  21  22
ENDBRANCH  18  21
ENDBRANCH  17  18
BRANCH  17  31
ATOM     31  C19 UNL     1      -1.109  -1.130  -1.194  1.00  0.00     0.043 C   
ATOM     32  C20 UNL     1      -1.933  -0.037  -0.484  1.00  0.00     0.010 C   
ATOM     33  C24 UNL     1      -1.512  -2.524  -0.673  1.00  0.00     0.010 C   
ATOM     34  C21 UNL     1      -3.434  -0.283  -0.612  1.00  0.00     0.001 C   
ATOM     35  C23 UNL     1      -3.017  -2.761  -0.797  1.00  0.00     0.001 C   
ATOM     36  C22 UNL     1      -3.820  -1.667  -0.103  1.00  0.00     0.000 C   
ENDBRANCH  17  31
ENDBRANCH   3  17
TORSDOF 8
