REMARK SMILES CC(C)[C@H]([NH2+]Cc1ccc2c(c1)OCO2)c1cn(-c2ccc(F)cc2)nn1
REMARK SMILES IDX 4 1 2 2 1 3 3 4 5 5 6 8 7 9 8 10 12 11 9 12 11 13 10 14
REMARK SMILES IDX 13 15 15 16 14 17 16 18 17 19 27 20 18 21 26 22 19 23 20 24
REMARK SMILES IDX 25 25 21 26 24 27 22 28 23 29
REMARK H PARENT 5 6 5 7
ROOT
ATOM     1   C4  UNL     1       1.039   1.278   1.636  1.00  0.00     0.117 C   
ENDROOT
BRANCH   1   2
ATOM     2   C2  UNL     1       1.665   1.336   3.056  1.00  0.00     0.037 C   
ATOM     3   C1  UNL     1       0.792   2.053   4.092  1.00  0.00     0.014 C   
ATOM     4   C3  UNL     1       3.063   1.965   3.032  1.00  0.00     0.014 C   
ENDBRANCH   1   2
BRANCH   1   5
ATOM     5   N1  UNL     1       0.689   2.670   1.165  1.00  0.00     0.249 N   
ATOM     6   H9  UNL     1      -0.208   2.910   1.612  1.00  0.00     0.199 HD  
ATOM     7   H10 UNL     1       1.376   3.353   1.492  1.00  0.00     0.199 HD  
BRANCH   5   8
ATOM     8   C5  UNL     1       0.503   2.841  -0.307  1.00  0.00     0.164 C   
BRANCH   8   9
ATOM     9   C6  UNL     1       1.789   2.699  -1.074  1.00  0.00    -0.002 A   
ATOM     10  C7  UNL     1       1.997   1.581  -1.917  1.00  0.00     0.012 A   
ATOM     11  C11 UNL     1       2.805   3.661  -0.940  1.00  0.00     0.045 A   
ATOM     12  C8  UNL     1       3.202   1.415  -2.608  1.00  0.00     0.037 A   
ATOM     13  C10 UNL     1       3.981   3.466  -1.634  1.00  0.00     0.109 A   
ATOM     14  C9  UNL     1       4.176   2.374  -2.443  1.00  0.00     0.108 A   
ATOM     15  O1  UNL     1       5.060   4.292  -1.607  1.00  0.00    -0.316 OA  
ATOM     16  O2  UNL     1       5.401   2.375  -3.029  1.00  0.00    -0.316 OA  
ATOM     17  C12 UNL     1       5.951   3.608  -2.518  1.00  0.00     0.337 C   
ENDBRANCH   8   9
ENDBRANCH   5   8
ENDBRANCH   1   5
BRANCH   1  18
ATOM     18  C13 UNL     1      -0.164   0.387   1.587  1.00  0.00     0.127 A   
ATOM     19  C14 UNL     1      -0.278  -0.984   1.521  1.00  0.00     0.135 A   
ATOM     20  N4  UNL     1      -1.413   0.940   1.587  1.00  0.00    -0.131 NA  
ATOM     21  N2  UNL     1      -1.638  -1.231   1.497  1.00  0.00    -0.181 N   
ATOM     22  N3  UNL     1      -2.296  -0.042   1.520  1.00  0.00    -0.071 NA  
BRANCH  21  23
ATOM     23  C15 UNL     1      -2.324  -2.470   1.442  1.00  0.00     0.058 A   
ATOM     24  C16 UNL     1      -3.730  -2.481   1.416  1.00  0.00     0.029 A   
ATOM     25  C20 UNL     1      -1.621  -3.685   1.413  1.00  0.00     0.029 A   
ATOM     26  C17 UNL     1      -4.421  -3.693   1.360  1.00  0.00     0.041 A   
ATOM     27  C19 UNL     1      -2.323  -4.894   1.356  1.00  0.00     0.041 A   
ATOM     28  C18 UNL     1      -3.712  -4.887   1.329  1.00  0.00     0.123 A   
ATOM     29  F1  UNL     1      -4.376  -6.048   1.275  1.00  0.00    -0.207 F   
ENDBRANCH  21  23
ENDBRANCH   1  18
TORSDOF 6
