REMARK SMILES CCc1nc(Cn2cc([C@@H]([NH2+]Cc3ccc4c(c3)OCO4)C3CCCC3)nn2)cs1
REMARK SMILES IDX 7 1 8 2 9 3 27 4 28 5 6 7 5 8 3 9 4 10 30 11 29 12 2 13 1 14
REMARK SMILES IDX 10 15 11 16 12 19 13 20 14 21 18 22 15 23 17 24 16 25 19 26
REMARK SMILES IDX 21 27 20 28 22 29 23 30 26 31 24 32 25 33
REMARK H PARENT 8 6 11 17 11 18
ROOT
ATOM     1   N2  UNL     1       1.529   0.990   1.687  1.00  0.00    -0.206 N   
ATOM     2   C6  UNL     1       1.243   0.896   0.352  1.00  0.00     0.046 A   
ATOM     3   C7  UNL     1       0.284   1.860   0.149  1.00  0.00     0.127 A   
ATOM     4   N4  UNL     1       0.056   2.527   1.325  1.00  0.00    -0.132 NA  
ATOM     5   N5  UNL     1       0.817   1.981   2.261  1.00  0.00    -0.076 NA  
ATOM     6   H8  UNL     1       1.690   0.138  -0.279  1.00  0.00     0.083 HD  
ENDROOT
BRANCH   1   7
ATOM     7   C5  UNL     1       2.400   0.138   2.477  1.00  0.00     0.190 C   
BRANCH   7   8
ATOM     8   C4  UNL     1       1.729  -1.173   2.715  1.00  0.00     0.067 A   
ATOM     9   C3  UNL     1       1.045  -3.184   2.059  1.00  0.00     0.077 A   
ATOM     10  N1  UNL     1       1.656  -2.085   1.667  1.00  0.00    -0.248 NA  
ATOM     11  S1  UNL     1       0.483  -3.170   3.683  1.00  0.00    -0.081 S   
ATOM     12  C22 UNL     1       1.138  -1.601   3.889  1.00  0.00     0.072 A   
BRANCH   9  13
ATOM     13  C2  UNL     1       0.823  -4.381   1.186  1.00  0.00     0.060 C   
ATOM     14  C1  UNL     1       1.944  -5.397   1.330  1.00  0.00     0.011 C   
ENDBRANCH   9  13
ENDBRANCH   7   8
ENDBRANCH   1   7
BRANCH   3  15
ATOM     15  C8  UNL     1      -0.541   2.174  -1.054  1.00  0.00     0.117 C   
BRANCH  15  16
ATOM     16  N3  UNL     1      -1.985   2.393  -0.646  1.00  0.00     0.249 N   
ATOM     17  H10 UNL     1      -1.977   3.156   0.044  1.00  0.00     0.199 HD  
ATOM     18  H11 UNL     1      -2.537   2.706  -1.447  1.00  0.00     0.199 HD  
BRANCH  16  19
ATOM     19  C9  UNL     1      -2.680   1.232  -0.008  1.00  0.00     0.164 C   
BRANCH  19  20
ATOM     20  C10 UNL     1      -2.794   0.035  -0.911  1.00  0.00    -0.002 A   
ATOM     21  C11 UNL     1      -3.684   0.049  -2.011  1.00  0.00     0.012 A   
ATOM     22  C15 UNL     1      -1.994  -1.099  -0.681  1.00  0.00     0.045 A   
ATOM     23  C12 UNL     1      -3.775  -1.048  -2.875  1.00  0.00     0.037 A   
ATOM     24  C14 UNL     1      -2.109  -2.163  -1.551  1.00  0.00     0.109 A   
ATOM     25  C13 UNL     1      -2.973  -2.138  -2.618  1.00  0.00     0.108 A   
ATOM     26  O1  UNL     1      -1.413  -3.328  -1.474  1.00  0.00    -0.316 OA  
ATOM     27  O2  UNL     1      -2.930  -3.283  -3.347  1.00  0.00    -0.316 OA  
ATOM     28  C16 UNL     1      -1.954  -4.046  -2.607  1.00  0.00     0.337 C   
ENDBRANCH  19  20
ENDBRANCH  16  19
ENDBRANCH  15  16
BRANCH  15  29
ATOM     29  C17 UNL     1      -0.045   3.440  -1.780  1.00  0.00     0.043 C   
ATOM     30  C18 UNL     1      -0.848   3.805  -3.033  1.00  0.00     0.010 C   
ATOM     31  C21 UNL     1       1.370   3.293  -2.352  1.00  0.00     0.010 C   
ATOM     32  C19 UNL     1       0.074   4.713  -3.843  1.00  0.00     0.001 C   
ATOM     33  C20 UNL     1       1.490   4.444  -3.342  1.00  0.00     0.001 C   
ENDBRANCH  15  29
ENDBRANCH   3  15
TORSDOF 8
