REMARK SMILES Cc1ccc([C@@H](CO)n2cc([C@H](CC(C)C)[NH2+]Cc3ccc4c(c3)OCO4)nn2)s1
REMARK SMILES IDX 9 1 10 2 11 3 28 4 29 5 6 7 5 8 2 9 3 10 30 11 4 12 1 13
REMARK SMILES IDX 7 14 8 15 12 17 13 18 14 19 15 20 16 21 17 22 18 25 19 26
REMARK SMILES IDX 20 27 24 28 21 29 23 30 22 31 25 32 27 33 26 34
REMARK H PARENT 10 6 8 16 17 23 17 24
ROOT
ATOM     1   N1  UNL     1      -2.549   0.945   1.213  1.00  0.00    -0.202 N   
ATOM     2   C8  UNL     1      -2.247   0.578  -0.074  1.00  0.00     0.046 A   
ATOM     3   C9  UNL     1      -0.988   0.030   0.020  1.00  0.00     0.127 A   
ATOM     4   N3  UNL     1      -0.568   0.083   1.324  1.00  0.00    -0.132 NA  
ATOM     5   N4  UNL     1      -1.522   0.651   2.042  1.00  0.00    -0.075 NA  
ATOM     6   H10 UNL     1      -2.934   0.737  -0.894  1.00  0.00     0.083 HD  
ENDROOT
BRANCH   1   7
ATOM     7   C6  UNL     1      -3.780   1.573   1.696  1.00  0.00     0.162 C   
BRANCH   7   8
ATOM     8   C5  UNL     1      -4.618   0.557   2.437  1.00  0.00     0.014 A   
ATOM     9   C2  UNL     1      -6.426  -1.004   3.082  1.00  0.00    -0.014 A   
ATOM     10  C3  UNL     1      -5.419  -0.957   4.021  1.00  0.00     0.011 A   
ATOM     11  S1  UNL     1      -6.104   0.030   1.761  1.00  0.00    -0.097 S   
ATOM     12  C4  UNL     1      -4.377  -0.059   3.651  1.00  0.00     0.014 A   
ATOM     13  C1  UNL     1      -7.680  -1.812   3.107  1.00  0.00     0.052 C   
ENDBRANCH   7   8
BRANCH   7  14
ATOM     14  C7  UNL     1      -3.503   2.828   2.538  1.00  0.00     0.186 C   
BRANCH  14  15
ATOM     15  O1  UNL     1      -2.985   3.875   1.712  1.00  0.00    -0.394 OA  
ATOM     16  H9  UNL     1      -2.893   4.663   2.281  1.00  0.00     0.210 HD  
ENDBRANCH  14  15
ENDBRANCH   7  14
ENDBRANCH   1   7
BRANCH   3  17
ATOM     17  C10 UNL     1      -0.079  -0.534  -1.025  1.00  0.00     0.114 C   
BRANCH  17  18
ATOM     18  C11 UNL     1      -0.360  -2.032  -1.262  1.00  0.00     0.064 C   
BRANCH  18  19
ATOM     19  C12 UNL     1      -0.062  -2.574  -2.678  1.00  0.00    -0.012 C   
ATOM     20  C13 UNL     1       1.396  -2.423  -3.105  1.00  0.00     0.007 C   
ATOM     21  C14 UNL     1      -0.990  -1.965  -3.732  1.00  0.00     0.007 C   
ENDBRANCH  18  19
ENDBRANCH  17  18
BRANCH  17  22
ATOM     22  N2  UNL     1       1.351  -0.373  -0.575  1.00  0.00     0.249 N   
ATOM     23  H21 UNL     1       1.366  -0.601   0.431  1.00  0.00     0.199 HD  
ATOM     24  H22 UNL     1       1.979  -1.045  -1.023  1.00  0.00     0.199 HD  
BRANCH  22  25
ATOM     25  C15 UNL     1       1.911   0.998  -0.722  1.00  0.00     0.164 C   
BRANCH  25  26
ATOM     26  C16 UNL     1       3.305   1.053  -0.166  1.00  0.00    -0.002 A   
ATOM     27  C17 UNL     1       3.510   1.328   1.208  1.00  0.00     0.012 A   
ATOM     28  C21 UNL     1       4.408   0.773  -0.990  1.00  0.00     0.045 A   
ATOM     29  C18 UNL     1       4.798   1.337   1.753  1.00  0.00     0.037 A   
ATOM     30  C20 UNL     1       5.664   0.790  -0.419  1.00  0.00     0.109 A   
ATOM     31  C19 UNL     1       5.855   1.064   0.912  1.00  0.00     0.108 A   
ATOM     32  O2  UNL     1       6.830   0.541  -1.071  1.00  0.00    -0.316 OA  
ATOM     33  O3  UNL     1       7.165   1.026   1.267  1.00  0.00    -0.316 OA  
ATOM     34  C22 UNL     1       7.785   0.715   0.001  1.00  0.00     0.337 C   
ENDBRANCH  25  26
ENDBRANCH  22  25
ENDBRANCH  17  22
ENDBRANCH   3  17
TORSDOF 10
