REMARK SMILES Cc1ccc([C@H](CO)n2cc([C@H](CC(C)C)[NH2+]Cc3ccc4c(c3)OCO4)nn2)s1
REMARK SMILES IDX 9 1 10 2 11 3 28 4 29 5 6 7 5 8 2 9 3 10 30 11 4 12 1 13
REMARK SMILES IDX 7 14 8 15 12 17 13 18 14 19 15 20 16 21 17 22 18 25 19 26
REMARK SMILES IDX 20 27 24 28 21 29 23 30 22 31 25 32 27 33 26 34
REMARK H PARENT 10 6 8 16 17 23 17 24
ROOT
ATOM     1   N1  UNL     1      -1.887   2.122  -0.347  1.00  0.00    -0.202 N   
ATOM     2   C8  UNL     1      -0.578   1.869  -0.666  1.00  0.00     0.046 A   
ATOM     3   C9  UNL     1      -0.328   0.633  -0.117  1.00  0.00     0.127 A   
ATOM     4   N3  UNL     1      -1.452   0.196   0.533  1.00  0.00    -0.132 NA  
ATOM     5   N4  UNL     1      -2.390   1.119   0.406  1.00  0.00    -0.075 NA  
ATOM     6   H10 UNL     1       0.016   2.563  -1.243  1.00  0.00     0.083 HD  
ENDROOT
BRANCH   1   7
ATOM     7   C6  UNL     1      -2.729   3.257  -0.719  1.00  0.00     0.162 C   
BRANCH   7   8
ATOM     8   C5  UNL     1      -2.754   3.429  -2.226  1.00  0.00     0.014 A   
ATOM     9   C2  UNL     1      -3.351   3.191  -4.621  1.00  0.00    -0.014 A   
ATOM     10  C3  UNL     1      -2.308   4.073  -4.428  1.00  0.00     0.011 A   
ATOM     11  S1  UNL     1      -3.905   2.538  -3.144  1.00  0.00    -0.097 S   
ATOM     12  C4  UNL     1      -1.966   4.213  -3.051  1.00  0.00     0.014 A   
ATOM     13  C1  UNL     1      -3.998   2.784  -5.903  1.00  0.00     0.052 C   
ENDBRANCH   7   8
BRANCH   7  14
ATOM     14  C7  UNL     1      -2.358   4.531   0.061  1.00  0.00     0.186 C   
BRANCH  14  15
ATOM     15  O1  UNL     1      -0.993   4.927  -0.113  1.00  0.00    -0.394 OA  
ATOM     16  H9  UNL     1      -0.887   5.782   0.341  1.00  0.00     0.210 HD  
ENDBRANCH  14  15
ENDBRANCH   7  14
ENDBRANCH   1   7
BRANCH   3  17
ATOM     17  C10 UNL     1       0.904  -0.214  -0.120  1.00  0.00     0.114 C   
BRANCH  17  18
ATOM     18  C11 UNL     1       1.003  -1.022  -1.430  1.00  0.00     0.064 C   
BRANCH  18  19
ATOM     19  C12 UNL     1       2.239  -1.933  -1.593  1.00  0.00    -0.012 C   
ATOM     20  C13 UNL     1       3.557  -1.179  -1.405  1.00  0.00     0.007 C   
ATOM     21  C14 UNL     1       2.212  -2.589  -2.978  1.00  0.00     0.007 C   
ENDBRANCH  18  19
ENDBRANCH  17  18
BRANCH  17  22
ATOM     22  N2  UNL     1       0.883  -1.161   1.048  1.00  0.00     0.249 N   
ATOM     23  H21 UNL     1       1.538  -1.939   0.933  1.00  0.00     0.199 HD  
ATOM     24  H22 UNL     1      -0.061  -1.574   1.072  1.00  0.00     0.199 HD  
BRANCH  22  25
ATOM     25  C15 UNL     1       1.126  -0.532   2.377  1.00  0.00     0.164 C   
BRANCH  25  26
ATOM     26  C16 UNL     1       0.939  -1.544   3.471  1.00  0.00    -0.002 A   
ATOM     27  C17 UNL     1      -0.357  -1.806   3.977  1.00  0.00     0.012 A   
ATOM     28  C21 UNL     1       2.033  -2.281   3.954  1.00  0.00     0.045 A   
ATOM     29  C18 UNL     1      -0.564  -2.783   4.957  1.00  0.00     0.037 A   
ATOM     30  C20 UNL     1       1.794  -3.237   4.922  1.00  0.00     0.109 A   
ATOM     31  C19 UNL     1       0.534  -3.482   5.409  1.00  0.00     0.108 A   
ATOM     32  O2  UNL     1       2.734  -4.040   5.490  1.00  0.00    -0.316 OA  
ATOM     33  O3  UNL     1       0.520  -4.467   6.343  1.00  0.00    -0.316 OA  
ATOM     34  C22 UNL     1       1.922  -4.801   6.414  1.00  0.00     0.337 C   
ENDBRANCH  25  26
ENDBRANCH  22  25
ENDBRANCH  17  22
ENDBRANCH   3  17
TORSDOF 10
