REMARK SMILES COc1cccc(F)c1Cn1cc([C@H](CC(C)C)[NH2+]Cc2ccc3c(c2)OCO3)nn1
REMARK SMILES IDX 11 1 12 2 13 3 30 4 31 5 10 7 9 8 3 9 4 10 5 11 7 12 6 13
REMARK SMILES IDX 8 14 2 15 1 16 14 17 15 18 16 19 17 20 18 21 19 22 20 25
REMARK SMILES IDX 21 26 22 27 26 28 23 29 25 30 24 31 27 32 29 33 28 34
REMARK H PARENT 12 6 19 23 19 24
ROOT
ATOM     1   N1  UNL     1      -1.757  -1.915  -0.597  1.00  0.00    -0.208 N   
ATOM     2   C9  UNL     1      -0.488  -1.416  -0.707  1.00  0.00     0.046 A   
ATOM     3   C10 UNL     1      -0.147  -1.084   0.583  1.00  0.00     0.127 A   
ATOM     4   N3  UNL     1      -1.176  -1.417   1.421  1.00  0.00    -0.132 NA  
ATOM     5   N4  UNL     1      -2.156  -1.920   0.689  1.00  0.00    -0.076 NA  
ATOM     6   H9  UNL     1       0.011  -1.312  -1.660  1.00  0.00     0.083 HD  
ENDROOT
BRANCH   1   7
ATOM     7   C8  UNL     1      -2.636  -2.367  -1.662  1.00  0.00     0.175 C   
BRANCH   7   8
ATOM     8   C7  UNL     1      -3.405  -1.213  -2.250  1.00  0.00     0.037 A   
ATOM     9   C2  UNL     1      -4.712  -0.902  -1.838  1.00  0.00     0.082 A   
ATOM     10  C3  UNL     1      -5.372   0.197  -2.401  1.00  0.00     0.034 A   
ATOM     11  C4  UNL     1      -4.742   0.989  -3.365  1.00  0.00     0.006 A   
ATOM     12  C6  UNL     1      -2.794  -0.403  -3.215  1.00  0.00     0.130 A   
ATOM     13  C5  UNL     1      -3.447   0.689  -3.772  1.00  0.00     0.040 A   
ATOM     14  F1  UNL     1      -1.541  -0.673  -3.607  1.00  0.00    -0.207 F   
BRANCH   9  15
ATOM     15  O1  UNL     1      -5.243  -1.727  -0.884  1.00  0.00    -0.349 OA  
ATOM     16  C1  UNL     1      -6.590  -1.494  -0.485  1.00  0.00     0.203 C   
ENDBRANCH   9  15
ENDBRANCH   7   8
ENDBRANCH   1   7
BRANCH   3  17
ATOM     17  C11 UNL     1       1.051  -0.385   1.125  1.00  0.00     0.114 C   
BRANCH  17  18
ATOM     18  C12 UNL     1       2.024  -1.342   1.840  1.00  0.00     0.064 C   
BRANCH  18  19
ATOM     19  C13 UNL     1       2.647  -2.435   0.944  1.00  0.00    -0.012 C   
ATOM     20  C14 UNL     1       3.528  -3.357   1.792  1.00  0.00     0.007 C   
ATOM     21  C15 UNL     1       3.470  -1.848  -0.204  1.00  0.00     0.007 C   
ENDBRANCH  18  19
ENDBRANCH  17  18
BRANCH  17  22
ATOM     22  N2  UNL     1       0.636   0.660   2.146  1.00  0.00     0.249 N   
ATOM     23  H20 UNL     1       1.468   1.075   2.572  1.00  0.00     0.199 HD  
ATOM     24  H21 UNL     1       0.128   0.155   2.884  1.00  0.00     0.199 HD  
BRANCH  22  25
ATOM     25  C16 UNL     1      -0.270   1.748   1.664  1.00  0.00     0.164 C   
BRANCH  25  26
ATOM     26  C17 UNL     1       0.290   2.535   0.514  1.00  0.00    -0.002 A   
ATOM     27  C18 UNL     1       1.388   3.408   0.703  1.00  0.00     0.012 A   
ATOM     28  C22 UNL     1      -0.263   2.385  -0.770  1.00  0.00     0.045 A   
ATOM     29  C19 UNL     1       1.936   4.111  -0.373  1.00  0.00     0.037 A   
ATOM     30  C21 UNL     1       0.301   3.091  -1.809  1.00  0.00     0.109 A   
ATOM     31  C20 UNL     1       1.372   3.927  -1.617  1.00  0.00     0.108 A   
ATOM     32  O2  UNL     1      -0.105   3.052  -3.106  1.00  0.00    -0.316 OA  
ATOM     33  O3  UNL     1       1.779   4.519  -2.769  1.00  0.00    -0.316 OA  
ATOM     34  C23 UNL     1       0.837   3.965  -3.713  1.00  0.00     0.337 C   
ENDBRANCH  25  26
ENDBRANCH  22  25
ENDBRANCH  17  22
ENDBRANCH   3  17
TORSDOF 9
