REMARK SMILES Cc1ccc(F)c(CCn2cc([C@@H]([NH2+]Cc3ccc4c(c3)OCO4)C3CCCCC3)nn2)c1
REMARK SMILES IDX 10 1 11 2 12 3 31 4 32 5 9 7 8 8 7 9 2 10 3 11 33 12 4 13
REMARK SMILES IDX 5 14 1 15 6 16 13 17 14 18 15 21 16 22 17 23 21 24 18 25
REMARK SMILES IDX 20 26 19 27 22 28 24 29 23 30 25 31 26 32 30 33 27 34 29 35
REMARK SMILES IDX 28 36
REMARK H PARENT 11 6 14 19 14 20
ROOT
ATOM     1   N1  UNL     1      -1.541  -1.923  -1.467  1.00  0.00    -0.212 N   
ATOM     2   C9  UNL     1      -0.476  -1.348  -0.833  1.00  0.00     0.045 A   
ATOM     3   C10 UNL     1      -0.810  -0.013  -0.780  1.00  0.00     0.127 A   
ATOM     4   N3  UNL     1      -1.994   0.182  -1.446  1.00  0.00    -0.132 NA  
ATOM     5   N4  UNL     1      -2.418  -0.992  -1.882  1.00  0.00    -0.076 NA  
ATOM     6   H10 UNL     1       0.345  -1.927  -0.435  1.00  0.00     0.083 HD  
ENDROOT
BRANCH   1   7
ATOM     7   C8  UNL     1      -1.805  -3.331  -1.683  1.00  0.00     0.139 C   
BRANCH   7   8
ATOM     8   C7  UNL     1      -2.691  -3.940  -0.594  1.00  0.00     0.060 C   
BRANCH   8   9
ATOM     9   C6  UNL     1      -1.954  -4.183   0.702  1.00  0.00    -0.010 A   
ATOM     10  C2  UNL     1      -0.551  -5.607   2.101  1.00  0.00    -0.051 A   
ATOM     11  C3  UNL     1      -0.566  -4.628   3.102  1.00  0.00     0.006 A   
ATOM     12  C26 UNL     1      -1.255  -5.382   0.908  1.00  0.00     0.010 A   
ATOM     13  C4  UNL     1      -1.254  -3.432   2.906  1.00  0.00     0.040 A   
ATOM     14  C5  UNL     1      -1.937  -3.219   1.714  1.00  0.00     0.126 A   
ATOM     15  C1  UNL     1       0.148  -6.915   2.335  1.00  0.00     0.044 C   
ATOM     16  F1  UNL     1      -2.572  -2.052   1.538  1.00  0.00    -0.207 F   
ENDBRANCH   8   9
ENDBRANCH   7   8
ENDBRANCH   1   7
BRANCH   3  17
ATOM     17  C11 UNL     1      -0.129   1.151  -0.135  1.00  0.00     0.117 C   
BRANCH  17  18
ATOM     18  N2  UNL     1      -0.661   2.446  -0.703  1.00  0.00     0.249 N   
ATOM     19  H12 UNL     1      -1.680   2.313  -0.789  1.00  0.00     0.199 HD  
ATOM     20  H13 UNL     1      -0.512   3.226  -0.059  1.00  0.00     0.199 HD  
BRANCH  18  21
ATOM     21  C12 UNL     1      -0.155   2.820  -2.056  1.00  0.00     0.164 C   
BRANCH  21  22
ATOM     22  C13 UNL     1       1.265   3.315  -2.024  1.00  0.00    -0.002 A   
ATOM     23  C14 UNL     1       1.571   4.580  -1.465  1.00  0.00     0.012 A   
ATOM     24  C18 UNL     1       2.303   2.513  -2.529  1.00  0.00     0.045 A   
ATOM     25  C15 UNL     1       2.891   5.038  -1.404  1.00  0.00     0.037 A   
ATOM     26  C17 UNL     1       3.593   2.997  -2.457  1.00  0.00     0.109 A   
ATOM     27  C16 UNL     1       3.879   4.222  -1.909  1.00  0.00     0.108 A   
ATOM     28  O1  UNL     1       4.705   2.350  -2.895  1.00  0.00    -0.316 OA  
ATOM     29  O2  UNL     1       5.208   4.503  -1.935  1.00  0.00    -0.316 OA  
ATOM     30  C19 UNL     1       5.724   3.336  -2.611  1.00  0.00     0.337 C   
ENDBRANCH  21  22
ENDBRANCH  18  21
ENDBRANCH  17  18
BRANCH  17  31
ATOM     31  C20 UNL     1      -0.295   1.133   1.410  1.00  0.00     0.043 C   
ATOM     32  C21 UNL     1      -1.738   1.388   1.889  1.00  0.00     0.010 C   
ATOM     33  C25 UNL     1       0.675   2.113   2.100  1.00  0.00     0.010 C   
ATOM     34  C22 UNL     1      -1.844   1.311   3.412  1.00  0.00     0.001 C   
ATOM     35  C24 UNL     1       0.564   2.033   3.622  1.00  0.00     0.001 C   
ATOM     36  C23 UNL     1      -0.868   2.264   4.094  1.00  0.00     0.000 C   
ENDBRANCH  17  31
ENDBRANCH   3  17
TORSDOF 8
