REMARK SMILES Cc1cc(-n2cc([C@H](CC(C)C)[NH2+]Cc3ccc4c(c3)OCO4)nn2)cnc1Cl
REMARK SMILES IDX 8 1 7 2 5 3 6 4 25 5 24 6 4 7 2 8 3 9 28 10 27 11 26 12 1 13
REMARK SMILES IDX 29 14 9 15 10 16 11 17 12 18 13 19 14 22 15 23 16 24 20 25
REMARK SMILES IDX 17 26 19 27 18 28 21 29 23 30 22 31
REMARK H PARENT 13 20 13 21
ROOT
ATOM     1   C7  UNL     1       1.428   2.073   0.021  1.00  0.00     0.114 C   
ENDROOT
BRANCH   1   2
ATOM     2   C6  UNL     1       0.159   2.157   0.815  1.00  0.00     0.127 A   
ATOM     3   N1  UNL     1      -1.539   2.647   2.110  1.00  0.00    -0.179 N   
ATOM     4   C5  UNL     1      -0.303   3.109   1.698  1.00  0.00     0.135 A   
ATOM     5   N4  UNL     1      -1.778   1.452   1.513  1.00  0.00    -0.071 NA  
ATOM     6   N3  UNL     1      -0.763   1.155   0.718  1.00  0.00    -0.131 NA  
BRANCH   3   7
ATOM     7   C4  UNL     1      -2.465   3.234   2.998  1.00  0.00     0.076 A   
ATOM     8   C2  UNL     1      -4.590   3.195   4.173  1.00  0.00    -0.012 A   
ATOM     9   C3  UNL     1      -3.680   2.599   3.287  1.00  0.00     0.034 A   
ATOM     10  C21 UNL     1      -4.227   4.421   4.723  1.00  0.00     0.132 A   
ATOM     11  N5  UNL     1      -3.062   5.055   4.463  1.00  0.00    -0.242 NA  
ATOM     12  C20 UNL     1      -2.208   4.452   3.609  1.00  0.00     0.138 A   
ATOM     13  C1  UNL     1      -5.900   2.533   4.479  1.00  0.00     0.048 C   
ATOM     14  CL1 UNL     1      -5.237   5.286   5.811  1.00  0.00    -0.062 Cl  
ENDBRANCH   3   7
ENDBRANCH   1   2
BRANCH   1  15
ATOM     15  C8  UNL     1       1.297   2.868  -1.294  1.00  0.00     0.064 C   
BRANCH  15  16
ATOM     16  C9  UNL     1       2.557   2.945  -2.182  1.00  0.00    -0.012 C   
ATOM     17  C10 UNL     1       3.761   3.529  -1.444  1.00  0.00     0.007 C   
ATOM     18  C11 UNL     1       2.255   3.789  -3.426  1.00  0.00     0.007 C   
ENDBRANCH  15  16
ENDBRANCH   1  15
BRANCH   1  19
ATOM     19  N2  UNL     1       1.750   0.638  -0.298  1.00  0.00     0.249 N   
ATOM     20  H16 UNL     1       0.873   0.196  -0.612  1.00  0.00     0.199 HD  
ATOM     21  H17 UNL     1       2.407   0.550  -1.078  1.00  0.00     0.199 HD  
BRANCH  19  22
ATOM     22  C12 UNL     1       2.267  -0.170   0.843  1.00  0.00     0.164 C   
BRANCH  22  23
ATOM     23  C13 UNL     1       2.495  -1.591   0.415  1.00  0.00    -0.002 A   
ATOM     24  C14 UNL     1       3.766  -2.007  -0.048  1.00  0.00     0.012 A   
ATOM     25  C18 UNL     1       1.425  -2.504   0.416  1.00  0.00     0.045 A   
ATOM     26  C15 UNL     1       3.974  -3.316  -0.494  1.00  0.00     0.037 A   
ATOM     27  C17 UNL     1       1.665  -3.786  -0.032  1.00  0.00     0.109 A   
ATOM     28  C16 UNL     1       2.902  -4.182  -0.474  1.00  0.00     0.108 A   
ATOM     29  O1  UNL     1       0.746  -4.785  -0.099  1.00  0.00    -0.316 OA  
ATOM     30  O2  UNL     1       2.920  -5.479  -0.874  1.00  0.00    -0.316 OA  
ATOM     31  C19 UNL     1       1.553  -5.867  -0.618  1.00  0.00     0.337 C   
ENDBRANCH  22  23
ENDBRANCH  19  22
ENDBRANCH   1  19
TORSDOF 7
