REMARK SMILES CC(C)(C)[C@H]([NH2+]Cc1ccc2c(c1)OCO2)c1cn([C@H]2CCCc3[nH]ccc32)nn1
REMARK SMILES IDX 5 1 2 2 1 3 3 4 4 5 6 6 7 9 8 10 9 11 13 12 10 13 12 14
REMARK SMILES IDX 11 15 14 16 16 17 15 18 17 19 18 20 30 21 19 22 29 23 20 25
REMARK SMILES IDX 21 26 28 27 22 28 24 29 27 30 23 31 25 32 26 33
REMARK H PARENT 6 7 6 8 18 24 25 34
ROOT
ATOM     1   C5  UNL     1       0.952   1.017   0.953  1.00  0.00     0.120 C   
ENDROOT
BRANCH   1   2
ATOM     2   C2  UNL     1       1.921   0.411   2.031  1.00  0.00     0.010 C   
ATOM     3   C1  UNL     1       1.321  -0.889   2.616  1.00  0.00     0.017 C   
ATOM     4   C3  UNL     1       2.202   1.381   3.196  1.00  0.00     0.017 C   
ATOM     5   C4  UNL     1       3.272   0.029   1.383  1.00  0.00     0.017 C   
ENDBRANCH   1   2
BRANCH   1   6
ATOM     6   N1  UNL     1       1.528   2.304   0.394  1.00  0.00     0.250 N   
ATOM     7   H11 UNL     1       1.377   3.021   1.118  1.00  0.00     0.199 HD  
ATOM     8   H12 UNL     1       2.536   2.226   0.248  1.00  0.00     0.199 HD  
BRANCH   6   9
ATOM     9   C6  UNL     1       0.903   2.820  -0.862  1.00  0.00     0.164 C   
BRANCH   9  10
ATOM     10  C7  UNL     1       1.167   1.938  -2.050  1.00  0.00    -0.002 A   
ATOM     11  C8  UNL     1       2.447   1.914  -2.656  1.00  0.00     0.012 A   
ATOM     12  C12 UNL     1       0.151   1.104  -2.548  1.00  0.00     0.045 A   
ATOM     13  C9  UNL     1       2.712   1.069  -3.739  1.00  0.00     0.037 A   
ATOM     14  C11 UNL     1       0.447   0.282  -3.614  1.00  0.00     0.109 A   
ATOM     15  C10 UNL     1       1.692   0.264  -4.193  1.00  0.00     0.108 A   
ATOM     16  O1  UNL     1      -0.413  -0.588  -4.205  1.00  0.00    -0.316 OA  
ATOM     17  O2  UNL     1       1.771  -0.615  -5.225  1.00  0.00    -0.316 OA  
ATOM     18  C13 UNL     1       0.424  -1.135  -5.250  1.00  0.00     0.337 C   
ENDBRANCH   9  10
ENDBRANCH   6   9
ENDBRANCH   1   6
BRANCH   1  19
ATOM     19  C14 UNL     1      -0.432   1.286   1.458  1.00  0.00     0.127 A   
ATOM     20  C15 UNL     1      -1.576   0.521   1.418  1.00  0.00     0.046 A   
ATOM     21  N5  UNL     1      -0.728   2.504   2.011  1.00  0.00    -0.132 NA  
ATOM     22  N2  UNL     1      -2.526   1.300   2.026  1.00  0.00    -0.205 N   
ATOM     23  N4  UNL     1      -2.009   2.508   2.341  1.00  0.00    -0.075 NA  
ATOM     24  H20 UNL     1      -1.789  -0.477   1.058  1.00  0.00     0.083 HD  
BRANCH  22  25
ATOM     25  C16 UNL     1      -3.935   1.015   2.309  1.00  0.00     0.131 C   
ATOM     26  C17 UNL     1      -4.852   1.489   1.151  1.00  0.00     0.030 C   
ATOM     27  C23 UNL     1      -4.149  -0.446   2.591  1.00  0.00    -0.007 A   
ATOM     28  C18 UNL     1      -4.938   0.477  -0.012  1.00  0.00     0.008 C   
ATOM     29  C20 UNL     1      -4.825  -1.285   1.724  1.00  0.00     0.012 A   
ATOM     30  C22 UNL     1      -3.754  -1.232   3.703  1.00  0.00     0.022 A   
ATOM     31  C19 UNL     1      -5.469  -0.896   0.440  1.00  0.00     0.052 C   
ATOM     32  N3  UNL     1      -4.857  -2.540   2.267  1.00  0.00    -0.324 N   
ATOM     33  C21 UNL     1      -4.196  -2.517   3.470  1.00  0.00     0.072 A   
ATOM     34  H28 UNL     1      -5.311  -3.351   1.864  1.00  0.00     0.152 HD  
ENDBRANCH  22  25
ENDBRANCH   1  19
TORSDOF 6
