REMARK SMILES CC(C)[C@H]([NH2+]Cc1ccc2c(c1)OCO2)c1cn(CCc2ccsc2)nn1
REMARK SMILES IDX 16 1 17 2 18 3 26 4 27 5 4 7 2 8 1 9 3 10 5 11 6 14 7 15
REMARK SMILES IDX 8 16 12 17 9 18 11 19 10 20 13 21 15 22 14 23 19 24 20 25
REMARK SMILES IDX 21 26 22 27 25 28 23 29 24 30
REMARK H PARENT 17 6 5 12 5 13
ROOT
ATOM     1   C13 UNL     1       0.410   0.145  -0.625  1.00  0.00     0.127 A   
ATOM     2   C14 UNL     1       0.584   1.072  -1.628  1.00  0.00     0.045 A   
ATOM     3   N2  UNL     1       0.133   2.239  -1.078  1.00  0.00    -0.212 N   
ATOM     4   N3  UNL     1      -0.222   2.062   0.208  1.00  0.00    -0.076 NA  
ATOM     5   N4  UNL     1      -0.074   0.779   0.493  1.00  0.00    -0.132 NA  
ATOM     6   H18 UNL     1       0.916   1.006  -2.655  1.00  0.00     0.083 HD  
ENDROOT
BRANCH   1   7
ATOM     7   C4  UNL     1       0.644  -1.333  -0.598  1.00  0.00     0.117 C   
BRANCH   7   8
ATOM     8   C2  UNL     1      -0.444  -2.107  -1.389  1.00  0.00     0.037 C   
ATOM     9   C1  UNL     1      -1.837  -2.046  -0.750  1.00  0.00     0.014 C   
ATOM     10  C3  UNL     1      -0.044  -3.568  -1.625  1.00  0.00     0.014 C   
ENDBRANCH   7   8
BRANCH   7  11
ATOM     11  N1  UNL     1       0.707  -1.828   0.822  1.00  0.00     0.249 N   
ATOM     12  H9  UNL     1      -0.046  -1.347   1.336  1.00  0.00     0.199 HD  
ATOM     13  H10 UNL     1       0.508  -2.830   0.894  1.00  0.00     0.199 HD  
BRANCH  11  14
ATOM     14  C5  UNL     1       1.978  -1.535   1.540  1.00  0.00     0.164 C   
BRANCH  14  15
ATOM     15  C6  UNL     1       1.879  -1.969   2.975  1.00  0.00    -0.002 A   
ATOM     16  C7  UNL     1       1.332  -1.093   3.944  1.00  0.00     0.012 A   
ATOM     17  C11 UNL     1       2.272  -3.264   3.354  1.00  0.00     0.045 A   
ATOM     18  C8  UNL     1       1.189  -1.496   5.276  1.00  0.00     0.037 A   
ATOM     19  C10 UNL     1       2.117  -3.628   4.676  1.00  0.00     0.109 A   
ATOM     20  C9  UNL     1       1.591  -2.770   5.610  1.00  0.00     0.108 A   
ATOM     21  O1  UNL     1       2.444  -4.836   5.205  1.00  0.00    -0.316 OA  
ATOM     22  O2  UNL     1       1.524  -3.328   6.846  1.00  0.00    -0.316 OA  
ATOM     23  C12 UNL     1       2.087  -4.633   6.592  1.00  0.00     0.337 C   
ENDBRANCH  14  15
ENDBRANCH  11  14
ENDBRANCH   7  11
ENDBRANCH   1   7
BRANCH   3  24
ATOM     24  C15 UNL     1      -0.041   3.523  -1.725  1.00  0.00     0.139 C   
BRANCH  24  25
ATOM     25  C16 UNL     1      -1.496   3.795  -2.113  1.00  0.00     0.057 C   
BRANCH  25  26
ATOM     26  C17 UNL     1      -2.033   2.794  -3.100  1.00  0.00    -0.039 A   
ATOM     27  C18 UNL     1      -1.793   2.827  -4.513  1.00  0.00     0.011 A   
ATOM     28  C20 UNL     1      -2.824   1.709  -2.763  1.00  0.00     0.049 A   
ATOM     29  C19 UNL     1      -2.379   1.770  -5.174  1.00  0.00     0.046 A   
ATOM     30  S1  UNL     1      -3.216   0.730  -4.107  1.00  0.00    -0.106 S   
ENDBRANCH  25  26
ENDBRANCH  24  25
ENDBRANCH   3  24
TORSDOF 8
