REMARK SMILES CC(C)C[C@H]([NH2+]Cc1ccc2c(c1)OCO2)c1cn(C(=O)c2ccc(Cl)cc2)nn1
REMARK SMILES IDX 17 1 18 2 19 3 29 4 30 5 5 6 4 7 2 8 1 9 3 10 6 11 7 14 8 15
REMARK SMILES IDX 9 16 13 17 10 18 12 19 11 20 14 21 16 22 15 23 20 24 21 25
REMARK SMILES IDX 22 26 23 27 28 28 24 29 27 30 25 31 26 32
REMARK H PARENT 6 12 6 13
ROOT
ATOM     1   C14 UNL     1       1.204   1.098  -0.314  1.00  0.00     0.127 A   
ATOM     2   C15 UNL     1       0.896   2.028  -1.279  1.00  0.00     0.139 A   
ATOM     3   N2  UNL     1       1.045   1.363  -2.485  1.00  0.00    -0.143 N   
ATOM     4   N3  UNL     1       1.391   0.076  -2.234  1.00  0.00    -0.068 NA  
ATOM     5   N4  UNL     1       1.490  -0.094  -0.925  1.00  0.00    -0.131 NA  
ENDROOT
BRANCH   1   6
ATOM     6   C5  UNL     1       1.233   1.198   1.177  1.00  0.00     0.114 C   
BRANCH   6   7
ATOM     7   C4  UNL     1       2.643   1.497   1.723  1.00  0.00     0.064 C   
BRANCH   7   8
ATOM     8   C2  UNL     1       3.239   2.859   1.308  1.00  0.00    -0.012 C   
ATOM     9   C1  UNL     1       2.390   4.038   1.786  1.00  0.00     0.007 C   
ATOM     10  C3  UNL     1       4.660   2.990   1.865  1.00  0.00     0.007 C   
ENDBRANCH   7   8
ENDBRANCH   6   7
BRANCH   6  11
ATOM     11  N1  UNL     1       0.797  -0.111   1.793  1.00  0.00     0.249 N   
ATOM     12  H11 UNL     1       1.064  -0.161   2.783  1.00  0.00     0.199 HD  
ATOM     13  H12 UNL     1       1.320  -0.862   1.318  1.00  0.00     0.199 HD  
BRANCH  11  14
ATOM     14  C6  UNL     1      -0.654  -0.425   1.675  1.00  0.00     0.164 C   
BRANCH  14  15
ATOM     15  C7  UNL     1      -0.950  -1.767   2.280  1.00  0.00    -0.002 A   
ATOM     16  C8  UNL     1      -0.814  -2.943   1.502  1.00  0.00     0.012 A   
ATOM     17  C12 UNL     1      -1.307  -1.870   3.635  1.00  0.00     0.045 A   
ATOM     18  C9  UNL     1      -1.042  -4.204   2.062  1.00  0.00     0.037 A   
ATOM     19  C11 UNL     1      -1.524  -3.130   4.155  1.00  0.00     0.109 A   
ATOM     20  C10 UNL     1      -1.396  -4.264   3.392  1.00  0.00     0.108 A   
ATOM     21  O1  UNL     1      -1.873  -3.404   5.439  1.00  0.00    -0.316 OA  
ATOM     22  O2  UNL     1      -1.651  -5.395   4.098  1.00  0.00    -0.316 OA  
ATOM     23  C13 UNL     1      -1.977  -4.846   5.393  1.00  0.00     0.337 C   
ENDBRANCH  14  15
ENDBRANCH  11  14
ENDBRANCH   6  11
ENDBRANCH   1   6
BRANCH   3  24
ATOM     24  C16 UNL     1       0.908   1.880  -3.783  1.00  0.00     0.271 C   
ATOM     25  O3  UNL     1       0.658   3.084  -3.850  1.00  0.00    -0.269 OA  
BRANCH  24  26
ATOM     26  C17 UNL     1       1.055   1.115  -5.053  1.00  0.00     0.040 A   
ATOM     27  C18 UNL     1       0.737  -0.244  -5.163  1.00  0.00     0.015 A   
ATOM     28  C22 UNL     1       1.495   1.811  -6.190  1.00  0.00     0.015 A   
ATOM     29  C19 UNL     1       0.885  -0.903  -6.389  1.00  0.00     0.021 A   
ATOM     30  C21 UNL     1       1.642   1.150  -7.413  1.00  0.00     0.021 A   
ATOM     31  C20 UNL     1       1.340  -0.205  -7.507  1.00  0.00     0.041 A   
ATOM     32  CL1 UNL     1       1.519  -1.022  -9.008  1.00  0.00    -0.084 Cl  
ENDBRANCH  24  26
ENDBRANCH   3  24
TORSDOF 8
