REMARK SMILES COc1cc(F)c(Cn2cc([C@@H]([NH2+]Cc3ccc4c(c3)OCO4)C(C)C)nn2)c(F)c1
REMARK SMILES IDX 9 1 10 2 11 3 27 4 28 5 8 7 7 8 3 9 4 10 31 11 5 12 29 13
REMARK SMILES IDX 6 14 30 15 2 16 1 17 12 18 13 19 14 22 15 23 16 24 20 25
REMARK SMILES IDX 17 26 19 27 18 28 21 29 23 30 22 31 24 32 25 33 26 34
REMARK H PARENT 10 6 13 20 13 21
ROOT
ATOM     1   N1  UNL     1      -0.620   1.571  -0.852  1.00  0.00    -0.208 N   
ATOM     2   C7  UNL     1      -1.618   1.024  -0.092  1.00  0.00     0.046 A   
ATOM     3   C8  UNL     1      -0.953   0.434   0.960  1.00  0.00     0.127 A   
ATOM     4   N3  UNL     1       0.396   0.634   0.805  1.00  0.00    -0.132 NA  
ATOM     5   N4  UNL     1       0.586   1.328  -0.304  1.00  0.00    -0.076 NA  
ATOM     6   H7  UNL     1      -2.661   1.094  -0.371  1.00  0.00     0.083 HD  
ENDROOT
BRANCH   1   7
ATOM     7   C6  UNL     1      -0.740   2.323  -2.090  1.00  0.00     0.175 C   
BRANCH   7   8
ATOM     8   C5  UNL     1      -0.451   1.461  -3.281  1.00  0.00     0.043 A   
ATOM     9   C2  UNL     1       0.111  -0.179  -5.506  1.00  0.00     0.080 A   
ATOM     10  C3  UNL     1       1.027   0.789  -5.099  1.00  0.00     0.073 A   
ATOM     11  C22 UNL     1      -1.084  -0.328  -4.798  1.00  0.00     0.073 A   
ATOM     12  C4  UNL     1       0.738   1.594  -3.996  1.00  0.00     0.133 A   
ATOM     13  C21 UNL     1      -1.353   0.486  -3.702  1.00  0.00     0.133 A   
ATOM     14  F1  UNL     1       1.633   2.519  -3.624  1.00  0.00    -0.206 F   
ATOM     15  F2  UNL     1      -2.503   0.318  -3.034  1.00  0.00    -0.206 F   
BRANCH   9  16
ATOM     16  O1  UNL     1       0.261  -1.038  -6.557  1.00  0.00    -0.349 OA  
ATOM     17  C1  UNL     1       1.421  -0.874  -7.367  1.00  0.00     0.203 C   
ENDBRANCH   9  16
ENDBRANCH   7   8
ENDBRANCH   1   7
BRANCH   3  18
ATOM     18  C9  UNL     1      -1.443  -0.384   2.110  1.00  0.00     0.117 C   
BRANCH  18  19
ATOM     19  N2  UNL     1      -0.403  -1.413   2.483  1.00  0.00     0.249 N   
ATOM     20  H9  UNL     1      -0.546  -1.769   3.433  1.00  0.00     0.199 HD  
ATOM     21  H10 UNL     1       0.506  -0.925   2.487  1.00  0.00     0.199 HD  
BRANCH  19  22
ATOM     22  C10 UNL     1      -0.277  -2.559   1.541  1.00  0.00     0.164 C   
BRANCH  22  23
ATOM     23  C11 UNL     1       0.838  -3.470   1.970  1.00  0.00    -0.002 A   
ATOM     24  C12 UNL     1       0.570  -4.608   2.767  1.00  0.00     0.012 A   
ATOM     25  C16 UNL     1       2.165  -3.164   1.621  1.00  0.00     0.045 A   
ATOM     26  C13 UNL     1       1.609  -5.438   3.204  1.00  0.00     0.037 A   
ATOM     27  C15 UNL     1       3.164  -4.003   2.069  1.00  0.00     0.109 A   
ATOM     28  C14 UNL     1       2.895  -5.108   2.838  1.00  0.00     0.108 A   
ATOM     29  O2  UNL     1       4.492  -3.852   1.825  1.00  0.00    -0.316 OA  
ATOM     30  O3  UNL     1       4.019  -5.793   3.174  1.00  0.00    -0.316 OA  
ATOM     31  C17 UNL     1       5.031  -5.003   2.514  1.00  0.00     0.337 C   
ENDBRANCH  22  23
ENDBRANCH  19  22
ENDBRANCH  18  19
BRANCH  18  32
ATOM     32  C18 UNL     1      -1.792   0.441   3.376  1.00  0.00     0.037 C   
ATOM     33  C19 UNL     1      -2.989   1.368   3.135  1.00  0.00     0.014 C   
ATOM     34  C20 UNL     1      -0.619   1.249   3.943  1.00  0.00     0.014 C   
ENDBRANCH  18  32
ENDBRANCH   3  18
TORSDOF 8
