REMARK SMILES c1nc(C2CC2)c(CCn2cc([C@@H]([NH2+]Cc3ccc4c(c3)OCO4)C3CCCCC3)nn2)s1
REMARK SMILES IDX 10 1 11 2 12 3 31 4 32 5 9 7 8 8 7 9 1 10 2 11 33 12 3 13
REMARK SMILES IDX 4 14 5 15 6 16 13 17 14 18 15 21 16 22 17 23 21 24 18 25
REMARK SMILES IDX 20 26 19 27 22 28 24 29 23 30 25 31 26 32 30 33 27 34 29 35
REMARK SMILES IDX 28 36
REMARK H PARENT 11 6 14 19 14 20
ROOT
ATOM     1   N2  UNL     1       1.605  -1.570  -3.247  1.00  0.00    -0.212 N   
ATOM     2   C9  UNL     1       2.163  -0.529  -2.554  1.00  0.00     0.045 A   
ATOM     3   C10 UNL     1       1.445  -0.500  -1.377  1.00  0.00     0.127 A   
ATOM     4   N4  UNL     1       0.661  -1.620  -1.310  1.00  0.00    -0.132 NA  
ATOM     5   N5  UNL     1       0.766  -2.268  -2.462  1.00  0.00    -0.076 NA  
ATOM     6   H11 UNL     1       2.864   0.158  -3.009  1.00  0.00     0.083 HD  
ENDROOT
BRANCH   1   7
ATOM     7   C8  UNL     1       1.568  -1.712  -4.691  1.00  0.00     0.139 C   
BRANCH   7   8
ATOM     8   C7  UNL     1       0.313  -1.080  -5.328  1.00  0.00     0.066 C   
BRANCH   8   9
ATOM     9   C6  UNL     1      -0.003   0.279  -4.760  1.00  0.00     0.014 A   
ATOM     10  C1  UNL     1       0.078   2.564  -3.983  1.00  0.00     0.157 A   
ATOM     11  N1  UNL     1      -0.768   1.886  -3.230  1.00  0.00    -0.253 NA  
ATOM     12  S1  UNL     1       0.884   1.677  -5.213  1.00  0.00    -0.080 S   
ATOM     13  C2  UNL     1      -0.944   0.638  -3.809  1.00  0.00     0.054 A   
BRANCH  13  14
ATOM     14  C3  UNL     1      -2.067  -0.332  -3.331  1.00  0.00     0.039 C   
ATOM     15  C4  UNL     1      -3.402   0.223  -2.908  1.00  0.00     0.011 C   
ATOM     16  C5  UNL     1      -3.276  -0.491  -4.221  1.00  0.00     0.011 C   
ENDBRANCH  13  14
ENDBRANCH   8   9
ENDBRANCH   7   8
ENDBRANCH   1   7
BRANCH   3  17
ATOM     17  C11 UNL     1       1.359   0.592  -0.358  1.00  0.00     0.117 C   
BRANCH  17  18
ATOM     18  N3  UNL     1       0.014   1.292  -0.401  1.00  0.00     0.249 N   
ATOM     19  H13 UNL     1      -0.139   1.560  -1.391  1.00  0.00     0.199 HD  
ATOM     20  H14 UNL     1       0.054   2.174   0.113  1.00  0.00     0.199 HD  
BRANCH  18  21
ATOM     21  C12 UNL     1      -1.240   0.567  -0.032  1.00  0.00     0.164 C   
BRANCH  21  22
ATOM     22  C13 UNL     1      -1.538   0.510   1.440  1.00  0.00    -0.002 A   
ATOM     23  C14 UNL     1      -1.900   1.681   2.150  1.00  0.00     0.012 A   
ATOM     24  C18 UNL     1      -1.472  -0.717   2.123  1.00  0.00     0.045 A   
ATOM     25  C15 UNL     1      -2.156   1.638   3.525  1.00  0.00     0.037 A   
ATOM     26  C17 UNL     1      -1.728  -0.725   3.478  1.00  0.00     0.109 A   
ATOM     27  C16 UNL     1      -2.056   0.420   4.161  1.00  0.00     0.108 A   
ATOM     28  O1  UNL     1      -1.685  -1.818   4.285  1.00  0.00    -0.316 OA  
ATOM     29  O2  UNL     1      -2.255   0.192   5.487  1.00  0.00    -0.316 OA  
ATOM     30  C19 UNL     1      -2.067  -1.238   5.552  1.00  0.00     0.337 C   
ENDBRANCH  21  22
ENDBRANCH  18  21
ENDBRANCH  17  18
BRANCH  17  31
ATOM     31  C20 UNL     1       1.808   0.200   1.071  1.00  0.00     0.043 C   
ATOM     32  C21 UNL     1       1.890   1.430   2.001  1.00  0.00     0.010 C   
ATOM     33  C25 UNL     1       3.185  -0.508   1.060  1.00  0.00     0.010 C   
ATOM     34  C22 UNL     1       2.353   1.061   3.408  1.00  0.00     0.001 C   
ATOM     35  C24 UNL     1       3.659  -0.869   2.467  1.00  0.00     0.001 C   
ATOM     36  C23 UNL     1       3.698   0.348   3.381  1.00  0.00     0.000 C   
ENDBRANCH  17  31
ENDBRANCH   3  17
TORSDOF 9
