REMARK SMILES CC(C)(C)[C@H]([NH2+]Cc1ccc2c(c1)OCO2)c1cn(-c2ccnc(N)c2)nn1
REMARK SMILES IDX 17 1 18 2 19 3 27 4 28 5 5 6 2 7 1 8 3 9 4 10 6 11 7 14 8 15
REMARK SMILES IDX 9 16 13 17 10 18 12 19 11 20 14 21 16 22 15 23 20 24 21 25
REMARK SMILES IDX 26 26 22 27 24 28 23 29 25 30
REMARK H PARENT 6 12 6 13 25 31 25 32
ROOT
ATOM     1   C14 UNL     1      -0.643  -1.690  -0.204  1.00  0.00     0.128 A   
ATOM     2   C15 UNL     1      -1.176  -0.703   0.595  1.00  0.00     0.135 A   
ATOM     3   N2  UNL     1      -0.142  -0.325   1.430  1.00  0.00    -0.180 N   
ATOM     4   N5  UNL     1       0.926  -1.131   1.195  1.00  0.00    -0.071 NA  
ATOM     5   N6  UNL     1       0.640  -1.942   0.190  1.00  0.00    -0.131 NA  
ENDROOT
BRANCH   1   6
ATOM     6   C5  UNL     1      -1.184  -2.360  -1.432  1.00  0.00     0.120 C   
BRANCH   6   7
ATOM     7   C2  UNL     1      -1.707  -3.818  -1.194  1.00  0.00     0.010 C   
ATOM     8   C1  UNL     1      -0.588  -4.803  -0.801  1.00  0.00     0.017 C   
ATOM     9   C3  UNL     1      -2.772  -3.821  -0.073  1.00  0.00     0.017 C   
ATOM     10  C4  UNL     1      -2.399  -4.350  -2.471  1.00  0.00     0.017 C   
ENDBRANCH   6   7
BRANCH   6  11
ATOM     11  N1  UNL     1      -0.106  -2.343  -2.503  1.00  0.00     0.250 N   
ATOM     12  H11 UNL     1      -0.148  -3.181  -3.088  1.00  0.00     0.199 HD  
ATOM     13  H12 UNL     1       0.794  -2.400  -2.000  1.00  0.00     0.199 HD  
BRANCH  11  14
ATOM     14  C6  UNL     1      -0.066  -1.143  -3.395  1.00  0.00     0.164 C   
BRANCH  14  15
ATOM     15  C7  UNL     1       0.265   0.138  -2.681  1.00  0.00    -0.002 A   
ATOM     16  C8  UNL     1       1.586   0.385  -2.236  1.00  0.00     0.012 A   
ATOM     17  C12 UNL     1      -0.746   1.071  -2.389  1.00  0.00     0.045 A   
ATOM     18  C9  UNL     1       1.893   1.529  -1.491  1.00  0.00     0.037 A   
ATOM     19  C11 UNL     1      -0.411   2.182  -1.641  1.00  0.00     0.109 A   
ATOM     20  C10 UNL     1       0.870   2.404  -1.204  1.00  0.00     0.108 A   
ATOM     21  O1  UNL     1      -1.275   3.146  -1.229  1.00  0.00    -0.316 OA  
ATOM     22  O2  UNL     1       0.979   3.542  -0.471  1.00  0.00    -0.316 OA  
ATOM     23  C13 UNL     1      -0.379   4.031  -0.513  1.00  0.00     0.337 C   
ENDBRANCH  14  15
ENDBRANCH  11  14
ENDBRANCH   6  11
ENDBRANCH   1   6
BRANCH   3  24
ATOM     24  C16 UNL     1      -0.088   0.746   2.351  1.00  0.00     0.062 A   
ATOM     25  C17 UNL     1       1.088   0.986   3.063  1.00  0.00     0.046 A   
ATOM     26  C20 UNL     1      -1.181   1.597   2.529  1.00  0.00     0.070 A   
ATOM     27  C18 UNL     1       1.117   2.080   3.908  1.00  0.00     0.115 A   
ATOM     28  C19 UNL     1      -1.050   2.668   3.401  1.00  0.00     0.117 A   
ATOM     29  N3  UNL     1       0.076   2.922   4.080  1.00  0.00    -0.242 NA  
BRANCH  28  30
ATOM     30  N4  UNL     1      -2.094   3.572   3.570  1.00  0.00    -0.343 N   
ATOM     31  H23 UNL     1      -2.946   3.116   3.877  1.00  0.00     0.144 HD  
ATOM     32  H24 UNL     1      -1.780   4.252   4.261  1.00  0.00     0.144 HD  
ENDBRANCH  28  30
ENDBRANCH   3  24
TORSDOF 7
