REMARK SMILES CC(C)C[C@H]([NH2+]Cc1ccc2c(c1)OCO2)c1cn(C[C@H]2Cc3cc(F)ccc3O2)nn1
REMARK SMILES IDX 17 1 18 2 19 3 31 4 32 5 5 7 4 8 2 9 1 10 3 11 6 12 7 15
REMARK SMILES IDX 8 16 9 17 13 18 10 19 12 20 11 21 14 22 16 23 15 24 20 25
REMARK SMILES IDX 21 26 22 27 30 28 23 29 29 30 24 31 28 32 25 33 27 34 26 35
REMARK H PARENT 18 6 6 13 6 14
ROOT
ATOM     1   C14 UNL     1      -0.324  -1.884  -0.349  1.00  0.00     0.127 A   
ATOM     2   C15 UNL     1       0.851  -1.674  -1.036  1.00  0.00     0.045 A   
ATOM     3   N2  UNL     1       0.463  -1.603  -2.344  1.00  0.00    -0.210 N   
ATOM     4   N3  UNL     1      -0.860  -1.821  -2.464  1.00  0.00    -0.076 NA  
ATOM     5   N4  UNL     1      -1.355  -1.987  -1.250  1.00  0.00    -0.132 NA  
ATOM     6   H20 UNL     1       1.879  -1.539  -0.729  1.00  0.00     0.083 HD  
ENDROOT
BRANCH   1   7
ATOM     7   C5  UNL     1      -0.617  -1.979   1.116  1.00  0.00     0.114 C   
BRANCH   7   8
ATOM     8   C4  UNL     1       0.136  -3.149   1.778  1.00  0.00     0.064 C   
BRANCH   8   9
ATOM     9   C2  UNL     1      -0.015  -3.252   3.310  1.00  0.00    -0.012 C   
ATOM     10  C1  UNL     1       0.650  -4.539   3.807  1.00  0.00     0.007 C   
ATOM     11  C3  UNL     1       0.594  -2.050   4.034  1.00  0.00     0.007 C   
ENDBRANCH   8   9
ENDBRANCH   7   8
BRANCH   7  12
ATOM     12  N1  UNL     1      -2.105  -2.174   1.315  1.00  0.00     0.249 N   
ATOM     13  H11 UNL     1      -2.510  -2.187   0.363  1.00  0.00     0.199 HD  
ATOM     14  H12 UNL     1      -2.305  -3.106   1.691  1.00  0.00     0.199 HD  
BRANCH  12  15
ATOM     15  C6  UNL     1      -2.822  -1.131   2.093  1.00  0.00     0.164 C   
BRANCH  15  16
ATOM     16  C7  UNL     1      -2.905   0.191   1.381  1.00  0.00    -0.002 A   
ATOM     17  C8  UNL     1      -2.194   1.314   1.866  1.00  0.00     0.012 A   
ATOM     18  C12 UNL     1      -3.687   0.320   0.219  1.00  0.00     0.045 A   
ATOM     19  C9  UNL     1      -2.255   2.545   1.204  1.00  0.00     0.037 A   
ATOM     20  C11 UNL     1      -3.724   1.547  -0.410  1.00  0.00     0.109 A   
ATOM     21  C10 UNL     1      -3.028   2.628   0.067  1.00  0.00     0.108 A   
ATOM     22  O1  UNL     1      -4.425   1.836  -1.538  1.00  0.00    -0.316 OA  
ATOM     23  O2  UNL     1      -3.197   3.734  -0.703  1.00  0.00    -0.316 OA  
ATOM     24  C13 UNL     1      -4.113   3.237  -1.702  1.00  0.00     0.337 C   
ENDBRANCH  15  16
ENDBRANCH  12  15
ENDBRANCH   7  12
ENDBRANCH   1   7
BRANCH   3  25
ATOM     25  C16 UNL     1       1.275  -1.366  -3.518  1.00  0.00     0.166 C   
BRANCH  25  26
ATOM     26  C17 UNL     1       1.774   0.076  -3.672  1.00  0.00     0.149 C   
ATOM     27  C18 UNL     1       0.688   1.164  -3.571  1.00  0.00     0.072 C   
ATOM     28  O3  UNL     1       2.817   0.331  -2.688  1.00  0.00    -0.341 OA  
ATOM     29  C19 UNL     1       1.089   1.814  -2.304  1.00  0.00    -0.012 A   
ATOM     30  C24 UNL     1       2.314   1.321  -1.888  1.00  0.00     0.079 A   
ATOM     31  C20 UNL     1       0.450   2.809  -1.586  1.00  0.00     0.045 A   
ATOM     32  C23 UNL     1       2.952   1.790  -0.755  1.00  0.00     0.037 A   
ATOM     33  C21 UNL     1       1.078   3.286  -0.436  1.00  0.00     0.123 A   
ATOM     34  C22 UNL     1       2.318   2.789  -0.018  1.00  0.00     0.042 A   
ATOM     35  F1  UNL     1       0.482   4.242   0.289  1.00  0.00    -0.207 F   
ENDBRANCH  25  26
ENDBRANCH   3  25
TORSDOF 8
