REMARK SMILES CC(C)C[C@H]([NH2+]Cc1ccc2c(c1)OCO2)c1cn(C[C@@H]2Cc3cc(F)ccc3O2)nn1
REMARK SMILES IDX 17 1 18 2 19 3 31 4 32 5 5 7 4 8 2 9 1 10 3 11 6 12 7 15
REMARK SMILES IDX 8 16 9 17 13 18 10 19 12 20 11 21 14 22 16 23 15 24 20 25
REMARK SMILES IDX 21 26 22 27 30 28 23 29 29 30 24 31 28 32 25 33 27 34 26 35
REMARK H PARENT 18 6 6 13 6 14
ROOT
ATOM     1   C14 UNL     1      -1.370   0.830   0.065  1.00  0.00     0.127 A   
ATOM     2   C15 UNL     1      -1.062   1.108   1.378  1.00  0.00     0.045 A   
ATOM     3   N2  UNL     1      -1.787   2.232   1.654  1.00  0.00    -0.210 N   
ATOM     4   N3  UNL     1      -2.563   2.571   0.608  1.00  0.00    -0.076 NA  
ATOM     5   N4  UNL     1      -2.305   1.729  -0.379  1.00  0.00    -0.132 NA  
ATOM     6   H20 UNL     1      -0.400   0.652   2.104  1.00  0.00     0.083 HD  
ENDROOT
BRANCH   1   7
ATOM     7   C5  UNL     1      -0.909  -0.259  -0.851  1.00  0.00     0.114 C   
BRANCH   7   8
ATOM     8   C4  UNL     1       0.175   0.221  -1.833  1.00  0.00     0.064 C   
BRANCH   8   9
ATOM     9   C2  UNL     1       1.486   0.707  -1.179  1.00  0.00    -0.012 C   
ATOM     10  C1  UNL     1       2.442   1.214  -2.261  1.00  0.00     0.007 C   
ATOM     11  C3  UNL     1       2.165  -0.391  -0.360  1.00  0.00     0.007 C   
ENDBRANCH   8   9
ENDBRANCH   7   8
BRANCH   7  12
ATOM     12  N1  UNL     1      -2.122  -0.720  -1.637  1.00  0.00     0.249 N   
ATOM     13  H11 UNL     1      -2.462   0.096  -2.171  1.00  0.00     0.199 HD  
ATOM     14  H12 UNL     1      -2.870  -0.893  -0.952  1.00  0.00     0.199 HD  
BRANCH  12  15
ATOM     15  C6  UNL     1      -2.006  -1.906  -2.521  1.00  0.00     0.164 C   
BRANCH  15  16
ATOM     16  C7  UNL     1      -1.584  -3.153  -1.796  1.00  0.00    -0.002 A   
ATOM     17  C8  UNL     1      -0.306  -3.716  -2.029  1.00  0.00     0.012 A   
ATOM     18  C12 UNL     1      -2.448  -3.762  -0.871  1.00  0.00     0.045 A   
ATOM     19  C9  UNL     1       0.106  -4.868  -1.355  1.00  0.00     0.037 A   
ATOM     20  C11 UNL     1      -2.010  -4.897  -0.221  1.00  0.00     0.109 A   
ATOM     21  C10 UNL     1      -0.770  -5.435  -0.456  1.00  0.00     0.108 A   
ATOM     22  O1  UNL     1      -2.717  -5.602   0.701  1.00  0.00    -0.316 OA  
ATOM     23  O2  UNL     1      -0.545  -6.555   0.280  1.00  0.00    -0.316 OA  
ATOM     24  C13 UNL     1      -1.801  -6.686   0.979  1.00  0.00     0.337 C   
ENDBRANCH  15  16
ENDBRANCH  12  15
ENDBRANCH   7  12
ENDBRANCH   1   7
BRANCH   3  25
ATOM     25  C16 UNL     1      -1.827   3.008   2.877  1.00  0.00     0.166 C   
BRANCH  25  26
ATOM     26  C17 UNL     1      -0.567   3.839   3.143  1.00  0.00     0.149 C   
ATOM     27  C18 UNL     1      -0.142   4.769   1.992  1.00  0.00     0.072 C   
ATOM     28  O3  UNL     1       0.528   2.945   3.493  1.00  0.00    -0.341 OA  
ATOM     29  C19 UNL     1       1.175   4.185   1.655  1.00  0.00    -0.012 A   
ATOM     30  C24 UNL     1       1.498   3.189   2.562  1.00  0.00     0.079 A   
ATOM     31  C20 UNL     1       2.057   4.536   0.647  1.00  0.00     0.045 A   
ATOM     32  C23 UNL     1       2.698   2.507   2.509  1.00  0.00     0.037 A   
ATOM     33  C21 UNL     1       3.270   3.854   0.580  1.00  0.00     0.123 A   
ATOM     34  C22 UNL     1       3.599   2.850   1.501  1.00  0.00     0.042 A   
ATOM     35  F1  UNL     1       4.142   4.162  -0.390  1.00  0.00    -0.207 F   
ENDBRANCH  25  26
ENDBRANCH   3  25
TORSDOF 8
