REMARK SMILES CC(C)[C@H]([NH2+]Cc1ccc2c(c1)OCO2)c1cn(Cc2n[nH]c3c2CCCN3)nn1
REMARK SMILES IDX 16 1 17 2 18 3 29 4 30 5 4 7 2 8 1 9 3 10 5 11 6 14 7 15
REMARK SMILES IDX 8 16 12 17 9 18 11 19 10 20 13 21 15 22 14 23 19 24 20 25
REMARK SMILES IDX 21 26 24 27 22 28 23 29 25 30 28 31 26 32 27 33
REMARK H PARENT 17 6 5 12 5 13 22 34 28 35
ROOT
ATOM     1   C13 UNL     1      -1.159  -0.430  -1.517  1.00  0.00     0.127 A   
ATOM     2   C14 UNL     1      -2.132   0.321  -0.899  1.00  0.00     0.046 A   
ATOM     3   N2  UNL     1      -2.961  -0.609  -0.333  1.00  0.00    -0.206 N   
ATOM     4   N6  UNL     1      -2.559  -1.859  -0.644  1.00  0.00    -0.076 NA  
ATOM     5   N7  UNL     1      -1.462  -1.760  -1.377  1.00  0.00    -0.132 NA  
ATOM     6   H18 UNL     1      -2.270   1.383  -0.742  1.00  0.00     0.083 HD  
ENDROOT
BRANCH   1   7
ATOM     7   C4  UNL     1       0.118  -0.006  -2.162  1.00  0.00     0.117 C   
BRANCH   7   8
ATOM     8   C2  UNL     1      -0.044   0.242  -3.686  1.00  0.00     0.037 C   
ATOM     9   C1  UNL     1       1.165   0.981  -4.272  1.00  0.00     0.014 C   
ATOM     10  C3  UNL     1      -0.317  -1.024  -4.507  1.00  0.00     0.014 C   
ENDBRANCH   7   8
BRANCH   7  11
ATOM     11  N1  UNL     1       1.232  -0.996  -1.905  1.00  0.00     0.249 N   
ATOM     12  H9  UNL     1       2.083  -0.698  -2.386  1.00  0.00     0.199 HD  
ATOM     13  H10 UNL     1       0.937  -1.891  -2.315  1.00  0.00     0.199 HD  
BRANCH  11  14
ATOM     14  C5  UNL     1       1.565  -1.284  -0.472  1.00  0.00     0.164 C   
BRANCH  14  15
ATOM     15  C6  UNL     1       1.854  -0.064   0.355  1.00  0.00    -0.002 A   
ATOM     16  C7  UNL     1       0.958   0.321   1.383  1.00  0.00     0.012 A   
ATOM     17  C11 UNL     1       2.998   0.714   0.110  1.00  0.00     0.045 A   
ATOM     18  C8  UNL     1       1.190   1.465   2.152  1.00  0.00     0.037 A   
ATOM     19  C10 UNL     1       3.196   1.838   0.886  1.00  0.00     0.109 A   
ATOM     20  C9  UNL     1       2.318   2.204   1.877  1.00  0.00     0.108 A   
ATOM     21  O1  UNL     1       4.241   2.699   0.774  1.00  0.00    -0.316 OA  
ATOM     22  O2  UNL     1       2.701   3.341   2.515  1.00  0.00    -0.316 OA  
ATOM     23  C12 UNL     1       3.938   3.638   1.831  1.00  0.00     0.337 C   
ENDBRANCH  14  15
ENDBRANCH  11  14
ENDBRANCH   7  11
ENDBRANCH   1   7
BRANCH   3  24
ATOM     24  C15 UNL     1      -4.067  -0.380   0.582  1.00  0.00     0.192 C   
BRANCH  24  25
ATOM     25  C16 UNL     1      -3.543   0.218   1.843  1.00  0.00     0.084 A   
ATOM     26  N3  UNL     1      -3.542   1.554   2.013  1.00  0.00    -0.186 NA  
ATOM     27  C18 UNL     1      -2.961  -0.442   2.952  1.00  0.00     0.014 A   
ATOM     28  N4  UNL     1      -2.998   1.734   3.238  1.00  0.00    -0.225 N   
ATOM     29  C17 UNL     1      -2.611   0.564   3.813  1.00  0.00     0.107 A   
ATOM     30  C19 UNL     1      -2.714  -1.869   3.278  1.00  0.00     0.042 C   
ATOM     31  N5  UNL     1      -1.985   0.422   5.001  1.00  0.00    -0.331 N   
ATOM     32  C20 UNL     1      -1.674  -1.974   4.413  1.00  0.00     0.024 C   
ATOM     33  C21 UNL     1      -1.938  -0.949   5.535  1.00  0.00     0.103 C   
ATOM     34  H21 UNL     1      -2.906   2.675   3.603  1.00  0.00     0.177 HD  
ATOM     35  H28 UNL     1      -2.045   1.147   5.715  1.00  0.00     0.148 HD  
ENDBRANCH  24  25
ENDBRANCH   3  24
TORSDOF 7
