REMARK SMILES CC(C)C[C@H]([NH2+]Cc1ccc2c(c1)OCO2)c1cn([C@@H](CO)c2c(F)cccc2F)nn1
REMARK SMILES IDX 17 1 18 2 19 3 31 4 32 5 5 7 4 8 2 9 1 10 3 11 6 12 7 15
REMARK SMILES IDX 8 16 9 17 13 18 10 19 12 20 11 21 14 22 16 23 15 24 20 25
REMARK SMILES IDX 21 26 22 27 23 29 24 30 29 31 26 32 28 33 27 34 25 35 30 36
REMARK H PARENT 18 6 6 13 6 14 22 28
ROOT
ATOM     1   C14 UNL     1      -0.382  -1.075   0.488  1.00  0.00     0.127 A   
ATOM     2   C15 UNL     1      -1.297  -1.036   1.518  1.00  0.00     0.046 A   
ATOM     3   N2  UNL     1      -0.530  -0.864   2.639  1.00  0.00    -0.202 N   
ATOM     4   N3  UNL     1       0.777  -0.765   2.310  1.00  0.00    -0.075 NA  
ATOM     5   N4  UNL     1       0.880  -0.905   0.997  1.00  0.00    -0.132 NA  
ATOM     6   H20 UNL     1      -2.374  -1.129   1.566  1.00  0.00     0.083 HD  
ENDROOT
BRANCH   1   7
ATOM     7   C5  UNL     1      -0.568  -1.242  -0.986  1.00  0.00     0.114 C   
BRANCH   7   8
ATOM     8   C4  UNL     1      -0.538  -2.735  -1.374  1.00  0.00     0.064 C   
BRANCH   8   9
ATOM     9   C2  UNL     1      -0.747  -3.064  -2.868  1.00  0.00    -0.012 C   
ATOM     10  C1  UNL     1      -2.032  -2.459  -3.434  1.00  0.00     0.007 C   
ATOM     11  C3  UNL     1      -0.767  -4.584  -3.060  1.00  0.00     0.007 C   
ENDBRANCH   8   9
ENDBRANCH   7   8
BRANCH   7  12
ATOM     12  N1  UNL     1       0.510  -0.509  -1.737  1.00  0.00     0.249 N   
ATOM     13  H11 UNL     1       0.541  -0.786  -2.723  1.00  0.00     0.199 HD  
ATOM     14  H12 UNL     1       1.413  -0.790  -1.322  1.00  0.00     0.199 HD  
BRANCH  12  15
ATOM     15  C6  UNL     1       0.434   0.980  -1.668  1.00  0.00     0.164 C   
BRANCH  15  16
ATOM     16  C7  UNL     1       1.394   1.601  -2.647  1.00  0.00    -0.002 A   
ATOM     17  C8  UNL     1       0.915   2.155  -3.862  1.00  0.00     0.012 A   
ATOM     18  C12 UNL     1       2.778   1.593  -2.384  1.00  0.00     0.045 A   
ATOM     19  C9  UNL     1       1.800   2.695  -4.805  1.00  0.00     0.037 A   
ATOM     20  C11 UNL     1       3.624   2.123  -3.339  1.00  0.00     0.109 A   
ATOM     21  C10 UNL     1       3.148   2.657  -4.516  1.00  0.00     0.108 A   
ATOM     22  O1  UNL     1       4.983   2.175  -3.255  1.00  0.00    -0.316 OA  
ATOM     23  O2  UNL     1       4.146   3.116  -5.317  1.00  0.00    -0.316 OA  
ATOM     24  C13 UNL     1       5.312   2.812  -4.511  1.00  0.00     0.337 C   
ENDBRANCH  15  16
ENDBRANCH  12  15
ENDBRANCH   7  12
ENDBRANCH   1   7
BRANCH   3  25
ATOM     25  C16 UNL     1      -0.985  -0.785   4.032  1.00  0.00     0.161 C   
BRANCH  25  26
ATOM     26  C17 UNL     1      -0.588  -2.060   4.799  1.00  0.00     0.186 C   
BRANCH  26  27
ATOM     27  O3  UNL     1      -1.394  -3.161   4.362  1.00  0.00    -0.394 OA  
ATOM     28  H24 UNL     1      -1.133  -3.931   4.901  1.00  0.00     0.210 HD  
ENDBRANCH  26  27
ENDBRANCH  25  26
BRANCH  25  29
ATOM     29  C18 UNL     1      -0.567   0.534   4.646  1.00  0.00     0.048 A   
ATOM     30  C19 UNL     1       0.561   0.682   5.456  1.00  0.00     0.131 A   
ATOM     31  C23 UNL     1      -1.317   1.685   4.375  1.00  0.00     0.131 A   
ATOM     32  C20 UNL     1       0.915   1.919   5.999  1.00  0.00     0.040 A   
ATOM     33  C22 UNL     1      -0.984   2.927   4.913  1.00  0.00     0.040 A   
ATOM     34  C21 UNL     1       0.138   3.044   5.732  1.00  0.00     0.006 A   
ATOM     35  F1  UNL     1       1.335  -0.376   5.738  1.00  0.00    -0.207 F   
ATOM     36  F2  UNL     1      -2.391   1.599   3.574  1.00  0.00    -0.207 F   
ENDBRANCH  25  29
ENDBRANCH   3  25
TORSDOF 10
