REMARK SMILES CC(C)C[C@H]([NH2+]Cc1ccc2c(c1)OCO2)c1cn([C@H](CO)c2c(F)cccc2F)nn1
REMARK SMILES IDX 17 1 18 2 19 3 31 4 32 5 5 7 4 8 2 9 1 10 3 11 6 12 7 15
REMARK SMILES IDX 8 16 9 17 13 18 10 19 12 20 11 21 14 22 16 23 15 24 20 25
REMARK SMILES IDX 21 26 22 27 23 29 24 30 29 31 26 32 28 33 27 34 25 35 30 36
REMARK H PARENT 18 6 6 13 6 14 22 28
ROOT
ATOM     1   C14 UNL     1       0.338   0.826   0.677  1.00  0.00     0.127 A   
ATOM     2   C15 UNL     1       0.540   2.061   0.104  1.00  0.00     0.046 A   
ATOM     3   N2  UNL     1       1.304   2.732   1.023  1.00  0.00    -0.202 N   
ATOM     4   N3  UNL     1       1.563   1.947   2.091  1.00  0.00    -0.075 NA  
ATOM     5   N4  UNL     1       0.964   0.783   1.896  1.00  0.00    -0.132 NA  
ATOM     6   H20 UNL     1       0.235   2.511  -0.831  1.00  0.00     0.083 HD  
ENDROOT
BRANCH   1   7
ATOM     7   C5  UNL     1      -0.375  -0.387   0.171  1.00  0.00     0.114 C   
BRANCH   7   8
ATOM     8   C4  UNL     1      -1.855  -0.382   0.610  1.00  0.00     0.064 C   
BRANCH   8   9
ATOM     9   C2  UNL     1      -2.864  -1.048  -0.352  1.00  0.00    -0.012 C   
ATOM     10  C1  UNL     1      -2.944  -0.323  -1.698  1.00  0.00     0.007 C   
ATOM     11  C3  UNL     1      -2.615  -2.538  -0.568  1.00  0.00     0.007 C   
ENDBRANCH   8   9
ENDBRANCH   7   8
BRANCH   7  12
ATOM     12  N1  UNL     1       0.290  -1.627   0.725  1.00  0.00     0.249 N   
ATOM     13  H11 UNL     1       0.411  -1.453   1.734  1.00  0.00     0.199 HD  
ATOM     14  H12 UNL     1      -0.317  -2.446   0.634  1.00  0.00     0.199 HD  
BRANCH  12  15
ATOM     15  C6  UNL     1       1.640  -1.951   0.173  1.00  0.00     0.164 C   
BRANCH  15  16
ATOM     16  C7  UNL     1       1.574  -2.499  -1.226  1.00  0.00    -0.002 A   
ATOM     17  C8  UNL     1       1.899  -1.679  -2.334  1.00  0.00     0.012 A   
ATOM     18  C12 UNL     1       1.155  -3.823  -1.445  1.00  0.00     0.045 A   
ATOM     19  C9  UNL     1       1.800  -2.166  -3.642  1.00  0.00     0.037 A   
ATOM     20  C11 UNL     1       1.069  -4.271  -2.747  1.00  0.00     0.109 A   
ATOM     21  C10 UNL     1       1.380  -3.466  -3.815  1.00  0.00     0.108 A   
ATOM     22  O1  UNL     1       0.676  -5.514  -3.129  1.00  0.00    -0.316 OA  
ATOM     23  O2  UNL     1       1.224  -4.101  -5.005  1.00  0.00    -0.316 OA  
ATOM     24  C13 UNL     1       0.804  -5.411  -4.566  1.00  0.00     0.337 C   
ENDBRANCH  15  16
ENDBRANCH  12  15
ENDBRANCH   7  12
ENDBRANCH   1   7
BRANCH   3  25
ATOM     25  C16 UNL     1       1.824   4.099   0.928  1.00  0.00     0.161 C   
BRANCH  25  26
ATOM     26  C17 UNL     1       3.349   4.079   0.726  1.00  0.00     0.186 C   
BRANCH  26  27
ATOM     27  O3  UNL     1       3.665   3.594  -0.585  1.00  0.00    -0.394 OA  
ATOM     28  H24 UNL     1       4.631   3.688  -0.692  1.00  0.00     0.210 HD  
ENDBRANCH  26  27
ENDBRANCH  25  26
BRANCH  25  29
ATOM     29  C18 UNL     1       1.304   4.934   2.077  1.00  0.00     0.048 A   
ATOM     30  C19 UNL     1      -0.000   5.436   2.022  1.00  0.00     0.131 A   
ATOM     31  C23 UNL     1       2.043   5.203   3.231  1.00  0.00     0.131 A   
ATOM     32  C20 UNL     1      -0.544   6.195   3.056  1.00  0.00     0.040 A   
ATOM     33  C22 UNL     1       1.517   5.960   4.277  1.00  0.00     0.040 A   
ATOM     34  C21 UNL     1       0.219   6.460   4.190  1.00  0.00     0.006 A   
ATOM     35  F1  UNL     1      -0.757   5.184   0.943  1.00  0.00    -0.207 F   
ATOM     36  F2  UNL     1       3.290   4.727   3.361  1.00  0.00    -0.207 F   
ENDBRANCH  25  29
ENDBRANCH   3  25
TORSDOF 10
