REMARK SMILES CC(C)(C)[C@H]([NH2+]Cc1ccc2c(c1)OCO2)c1cn(Cc2ccc(O)cc2O)nn1
REMARK SMILES IDX 17 1 18 2 19 3 29 4 30 5 5 7 2 8 1 9 3 10 4 11 6 12 7 15
REMARK SMILES IDX 8 16 9 17 13 18 10 19 12 20 11 21 14 22 16 23 15 24 20 25
REMARK SMILES IDX 21 26 22 27 27 28 23 29 26 30 24 31 28 32 25 34
REMARK H PARENT 18 6 6 13 6 14 28 33 25 35
ROOT
ATOM     1   C14 UNL     1       1.318   0.819  -0.305  1.00  0.00     0.127 A   
ATOM     2   C15 UNL     1       2.198   0.455  -1.299  1.00  0.00     0.046 A   
ATOM     3   N2  UNL     1       3.289  -0.017  -0.621  1.00  0.00    -0.208 N   
ATOM     4   N3  UNL     1       3.091   0.052   0.711  1.00  0.00    -0.076 NA  
ATOM     5   N4  UNL     1       1.888   0.562   0.916  1.00  0.00    -0.132 NA  
ATOM     6   H20 UNL     1       2.154   0.464  -2.380  1.00  0.00     0.083 HD  
ENDROOT
BRANCH   1   7
ATOM     7   C5  UNL     1      -0.092   1.324  -0.366  1.00  0.00     0.120 C   
BRANCH   7   8
ATOM     8   C2  UNL     1      -0.218   2.887  -0.356  1.00  0.00     0.010 C   
ATOM     9   C1  UNL     1      -1.692   3.307  -0.568  1.00  0.00     0.017 C   
ATOM     10  C3  UNL     1       0.593   3.496  -1.523  1.00  0.00     0.017 C   
ATOM     11  C4  UNL     1       0.280   3.516   0.960  1.00  0.00     0.017 C   
ENDBRANCH   7   8
BRANCH   7  12
ATOM     12  N1  UNL     1      -0.861   0.725   0.789  1.00  0.00     0.250 N   
ATOM     13  H11 UNL     1      -1.721   1.238   1.000  1.00  0.00     0.199 HD  
ATOM     14  H12 UNL     1      -0.258   0.820   1.620  1.00  0.00     0.199 HD  
BRANCH  12  15
ATOM     15  C6  UNL     1      -1.188  -0.723   0.653  1.00  0.00     0.164 C   
BRANCH  15  16
ATOM     16  C7  UNL     1      -1.849  -1.227   1.904  1.00  0.00    -0.002 A   
ATOM     17  C8  UNL     1      -1.059  -1.676   2.990  1.00  0.00     0.012 A   
ATOM     18  C12 UNL     1      -3.248  -1.202   2.027  1.00  0.00     0.045 A   
ATOM     19  C9  UNL     1      -1.655  -2.107   4.180  1.00  0.00     0.037 A   
ATOM     20  C11 UNL     1      -3.802  -1.634   3.215  1.00  0.00     0.109 A   
ATOM     21  C10 UNL     1      -3.029  -2.074   4.261  1.00  0.00     0.108 A   
ATOM     22  O1  UNL     1      -5.131  -1.673   3.497  1.00  0.00    -0.316 OA  
ATOM     23  O2  UNL     1      -3.773  -2.449   5.333  1.00  0.00    -0.316 OA  
ATOM     24  C13 UNL     1      -5.109  -2.213   4.839  1.00  0.00     0.337 C   
ENDBRANCH  15  16
ENDBRANCH  12  15
ENDBRANCH   7  12
ENDBRANCH   1   7
BRANCH   3  25
ATOM     25  C16 UNL     1       4.530  -0.541  -1.164  1.00  0.00     0.172 C   
BRANCH  25  26
ATOM     26  C17 UNL     1       4.406  -2.012  -1.466  1.00  0.00     0.002 A   
ATOM     27  C18 UNL     1       4.736  -2.962  -0.484  1.00  0.00     0.011 A   
ATOM     28  C22 UNL     1       3.942  -2.466  -2.706  1.00  0.00     0.079 A   
ATOM     29  C19 UNL     1       4.616  -4.329  -0.746  1.00  0.00     0.034 A   
ATOM     30  C21 UNL     1       3.817  -3.827  -2.974  1.00  0.00     0.066 A   
ATOM     31  C20 UNL     1       4.157  -4.747  -1.990  1.00  0.00     0.074 A   
BRANCH  28  32
ATOM     32  O4  UNL     1       3.606  -1.547  -3.660  1.00  0.00    -0.361 OA  
ATOM     33  H27 UNL     1       3.498  -2.018  -4.507  1.00  0.00     0.218 HD  
ENDBRANCH  28  32
BRANCH  31  34
ATOM     34  O3  UNL     1       4.019  -6.069  -2.289  1.00  0.00    -0.361 OA  
ATOM     35  H25 UNL     1       4.367  -6.601  -1.554  1.00  0.00     0.218 HD  
ENDBRANCH  31  34
ENDBRANCH  25  26
ENDBRANCH   3  25
TORSDOF 9
