REMARK SMILES CC(C)C[C@H]([NH2+]Cc1ccc2c(c1)OCO2)c1cn(Cc2cccnc2N(C)C)nn1
REMARK SMILES IDX 17 1 18 2 19 3 30 4 31 5 5 7 4 8 2 9 1 10 3 11 6 12 7 15
REMARK SMILES IDX 8 16 9 17 13 18 10 19 12 20 11 21 14 22 16 23 15 24 20 25
REMARK SMILES IDX 21 26 22 27 26 28 23 29 25 30 24 31 27 32 28 33 29 34
REMARK H PARENT 18 6 6 13 6 14
ROOT
ATOM     1   C14 UNL     1      -0.338   1.384   0.914  1.00  0.00     0.127 A   
ATOM     2   C15 UNL     1      -1.455   0.933   0.251  1.00  0.00     0.046 A   
ATOM     3   N2  UNL     1      -2.487   1.238   1.094  1.00  0.00    -0.208 N   
ATOM     4   N5  UNL     1      -2.041   1.931   2.162  1.00  0.00    -0.076 NA  
ATOM     5   N6  UNL     1      -0.724   2.010   2.072  1.00  0.00    -0.132 NA  
ATOM     6   H20 UNL     1      -1.610   0.403  -0.679  1.00  0.00     0.083 HD  
ENDROOT
BRANCH   1   7
ATOM     7   C5  UNL     1       1.111   1.320   0.554  1.00  0.00     0.114 C   
BRANCH   7   8
ATOM     8   C4  UNL     1       1.817   0.105   1.185  1.00  0.00     0.064 C   
BRANCH   8   9
ATOM     9   C2  UNL     1       1.295  -1.273   0.720  1.00  0.00    -0.012 C   
ATOM     10  C1  UNL     1       2.040  -2.385   1.465  1.00  0.00     0.007 C   
ATOM     11  C3  UNL     1       1.448  -1.474  -0.789  1.00  0.00     0.007 C   
ENDBRANCH   8   9
ENDBRANCH   7   8
BRANCH   7  12
ATOM     12  N1  UNL     1       1.761   2.592   1.059  1.00  0.00     0.249 N   
ATOM     13  H11 UNL     1       1.653   2.601   2.083  1.00  0.00     0.199 HD  
ATOM     14  H12 UNL     1       1.162   3.366   0.745  1.00  0.00     0.199 HD  
BRANCH  12  15
ATOM     15  C6  UNL     1       3.163   2.890   0.673  1.00  0.00     0.164 C   
BRANCH  15  16
ATOM     16  C7  UNL     1       3.371   2.946  -0.815  1.00  0.00    -0.002 A   
ATOM     17  C8  UNL     1       4.065   1.906  -1.479  1.00  0.00     0.012 A   
ATOM     18  C12 UNL     1       2.844   4.013  -1.563  1.00  0.00     0.045 A   
ATOM     19  C9  UNL     1       4.226   1.922  -2.869  1.00  0.00     0.037 A   
ATOM     20  C11 UNL     1       3.021   3.998  -2.931  1.00  0.00     0.109 A   
ATOM     21  C10 UNL     1       3.691   2.981  -3.566  1.00  0.00     0.108 A   
ATOM     22  O1  UNL     1       2.570   4.943  -3.797  1.00  0.00    -0.316 OA  
ATOM     23  O2  UNL     1       3.748   3.160  -4.911  1.00  0.00    -0.316 OA  
ATOM     24  C13 UNL     1       3.063   4.423  -5.053  1.00  0.00     0.337 C   
ENDBRANCH  15  16
ENDBRANCH  12  15
ENDBRANCH   7  12
ENDBRANCH   1   7
BRANCH   3  25
ATOM     25  C16 UNL     1      -3.899   0.929   0.940  1.00  0.00     0.173 C   
BRANCH  25  26
ATOM     26  C17 UNL     1      -4.202  -0.452   1.451  1.00  0.00     0.012 A   
ATOM     27  C18 UNL     1      -4.569  -0.632   2.794  1.00  0.00     0.010 A   
ATOM     28  C21 UNL     1      -4.059  -1.590   0.642  1.00  0.00     0.124 A   
ATOM     29  C19 UNL     1      -4.789  -1.910   3.286  1.00  0.00     0.021 A   
ATOM     30  N3  UNL     1      -4.259  -2.835   1.127  1.00  0.00    -0.241 NA  
ATOM     31  C20 UNL     1      -4.622  -2.972   2.421  1.00  0.00     0.113 A   
BRANCH  28  32
ATOM     32  N4  UNL     1      -3.709  -1.431  -0.727  1.00  0.00    -0.322 N   
ATOM     33  C22 UNL     1      -4.958  -1.403  -1.510  1.00  0.00     0.131 C   
ATOM     34  C23 UNL     1      -2.827  -2.527  -1.157  1.00  0.00     0.131 C   
ENDBRANCH  28  32
ENDBRANCH  25  26
ENDBRANCH   3  25
TORSDOF 9
