REMARK SMILES CC(C)(C)[C@H]([NH2+]Cc1ccc2c(c1)OCO2)c1cn(-c2cccc(S(C)(=O)=O)c2)nn1
REMARK SMILES IDX 17 1 18 2 19 3 30 4 31 5 5 6 2 7 1 8 3 9 4 10 6 11 7 14 8 15
REMARK SMILES IDX 9 16 13 17 10 18 12 19 11 20 14 21 16 22 15 23 20 24 21 25
REMARK SMILES IDX 29 26 22 27 24 28 23 29 25 30 26 31 27 32 28 33
REMARK H PARENT 6 12 6 13
ROOT
ATOM     1   C14 UNL     1      -0.658  -1.548   0.526  1.00  0.00     0.128 A   
ATOM     2   C15 UNL     1       0.180  -0.867  -0.328  1.00  0.00     0.135 A   
ATOM     3   N2  UNL     1      -0.607  -0.541  -1.415  1.00  0.00    -0.180 N   
ATOM     4   N3  UNL     1      -1.848  -1.062  -1.231  1.00  0.00    -0.071 NA  
ATOM     5   N4  UNL     1      -1.898  -1.638  -0.041  1.00  0.00    -0.131 NA  
ENDROOT
BRANCH   1   6
ATOM     6   C5  UNL     1      -0.447  -2.040   1.927  1.00  0.00     0.120 C   
BRANCH   6   7
ATOM     7   C2  UNL     1      -0.299  -3.596   2.050  1.00  0.00     0.010 C   
ATOM     8   C1  UNL     1      -1.586  -4.359   1.688  1.00  0.00     0.017 C   
ATOM     9   C3  UNL     1       0.834  -4.091   1.124  1.00  0.00     0.017 C   
ATOM     10  C4  UNL     1       0.101  -3.979   3.493  1.00  0.00     0.017 C   
ENDBRANCH   6   7
BRANCH   6  11
ATOM     11  N1  UNL     1      -1.601  -1.539   2.780  1.00  0.00     0.250 N   
ATOM     12  H11 UNL     1      -2.409  -1.455   2.144  1.00  0.00     0.199 HD  
ATOM     13  H12 UNL     1      -1.875  -2.235   3.475  1.00  0.00     0.199 HD  
BRANCH  11  14
ATOM     14  C6  UNL     1      -1.404  -0.230   3.474  1.00  0.00     0.164 C   
BRANCH  14  15
ATOM     15  C7  UNL     1      -1.057   0.914   2.564  1.00  0.00    -0.002 A   
ATOM     16  C8  UNL     1      -2.026   1.454   1.686  1.00  0.00     0.012 A   
ATOM     17  C12 UNL     1       0.255   1.422   2.539  1.00  0.00     0.045 A   
ATOM     18  C9  UNL     1      -1.689   2.465   0.778  1.00  0.00     0.037 A   
ATOM     19  C11 UNL     1       0.552   2.417   1.633  1.00  0.00     0.109 A   
ATOM     20  C10 UNL     1      -0.390   2.923   0.774  1.00  0.00     0.108 A   
ATOM     21  O1  UNL     1       1.772   2.992   1.467  1.00  0.00    -0.316 OA  
ATOM     22  O2  UNL     1       0.119   3.883  -0.041  1.00  0.00    -0.316 OA  
ATOM     23  C13 UNL     1       1.474   3.976   0.453  1.00  0.00     0.337 C   
ENDBRANCH  14  15
ENDBRANCH  11  14
ENDBRANCH   6  11
ENDBRANCH   1   6
BRANCH   3  24
ATOM     24  C16 UNL     1      -0.278   0.238  -2.551  1.00  0.00     0.069 A   
ATOM     25  C17 UNL     1      -1.190   0.334  -3.614  1.00  0.00     0.027 A   
ATOM     26  C22 UNL     1       0.941   0.923  -2.622  1.00  0.00     0.160 A   
ATOM     27  C18 UNL     1      -0.874   1.085  -4.751  1.00  0.00     0.014 A   
ATOM     28  C20 UNL     1       1.233   1.693  -3.755  1.00  0.00     0.308 A   
ATOM     29  C19 UNL     1       0.342   1.763  -4.828  1.00  0.00     0.134 A   
BRANCH  28  30
ATOM     30  S1  UNL     1       2.771   2.587  -3.829  1.00  0.00    -0.239 S   
ATOM     31  C21 UNL     1       2.306   4.270  -4.143  1.00  0.00     0.674 C   
ATOM     32  O3  UNL     1       3.494   2.072  -4.975  1.00  0.00    -0.517 OA  
ATOM     33  O4  UNL     1       3.344   2.544  -2.496  1.00  0.00    -0.517 OA  
ENDBRANCH  28  30
ENDBRANCH   3  24
TORSDOF 7
