REMARK SMILES CC(C)[C@H]([NH2+]Cc1ccc2c(c1)OCO2)c1cn([C@@H](CO)c2ccc(F)cn2)nn1
REMARK SMILES IDX 16 1 17 2 18 3 29 4 30 5 4 7 2 8 1 9 3 10 5 11 6 14 7 15
REMARK SMILES IDX 8 16 12 17 9 18 11 19 10 20 13 21 15 22 14 23 19 24 20 25
REMARK SMILES IDX 21 26 22 28 23 29 28 30 24 31 27 32 25 33 26 34
REMARK H PARENT 17 6 5 12 5 13 21 27
ROOT
ATOM     1   C13 UNL     1      -0.651   1.708  -0.336  1.00  0.00     0.127 A   
ATOM     2   C14 UNL     1      -0.315   0.655  -1.153  1.00  0.00     0.046 A   
ATOM     3   N2  UNL     1       0.199   1.248  -2.275  1.00  0.00    -0.201 N   
ATOM     4   N4  UNL     1       0.188   2.592  -2.145  1.00  0.00    -0.075 NA  
ATOM     5   N5  UNL     1      -0.327   2.883  -0.962  1.00  0.00    -0.132 NA  
ATOM     6   H18 UNL     1      -0.364  -0.420  -1.040  1.00  0.00     0.083 HD  
ENDROOT
BRANCH   1   7
ATOM     7   C4  UNL     1      -1.175   1.728   1.061  1.00  0.00     0.117 C   
BRANCH   7   8
ATOM     8   C2  UNL     1      -2.697   2.016   1.168  1.00  0.00     0.037 C   
ATOM     9   C1  UNL     1      -3.526   0.902   0.514  1.00  0.00     0.014 C   
ATOM     10  C3  UNL     1      -3.132   3.377   0.612  1.00  0.00     0.014 C   
ENDBRANCH   7   8
BRANCH   7  11
ATOM     11  N1  UNL     1      -0.430   2.764   1.877  1.00  0.00     0.249 N   
ATOM     12  H9  UNL     1      -0.930   2.953   2.750  1.00  0.00     0.199 HD  
ATOM     13  H10 UNL     1      -0.439   3.632   1.322  1.00  0.00     0.199 HD  
BRANCH  11  14
ATOM     14  C5  UNL     1       1.000   2.454   2.182  1.00  0.00     0.164 C   
BRANCH  14  15
ATOM     15  C6  UNL     1       1.163   1.265   3.089  1.00  0.00    -0.002 A   
ATOM     16  C7  UNL     1       0.771   1.338   4.447  1.00  0.00     0.012 A   
ATOM     17  C11 UNL     1       1.684   0.061   2.583  1.00  0.00     0.045 A   
ATOM     18  C8  UNL     1       0.887   0.226   5.290  1.00  0.00     0.037 A   
ATOM     19  C10 UNL     1       1.787  -1.016   3.441  1.00  0.00     0.109 A   
ATOM     20  C9  UNL     1       1.399  -0.936   4.756  1.00  0.00     0.108 A   
ATOM     21  O1  UNL     1       2.262  -2.246   3.113  1.00  0.00    -0.316 OA  
ATOM     22  O2  UNL     1       1.582  -2.105   5.423  1.00  0.00    -0.316 OA  
ATOM     23  C12 UNL     1       2.175  -2.921   4.389  1.00  0.00     0.337 C   
ENDBRANCH  14  15
ENDBRANCH  11  14
ENDBRANCH   7  11
ENDBRANCH   1   7
BRANCH   3  24
ATOM     24  C15 UNL     1       0.773   0.633  -3.468  1.00  0.00     0.174 C   
BRANCH  24  25
ATOM     25  C16 UNL     1       2.209   0.152  -3.202  1.00  0.00     0.187 C   
BRANCH  25  26
ATOM     26  O3  UNL     1       2.290  -0.844  -2.178  1.00  0.00    -0.394 OA  
ATOM     27  H22 UNL     1       1.777  -1.615  -2.511  1.00  0.00     0.210 HD  
ENDBRANCH  25  26
ENDBRANCH  24  25
BRANCH  24  28
ATOM     28  C17 UNL     1      -0.147  -0.452  -4.005  1.00  0.00     0.065 A   
ATOM     29  C18 UNL     1      -1.224  -0.109  -4.832  1.00  0.00     0.029 A   
ATOM     30  N3  UNL     1       0.088  -1.739  -3.617  1.00  0.00    -0.256 NA  
ATOM     31  C19 UNL     1      -2.075  -1.114  -5.289  1.00  0.00     0.043 A   
ATOM     32  C21 UNL     1      -0.757  -2.694  -4.087  1.00  0.00     0.150 A   
ATOM     33  C20 UNL     1      -1.835  -2.425  -4.910  1.00  0.00     0.141 A   
ATOM     34  F1  UNL     1      -2.637  -3.411  -5.329  1.00  0.00    -0.205 F   
ENDBRANCH  24  28
ENDBRANCH   3  24
TORSDOF 9
