REMARK SMILES CC(C)[C@H]([NH2+]Cc1ccc2c(c1)OCO2)c1cn([C@H](CO)c2ccc(F)cn2)nn1
REMARK SMILES IDX 16 1 17 2 18 3 29 4 30 5 4 7 2 8 1 9 3 10 5 11 6 14 7 15
REMARK SMILES IDX 8 16 12 17 9 18 11 19 10 20 13 21 15 22 14 23 19 24 20 25
REMARK SMILES IDX 21 26 22 28 23 29 28 30 24 31 27 32 25 33 26 34
REMARK H PARENT 17 6 5 12 5 13 21 27
ROOT
ATOM     1   C13 UNL     1      -0.380   0.914  -0.808  1.00  0.00     0.127 A   
ATOM     2   C14 UNL     1       0.162  -0.019  -1.662  1.00  0.00     0.046 A   
ATOM     3   N2  UNL     1       1.266   0.600  -2.184  1.00  0.00    -0.201 N   
ATOM     4   N4  UNL     1       1.429   1.820  -1.628  1.00  0.00    -0.075 NA  
ATOM     5   N5  UNL     1       0.422   2.026  -0.794  1.00  0.00    -0.132 NA  
ATOM     6   H18 UNL     1      -0.133  -1.018  -1.953  1.00  0.00     0.083 HD  
ENDROOT
BRANCH   1   7
ATOM     7   C4  UNL     1      -1.584   0.855   0.073  1.00  0.00     0.117 C   
BRANCH   7   8
ATOM     8   C2  UNL     1      -2.882   1.387  -0.590  1.00  0.00     0.037 C   
ATOM     9   C1  UNL     1      -2.807   2.848  -1.048  1.00  0.00     0.014 C   
ATOM     10  C3  UNL     1      -3.320   0.500  -1.762  1.00  0.00     0.014 C   
ENDBRANCH   7   8
BRANCH   7  11
ATOM     11  N1  UNL     1      -1.338   1.650   1.339  1.00  0.00     0.249 N   
ATOM     12  H9  UNL     1      -0.954   2.556   1.036  1.00  0.00     0.199 HD  
ATOM     13  H10 UNL     1      -2.223   1.836   1.821  1.00  0.00     0.199 HD  
BRANCH  11  14
ATOM     14  C5  UNL     1      -0.364   1.064   2.307  1.00  0.00     0.164 C   
BRANCH  14  15
ATOM     15  C6  UNL     1      -0.909  -0.138   3.025  1.00  0.00    -0.002 A   
ATOM     16  C7  UNL     1      -1.846   0.019   4.075  1.00  0.00     0.012 A   
ATOM     17  C11 UNL     1      -0.512  -1.431   2.640  1.00  0.00     0.045 A   
ATOM     18  C8  UNL     1      -2.380  -1.094   4.734  1.00  0.00     0.037 A   
ATOM     19  C10 UNL     1      -1.062  -2.506   3.307  1.00  0.00     0.109 A   
ATOM     20  C9  UNL     1      -1.968  -2.342   4.325  1.00  0.00     0.108 A   
ATOM     21  O1  UNL     1      -0.795  -3.814   3.054  1.00  0.00    -0.316 OA  
ATOM     22  O2  UNL     1      -2.382  -3.527   4.845  1.00  0.00    -0.316 OA  
ATOM     23  C12 UNL     1      -1.610  -4.460   4.059  1.00  0.00     0.337 C   
ENDBRANCH  14  15
ENDBRANCH  11  14
ENDBRANCH   7  11
ENDBRANCH   1   7
BRANCH   3  24
ATOM     24  C15 UNL     1       2.230   0.107  -3.161  1.00  0.00     0.174 C   
BRANCH  24  25
ATOM     25  C16 UNL     1       1.570  -0.294  -4.494  1.00  0.00     0.187 C   
BRANCH  25  26
ATOM     26  O3  UNL     1       0.672  -1.400  -4.381  1.00  0.00    -0.394 OA  
ATOM     27  H22 UNL     1       1.206  -2.147  -4.031  1.00  0.00     0.210 HD  
ENDBRANCH  25  26
ENDBRANCH  24  25
BRANCH  24  28
ATOM     28  C17 UNL     1       3.075  -0.994  -2.539  1.00  0.00     0.065 A   
ATOM     29  C18 UNL     1       4.206  -0.666  -1.784  1.00  0.00     0.029 A   
ATOM     30  N3  UNL     1       2.670  -2.284  -2.712  1.00  0.00    -0.256 NA  
ATOM     31  C19 UNL     1       4.956  -1.688  -1.204  1.00  0.00     0.043 A   
ATOM     32  C21 UNL     1       3.428  -3.257  -2.141  1.00  0.00     0.150 A   
ATOM     33  C20 UNL     1       4.559  -3.002  -1.390  1.00  0.00     0.141 A   
ATOM     34  F1  UNL     1       5.256  -4.003  -0.842  1.00  0.00    -0.205 F   
ENDBRANCH  24  28
ENDBRANCH   3  24
TORSDOF 9
