REMARK SMILES c1cc2c(cc1C[NH2+][C@H](c1cn(Cc3cnc(C4CC4)nc3)nn1)C1CCCC1)OCO2
REMARK SMILES IDX 10 1 11 2 12 3 23 4 24 5 9 7 8 8 7 11 6 12 1 13 2 14 3 15
REMARK SMILES IDX 5 16 4 17 32 18 30 19 31 20 25 21 26 22 29 23 27 24 28 25
REMARK SMILES IDX 13 26 14 27 15 28 22 29 16 30 21 31 17 32 18 33 19 34 20 35
REMARK H PARENT 11 6 8 9 8 10
ROOT
ATOM     1   C9  UNL     1      -0.269  -2.260  -0.985  1.00  0.00     0.127 A   
ATOM     2   C10 UNL     1      -0.038  -2.691   0.303  1.00  0.00     0.046 A   
ATOM     3   N2  UNL     1       1.163  -3.339   0.222  1.00  0.00    -0.208 N   
ATOM     4   N5  UNL     1       1.621  -3.346  -1.044  1.00  0.00    -0.076 NA  
ATOM     5   N6  UNL     1       0.746  -2.697  -1.795  1.00  0.00    -0.132 NA  
ATOM     6   H9  UNL     1      -0.561  -2.544   1.238  1.00  0.00     0.083 HD  
ENDROOT
BRANCH   1   7
ATOM     7   C8  UNL     1      -1.331  -1.366  -1.535  1.00  0.00     0.117 C   
BRANCH   7   8
ATOM     8   N1  UNL     1      -0.727  -0.309  -2.439  1.00  0.00     0.249 N   
ATOM     9   H6  UNL     1      -0.288  -0.807  -3.225  1.00  0.00     0.199 HD  
ATOM     10  H7  UNL     1      -1.467   0.282  -2.828  1.00  0.00     0.199 HD  
BRANCH   8  11
ATOM     11  C7  UNL     1       0.326   0.576  -1.844  1.00  0.00     0.164 C   
BRANCH  11  12
ATOM     12  C6  UNL     1      -0.100   1.269  -0.580  1.00  0.00    -0.002 A   
ATOM     13  C1  UNL     1       0.557   0.980   0.640  1.00  0.00     0.012 A   
ATOM     14  C2  UNL     1       0.155   1.580   1.838  1.00  0.00     0.037 A   
ATOM     15  C3  UNL     1      -0.894   2.469   1.788  1.00  0.00     0.108 A   
ATOM     16  C5  UNL     1      -1.159   2.193  -0.590  1.00  0.00     0.045 A   
ATOM     17  C4  UNL     1      -1.529   2.768   0.608  1.00  0.00     0.109 A   
ATOM     18  O2  UNL     1      -1.420   3.141   2.844  1.00  0.00    -0.316 OA  
ATOM     19  O1  UNL     1      -2.536   3.666   0.774  1.00  0.00    -0.316 OA  
ATOM     20  C24 UNL     1      -2.435   3.933   2.192  1.00  0.00     0.337 C   
ENDBRANCH  11  12
ENDBRANCH   8  11
ENDBRANCH   7   8
BRANCH   7  21
ATOM     21  C19 UNL     1      -2.384  -2.149  -2.345  1.00  0.00     0.043 C   
ATOM     22  C20 UNL     1      -3.518  -1.283  -2.906  1.00  0.00     0.010 C   
ATOM     23  C23 UNL     1      -3.154  -3.176  -1.509  1.00  0.00     0.010 C   
ATOM     24  C21 UNL     1      -4.691  -2.237  -3.130  1.00  0.00     0.001 C   
ATOM     25  C22 UNL     1      -4.346  -3.523  -2.387  1.00  0.00     0.001 C   
ENDBRANCH   7  21
ENDBRANCH   1   7
BRANCH   3  26
ATOM     26  C11 UNL     1       2.006  -3.795   1.316  1.00  0.00     0.172 C   
BRANCH  26  27
ATOM     27  C12 UNL     1       2.675  -2.619   1.952  1.00  0.00     0.008 A   
ATOM     28  C13 UNL     1       3.732  -1.962   1.360  1.00  0.00     0.120 A   
ATOM     29  C18 UNL     1       2.225  -2.046   3.119  1.00  0.00     0.120 A   
ATOM     30  N3  UNL     1       4.282  -0.838   1.853  1.00  0.00    -0.241 NA  
ATOM     31  N4  UNL     1       2.745  -0.923   3.647  1.00  0.00    -0.241 NA  
ATOM     32  C14 UNL     1       3.785  -0.345   3.007  1.00  0.00     0.131 A   
BRANCH  32  33
ATOM     33  C15 UNL     1       4.411   0.912   3.569  1.00  0.00     0.058 C   
ATOM     34  C16 UNL     1       4.646   1.055   5.055  1.00  0.00     0.012 C   
ATOM     35  C17 UNL     1       3.599   1.895   4.381  1.00  0.00     0.012 C   
ENDBRANCH  32  33
ENDBRANCH  26  27
ENDBRANCH   3  26
TORSDOF 8
