REMARK SMILES COc1cc(CCn2cc([C@@H]([NH2+]Cc3ccc4c(c3)OCO4)C(C)(C)C)nn2)ccc1F
REMARK SMILES IDX 8 1 9 2 10 3 27 4 28 5 7 7 6 8 5 9 3 10 4 11 31 12 30 13
REMARK SMILES IDX 29 14 32 15 2 16 1 17 11 18 12 19 13 22 14 23 15 24 19 25
REMARK SMILES IDX 16 26 18 27 17 28 20 29 22 30 21 31 23 32 24 33 25 34 26 35
REMARK H PARENT 9 6 12 20 12 21
ROOT
ATOM     1   N1  UNL     1       0.080   0.624   3.244  1.00  0.00    -0.212 N   
ATOM     2   C7  UNL     1      -0.563   1.511   2.426  1.00  0.00     0.045 A   
ATOM     3   C8  UNL     1      -1.377   0.715   1.649  1.00  0.00     0.127 A   
ATOM     4   N3  UNL     1      -1.210  -0.595   2.022  1.00  0.00    -0.132 NA  
ATOM     5   N4  UNL     1      -0.328  -0.635   3.006  1.00  0.00    -0.076 NA  
ATOM     6   H9  UNL     1      -0.356   2.572   2.444  1.00  0.00     0.083 HD  
ENDROOT
BRANCH   1   7
ATOM     7   C6  UNL     1       1.153   0.889   4.181  1.00  0.00     0.139 C   
BRANCH   7   8
ATOM     8   C5  UNL     1       2.511   0.348   3.721  1.00  0.00     0.057 C   
BRANCH   8   9
ATOM     9   C4  UNL     1       2.965   0.927   2.399  1.00  0.00    -0.044 A   
ATOM     10  C2  UNL     1       3.022   0.815  -0.023  1.00  0.00     0.110 A   
ATOM     11  C3  UNL     1       2.654   0.261   1.201  1.00  0.00     0.040 A   
ATOM     12  C24 UNL     1       3.691   2.036  -0.062  1.00  0.00     0.153 A   
ATOM     13  C23 UNL     1       4.018   2.700   1.116  1.00  0.00     0.042 A   
ATOM     14  C22 UNL     1       3.654   2.148   2.346  1.00  0.00     0.007 A   
ATOM     15  F1  UNL     1       4.010   2.594  -1.238  1.00  0.00    -0.204 F   
BRANCH  10  16
ATOM     16  O1  UNL     1       2.615   0.189  -1.171  1.00  0.00    -0.346 OA  
ATOM     17  C1  UNL     1       3.708  -0.531  -1.754  1.00  0.00     0.203 C   
ENDBRANCH  10  16
ENDBRANCH   8   9
ENDBRANCH   7   8
ENDBRANCH   1   7
BRANCH   3  18
ATOM     18  C9  UNL     1      -2.245   1.046   0.471  1.00  0.00     0.120 C   
BRANCH  18  19
ATOM     19  N2  UNL     1      -1.999   0.027  -0.616  1.00  0.00     0.250 N   
ATOM     20  H11 UNL     1      -2.063  -0.901  -0.174  1.00  0.00     0.199 HD  
ATOM     21  H12 UNL     1      -2.713   0.051  -1.348  1.00  0.00     0.199 HD  
BRANCH  19  22
ATOM     22  C10 UNL     1      -0.655   0.112  -1.262  1.00  0.00     0.164 C   
BRANCH  22  23
ATOM     23  C11 UNL     1      -0.492  -0.974  -2.287  1.00  0.00    -0.002 A   
ATOM     24  C12 UNL     1      -0.761  -0.720  -3.652  1.00  0.00     0.012 A   
ATOM     25  C16 UNL     1      -0.101  -2.263  -1.885  1.00  0.00     0.045 A   
ATOM     26  C13 UNL     1      -0.636  -1.734  -4.609  1.00  0.00     0.037 A   
ATOM     27  C15 UNL     1       0.016  -3.238  -2.853  1.00  0.00     0.109 A   
ATOM     28  C14 UNL     1      -0.246  -2.982  -4.176  1.00  0.00     0.108 A   
ATOM     29  O2  UNL     1       0.385  -4.528  -2.636  1.00  0.00    -0.316 OA  
ATOM     30  O3  UNL     1      -0.078  -4.079  -4.959  1.00  0.00    -0.316 OA  
ATOM     31  C17 UNL     1       0.338  -5.056  -3.981  1.00  0.00     0.337 C   
ENDBRANCH  22  23
ENDBRANCH  19  22
ENDBRANCH  18  19
BRANCH  18  32
ATOM     32  C18 UNL     1      -3.774   1.138   0.804  1.00  0.00     0.010 C   
ATOM     33  C19 UNL     1      -4.562   1.636  -0.430  1.00  0.00     0.017 C   
ATOM     34  C20 UNL     1      -4.377  -0.210   1.245  1.00  0.00     0.017 C   
ATOM     35  C21 UNL     1      -4.008   2.166   1.935  1.00  0.00     0.017 C   
ENDBRANCH  18  32
ENDBRANCH   3  18
TORSDOF 9
