REMARK SMILES CC(C)(C)[C@H]([NH2+]Cc1ccc2c(c1)OCO2)c1cn(CCOc2ccccc2)nn1
REMARK SMILES IDX 17 1 18 2 19 3 29 4 30 5 5 7 2 8 1 9 3 10 4 11 6 12 7 15
REMARK SMILES IDX 8 16 9 17 13 18 10 19 12 20 11 21 14 22 16 23 15 24 20 25
REMARK SMILES IDX 21 26 22 27 23 28 24 29 28 30 25 31 27 32 26 33
REMARK H PARENT 18 6 6 13 6 14
ROOT
ATOM     1   C14 UNL     1       0.768  -0.696  -0.185  1.00  0.00     0.127 A   
ATOM     2   C15 UNL     1       1.942  -1.071  -0.800  1.00  0.00     0.045 A   
ATOM     3   N2  UNL     1       2.362   0.064  -1.431  1.00  0.00    -0.210 N   
ATOM     4   N3  UNL     1       1.548   1.099  -1.156  1.00  0.00    -0.076 NA  
ATOM     5   N4  UNL     1       0.553   0.641  -0.412  1.00  0.00    -0.132 NA  
ATOM     6   H20 UNL     1       2.477  -2.008  -0.876  1.00  0.00     0.083 HD  
ENDROOT
BRANCH   1   7
ATOM     7   C5  UNL     1      -0.186  -1.462   0.684  1.00  0.00     0.120 C   
BRANCH   7   8
ATOM     8   C2  UNL     1      -1.306  -2.230  -0.100  1.00  0.00     0.010 C   
ATOM     9   C1  UNL     1      -2.257  -1.280  -0.854  1.00  0.00     0.017 C   
ATOM     10  C3  UNL     1      -2.149  -3.092   0.871  1.00  0.00     0.017 C   
ATOM     11  C4  UNL     1      -0.672  -3.202  -1.120  1.00  0.00     0.017 C   
ENDBRANCH   7   8
BRANCH   7  12
ATOM     12  N1  UNL     1      -0.803  -0.506   1.680  1.00  0.00     0.250 N   
ATOM     13  H11 UNL     1      -1.049   0.347   1.154  1.00  0.00     0.199 HD  
ATOM     14  H12 UNL     1      -1.677  -0.859   2.074  1.00  0.00     0.199 HD  
BRANCH  12  15
ATOM     15  C6  UNL     1       0.090  -0.090   2.796  1.00  0.00     0.164 C   
BRANCH  15  16
ATOM     16  C7  UNL     1      -0.575   0.958   3.643  1.00  0.00    -0.002 A   
ATOM     17  C8  UNL     1      -0.329   2.329   3.394  1.00  0.00     0.012 A   
ATOM     18  C12 UNL     1      -1.481   0.588   4.652  1.00  0.00     0.045 A   
ATOM     19  C9  UNL     1      -0.959   3.321   4.152  1.00  0.00     0.037 A   
ATOM     20  C11 UNL     1      -2.088   1.592   5.379  1.00  0.00     0.109 A   
ATOM     21  C10 UNL     1      -1.833   2.919   5.139  1.00  0.00     0.108 A   
ATOM     22  O1  UNL     1      -2.983   1.408   6.386  1.00  0.00    -0.316 OA  
ATOM     23  O2  UNL     1      -2.532   3.739   5.966  1.00  0.00    -0.316 OA  
ATOM     24  C13 UNL     1      -3.233   2.776   6.782  1.00  0.00     0.337 C   
ENDBRANCH  15  16
ENDBRANCH  12  15
ENDBRANCH   7  12
ENDBRANCH   1   7
BRANCH   3  25
ATOM     25  C16 UNL     1       3.520   0.239  -2.281  1.00  0.00     0.163 C   
BRANCH  25  26
ATOM     26  C17 UNL     1       3.162   0.234  -3.763  1.00  0.00     0.189 C   
BRANCH  26  27
ATOM     27  O3  UNL     1       2.755  -1.077  -4.167  1.00  0.00    -0.344 OA  
BRANCH  27  28
ATOM     28  C18 UNL     1       1.443  -1.326  -4.446  1.00  0.00     0.075 A   
ATOM     29  C19 UNL     1       0.368  -0.457  -4.264  1.00  0.00     0.033 A   
ATOM     30  C23 UNL     1       1.200  -2.608  -4.950  1.00  0.00     0.033 A   
ATOM     31  C20 UNL     1      -0.929  -0.861  -4.601  1.00  0.00     0.003 A   
ATOM     32  C22 UNL     1      -0.093  -3.014  -5.282  1.00  0.00     0.003 A   
ATOM     33  C21 UNL     1      -1.160  -2.137  -5.109  1.00  0.00     0.000 A   
ENDBRANCH  27  28
ENDBRANCH  26  27
ENDBRANCH  25  26
ENDBRANCH   3  25
TORSDOF 9
