REMARK SMILES Cc1ccc([C@@H](CO)n2cc([C@@H]([NH2+]Cc3ccc4c(c3)OCO4)C3CCCCC3)nn2)nc1
REMARK SMILES IDX 9 1 10 2 11 3 30 4 31 5 6 7 5 8 2 9 3 10 33 11 4 12 32 13
REMARK SMILES IDX 1 14 7 15 8 16 12 18 13 19 14 22 15 23 16 24 20 25 17 26
REMARK SMILES IDX 19 27 18 28 21 29 23 30 22 31 24 32 25 33 29 34 26 35 28 36
REMARK SMILES IDX 27 37
REMARK H PARENT 10 6 8 17 13 20 13 21
ROOT
ATOM     1   N1  UNL     1       0.661  -0.991   2.586  1.00  0.00    -0.201 N   
ATOM     2   C8  UNL     1       0.190  -0.648   1.345  1.00  0.00     0.046 A   
ATOM     3   C9  UNL     1       1.327  -0.468   0.595  1.00  0.00     0.127 A   
ATOM     4   N3  UNL     1       2.424  -0.799   1.348  1.00  0.00    -0.132 NA  
ATOM     5   N4  UNL     1       2.006  -1.127   2.560  1.00  0.00    -0.075 NA  
ATOM     6   H10 UNL     1      -0.862  -0.486   1.153  1.00  0.00     0.083 HD  
ENDROOT
BRANCH   1   7
ATOM     7   C6  UNL     1      -0.072  -1.113   3.845  1.00  0.00     0.174 C   
BRANCH   7   8
ATOM     8   C5  UNL     1      -0.998   0.080   4.017  1.00  0.00     0.065 A   
ATOM     9   C2  UNL     1      -2.535   2.373   4.310  1.00  0.00    -0.033 A   
ATOM     10  C3  UNL     1      -3.156   1.147   4.078  1.00  0.00     0.007 A   
ATOM     11  C25 UNL     1      -1.152   2.379   4.376  1.00  0.00     0.114 A   
ATOM     12  C4  UNL     1      -2.387  -0.008   3.936  1.00  0.00     0.026 A   
ATOM     13  N5  UNL     1      -0.380   1.277   4.223  1.00  0.00    -0.259 NA  
ATOM     14  C1  UNL     1      -3.334   3.629   4.455  1.00  0.00     0.046 C   
ENDBRANCH   7   8
BRANCH   7  15
ATOM     15  C7  UNL     1      -0.672  -2.519   4.000  1.00  0.00     0.187 C   
BRANCH  15  16
ATOM     16  O1  UNL     1      -1.571  -2.859   2.943  1.00  0.00    -0.394 OA  
ATOM     17  H9  UNL     1      -1.854  -3.783   3.091  1.00  0.00     0.210 HD  
ENDBRANCH  15  16
ENDBRANCH   7  15
ENDBRANCH   1   7
BRANCH   3  18
ATOM     18  C10 UNL     1       1.507   0.137  -0.754  1.00  0.00     0.117 C   
BRANCH  18  19
ATOM     19  N2  UNL     1       2.677   1.101  -0.733  1.00  0.00     0.249 N   
ATOM     20  H12 UNL     1       2.904   1.405  -1.683  1.00  0.00     0.199 HD  
ATOM     21  H13 UNL     1       3.482   0.570  -0.371  1.00  0.00     0.199 HD  
BRANCH  19  22
ATOM     22  C11 UNL     1       2.533   2.298   0.157  1.00  0.00     0.164 C   
BRANCH  22  23
ATOM     23  C12 UNL     1       1.368   3.177  -0.204  1.00  0.00    -0.002 A   
ATOM     24  C13 UNL     1       1.395   3.964  -1.380  1.00  0.00     0.012 A   
ATOM     25  C17 UNL     1       0.224   3.195   0.615  1.00  0.00     0.045 A   
ATOM     26  C14 UNL     1       0.296   4.752  -1.741  1.00  0.00     0.037 A   
ATOM     27  C16 UNL     1      -0.843   3.979   0.229  1.00  0.00     0.109 A   
ATOM     28  C15 UNL     1      -0.809   4.733  -0.918  1.00  0.00     0.108 A   
ATOM     29  O2  UNL     1      -2.021   4.101   0.896  1.00  0.00    -0.316 OA  
ATOM     30  O3  UNL     1      -1.961   5.424  -1.119  1.00  0.00    -0.316 OA  
ATOM     31  C18 UNL     1      -2.730   5.023   0.036  1.00  0.00     0.337 C   
ENDBRANCH  22  23
ENDBRANCH  19  22
ENDBRANCH  18  19
BRANCH  18  32
ATOM     32  C19 UNL     1       1.717  -0.878  -1.906  1.00  0.00     0.043 C   
ATOM     33  C20 UNL     1       0.459  -1.740  -2.129  1.00  0.00     0.010 C   
ATOM     34  C24 UNL     1       2.953  -1.782  -1.754  1.00  0.00     0.010 C   
ATOM     35  C21 UNL     1       0.621  -2.664  -3.334  1.00  0.00     0.001 C   
ATOM     36  C23 UNL     1       3.116  -2.713  -2.956  1.00  0.00     0.001 C   
ATOM     37  C22 UNL     1       1.861  -3.542  -3.207  1.00  0.00     0.000 C   
ENDBRANCH  18  32
ENDBRANCH   3  18
TORSDOF 9
