REMARK SMILES Cc1ccc([C@H](CO)n2cc([C@@H]([NH2+]Cc3ccc4c(c3)OCO4)C3CCCCC3)nn2)nc1
REMARK SMILES IDX 9 1 10 2 11 3 30 4 31 5 6 7 5 8 2 9 3 10 33 11 4 12 32 13
REMARK SMILES IDX 1 14 7 15 8 16 12 18 13 19 14 22 15 23 16 24 20 25 17 26
REMARK SMILES IDX 19 27 18 28 21 29 23 30 22 31 24 32 25 33 29 34 26 35 28 36
REMARK SMILES IDX 27 37
REMARK H PARENT 10 6 8 17 13 20 13 21
ROOT
ATOM     1   N1  UNL     1       0.387   2.028   0.928  1.00  0.00    -0.201 N   
ATOM     2   C8  UNL     1      -0.526   1.581   0.007  1.00  0.00     0.046 A   
ATOM     3   C9  UNL     1      -0.947   0.371   0.507  1.00  0.00     0.127 A   
ATOM     4   N3  UNL     1      -0.314   0.132   1.701  1.00  0.00    -0.132 NA  
ATOM     5   N4  UNL     1       0.503   1.145   1.946  1.00  0.00    -0.075 NA  
ATOM     6   H10 UNL     1      -0.739   2.128  -0.902  1.00  0.00     0.083 HD  
ENDROOT
BRANCH   1   7
ATOM     7   C6  UNL     1       1.244   3.201   0.822  1.00  0.00     0.174 C   
BRANCH   7   8
ATOM     8   C5  UNL     1       2.633   2.766   0.400  1.00  0.00     0.065 A   
ATOM     9   C2  UNL     1       5.152   2.054  -0.495  1.00  0.00    -0.033 A   
ATOM     10  C3  UNL     1       4.845   1.944   0.859  1.00  0.00     0.007 A   
ATOM     11  C25 UNL     1       4.154   2.521  -1.339  1.00  0.00     0.114 A   
ATOM     12  C4  UNL     1       3.574   2.294   1.314  1.00  0.00     0.026 A   
ATOM     13  N5  UNL     1       2.910   2.860  -0.926  1.00  0.00    -0.259 NA  
ATOM     14  C1  UNL     1       6.526   1.756  -1.008  1.00  0.00     0.046 C   
ENDBRANCH   7   8
BRANCH   7  15
ATOM     15  C7  UNL     1       1.216   4.091   2.071  1.00  0.00     0.187 C   
BRANCH  15  16
ATOM     16  O1  UNL     1      -0.031   4.784   2.160  1.00  0.00    -0.394 OA  
ATOM     17  H9  UNL     1       0.115   5.581   2.706  1.00  0.00     0.210 HD  
ENDBRANCH  15  16
ENDBRANCH   7  15
ENDBRANCH   1   7
BRANCH   3  18
ATOM     18  C10 UNL     1      -1.837  -0.669  -0.091  1.00  0.00     0.117 C   
BRANCH  18  19
ATOM     19  N2  UNL     1      -1.323  -2.054   0.225  1.00  0.00     0.249 N   
ATOM     20  H12 UNL     1      -1.999  -2.770  -0.055  1.00  0.00     0.199 HD  
ATOM     21  H13 UNL     1      -1.233  -2.094   1.250  1.00  0.00     0.199 HD  
BRANCH  19  22
ATOM     22  C11 UNL     1       0.021  -2.409  -0.331  1.00  0.00     0.164 C   
BRANCH  22  23
ATOM     23  C12 UNL     1       0.043  -2.513  -1.831  1.00  0.00    -0.002 A   
ATOM     24  C13 UNL     1      -0.380  -3.697  -2.478  1.00  0.00     0.012 A   
ATOM     25  C17 UNL     1       0.477  -1.420  -2.604  1.00  0.00     0.045 A   
ATOM     26  C14 UNL     1      -0.373  -3.794  -3.875  1.00  0.00     0.037 A   
ATOM     27  C16 UNL     1       0.460  -1.543  -3.978  1.00  0.00     0.109 A   
ATOM     28  C15 UNL     1       0.053  -2.699  -4.596  1.00  0.00     0.108 A   
ATOM     29  O2  UNL     1       0.830  -0.581  -4.865  1.00  0.00    -0.316 OA  
ATOM     30  O3  UNL     1       0.121  -2.611  -5.950  1.00  0.00    -0.316 OA  
ATOM     31  C18 UNL     1       0.673  -1.286  -6.115  1.00  0.00     0.337 C   
ENDBRANCH  22  23
ENDBRANCH  19  22
ENDBRANCH  18  19
BRANCH  18  32
ATOM     32  C19 UNL     1      -3.316  -0.515   0.356  1.00  0.00     0.043 C   
ATOM     33  C20 UNL     1      -4.264  -1.354  -0.525  1.00  0.00     0.010 C   
ATOM     34  C24 UNL     1      -3.571  -0.823   1.845  1.00  0.00     0.010 C   
ATOM     35  C21 UNL     1      -5.728  -1.127  -0.145  1.00  0.00     0.001 C   
ATOM     36  C23 UNL     1      -5.036  -0.600   2.222  1.00  0.00     0.001 C   
ATOM     37  C22 UNL     1      -5.976  -1.408   1.332  1.00  0.00     0.000 C   
ENDBRANCH  18  32
ENDBRANCH   3  18
TORSDOF 9
