REMARK SMILES CC(C)C[C@H]([NH2+]Cc1ccc2c(c1)OCO2)c1cn(C(=O)c2ccccc2)nn1
REMARK SMILES IDX 5 1 4 2 2 3 1 4 3 5 6 6 7 9 8 10 9 11 13 12 10 13 12 14
REMARK SMILES IDX 11 15 14 16 16 17 15 18 17 19 18 20 29 21 19 22 28 23 20 24
REMARK SMILES IDX 21 25 22 26 23 27 27 28 24 29 26 30 25 31
REMARK H PARENT 6 7 6 8
ROOT
ATOM     1   C5  UNL     1      -0.140  -2.076  -0.252  1.00  0.00     0.114 C   
ENDROOT
BRANCH   1   2
ATOM     2   C4  UNL     1       1.321  -2.450  -0.571  1.00  0.00     0.064 C   
BRANCH   2   3
ATOM     3   C2  UNL     1       2.225  -1.391  -1.242  1.00  0.00    -0.012 C   
ATOM     4   C1  UNL     1       3.596  -2.010  -1.539  1.00  0.00     0.007 C   
ATOM     5   C3  UNL     1       2.413  -0.127  -0.405  1.00  0.00     0.007 C   
ENDBRANCH   2   3
ENDBRANCH   1   2
BRANCH   1   6
ATOM     6   N1  UNL     1      -0.805  -1.424  -1.429  1.00  0.00     0.249 N   
ATOM     7   H11 UNL     1      -0.276  -0.591  -1.712  1.00  0.00     0.199 HD  
ATOM     8   H12 UNL     1      -1.692  -1.024  -1.087  1.00  0.00     0.199 HD  
BRANCH   6   9
ATOM     9   C6  UNL     1      -1.099  -2.280  -2.603  1.00  0.00     0.164 C   
BRANCH   9  10
ATOM     10  C7  UNL     1      -1.787  -1.484  -3.675  1.00  0.00    -0.002 A   
ATOM     11  C8  UNL     1      -3.199  -1.398  -3.709  1.00  0.00     0.012 A   
ATOM     12  C12 UNL     1      -1.027  -0.772  -4.621  1.00  0.00     0.045 A   
ATOM     13  C9  UNL     1      -3.849  -0.624  -4.677  1.00  0.00     0.037 A   
ATOM     14  C11 UNL     1      -1.699  -0.020  -5.561  1.00  0.00     0.109 A   
ATOM     15  C10 UNL     1      -3.070   0.052  -5.590  1.00  0.00     0.108 A   
ATOM     16  O1  UNL     1      -1.119   0.722  -6.540  1.00  0.00    -0.316 OA  
ATOM     17  O2  UNL     1      -3.526   0.847  -6.592  1.00  0.00    -0.316 OA  
ATOM     18  C13 UNL     1      -2.286   1.257  -7.207  1.00  0.00     0.337 C   
ENDBRANCH   9  10
ENDBRANCH   6   9
ENDBRANCH   1   6
BRANCH   1  19
ATOM     19  C14 UNL     1      -0.305  -1.229   0.971  1.00  0.00     0.127 A   
ATOM     20  C15 UNL     1       0.097  -1.422   2.271  1.00  0.00     0.139 A   
ATOM     21  N4  UNL     1      -1.006  -0.054   0.897  1.00  0.00    -0.131 NA  
ATOM     22  N2  UNL     1      -0.364  -0.314   2.964  1.00  0.00    -0.143 N   
ATOM     23  N3  UNL     1      -1.039   0.489   2.104  1.00  0.00    -0.068 NA  
BRANCH  22  24
ATOM     24  C16 UNL     1      -0.240  -0.035   4.334  1.00  0.00     0.271 C   
ATOM     25  O3  UNL     1       0.305  -0.912   5.006  1.00  0.00    -0.269 OA  
BRANCH  24  26
ATOM     26  C17 UNL     1      -0.723   1.193   5.021  1.00  0.00     0.039 A   
ATOM     27  C18 UNL     1      -1.101   1.087   6.368  1.00  0.00     0.014 A   
ATOM     28  C22 UNL     1      -0.772   2.442   4.392  1.00  0.00     0.014 A   
ATOM     29  C19 UNL     1      -1.551   2.209   7.066  1.00  0.00     0.001 A   
ATOM     30  C21 UNL     1      -1.224   3.563   5.095  1.00  0.00     0.001 A   
ATOM     31  C20 UNL     1      -1.616   3.445   6.427  1.00  0.00     0.000 A   
ENDBRANCH  24  26
ENDBRANCH  22  24
ENDBRANCH   1  19
TORSDOF 8
