REMARK SMILES CC(C)(C)[C@H]([NH2+]Cc1ccc2c(c1)OCO2)c1cn([C@H](CO)c2ccc(Cl)cc2)nn1
REMARK SMILES IDX 17 1 18 2 19 3 30 4 31 5 5 7 2 8 1 9 3 10 4 11 6 12 7 15
REMARK SMILES IDX 8 16 9 17 13 18 10 19 12 20 11 21 14 22 16 23 15 24 20 25
REMARK SMILES IDX 21 26 22 27 23 29 24 30 29 31 25 32 28 33 26 34 27 35
REMARK H PARENT 18 6 6 13 6 14 22 28
ROOT
ATOM     1   C14 UNL     1       1.777  -0.143   0.024  1.00  0.00     0.127 A   
ATOM     2   C15 UNL     1       0.848  -0.603  -0.879  1.00  0.00     0.046 A   
ATOM     3   N2  UNL     1       0.527  -1.855  -0.426  1.00  0.00    -0.202 N   
ATOM     4   N3  UNL     1       1.229  -2.147   0.690  1.00  0.00    -0.075 NA  
ATOM     5   N4  UNL     1       2.003  -1.110   0.969  1.00  0.00    -0.132 NA  
ATOM     6   H20 UNL     1       0.373  -0.166  -1.747  1.00  0.00     0.083 HD  
ENDROOT
BRANCH   1   7
ATOM     7   C5  UNL     1       2.414   1.205   0.152  1.00  0.00     0.120 C   
BRANCH   7   8
ATOM     8   C2  UNL     1       3.860   1.292  -0.456  1.00  0.00     0.010 C   
ATOM     9   C1  UNL     1       3.827   0.891  -1.949  1.00  0.00     0.017 C   
ATOM     10  C3  UNL     1       4.874   0.383   0.266  1.00  0.00     0.017 C   
ATOM     11  C4  UNL     1       4.385   2.745  -0.391  1.00  0.00     0.017 C   
ENDBRANCH   7   8
BRANCH   7  12
ATOM     12  N1  UNL     1       2.425   1.637   1.608  1.00  0.00     0.250 N   
ATOM     13  H11 UNL     1       2.901   2.535   1.709  1.00  0.00     0.199 HD  
ATOM     14  H12 UNL     1       2.970   0.933   2.120  1.00  0.00     0.199 HD  
BRANCH  12  15
ATOM     15  C6  UNL     1       1.098   1.727   2.297  1.00  0.00     0.164 C   
BRANCH  15  16
ATOM     16  C7  UNL     1       0.120   2.647   1.622  1.00  0.00    -0.002 A   
ATOM     17  C8  UNL     1       0.312   4.048   1.639  1.00  0.00     0.012 A   
ATOM     18  C12 UNL     1      -0.990   2.109   0.944  1.00  0.00     0.045 A   
ATOM     19  C9  UNL     1      -0.583   4.903   0.986  1.00  0.00     0.037 A   
ATOM     20  C11 UNL     1      -1.851   2.979   0.310  1.00  0.00     0.109 A   
ATOM     21  C10 UNL     1      -1.654   4.337   0.330  1.00  0.00     0.108 A   
ATOM     22  O1  UNL     1      -2.957   2.623  -0.392  1.00  0.00    -0.316 OA  
ATOM     23  O2  UNL     1      -2.617   5.009  -0.353  1.00  0.00    -0.316 OA  
ATOM     24  C13 UNL     1      -3.469   3.920  -0.773  1.00  0.00     0.337 C   
ENDBRANCH  15  16
ENDBRANCH  12  15
ENDBRANCH   7  12
ENDBRANCH   1   7
BRANCH   3  25
ATOM     25  C16 UNL     1      -0.516  -2.761  -0.907  1.00  0.00     0.155 C   
BRANCH  25  26
ATOM     26  C17 UNL     1      -0.140  -3.404  -2.258  1.00  0.00     0.185 C   
BRANCH  26  27
ATOM     27  O3  UNL     1       0.124  -2.449  -3.286  1.00  0.00    -0.394 OA  
ATOM     28  H24 UNL     1       0.328  -2.953  -4.096  1.00  0.00     0.210 HD  
ENDBRANCH  26  27
ENDBRANCH  25  26
BRANCH  25  29
ATOM     29  C18 UNL     1      -1.878  -2.075  -0.807  1.00  0.00    -0.023 A   
ATOM     30  C19 UNL     1      -2.527  -2.033   0.443  1.00  0.00     0.007 A   
ATOM     31  C23 UNL     1      -2.489  -1.429  -1.893  1.00  0.00     0.007 A   
ATOM     32  C20 UNL     1      -3.745  -1.366   0.600  1.00  0.00     0.021 A   
ATOM     33  C22 UNL     1      -3.708  -0.760  -1.735  1.00  0.00     0.021 A   
ATOM     34  C21 UNL     1      -4.328  -0.728  -0.490  1.00  0.00     0.041 A   
ATOM     35  CL1 UNL     1      -5.814   0.115  -0.295  1.00  0.00    -0.084 Cl  
ENDBRANCH  25  29
ENDBRANCH   3  25
TORSDOF 9
