REMARK SMILES CC(C)(C)[C@H]([NH2+]Cc1ccc2c(c1)OCO2)c1cn(CCc2[nH]nc3c2COCC3)nn1
REMARK SMILES IDX 17 1 18 2 19 3 31 4 32 5 5 7 2 8 1 9 3 10 4 11 6 12 7 15
REMARK SMILES IDX 8 16 9 17 13 18 10 19 12 20 11 21 14 22 16 23 15 24 20 25
REMARK SMILES IDX 21 26 22 27 23 28 26 29 24 30 25 31 27 32 30 33 28 34 29 35
REMARK H PARENT 18 6 6 13 6 14 23 36
ROOT
ATOM     1   C14 UNL     1      -2.292  -1.211  -2.257  1.00  0.00     0.127 A   
ATOM     2   C15 UNL     1      -1.403  -1.361  -3.300  1.00  0.00     0.045 A   
ATOM     3   N2  UNL     1      -1.258  -2.718  -3.432  1.00  0.00    -0.212 N   
ATOM     4   N5  UNL     1      -2.103  -3.370  -2.612  1.00  0.00    -0.076 NA  
ATOM     5   N6  UNL     1      -2.739  -2.461  -1.887  1.00  0.00    -0.132 NA  
ATOM     6   H20 UNL     1      -0.777  -0.677  -3.855  1.00  0.00     0.083 HD  
ENDROOT
BRANCH   1   7
ATOM     7   C5  UNL     1      -2.699  -0.029  -1.421  1.00  0.00     0.120 C   
BRANCH   7   8
ATOM     8   C2  UNL     1      -2.574   1.403  -2.049  1.00  0.00     0.010 C   
ATOM     9   C1  UNL     1      -3.313   2.427  -1.146  1.00  0.00     0.017 C   
ATOM     10  C3  UNL     1      -3.275   1.458  -3.427  1.00  0.00     0.017 C   
ATOM     11  C4  UNL     1      -1.119   1.889  -2.200  1.00  0.00     0.017 C   
ENDBRANCH   7   8
BRANCH   7  12
ATOM     12  N1  UNL     1      -1.987  -0.088  -0.083  1.00  0.00     0.250 N   
ATOM     13  H11 UNL     1      -1.684   0.832   0.242  1.00  0.00     0.199 HD  
ATOM     14  H12 UNL     1      -1.090  -0.618  -0.181  1.00  0.00     0.199 HD  
BRANCH  12  15
ATOM     15  C6  UNL     1      -2.757  -0.745   1.008  1.00  0.00     0.164 C   
BRANCH  15  16
ATOM     16  C7  UNL     1      -2.029  -0.677   2.323  1.00  0.00    -0.002 A   
ATOM     17  C8  UNL     1      -1.948   0.545   3.037  1.00  0.00     0.012 A   
ATOM     18  C12 UNL     1      -1.407  -1.824   2.846  1.00  0.00     0.045 A   
ATOM     19  C9  UNL     1      -1.251   0.625   4.248  1.00  0.00     0.037 A   
ATOM     20  C11 UNL     1      -0.743  -1.714   4.051  1.00  0.00     0.109 A   
ATOM     21  C10 UNL     1      -0.663  -0.524   4.730  1.00  0.00     0.108 A   
ATOM     22  O1  UNL     1      -0.112  -2.727   4.701  1.00  0.00    -0.316 OA  
ATOM     23  O2  UNL     1       0.041  -0.633   5.889  1.00  0.00    -0.316 OA  
ATOM     24  C13 UNL     1       0.351  -2.043   5.889  1.00  0.00     0.337 C   
ENDBRANCH  15  16
ENDBRANCH  12  15
ENDBRANCH   7  12
ENDBRANCH   1   7
BRANCH   3  25
ATOM     25  C16 UNL     1      -0.106  -3.401  -3.997  1.00  0.00     0.140 C   
BRANCH  25  26
ATOM     26  C17 UNL     1       0.898  -3.870  -2.922  1.00  0.00     0.075 C   
BRANCH  26  27
ATOM     27  C18 UNL     1       1.135  -2.833  -1.866  1.00  0.00     0.034 A   
ATOM     28  N3  UNL     1       0.320  -2.757  -0.761  1.00  0.00    -0.242 N   
ATOM     29  C20 UNL     1       2.016  -1.786  -1.736  1.00  0.00     0.020 A   
ATOM     30  N4  UNL     1       0.418  -1.569  -0.110  1.00  0.00    -0.189 NA  
ATOM     31  C19 UNL     1       1.549  -1.063  -0.615  1.00  0.00     0.068 A   
ATOM     32  C21 UNL     1       3.186  -1.323  -2.527  1.00  0.00     0.199 C   
ATOM     33  C23 UNL     1       2.194   0.198  -0.164  1.00  0.00     0.087 C   
ATOM     34  O3  UNL     1       3.482   0.064  -2.253  1.00  0.00    -0.376 OA  
ATOM     35  C22 UNL     1       3.572   0.330  -0.838  1.00  0.00     0.167 C   
ATOM     36  H25 UNL     1      -0.432  -3.397  -0.514  1.00  0.00     0.175 HD  
ENDBRANCH  26  27
ENDBRANCH  25  26
ENDBRANCH   3  25
TORSDOF 8
