REMARK SMILES CC(C)[C@H]([NH2+]Cc1ccc2c(c1)OCO2)c1cn(Cc2ccc(-n3cccn3)cc2)nn1
REMARK SMILES IDX 16 1 17 2 18 3 31 4 32 5 4 7 2 8 1 9 3 10 5 11 6 14 7 15
REMARK SMILES IDX 8 16 12 17 9 18 11 19 10 20 13 21 15 22 14 23 19 24 20 25
REMARK SMILES IDX 21 26 30 27 22 28 29 29 23 30 24 31 25 32 28 33 26 34 27 35
REMARK H PARENT 17 6 5 12 5 13
ROOT
ATOM     1   C13 UNL     1       1.146   0.345   2.583  1.00  0.00     0.127 A   
ATOM     2   C14 UNL     1       1.240  -0.805   1.829  1.00  0.00     0.046 A   
ATOM     3   N2  UNL     1       0.248  -1.608   2.322  1.00  0.00    -0.208 N   
ATOM     4   N5  UNL     1      -0.400  -0.998   3.335  1.00  0.00    -0.076 NA  
ATOM     5   N6  UNL     1       0.151   0.193   3.513  1.00  0.00    -0.132 NA  
ATOM     6   H18 UNL     1       1.862  -1.099   0.993  1.00  0.00     0.083 HD  
ENDROOT
BRANCH   1   7
ATOM     7   C4  UNL     1       1.876   1.643   2.462  1.00  0.00     0.117 C   
BRANCH   7   8
ATOM     8   C2  UNL     1       2.990   1.799   3.540  1.00  0.00     0.037 C   
ATOM     9   C1  UNL     1       4.021   0.661   3.468  1.00  0.00     0.014 C   
ATOM     10  C3  UNL     1       3.740   3.133   3.424  1.00  0.00     0.014 C   
ENDBRANCH   7   8
BRANCH   7  11
ATOM     11  N1  UNL     1       0.920   2.815   2.593  1.00  0.00     0.249 N   
ATOM     12  H9  UNL     1       1.429   3.691   2.452  1.00  0.00     0.199 HD  
ATOM     13  H10 UNL     1       0.572   2.806   3.561  1.00  0.00     0.199 HD  
BRANCH  11  14
ATOM     14  C5  UNL     1      -0.285   2.830   1.707  1.00  0.00     0.164 C   
BRANCH  14  15
ATOM     15  C6  UNL     1       0.019   2.703   0.241  1.00  0.00    -0.002 A   
ATOM     16  C7  UNL     1       0.709   3.723  -0.457  1.00  0.00     0.012 A   
ATOM     17  C11 UNL     1      -0.396   1.555  -0.452  1.00  0.00     0.045 A   
ATOM     18  C8  UNL     1       0.991   3.595  -1.822  1.00  0.00     0.037 A   
ATOM     19  C10 UNL     1      -0.106   1.464  -1.796  1.00  0.00     0.109 A   
ATOM     20  C9  UNL     1       0.571   2.451  -2.464  1.00  0.00     0.108 A   
ATOM     21  O1  UNL     1      -0.450   0.432  -2.606  1.00  0.00    -0.316 OA  
ATOM     22  O2  UNL     1       0.741   2.160  -3.785  1.00  0.00    -0.316 OA  
ATOM     23  C12 UNL     1       0.080   0.878  -3.874  1.00  0.00     0.337 C   
ENDBRANCH  14  15
ENDBRANCH  11  14
ENDBRANCH   7  11
ENDBRANCH   1   7
BRANCH   3  24
ATOM     24  C15 UNL     1      -0.167  -2.916   1.842  1.00  0.00     0.169 C   
BRANCH  24  25
ATOM     25  C16 UNL     1      -0.789  -2.799   0.470  1.00  0.00    -0.028 A   
ATOM     26  C17 UNL     1      -2.118  -2.370   0.327  1.00  0.00     0.007 A   
ATOM     27  C24 UNL     1      -0.038  -3.069  -0.681  1.00  0.00     0.007 A   
ATOM     28  C18 UNL     1      -2.677  -2.184  -0.943  1.00  0.00     0.026 A   
ATOM     29  C23 UNL     1      -0.594  -2.886  -1.951  1.00  0.00     0.026 A   
ATOM     30  C19 UNL     1      -1.910  -2.422  -2.091  1.00  0.00     0.056 A   
BRANCH  30  31
ATOM     31  N3  UNL     1      -2.429  -2.175  -3.394  1.00  0.00    -0.201 N   
ATOM     32  C20 UNL     1      -3.682  -1.716  -3.739  1.00  0.00     0.103 A   
ATOM     33  N4  UNL     1      -1.653  -2.343  -4.500  1.00  0.00    -0.185 NA  
ATOM     34  C21 UNL     1      -3.720  -1.622  -5.109  1.00  0.00     0.039 A   
ATOM     35  C22 UNL     1      -2.449  -2.031  -5.523  1.00  0.00     0.133 A   
ENDBRANCH  30  31
ENDBRANCH  24  25
ENDBRANCH   3  24
TORSDOF 8
