REMARK SMILES CC(C)(C)[C@H]([NH2+]Cc1ccc2c(c1)OCO2)c1cn(Cc2cccc(N([O-])[O-])c2)nn1
REMARK SMILES IDX 17 1 18 2 19 3 30 4 31 5 5 7 2 8 1 9 3 10 4 11 6 12 7 15
REMARK SMILES IDX 8 16 9 17 13 18 10 19 12 20 11 21 14 22 16 23 15 24 20 25
REMARK SMILES IDX 21 26 22 27 29 28 23 29 25 30 24 31 26 32 27 33 28 34
REMARK H PARENT 18 6 6 13 6 14
ROOT
ATOM     1   C14 UNL     1      -1.515  -1.145   0.258  1.00  0.00     0.127 A   
ATOM     2   C15 UNL     1      -1.961  -0.045   0.958  1.00  0.00     0.046 A   
ATOM     3   N2  UNL     1      -1.504  -0.257   2.230  1.00  0.00    -0.208 N   
ATOM     4   N4  UNL     1      -0.819  -1.414   2.309  1.00  0.00    -0.076 NA  
ATOM     5   N5  UNL     1      -0.811  -1.963   1.107  1.00  0.00    -0.132 NA  
ATOM     6   H20 UNL     1      -2.516   0.840   0.679  1.00  0.00     0.083 HD  
ENDROOT
BRANCH   1   7
ATOM     7   C5  UNL     1      -1.584  -1.502  -1.198  1.00  0.00     0.120 C   
BRANCH   7   8
ATOM     8   C2  UNL     1      -2.785  -2.432  -1.580  1.00  0.00     0.010 C   
ATOM     9   C1  UNL     1      -4.121  -1.747  -1.209  1.00  0.00     0.017 C   
ATOM     10  C3  UNL     1      -2.735  -3.802  -0.873  1.00  0.00     0.017 C   
ATOM     11  C4  UNL     1      -2.808  -2.667  -3.108  1.00  0.00     0.017 C   
ENDBRANCH   7   8
BRANCH   7  12
ATOM     12  N1  UNL     1      -0.261  -2.149  -1.574  1.00  0.00     0.250 N   
ATOM     13  H11 UNL     1       0.177  -2.429  -0.681  1.00  0.00     0.199 HD  
ATOM     14  H12 UNL     1      -0.402  -3.028  -2.078  1.00  0.00     0.199 HD  
BRANCH  12  15
ATOM     15  C6  UNL     1       0.708  -1.305  -2.327  1.00  0.00     0.164 C   
BRANCH  15  16
ATOM     16  C7  UNL     1       1.057  -0.002  -1.662  1.00  0.00    -0.002 A   
ATOM     17  C8  UNL     1       1.709   0.023  -0.405  1.00  0.00     0.012 A   
ATOM     18  C12 UNL     1       0.727   1.212  -2.289  1.00  0.00     0.045 A   
ATOM     19  C9  UNL     1       2.011   1.236   0.226  1.00  0.00     0.037 A   
ATOM     20  C11 UNL     1       1.046   2.388  -1.645  1.00  0.00     0.109 A   
ATOM     21  C10 UNL     1       1.667   2.402  -0.421  1.00  0.00     0.108 A   
ATOM     22  O1  UNL     1       0.798   3.638  -2.117  1.00  0.00    -0.316 OA  
ATOM     23  O2  UNL     1       1.883   3.662   0.035  1.00  0.00    -0.316 OA  
ATOM     24  C13 UNL     1       1.383   4.447  -1.071  1.00  0.00     0.337 C   
ENDBRANCH  15  16
ENDBRANCH  12  15
ENDBRANCH   7  12
ENDBRANCH   1   7
BRANCH   3  25
ATOM     25  C16 UNL     1      -1.686   0.580   3.404  1.00  0.00     0.169 C   
BRANCH  25  26
ATOM     26  C17 UNL     1      -0.543   1.553   3.559  1.00  0.00    -0.026 A   
ATOM     27  C18 UNL     1       0.622   1.179   4.249  1.00  0.00     0.005 A   
ATOM     28  C22 UNL     1      -0.616   2.838   2.999  1.00  0.00     0.036 A   
ATOM     29  C19 UNL     1       1.689   2.070   4.389  1.00  0.00     0.003 A   
ATOM     30  C21 UNL     1       0.462   3.726   3.140  1.00  0.00     0.118 A   
ATOM     31  C20 UNL     1       1.615   3.347   3.836  1.00  0.00     0.031 A   
BRANCH  30  32
ATOM     32  N3  UNL     1       0.381   5.061   2.535  1.00  0.00     0.092 N   
ATOM     33  O3  UNL     1      -0.594   5.299   1.806  1.00  0.00    -0.138 OA  
ATOM     34  O4  UNL     1       1.291   5.865   2.776  1.00  0.00    -0.138 OA  
ENDBRANCH  30  32
ENDBRANCH  25  26
ENDBRANCH   3  25
TORSDOF 8
