REMARK SMILES CCn1nc(C)c(Cn2cc([C@@H]([NH2+]Cc3ccc4c(c3)OCO4)C(C)C)nn2)c1C
REMARK SMILES IDX 9 1 10 2 11 3 27 4 28 5 8 7 7 8 3 9 4 10 29 11 5 12 30 13
REMARK SMILES IDX 6 14 2 15 1 16 12 17 13 18 14 21 15 22 16 23 20 24 17 25
REMARK SMILES IDX 19 26 18 27 21 28 23 29 22 30 24 31 25 32 26 33
REMARK H PARENT 10 6 13 19 13 20
ROOT
ATOM     1   N3  UNL     1      -0.220  -1.900   2.657  1.00  0.00    -0.208 N   
ATOM     2   C7  UNL     1      -0.315  -0.579   2.308  1.00  0.00     0.046 A   
ATOM     3   C8  UNL     1      -1.658  -0.399   2.064  1.00  0.00     0.127 A   
ATOM     4   N5  UNL     1      -2.329  -1.560   2.349  1.00  0.00    -0.132 NA  
ATOM     5   N6  UNL     1      -1.441  -2.467   2.723  1.00  0.00    -0.076 NA  
ATOM     6   H11 UNL     1       0.557   0.045   2.168  1.00  0.00     0.083 HD  
ENDROOT
BRANCH   1   7
ATOM     7   C6  UNL     1       0.986  -2.713   2.726  1.00  0.00     0.173 C   
BRANCH   7   8
ATOM     8   C5  UNL     1       1.514  -2.908   1.342  1.00  0.00     0.013 A   
ATOM     9   N1  UNL     1       2.615  -2.766  -0.561  1.00  0.00    -0.230 N   
ATOM     10  N2  UNL     1       1.609  -3.617  -0.824  1.00  0.00    -0.186 NA  
ATOM     11  C21 UNL     1       2.589  -2.282   0.725  1.00  0.00     0.032 A   
ATOM     12  C3  UNL     1       0.974  -3.763   0.340  1.00  0.00     0.062 A   
ATOM     13  C22 UNL     1       3.571  -1.287   1.228  1.00  0.00     0.064 C   
ATOM     14  C4  UNL     1      -0.178  -4.697   0.434  1.00  0.00     0.069 C   
BRANCH   9  15
ATOM     15  C2  UNL     1       3.553  -2.446  -1.624  1.00  0.00     0.129 C   
ATOM     16  C1  UNL     1       4.686  -3.453  -1.706  1.00  0.00     0.027 C   
ENDBRANCH   9  15
ENDBRANCH   7   8
ENDBRANCH   1   7
BRANCH   3  17
ATOM     17  C9  UNL     1      -2.379   0.743   1.430  1.00  0.00     0.117 C   
BRANCH  17  18
ATOM     18  N4  UNL     1      -3.317   0.244   0.353  1.00  0.00     0.249 N   
ATOM     19  H13 UNL     1      -3.951  -0.427   0.805  1.00  0.00     0.199 HD  
ATOM     20  H14 UNL     1      -3.888   1.012  -0.008  1.00  0.00     0.199 HD  
BRANCH  18  21
ATOM     21  C10 UNL     1      -2.685  -0.479  -0.799  1.00  0.00     0.164 C   
BRANCH  21  22
ATOM     22  C11 UNL     1      -1.663   0.340  -1.538  1.00  0.00    -0.002 A   
ATOM     23  C12 UNL     1      -2.051   1.480  -2.281  1.00  0.00     0.012 A   
ATOM     24  C16 UNL     1      -0.302  -0.013  -1.471  1.00  0.00     0.045 A   
ATOM     25  C13 UNL     1      -1.099   2.267  -2.936  1.00  0.00     0.037 A   
ATOM     26  C15 UNL     1       0.612   0.787  -2.125  1.00  0.00     0.109 A   
ATOM     27  C14 UNL     1       0.224   1.896  -2.836  1.00  0.00     0.108 A   
ATOM     28  O1  UNL     1       1.958   0.599  -2.149  1.00  0.00    -0.316 OA  
ATOM     29  O2  UNL     1       1.276   2.543  -3.401  1.00  0.00    -0.316 OA  
ATOM     30  C17 UNL     1       2.371   1.694  -2.999  1.00  0.00     0.337 C   
ENDBRANCH  21  22
ENDBRANCH  18  21
ENDBRANCH  17  18
BRANCH  17  31
ATOM     31  C18 UNL     1      -3.143   1.620   2.457  1.00  0.00     0.037 C   
ATOM     32  C19 UNL     1      -3.569   2.960   1.843  1.00  0.00     0.014 C   
ATOM     33  C20 UNL     1      -4.362   0.942   3.093  1.00  0.00     0.014 C   
ENDBRANCH  17  31
ENDBRANCH   3  17
TORSDOF 8
