REMARK SMILES CC(C)C[C@H]([NH2+]Cc1ccc2c(c1)OCO2)c1cn([C@@H](CO)c2ccc(O)c(F)c2)nn1
REMARK SMILES IDX 17 1 18 2 19 3 31 4 32 5 5 7 4 8 2 9 1 10 3 11 6 12 7 15
REMARK SMILES IDX 8 16 9 17 13 18 10 19 12 20 11 21 14 22 16 23 15 24 20 25
REMARK SMILES IDX 21 26 22 27 23 29 24 30 30 31 25 32 28 33 26 34 29 35 27 36
REMARK H PARENT 18 6 6 13 6 14 22 28 27 37
ROOT
ATOM     1   C14 UNL     1      -0.498  -0.402  -1.154  1.00  0.00     0.127 A   
ATOM     2   C15 UNL     1      -0.793   0.227   0.033  1.00  0.00     0.046 A   
ATOM     3   N2  UNL     1      -2.070   0.690  -0.141  1.00  0.00    -0.202 N   
ATOM     4   N3  UNL     1      -2.555   0.300  -1.339  1.00  0.00    -0.075 NA  
ATOM     5   N4  UNL     1      -1.597  -0.361  -1.971  1.00  0.00    -0.132 NA  
ATOM     6   H20 UNL     1      -0.237   0.400   0.945  1.00  0.00     0.083 HD  
ENDROOT
BRANCH   1   7
ATOM     7   C5  UNL     1       0.720  -1.138  -1.586  1.00  0.00     0.114 C   
BRANCH   7   8
ATOM     8   C4  UNL     1       1.522  -0.415  -2.688  1.00  0.00     0.064 C   
BRANCH   8   9
ATOM     9   C2  UNL     1       2.241   0.902  -2.317  1.00  0.00    -0.012 C   
ATOM     10  C1  UNL     1       1.312   2.116  -2.284  1.00  0.00     0.007 C   
ATOM     11  C3  UNL     1       3.048   0.802  -1.024  1.00  0.00     0.007 C   
ENDBRANCH   8   9
ENDBRANCH   7   8
BRANCH   7  12
ATOM     12  N1  UNL     1       0.315  -2.484  -2.166  1.00  0.00     0.249 N   
ATOM     13  H11 UNL     1       1.125  -2.933  -2.603  1.00  0.00     0.199 HD  
ATOM     14  H12 UNL     1      -0.365  -2.283  -2.912  1.00  0.00     0.199 HD  
BRANCH  12  15
ATOM     15  C6  UNL     1      -0.328  -3.447  -1.222  1.00  0.00     0.164 C   
BRANCH  15  16
ATOM     16  C7  UNL     1       0.591  -3.894  -0.120  1.00  0.00    -0.002 A   
ATOM     17  C8  UNL     1       0.401  -3.423   1.202  1.00  0.00     0.012 A   
ATOM     18  C12 UNL     1       1.663  -4.759  -0.398  1.00  0.00     0.045 A   
ATOM     19  C9  UNL     1       1.268  -3.802   2.233  1.00  0.00     0.037 A   
ATOM     20  C11 UNL     1       2.500  -5.112   0.640  1.00  0.00     0.109 A   
ATOM     21  C10 UNL     1       2.309  -4.647   1.918  1.00  0.00     0.108 A   
ATOM     22  O1  UNL     1       3.579  -5.931   0.540  1.00  0.00    -0.316 OA  
ATOM     23  O2  UNL     1       3.244  -5.117   2.785  1.00  0.00    -0.316 OA  
ATOM     24  C13 UNL     1       4.028  -5.962   1.915  1.00  0.00     0.337 C   
ENDBRANCH  15  16
ENDBRANCH  12  15
ENDBRANCH   7  12
ENDBRANCH   1   7
BRANCH   3  25
ATOM     25  C16 UNL     1      -2.885   1.505   0.759  1.00  0.00     0.155 C   
BRANCH  25  26
ATOM     26  C17 UNL     1      -3.531   0.638   1.860  1.00  0.00     0.185 C   
BRANCH  26  27
ATOM     27  O3  UNL     1      -2.579  -0.114   2.617  1.00  0.00    -0.394 OA  
ATOM     28  H24 UNL     1      -3.072  -0.535   3.347  1.00  0.00     0.210 HD  
ENDBRANCH  26  27
ENDBRANCH  25  26
BRANCH  25  29
ATOM     29  C18 UNL     1      -2.111   2.743   1.203  1.00  0.00    -0.020 A   
ATOM     30  C19 UNL     1      -1.503   2.857   2.467  1.00  0.00     0.009 A   
ATOM     31  C23 UNL     1      -1.965   3.812   0.296  1.00  0.00     0.048 A   
ATOM     32  C20 UNL     1      -0.778   4.002   2.817  1.00  0.00     0.036 A   
ATOM     33  C22 UNL     1      -1.242   4.946   0.654  1.00  0.00     0.153 A   
ATOM     34  C21 UNL     1      -0.651   5.041   1.907  1.00  0.00     0.107 A   
ATOM     35  F1  UNL     1      -1.107   5.952  -0.221  1.00  0.00    -0.204 F   
BRANCH  34  36
ATOM     36  O4  UNL     1       0.064   6.144   2.271  1.00  0.00    -0.358 OA  
ATOM     37  H27 UNL     1       0.016   6.779   1.531  1.00  0.00     0.218 HD  
ENDBRANCH  34  36
ENDBRANCH  25  29
ENDBRANCH   3  25
TORSDOF 11
