REMARK SMILES CCn1ccnc1CCn1cc([C@@H]([NH2+]Cc2ccc3c(c2)OCO3)C(C)C)nn1
REMARK SMILES IDX 10 1 11 2 12 3 28 4 29 5 9 7 8 8 7 9 3 10 4 11 5 12 6 13
REMARK SMILES IDX 2 14 1 15 13 16 14 17 15 20 16 21 17 22 21 23 18 24 20 25
REMARK SMILES IDX 19 26 22 27 24 28 23 29 25 30 26 31 27 32
REMARK H PARENT 11 6 14 18 14 19
ROOT
ATOM     1   N3  UNL     1      -3.645   0.756  -0.962  1.00  0.00    -0.212 N   
ATOM     2   C8  UNL     1      -3.580  -0.327  -0.132  1.00  0.00     0.045 A   
ATOM     3   C9  UNL     1      -2.994   0.201   0.999  1.00  0.00     0.127 A   
ATOM     4   N5  UNL     1      -3.007   1.568   0.923  1.00  0.00    -0.132 NA  
ATOM     5   N6  UNL     1      -3.427   1.899  -0.287  1.00  0.00    -0.076 NA  
ATOM     6   H12 UNL     1      -3.692  -1.339  -0.496  1.00  0.00     0.083 HD  
ENDROOT
BRANCH   1   7
ATOM     7   C7  UNL     1      -3.505   0.729  -2.405  1.00  0.00     0.142 C   
BRANCH   7   8
ATOM     8   C6  UNL     1      -2.029   0.772  -2.822  1.00  0.00     0.094 C   
BRANCH   8   9
ATOM     9   C5  UNL     1      -1.292  -0.520  -2.563  1.00  0.00     0.102 A   
ATOM     10  N1  UNL     1      -0.894  -1.389  -3.561  1.00  0.00    -0.294 N   
ATOM     11  C3  UNL     1      -0.255  -2.442  -2.967  1.00  0.00     0.096 A   
ATOM     12  C4  UNL     1      -0.265  -2.168  -1.626  1.00  0.00     0.128 A   
ATOM     13  N2  UNL     1      -0.907  -0.978  -1.373  1.00  0.00    -0.244 NA  
BRANCH  10  14
ATOM     14  C2  UNL     1      -1.060  -1.247  -4.997  1.00  0.00     0.108 C   
ATOM     15  C1  UNL     1      -2.436  -1.681  -5.469  1.00  0.00     0.025 C   
ENDBRANCH  10  14
ENDBRANCH   8   9
ENDBRANCH   7   8
ENDBRANCH   1   7
BRANCH   3  16
ATOM     16  C10 UNL     1      -2.159  -0.509   2.009  1.00  0.00     0.117 C   
BRANCH  16  17
ATOM     17  N4  UNL     1      -0.727  -0.501   1.522  1.00  0.00     0.249 N   
ATOM     18  H14 UNL     1      -0.756  -0.791   0.522  1.00  0.00     0.199 HD  
ATOM     19  H15 UNL     1      -0.173  -1.214   2.002  1.00  0.00     0.199 HD  
BRANCH  17  20
ATOM     20  C11 UNL     1       0.012   0.794   1.508  1.00  0.00     0.164 C   
BRANCH  20  21
ATOM     21  C12 UNL     1       1.456   0.568   1.143  1.00  0.00    -0.002 A   
ATOM     22  C13 UNL     1       2.405   0.243   2.142  1.00  0.00     0.012 A   
ATOM     23  C17 UNL     1       1.859   0.623  -0.202  1.00  0.00     0.045 A   
ATOM     24  C14 UNL     1       3.738  -0.017   1.809  1.00  0.00     0.037 A   
ATOM     25  C16 UNL     1       3.180   0.359  -0.498  1.00  0.00     0.109 A   
ATOM     26  C15 UNL     1       4.093   0.048   0.479  1.00  0.00     0.108 A   
ATOM     27  O1  UNL     1       3.728   0.362  -1.741  1.00  0.00    -0.316 OA  
ATOM     28  O2  UNL     1       5.334  -0.179  -0.025  1.00  0.00    -0.316 OA  
ATOM     29  C18 UNL     1       5.105   0.051  -1.432  1.00  0.00     0.337 C   
ENDBRANCH  20  21
ENDBRANCH  17  20
ENDBRANCH  16  17
BRANCH  16  30
ATOM     30  C19 UNL     1      -2.297   0.011   3.458  1.00  0.00     0.037 C   
ATOM     31  C20 UNL     1      -1.370  -0.728   4.432  1.00  0.00     0.014 C   
ATOM     32  C21 UNL     1      -3.743  -0.134   3.955  1.00  0.00     0.014 C   
ENDBRANCH  16  30
ENDBRANCH   3  16
TORSDOF 9
