REMARK SMILES CC(C)C[C@H]([NH2+]Cc1ccc2c(c1)OCO2)c1cn(Cc2cc(C(F)(F)F)on2)nn1
REMARK SMILES IDX 17 1 18 2 19 3 30 4 31 5 5 7 4 8 2 9 1 10 3 11 6 12 7 15
REMARK SMILES IDX 8 16 9 17 13 18 10 19 12 20 11 21 14 22 16 23 15 24 20 25
REMARK SMILES IDX 21 26 22 27 29 28 23 29 28 30 24 31 25 32 26 33 27 34
REMARK H PARENT 18 6 6 13 6 14
ROOT
ATOM     1   C14 UNL     1      -0.542  -0.308   1.166  1.00  0.00     0.127 A   
ATOM     2   C15 UNL     1       0.560   0.021   1.923  1.00  0.00     0.046 A   
ATOM     3   N2  UNL     1       1.541  -0.813   1.454  1.00  0.00    -0.206 N   
ATOM     4   N4  UNL     1       1.056  -1.639   0.507  1.00  0.00    -0.076 NA  
ATOM     5   N5  UNL     1      -0.215  -1.331   0.315  1.00  0.00    -0.132 NA  
ATOM     6   H20 UNL     1       0.757   0.782   2.665  1.00  0.00     0.083 HD  
ENDROOT
BRANCH   1   7
ATOM     7   C5  UNL     1      -1.885   0.332   1.045  1.00  0.00     0.114 C   
BRANCH   7   8
ATOM     8   C4  UNL     1      -3.039  -0.617   1.409  1.00  0.00     0.064 C   
BRANCH   8   9
ATOM     9   C2  UNL     1      -3.019  -1.140   2.862  1.00  0.00    -0.012 C   
ATOM     10  C1  UNL     1      -3.116  -0.011   3.890  1.00  0.00     0.007 C   
ATOM     11  C3  UNL     1      -4.170  -2.128   3.070  1.00  0.00     0.007 C   
ENDBRANCH   8   9
ENDBRANCH   7   8
BRANCH   7  12
ATOM     12  N1  UNL     1      -2.079   0.745  -0.398  1.00  0.00     0.249 N   
ATOM     13  H11 UNL     1      -3.071   0.834  -0.637  1.00  0.00     0.199 HD  
ATOM     14  H12 UNL     1      -1.725  -0.044  -0.963  1.00  0.00     0.199 HD  
BRANCH  12  15
ATOM     15  C6  UNL     1      -1.344   1.975  -0.817  1.00  0.00     0.164 C   
BRANCH  15  16
ATOM     16  C7  UNL     1      -0.627   1.773  -2.122  1.00  0.00    -0.002 A   
ATOM     17  C8  UNL     1      -1.290   1.982  -3.353  1.00  0.00     0.012 A   
ATOM     18  C12 UNL     1       0.705   1.320  -2.120  1.00  0.00     0.045 A   
ATOM     19  C9  UNL     1      -0.632   1.755  -4.568  1.00  0.00     0.037 A   
ATOM     20  C11 UNL     1       1.323   1.106  -3.334  1.00  0.00     0.109 A   
ATOM     21  C10 UNL     1       0.674   1.319  -4.524  1.00  0.00     0.108 A   
ATOM     22  O1  UNL     1       2.600   0.674  -3.505  1.00  0.00    -0.316 OA  
ATOM     23  O2  UNL     1       1.462   1.050  -5.598  1.00  0.00    -0.316 OA  
ATOM     24  C13 UNL     1       2.695   0.673  -4.949  1.00  0.00     0.337 C   
ENDBRANCH  15  16
ENDBRANCH  12  15
ENDBRANCH   7  12
ENDBRANCH   1   7
BRANCH   3  25
ATOM     25  C16 UNL     1       2.962  -0.787   1.750  1.00  0.00     0.192 C   
BRANCH  25  26
ATOM     26  C17 UNL     1       3.637   0.140   0.802  1.00  0.00     0.090 A   
ATOM     27  C18 UNL     1       4.389  -0.173  -0.354  1.00  0.00     0.069 A   
ATOM     28  N3  UNL     1       3.544   1.468   0.971  1.00  0.00    -0.132 NA  
ATOM     29  C19 UNL     1       4.741   1.051  -0.879  1.00  0.00     0.190 A   
ATOM     30  O3  UNL     1       4.241   2.034  -0.082  1.00  0.00    -0.208 OA  
BRANCH  29  31
ATOM     31  C20 UNL     1       5.502   1.485  -2.066  1.00  0.00     0.440 C   
ATOM     32  F1  UNL     1       6.772   1.839  -1.748  1.00  0.00    -0.164 F   
ATOM     33  F2  UNL     1       5.593   0.496  -2.993  1.00  0.00    -0.164 F   
ATOM     34  F3  UNL     1       4.933   2.549  -2.688  1.00  0.00    -0.164 F   
ENDBRANCH  29  31
ENDBRANCH  25  26
ENDBRANCH   3  25
TORSDOF 9
