REMARK SMILES O=C(CCn1cc([C@@H]([NH2+]Cc2ccc3c(c2)OCO3)C2CCCC2)nn1)c1ccc(F)cc1
REMARK SMILES IDX 5 1 6 2 7 3 25 4 26 5 4 7 3 8 2 9 1 10 27 11 28 12 33 13
REMARK SMILES IDX 29 14 32 15 30 16 31 17 8 18 9 19 10 22 11 23 12 24 16 25
REMARK SMILES IDX 13 26 15 27 14 28 17 29 19 30 18 31 20 32 21 33 24 34 22 35
REMARK SMILES IDX 23 36
REMARK H PARENT 6 6 9 20 9 21
ROOT
ATOM     1   N1  UNL     1      -1.781   1.796  -0.889  1.00  0.00    -0.212 N   
ATOM     2   C4  UNL     1      -0.478   1.522  -1.190  1.00  0.00     0.045 A   
ATOM     3   C5  UNL     1      -0.489   0.184  -1.512  1.00  0.00     0.127 A   
ATOM     4   N3  UNL     1      -1.776  -0.287  -1.444  1.00  0.00    -0.132 NA  
ATOM     5   N4  UNL     1      -2.558   0.712  -1.068  1.00  0.00    -0.076 NA  
ATOM     6   H5  UNL     1       0.309   2.256  -1.086  1.00  0.00     0.083 HD  
ENDROOT
BRANCH   1   7
ATOM     7   C3  UNL     1      -2.337   3.032  -0.378  1.00  0.00     0.142 C   
BRANCH   7   8
ATOM     8   C2  UNL     1      -2.988   2.889   0.996  1.00  0.00     0.102 C   
BRANCH   8   9
ATOM     9   C1  UNL     1      -1.983   2.543   2.082  1.00  0.00     0.164 C   
ATOM     10  O1  UNL     1      -0.817   2.248   1.823  1.00  0.00    -0.294 OA  
BRANCH   9  11
ATOM     11  C20 UNL     1      -2.434   2.552   3.507  1.00  0.00     0.018 A   
ATOM     12  C21 UNL     1      -3.785   2.671   3.864  1.00  0.00     0.015 A   
ATOM     13  C25 UNL     1      -1.462   2.432   4.514  1.00  0.00     0.015 A   
ATOM     14  C22 UNL     1      -4.154   2.673   5.213  1.00  0.00     0.040 A   
ATOM     15  C24 UNL     1      -1.836   2.436   5.860  1.00  0.00     0.040 A   
ATOM     16  C23 UNL     1      -3.179   2.555   6.196  1.00  0.00     0.123 A   
ATOM     17  F1  UNL     1      -3.539   2.557   7.485  1.00  0.00    -0.207 F   
ENDBRANCH   9  11
ENDBRANCH   8   9
ENDBRANCH   7   8
ENDBRANCH   1   7
BRANCH   3  18
ATOM     18  C6  UNL     1       0.631  -0.759  -1.793  1.00  0.00     0.117 C   
BRANCH  18  19
ATOM     19  N2  UNL     1       0.441  -2.025  -0.982  1.00  0.00     0.249 N   
ATOM     20  H7  UNL     1       1.112  -2.739  -1.271  1.00  0.00     0.199 HD  
ATOM     21  H8  UNL     1      -0.501  -2.373  -1.210  1.00  0.00     0.199 HD  
BRANCH  19  22
ATOM     22  C7  UNL     1       0.511  -1.870   0.504  1.00  0.00     0.164 C   
BRANCH  22  23
ATOM     23  C8  UNL     1       1.870  -1.444   0.986  1.00  0.00    -0.002 A   
ATOM     24  C9  UNL     1       2.066  -0.138   1.496  1.00  0.00     0.012 A   
ATOM     25  C13 UNL     1       2.961  -2.326   0.906  1.00  0.00     0.045 A   
ATOM     26  C10 UNL     1       3.331   0.290   1.913  1.00  0.00     0.037 A   
ATOM     27  C12 UNL     1       4.195  -1.872   1.326  1.00  0.00     0.109 A   
ATOM     28  C11 UNL     1       4.375  -0.601   1.813  1.00  0.00     0.108 A   
ATOM     29  O2  UNL     1       5.347  -2.591   1.309  1.00  0.00    -0.316 OA  
ATOM     30  O3  UNL     1       5.665  -0.360   2.166  1.00  0.00    -0.316 OA  
ATOM     31  C14 UNL     1       6.274  -1.637   1.875  1.00  0.00     0.337 C   
ENDBRANCH  22  23
ENDBRANCH  19  22
ENDBRANCH  18  19
BRANCH  18  32
ATOM     32  C15 UNL     1       0.705  -1.142  -3.284  1.00  0.00     0.043 C   
ATOM     33  C16 UNL     1       1.857  -2.092  -3.633  1.00  0.00     0.010 C   
ATOM     34  C19 UNL     1       0.990   0.051  -4.202  1.00  0.00     0.010 C   
ATOM     35  C17 UNL     1       2.127  -1.880  -5.123  1.00  0.00     0.001 C   
ATOM     36  C18 UNL     1       1.396  -0.600  -5.515  1.00  0.00     0.001 C   
ENDBRANCH  18  32
ENDBRANCH   3  18
TORSDOF 9
