REMARK SMILES COc1ccnc(Cn2cc([C@@H]([NH2+]Cc3ccc4c(c3)OCO4)C(C)(C)C)nn2)c1C
REMARK SMILES IDX 9 1 10 2 11 3 28 4 29 5 8 7 7 8 3 9 4 10 30 11 5 12 6 13
REMARK SMILES IDX 31 14 2 15 1 16 12 17 13 18 14 21 15 22 16 23 20 24 17 25
REMARK SMILES IDX 19 26 18 27 21 28 23 29 22 30 24 31 25 32 26 33 27 34
REMARK H PARENT 10 6 13 19 13 20
ROOT
ATOM     1   N2  UNL     1       0.428   1.577  -1.420  1.00  0.00    -0.206 N   
ATOM     2   C7  UNL     1      -0.762   1.134  -0.909  1.00  0.00     0.046 A   
ATOM     3   C8  UNL     1      -0.431  -0.025  -0.245  1.00  0.00     0.127 A   
ATOM     4   N4  UNL     1       0.904  -0.281  -0.429  1.00  0.00    -0.132 NA  
ATOM     5   N5  UNL     1       1.413   0.692  -1.167  1.00  0.00    -0.076 NA  
ATOM     6   H8  UNL     1      -1.682   1.690  -1.035  1.00  0.00     0.083 HD  
ENDROOT
BRANCH   1   7
ATOM     7   C6  UNL     1       0.685   2.780  -2.188  1.00  0.00     0.190 C   
BRANCH   7   8
ATOM     8   C5  UNL     1       0.472   4.006  -1.339  1.00  0.00     0.065 A   
ATOM     9   C2  UNL     1       1.103   5.618   0.333  1.00  0.00     0.081 A   
ATOM     10  C3  UNL     1      -0.147   6.211   0.187  1.00  0.00     0.054 A   
ATOM     11  C22 UNL     1       1.443   4.500  -0.452  1.00  0.00     0.003 A   
ATOM     12  C4  UNL     1      -1.031   5.661  -0.720  1.00  0.00     0.114 A   
ATOM     13  N1  UNL     1      -0.758   4.572  -1.466  1.00  0.00    -0.259 NA  
ATOM     14  C23 UNL     1       2.783   3.831  -0.294  1.00  0.00     0.049 C   
BRANCH   9  15
ATOM     15  O1  UNL     1       2.059   6.046   1.218  1.00  0.00    -0.349 OA  
ATOM     16  C1  UNL     1       1.785   7.220   1.976  1.00  0.00     0.203 C   
ENDBRANCH   9  15
ENDBRANCH   7   8
ENDBRANCH   1   7
BRANCH   3  17
ATOM     17  C9  UNL     1      -1.269  -0.998   0.529  1.00  0.00     0.120 C   
BRANCH  17  18
ATOM     18  N3  UNL     1      -0.704  -2.386   0.334  1.00  0.00     0.250 N   
ATOM     19  H10 UNL     1       0.318  -2.306   0.447  1.00  0.00     0.199 HD  
ATOM     20  H11 UNL     1      -1.020  -3.043   1.051  1.00  0.00     0.199 HD  
BRANCH  18  21
ATOM     21  C10 UNL     1      -0.947  -2.992  -1.006  1.00  0.00     0.164 C   
BRANCH  21  22
ATOM     22  C11 UNL     1      -0.326  -4.357  -1.078  1.00  0.00    -0.002 A   
ATOM     23  C12 UNL     1       1.034  -4.502  -1.446  1.00  0.00     0.012 A   
ATOM     24  C16 UNL     1      -1.072  -5.494  -0.723  1.00  0.00     0.045 A   
ATOM     25  C13 UNL     1       1.640  -5.763  -1.472  1.00  0.00     0.037 A   
ATOM     26  C15 UNL     1      -0.443  -6.721  -0.757  1.00  0.00     0.109 A   
ATOM     27  C14 UNL     1       0.875  -6.853  -1.119  1.00  0.00     0.108 A   
ATOM     28  O2  UNL     1      -1.017  -7.912  -0.445  1.00  0.00    -0.316 OA  
ATOM     29  O3  UNL     1       1.296  -8.144  -1.083  1.00  0.00    -0.316 OA  
ATOM     30  C17 UNL     1       0.087  -8.818  -0.671  1.00  0.00     0.337 C   
ENDBRANCH  21  22
ENDBRANCH  18  21
ENDBRANCH  17  18
BRANCH  17  31
ATOM     31  C18 UNL     1      -1.384  -0.669   2.060  1.00  0.00     0.010 C   
ATOM     32  C19 UNL     1      -1.946   0.756   2.264  1.00  0.00     0.017 C   
ATOM     33  C20 UNL     1      -2.375  -1.640   2.745  1.00  0.00     0.017 C   
ATOM     34  C21 UNL     1      -0.029  -0.764   2.791  1.00  0.00     0.017 C   
ENDBRANCH  17  31
ENDBRANCH   3  17
TORSDOF 8
