REMARK SMILES CC(C)[C@H]([NH2+]Cc1ccc2c(c1)OCO2)c1cn(Cc2cc(F)ccc2N(C)C)nn1
REMARK SMILES IDX 16 1 17 2 18 3 30 4 31 5 4 7 2 8 1 9 3 10 5 11 6 14 7 15
REMARK SMILES IDX 8 16 12 17 9 18 11 19 10 20 13 21 15 22 14 23 19 24 20 25
REMARK SMILES IDX 21 26 26 27 22 28 25 29 24 30 23 31 27 32 28 33 29 34
REMARK H PARENT 17 6 5 12 5 13
ROOT
ATOM     1   C13 UNL     1      -0.263  -1.031  -2.120  1.00  0.00     0.127 A   
ATOM     2   C14 UNL     1       0.974  -1.332  -1.599  1.00  0.00     0.046 A   
ATOM     3   N2  UNL     1       1.840  -0.588  -2.351  1.00  0.00    -0.208 N   
ATOM     4   N4  UNL     1       1.177   0.098  -3.305  1.00  0.00    -0.076 NA  
ATOM     5   N5  UNL     1      -0.112  -0.163  -3.171  1.00  0.00    -0.132 NA  
ATOM     6   H18 UNL     1       1.312  -1.942  -0.772  1.00  0.00     0.083 HD  
ENDROOT
BRANCH   1   7
ATOM     7   C4  UNL     1      -1.632  -1.418  -1.671  1.00  0.00     0.117 C   
BRANCH   7   8
ATOM     8   C2  UNL     1      -2.165  -2.677  -2.407  1.00  0.00     0.037 C   
ATOM     9   C1  UNL     1      -2.472  -2.459  -3.893  1.00  0.00     0.014 C   
ATOM     10  C3  UNL     1      -3.401  -3.257  -1.708  1.00  0.00     0.014 C   
ENDBRANCH   7   8
BRANCH   7  11
ATOM     11  N1  UNL     1      -2.593  -0.263  -1.841  1.00  0.00     0.249 N   
ATOM     12  H9  UNL     1      -2.512   0.036  -2.823  1.00  0.00     0.199 HD  
ATOM     13  H10 UNL     1      -3.556  -0.568  -1.689  1.00  0.00     0.199 HD  
BRANCH  11  14
ATOM     14  C5  UNL     1      -2.325   0.949  -1.006  1.00  0.00     0.164 C   
BRANCH  14  15
ATOM     15  C6  UNL     1      -2.418   0.684   0.471  1.00  0.00    -0.002 A   
ATOM     16  C7  UNL     1      -3.675   0.476   1.087  1.00  0.00     0.012 A   
ATOM     17  C11 UNL     1      -1.245   0.607   1.245  1.00  0.00     0.045 A   
ATOM     18  C8  UNL     1      -3.765   0.189   2.454  1.00  0.00     0.037 A   
ATOM     19  C10 UNL     1      -1.369   0.318   2.588  1.00  0.00     0.109 A   
ATOM     20  C9  UNL     1      -2.594   0.115   3.175  1.00  0.00     0.108 A   
ATOM     21  O1  UNL     1      -0.343   0.193   3.470  1.00  0.00    -0.316 OA  
ATOM     22  O2  UNL     1      -2.494  -0.156   4.503  1.00  0.00    -0.316 OA  
ATOM     23  C12 UNL     1      -1.066  -0.067   4.696  1.00  0.00     0.337 C   
ENDBRANCH  14  15
ENDBRANCH  11  14
ENDBRANCH   7  11
ENDBRANCH   1   7
BRANCH   3  24
ATOM     24  C15 UNL     1       3.279  -0.460  -2.205  1.00  0.00     0.171 C   
BRANCH  24  25
ATOM     25  C16 UNL     1       3.620   0.651  -1.240  1.00  0.00    -0.004 A   
ATOM     26  C17 UNL     1       3.749   1.962  -1.738  1.00  0.00     0.046 A   
ATOM     27  C21 UNL     1       3.753   0.415   0.148  1.00  0.00     0.033 A   
ATOM     28  C18 UNL     1       4.020   3.015  -0.876  1.00  0.00     0.123 A   
ATOM     29  C20 UNL     1       4.038   1.505   0.993  1.00  0.00     0.027 A   
ATOM     30  C19 UNL     1       4.169   2.799   0.484  1.00  0.00     0.041 A   
ATOM     31  F1  UNL     1       4.134   4.256  -1.365  1.00  0.00    -0.207 F   
BRANCH  27  32
ATOM     32  N3  UNL     1       3.628  -0.906   0.642  1.00  0.00    -0.337 N   
ATOM     33  C22 UNL     1       4.960  -1.528   0.765  1.00  0.00     0.129 C   
ATOM     34  C23 UNL     1       2.837  -1.018   1.877  1.00  0.00     0.129 C   
ENDBRANCH  27  32
ENDBRANCH  24  25
ENDBRANCH   3  24
TORSDOF 8
