REMARK SMILES CC(C)[C@H]([NH2+]Cc1ccc2c(c1)OCO2)c1cn(CCC(=O)c2ccc(F)cc2)nn1
REMARK SMILES IDX 16 1 17 2 18 3 30 4 31 5 4 7 2 8 1 9 3 10 5 11 6 14 7 15
REMARK SMILES IDX 8 16 12 17 9 18 11 19 10 20 13 21 15 22 14 23 19 24 20 25
REMARK SMILES IDX 21 26 22 27 23 28 24 29 29 30 25 31 28 32 26 33 27 34
REMARK H PARENT 17 6 5 12 5 13
ROOT
ATOM     1   C13 UNL     1      -0.865  -2.120  -1.259  1.00  0.00     0.127 A   
ATOM     2   C14 UNL     1       0.083  -2.547  -2.162  1.00  0.00     0.045 A   
ATOM     3   N2  UNL     1       0.032  -1.608  -3.154  1.00  0.00    -0.212 N   
ATOM     4   N3  UNL     1      -0.964  -0.728  -2.937  1.00  0.00    -0.076 NA  
ATOM     5   N4  UNL     1      -1.506  -1.017  -1.765  1.00  0.00    -0.132 NA  
ATOM     6   H18 UNL     1       0.843  -3.317  -2.133  1.00  0.00     0.083 HD  
ENDROOT
BRANCH   1   7
ATOM     7   C4  UNL     1      -1.111  -2.532   0.157  1.00  0.00     0.117 C   
BRANCH   7   8
ATOM     8   C2  UNL     1      -2.413  -3.351   0.337  1.00  0.00     0.037 C   
ATOM     9   C1  UNL     1      -3.703  -2.552   0.125  1.00  0.00     0.014 C   
ATOM     10  C3  UNL     1      -2.457  -4.033   1.711  1.00  0.00     0.014 C   
ENDBRANCH   7   8
BRANCH   7  11
ATOM     11  N1  UNL     1      -1.126  -1.303   1.027  1.00  0.00     0.249 N   
ATOM     12  H9  UNL     1      -1.738  -0.622   0.552  1.00  0.00     0.199 HD  
ATOM     13  H10 UNL     1      -1.546  -1.478   1.945  1.00  0.00     0.199 HD  
BRANCH  11  14
ATOM     14  C5  UNL     1       0.206  -0.652   1.209  1.00  0.00     0.164 C   
BRANCH  14  15
ATOM     15  C6  UNL     1       0.055   0.732   1.773  1.00  0.00    -0.002 A   
ATOM     16  C7  UNL     1       0.285   0.986   3.145  1.00  0.00     0.012 A   
ATOM     17  C11 UNL     1      -0.340   1.786   0.928  1.00  0.00     0.045 A   
ATOM     18  C8  UNL     1       0.139   2.276   3.668  1.00  0.00     0.037 A   
ATOM     19  C10 UNL     1      -0.470   3.045   1.475  1.00  0.00     0.109 A   
ATOM     20  C9  UNL     1      -0.235   3.284   2.806  1.00  0.00     0.108 A   
ATOM     21  O1  UNL     1      -0.827   4.168   0.798  1.00  0.00    -0.316 OA  
ATOM     22  O2  UNL     1      -0.410   4.590   3.134  1.00  0.00    -0.316 OA  
ATOM     23  C12 UNL     1      -0.729   5.158   1.845  1.00  0.00     0.337 C   
ENDBRANCH  14  15
ENDBRANCH  11  14
ENDBRANCH   7  11
ENDBRANCH   1   7
BRANCH   3  24
ATOM     24  C15 UNL     1       1.037  -1.344  -4.165  1.00  0.00     0.142 C   
BRANCH  24  25
ATOM     25  C16 UNL     1       1.608   0.073  -4.078  1.00  0.00     0.102 C   
BRANCH  25  26
ATOM     26  C17 UNL     1       2.090   0.396  -2.671  1.00  0.00     0.164 C   
ATOM     27  O3  UNL     1       2.483  -0.485  -1.905  1.00  0.00    -0.294 OA  
BRANCH  26  28
ATOM     28  C18 UNL     1       2.109   1.809  -2.193  1.00  0.00     0.018 A   
ATOM     29  C19 UNL     1       1.220   2.782  -2.671  1.00  0.00     0.015 A   
ATOM     30  C23 UNL     1       3.020   2.146  -1.178  1.00  0.00     0.015 A   
ATOM     31  C20 UNL     1       1.252   4.077  -2.141  1.00  0.00     0.040 A   
ATOM     32  C22 UNL     1       3.050   3.441  -0.655  1.00  0.00     0.040 A   
ATOM     33  C21 UNL     1       2.164   4.394  -1.141  1.00  0.00     0.123 A   
ATOM     34  F1  UNL     1       2.176   5.631  -0.631  1.00  0.00    -0.207 F   
ENDBRANCH  26  28
ENDBRANCH  25  26
ENDBRANCH  24  25
ENDBRANCH   3  24
TORSDOF 9
