REMARK SMILES Cc1ccc([C@H](CO)n2cc([C@@H]([NH2+]Cc3ccc4c(c3)OCO4)C(C)C)nn2)c(O)c1
REMARK SMILES IDX 9 1 10 2 11 3 27 4 28 5 6 7 5 8 2 9 3 10 31 11 4 12 29 13
REMARK SMILES IDX 1 14 30 15 7 17 8 18 12 20 13 21 14 24 15 25 16 26 20 27
REMARK SMILES IDX 17 28 19 29 18 30 21 31 23 32 22 33 24 34 25 35 26 36
REMARK H PARENT 10 6 30 16 8 19 13 22 13 23
ROOT
ATOM     1   N1  UNL     1      -1.860   0.063   1.717  1.00  0.00    -0.202 N   
ATOM     2   C8  UNL     1      -1.220   1.228   2.055  1.00  0.00     0.046 A   
ATOM     3   C9  UNL     1      -0.955   1.828   0.846  1.00  0.00     0.127 A   
ATOM     4   N3  UNL     1      -1.401   1.018  -0.168  1.00  0.00    -0.132 NA  
ATOM     5   N4  UNL     1      -1.940  -0.061   0.373  1.00  0.00    -0.075 NA  
ATOM     6   H10 UNL     1      -1.035   1.500   3.085  1.00  0.00     0.083 HD  
ENDROOT
BRANCH   1   7
ATOM     7   C6  UNL     1      -2.392  -0.958   2.619  1.00  0.00     0.158 C   
BRANCH   7   8
ATOM     8   C5  UNL     1      -1.478  -2.174   2.613  1.00  0.00     0.007 A   
ATOM     9   C2  UNL     1       0.247  -4.418   2.621  1.00  0.00    -0.049 A   
ATOM     10  C3  UNL     1      -0.753  -4.294   1.652  1.00  0.00     0.004 A   
ATOM     11  C23 UNL     1       0.381  -3.418   3.590  1.00  0.00     0.037 A   
ATOM     12  C4  UNL     1      -1.600  -3.182   1.642  1.00  0.00     0.009 A   
ATOM     13  C22 UNL     1      -0.467  -2.309   3.574  1.00  0.00     0.077 A   
ATOM     14  C1  UNL     1       1.136  -5.627   2.654  1.00  0.00     0.044 C   
BRANCH  13  15
ATOM     15  O4  UNL     1      -0.311  -1.325   4.511  1.00  0.00    -0.361 OA  
ATOM     16  H28 UNL     1       0.275  -1.661   5.213  1.00  0.00     0.218 HD  
ENDBRANCH  13  15
ENDBRANCH   7   8
BRANCH   7  17
ATOM     17  C7  UNL     1      -3.871  -1.269   2.323  1.00  0.00     0.186 C   
BRANCH  17  18
ATOM     18  O1  UNL     1      -4.696  -0.166   2.711  1.00  0.00    -0.394 OA  
ATOM     19  H9  UNL     1      -5.619  -0.426   2.538  1.00  0.00     0.210 HD  
ENDBRANCH  17  18
ENDBRANCH   7  17
ENDBRANCH   1   7
BRANCH   3  20
ATOM     20  C10 UNL     1      -0.254   3.102   0.506  1.00  0.00     0.117 C   
BRANCH  20  21
ATOM     21  N2  UNL     1       0.411   2.967  -0.843  1.00  0.00     0.249 N   
ATOM     22  H12 UNL     1       0.601   3.880  -1.268  1.00  0.00     0.199 HD  
ATOM     23  H13 UNL     1      -0.270   2.494  -1.455  1.00  0.00     0.199 HD  
BRANCH  21  24
ATOM     24  C11 UNL     1       1.652   2.144  -0.859  1.00  0.00     0.164 C   
BRANCH  24  25
ATOM     25  C12 UNL     1       2.149   1.976  -2.267  1.00  0.00    -0.002 A   
ATOM     26  C13 UNL     1       3.098   2.875  -2.808  1.00  0.00     0.012 A   
ATOM     27  C17 UNL     1       1.624   0.952  -3.075  1.00  0.00     0.045 A   
ATOM     28  C14 UNL     1       3.528   2.753  -4.133  1.00  0.00     0.037 A   
ATOM     29  C16 UNL     1       2.070   0.859  -4.377  1.00  0.00     0.109 A   
ATOM     30  C15 UNL     1       2.993   1.735  -4.892  1.00  0.00     0.108 A   
ATOM     31  O2  UNL     1       1.668  -0.067  -5.287  1.00  0.00    -0.316 OA  
ATOM     32  O3  UNL     1       3.288   1.472  -6.191  1.00  0.00    -0.316 OA  
ATOM     33  C18 UNL     1       2.464   0.311  -6.433  1.00  0.00     0.337 C   
ENDBRANCH  24  25
ENDBRANCH  21  24
ENDBRANCH  20  21
BRANCH  20  34
ATOM     34  C19 UNL     1      -1.176   4.348   0.473  1.00  0.00     0.037 C   
ATOM     35  C20 UNL     1      -1.721   4.687   1.865  1.00  0.00     0.014 C   
ATOM     36  C21 UNL     1      -2.334   4.244  -0.527  1.00  0.00     0.014 C   
ENDBRANCH  20  34
ENDBRANCH   3  20
TORSDOF 10
