REMARK SMILES Cc1ccc([C@@H](CO)n2cc([C@@H]([NH2+]Cc3ccc4c(c3)OCO4)C(C)C)nn2)c(O)c1
REMARK SMILES IDX 9 1 10 2 11 3 27 4 28 5 6 7 5 8 2 9 3 10 31 11 4 12 29 13
REMARK SMILES IDX 1 14 30 15 7 17 8 18 12 20 13 21 14 24 15 25 16 26 20 27
REMARK SMILES IDX 17 28 19 29 18 30 21 31 23 32 22 33 24 34 25 35 26 36
REMARK H PARENT 10 6 30 16 8 19 13 22 13 23
ROOT
ATOM     1   N1  UNL     1       0.842   1.679  -0.976  1.00  0.00    -0.202 N   
ATOM     2   C8  UNL     1       0.506   0.537  -1.660  1.00  0.00     0.046 A   
ATOM     3   C9  UNL     1      -0.036  -0.284  -0.697  1.00  0.00     0.127 A   
ATOM     4   N3  UNL     1      -0.012   0.361   0.512  1.00  0.00    -0.132 NA  
ATOM     5   N4  UNL     1       0.540   1.548   0.334  1.00  0.00    -0.075 NA  
ATOM     6   H10 UNL     1       0.689   0.426  -2.720  1.00  0.00     0.083 HD  
ENDROOT
BRANCH   1   7
ATOM     7   C6  UNL     1       1.477   2.887  -1.514  1.00  0.00     0.158 C   
BRANCH   7   8
ATOM     8   C5  UNL     1       0.530   4.073  -1.415  1.00  0.00     0.007 A   
ATOM     9   C2  UNL     1      -1.314   6.222  -1.319  1.00  0.00    -0.049 A   
ATOM     10  C3  UNL     1      -1.289   5.361  -2.417  1.00  0.00     0.004 A   
ATOM     11  C23 UNL     1      -0.429   5.994  -0.259  1.00  0.00     0.037 A   
ATOM     12  C4  UNL     1      -0.377   4.303  -2.466  1.00  0.00     0.009 A   
ATOM     13  C22 UNL     1       0.480   4.934  -0.313  1.00  0.00     0.077 A   
ATOM     14  C1  UNL     1      -2.311   7.341  -1.246  1.00  0.00     0.044 C   
BRANCH  13  15
ATOM     15  O4  UNL     1       1.334   4.733   0.733  1.00  0.00    -0.361 OA  
ATOM     16  H28 UNL     1       1.101   5.348   1.451  1.00  0.00     0.218 HD  
ENDBRANCH  13  15
ENDBRANCH   7   8
BRANCH   7  17
ATOM     17  C7  UNL     1       2.891   3.071  -0.938  1.00  0.00     0.186 C   
BRANCH  17  18
ATOM     18  O1  UNL     1       3.789   2.123  -1.537  1.00  0.00    -0.394 OA  
ATOM     19  H9  UNL     1       4.669   2.304  -1.160  1.00  0.00     0.210 HD  
ENDBRANCH  17  18
ENDBRANCH   7  17
ENDBRANCH   1   7
BRANCH   3  20
ATOM     20  C10 UNL     1      -0.565  -1.680  -0.772  1.00  0.00     0.117 C   
BRANCH  20  21
ATOM     21  N2  UNL     1      -0.471  -2.346   0.575  1.00  0.00     0.249 N   
ATOM     22  H12 UNL     1      -0.814  -1.659   1.264  1.00  0.00     0.199 HD  
ATOM     23  H13 UNL     1      -1.084  -3.162   0.650  1.00  0.00     0.199 HD  
BRANCH  21  24
ATOM     24  C11 UNL     1       0.905  -2.727   1.000  1.00  0.00     0.164 C   
BRANCH  24  25
ATOM     25  C12 UNL     1       0.877  -3.359   2.363  1.00  0.00    -0.002 A   
ATOM     26  C13 UNL     1       0.901  -4.766   2.505  1.00  0.00     0.012 A   
ATOM     27  C17 UNL     1       0.779  -2.549   3.507  1.00  0.00     0.045 A   
ATOM     28  C14 UNL     1       0.839  -5.361   3.771  1.00  0.00     0.037 A   
ATOM     29  C16 UNL     1       0.718  -3.168   4.738  1.00  0.00     0.109 A   
ATOM     30  C15 UNL     1       0.746  -4.534   4.867  1.00  0.00     0.108 A   
ATOM     31  O2  UNL     1       0.621  -2.535   5.936  1.00  0.00    -0.316 OA  
ATOM     32  O3  UNL     1       0.671  -4.934   6.162  1.00  0.00    -0.316 OA  
ATOM     33  C18 UNL     1       0.619  -3.661   6.841  1.00  0.00     0.337 C   
ENDBRANCH  24  25
ENDBRANCH  21  24
ENDBRANCH  20  21
BRANCH  20  34
ATOM     34  C19 UNL     1      -2.025  -1.724  -1.295  1.00  0.00     0.037 C   
ATOM     35  C20 UNL     1      -2.455  -3.150  -1.662  1.00  0.00     0.014 C   
ATOM     36  C21 UNL     1      -3.049  -1.105  -0.336  1.00  0.00     0.014 C   
ENDBRANCH  20  34
ENDBRANCH   3  20
TORSDOF 10
