REMARK SMILES Cc1ncsc1Cn1cc([C@H](CC(C)C)[NH2+]Cc2ccc3c(c2)OCO3)nn1
REMARK SMILES IDX 8 1 9 2 10 3 27 4 28 5 7 7 6 8 2 9 3 10 4 11 5 12 1 13 11 14
REMARK SMILES IDX 12 15 13 16 14 17 15 18 16 19 17 22 18 23 19 24 23 25 20 26
REMARK SMILES IDX 22 27 21 28 24 29 26 30 25 31
REMARK H PARENT 9 6 16 20 16 21
ROOT
ATOM     1   N2  UNL     1       0.725  -2.309   2.531  1.00  0.00    -0.207 N   
ATOM     2   C6  UNL     1       1.136  -1.168   1.898  1.00  0.00     0.046 A   
ATOM     3   C7  UNL     1       0.142  -0.257   2.178  1.00  0.00     0.127 A   
ATOM     4   N4  UNL     1      -0.793  -0.844   2.989  1.00  0.00    -0.132 NA  
ATOM     5   N5  UNL     1      -0.430  -2.101   3.192  1.00  0.00    -0.076 NA  
ATOM     6   H7  UNL     1       2.029  -1.130   1.290  1.00  0.00     0.083 HD  
ENDROOT
BRANCH   1   7
ATOM     7   C5  UNL     1       1.310  -3.640   2.449  1.00  0.00     0.178 C   
BRANCH   7   8
ATOM     8   C4  UNL     1       1.089  -4.199   1.081  1.00  0.00     0.031 A   
ATOM     9   C2  UNL     1      -0.081  -4.655   0.490  1.00  0.00     0.049 A   
ATOM     10  N1  UNL     1       0.051  -5.036  -0.834  1.00  0.00    -0.254 NA  
ATOM     11  C3  UNL     1       1.308  -4.947  -1.208  1.00  0.00     0.157 A   
ATOM     12  S1  UNL     1       2.391  -4.331  -0.034  1.00  0.00    -0.079 S   
ATOM     13  C1  UNL     1      -1.432  -4.741   1.109  1.00  0.00     0.068 C   
ENDBRANCH   7   8
ENDBRANCH   1   7
BRANCH   3  14
ATOM     14  C8  UNL     1      -0.077   1.128   1.671  1.00  0.00     0.114 C   
BRANCH  14  15
ATOM     15  C9  UNL     1       0.258   2.205   2.721  1.00  0.00     0.064 C   
BRANCH  15  16
ATOM     16  C10 UNL     1       1.735   2.247   3.170  1.00  0.00    -0.012 C   
ATOM     17  C11 UNL     1       2.689   2.538   2.011  1.00  0.00     0.007 C   
ATOM     18  C12 UNL     1       1.911   3.308   4.261  1.00  0.00     0.007 C   
ENDBRANCH  15  16
ENDBRANCH  14  15
BRANCH  14  19
ATOM     19  N3  UNL     1      -1.529   1.335   1.281  1.00  0.00     0.249 N   
ATOM     20  H18 UNL     1      -2.087   1.186   2.133  1.00  0.00     0.199 HD  
ATOM     21  H19 UNL     1      -1.671   2.306   0.990  1.00  0.00     0.199 HD  
BRANCH  19  22
ATOM     22  C13 UNL     1      -2.085   0.421   0.233  1.00  0.00     0.164 C   
BRANCH  22  23
ATOM     23  C14 UNL     1      -1.296   0.406  -1.046  1.00  0.00    -0.002 A   
ATOM     24  C15 UNL     1      -0.625  -0.775  -1.449  1.00  0.00     0.012 A   
ATOM     25  C19 UNL     1      -1.201   1.560  -1.842  1.00  0.00     0.045 A   
ATOM     26  C16 UNL     1       0.140  -0.805  -2.619  1.00  0.00     0.037 A   
ATOM     27  C18 UNL     1      -0.436   1.496  -2.989  1.00  0.00     0.109 A   
ATOM     28  C17 UNL     1       0.217   0.349  -3.365  1.00  0.00     0.108 A   
ATOM     29  O1  UNL     1      -0.235   2.519  -3.860  1.00  0.00    -0.316 OA  
ATOM     30  O2  UNL     1       0.912   0.505  -4.522  1.00  0.00    -0.316 OA  
ATOM     31  C20 UNL     1       0.595   1.874  -4.853  1.00  0.00     0.337 C   
ENDBRANCH  22  23
ENDBRANCH  19  22
ENDBRANCH  14  19
ENDBRANCH   3  14
TORSDOF 8
