REMARK SMILES CC(C)(C)[C@H]([NH2+]Cc1ccc2c(c1)OCO2)c1cn(Cc2cc(Cl)ccc2O)nn1
REMARK SMILES IDX 17 1 18 2 19 3 29 4 30 5 5 7 2 8 1 9 3 10 4 11 6 12 7 15
REMARK SMILES IDX 8 16 9 17 13 18 10 19 12 20 11 21 14 22 16 23 15 24 20 25
REMARK SMILES IDX 21 26 22 27 27 28 23 29 26 30 25 31 24 32 28 33
REMARK H PARENT 18 6 6 13 6 14 28 34
ROOT
ATOM     1   C14 UNL     1      -1.378   0.019   0.752  1.00  0.00     0.127 A   
ATOM     2   C15 UNL     1      -1.582   0.874  -0.307  1.00  0.00     0.046 A   
ATOM     3   N2  UNL     1      -0.923   2.016   0.059  1.00  0.00    -0.208 N   
ATOM     4   N3  UNL     1      -0.345   1.871   1.269  1.00  0.00    -0.076 NA  
ATOM     5   N4  UNL     1      -0.614   0.652   1.702  1.00  0.00    -0.132 NA  
ATOM     6   H20 UNL     1      -2.091   0.784  -1.257  1.00  0.00     0.083 HD  
ENDROOT
BRANCH   1   7
ATOM     7   C5  UNL     1      -1.754  -1.416   0.965  1.00  0.00     0.120 C   
BRANCH   7   8
ATOM     8   C2  UNL     1      -3.117  -1.623   1.711  1.00  0.00     0.010 C   
ATOM     9   C1  UNL     1      -3.118  -1.036   3.136  1.00  0.00     0.017 C   
ATOM     10  C3  UNL     1      -3.450  -3.131   1.799  1.00  0.00     0.017 C   
ATOM     11  C4  UNL     1      -4.263  -0.956   0.915  1.00  0.00     0.017 C   
ENDBRANCH   7   8
BRANCH   7  12
ATOM     12  N1  UNL     1      -0.621  -2.082   1.728  1.00  0.00     0.250 N   
ATOM     13  H11 UNL     1      -0.080  -1.308   2.150  1.00  0.00     0.199 HD  
ATOM     14  H12 UNL     1      -0.967  -2.622   2.524  1.00  0.00     0.199 HD  
BRANCH  12  15
ATOM     15  C6  UNL     1       0.314  -2.922   0.932  1.00  0.00     0.164 C   
BRANCH  15  16
ATOM     16  C7  UNL     1       1.025  -2.188  -0.170  1.00  0.00    -0.002 A   
ATOM     17  C8  UNL     1       1.985  -1.191   0.128  1.00  0.00     0.012 A   
ATOM     18  C12 UNL     1       0.736  -2.484  -1.514  1.00  0.00     0.045 A   
ATOM     19  C9  UNL     1       2.647  -0.499  -0.893  1.00  0.00     0.037 A   
ATOM     20  C11 UNL     1       1.407  -1.785  -2.495  1.00  0.00     0.109 A   
ATOM     21  C10 UNL     1       2.338  -0.823  -2.195  1.00  0.00     0.108 A   
ATOM     22  O1  UNL     1       1.246  -1.954  -3.834  1.00  0.00    -0.316 OA  
ATOM     23  O2  UNL     1       2.889  -0.271  -3.307  1.00  0.00    -0.316 OA  
ATOM     24  C13 UNL     1       2.219  -1.016  -4.345  1.00  0.00     0.337 C   
ENDBRANCH  15  16
ENDBRANCH  12  15
ENDBRANCH   7  12
ENDBRANCH   1   7
BRANCH   3  25
ATOM     25  C16 UNL     1      -0.816   3.267  -0.669  1.00  0.00     0.172 C   
BRANCH  25  26
ATOM     26  C17 UNL     1       0.224   3.175  -1.755  1.00  0.00     0.003 A   
ATOM     27  C18 UNL     1       1.583   3.336  -1.439  1.00  0.00     0.028 A   
ATOM     28  C22 UNL     1      -0.127   2.914  -3.084  1.00  0.00     0.076 A   
ATOM     29  C19 UNL     1       2.553   3.251  -2.437  1.00  0.00     0.041 A   
ATOM     30  C21 UNL     1       0.840   2.840  -4.086  1.00  0.00     0.035 A   
ATOM     31  C20 UNL     1       2.186   3.012  -3.760  1.00  0.00     0.023 A   
ATOM     32  CL1 UNL     1       4.213   3.433  -2.029  1.00  0.00    -0.084 Cl  
BRANCH  28  33
ATOM     33  O3  UNL     1      -1.445   2.726  -3.389  1.00  0.00    -0.361 OA  
ATOM     34  H26 UNL     1      -1.544   2.724  -4.359  1.00  0.00     0.218 HD  
ENDBRANCH  28  33
ENDBRANCH  25  26
ENDBRANCH   3  25
TORSDOF 8
