REMARK SMILES Fc1cc(Cn2cc([C@@H]([NH2+]Cc3ccc4c(c3)OCO4)C3CCCC3)nn2)cc(F)n1
REMARK SMILES IDX 6 1 7 2 8 3 26 4 27 5 5 7 4 8 2 9 3 10 31 11 29 12 28 13
REMARK SMILES IDX 1 14 30 15 9 16 10 17 11 20 12 21 13 22 17 23 14 24 16 25
REMARK SMILES IDX 15 26 18 27 20 28 19 29 21 30 22 31 25 32 23 33 24 34
REMARK H PARENT 7 6 10 18 10 19
ROOT
ATOM     1   N1  UNL     1       1.220   0.625   2.285  1.00  0.00    -0.208 N   
ATOM     2   C5  UNL     1       0.157   0.326   1.478  1.00  0.00     0.046 A   
ATOM     3   C6  UNL     1       0.576  -0.785   0.779  1.00  0.00     0.127 A   
ATOM     4   N3  UNL     1       1.851  -1.108   1.167  1.00  0.00    -0.132 NA  
ATOM     5   N4  UNL     1       2.232  -0.243   2.091  1.00  0.00    -0.076 NA  
ATOM     6   H4  UNL     1      -0.751   0.912   1.470  1.00  0.00     0.083 HD  
ENDROOT
BRANCH   1   7
ATOM     7   C4  UNL     1       1.347   1.704   3.250  1.00  0.00     0.169 C   
BRANCH   7   8
ATOM     8   C3  UNL     1       1.909   2.944   2.605  1.00  0.00    -0.019 A   
ATOM     9   C1  UNL     1       1.660   5.136   1.669  1.00  0.00     0.215 A   
ATOM     10  C2  UNL     1       1.089   4.027   2.277  1.00  0.00     0.066 A   
ATOM     11  N5  UNL     1       2.964   5.245   1.362  1.00  0.00    -0.191 NA  
ATOM     12  C22 UNL     1       3.739   4.196   1.689  1.00  0.00     0.215 A   
ATOM     13  C21 UNL     1       3.270   3.041   2.298  1.00  0.00     0.066 A   
ATOM     14  F1  UNL     1       0.860   6.163   1.349  1.00  0.00    -0.185 F   
ATOM     15  F2  UNL     1       5.042   4.270   1.386  1.00  0.00    -0.185 F   
ENDBRANCH   7   8
ENDBRANCH   1   7
BRANCH   3  16
ATOM     16  C7  UNL     1      -0.074  -1.587  -0.303  1.00  0.00     0.117 C   
BRANCH  16  17
ATOM     17  N2  UNL     1       0.999  -2.009  -1.290  1.00  0.00     0.249 N   
ATOM     18  H6  UNL     1       1.901  -1.770  -0.847  1.00  0.00     0.199 HD  
ATOM     19  H7  UNL     1       1.030  -3.029  -1.383  1.00  0.00     0.199 HD  
BRANCH  17  20
ATOM     20  C8  UNL     1       0.954  -1.378  -2.635  1.00  0.00     0.164 C   
BRANCH  20  21
ATOM     21  C9  UNL     1       1.058   0.123  -2.610  1.00  0.00    -0.002 A   
ATOM     22  C10 UNL     1      -0.050   0.918  -2.991  1.00  0.00     0.012 A   
ATOM     23  C14 UNL     1       2.251   0.750  -2.208  1.00  0.00     0.045 A   
ATOM     24  C11 UNL     1       0.024   2.315  -2.974  1.00  0.00     0.037 A   
ATOM     25  C13 UNL     1       2.295   2.130  -2.212  1.00  0.00     0.109 A   
ATOM     26  C12 UNL     1       1.213   2.890  -2.585  1.00  0.00     0.108 A   
ATOM     27  O1  UNL     1       3.367   2.892  -1.871  1.00  0.00    -0.316 OA  
ATOM     28  O2  UNL     1       1.470   4.222  -2.529  1.00  0.00    -0.316 OA  
ATOM     29  C15 UNL     1       2.869   4.217  -2.170  1.00  0.00     0.337 C   
ENDBRANCH  20  21
ENDBRANCH  17  20
ENDBRANCH  16  17
BRANCH  16  30
ATOM     30  C16 UNL     1      -0.778  -2.844   0.237  1.00  0.00     0.043 C   
ATOM     31  C17 UNL     1      -1.927  -2.528   1.205  1.00  0.00     0.010 C   
ATOM     32  C20 UNL     1      -1.492  -3.671  -0.837  1.00  0.00     0.010 C   
ATOM     33  C18 UNL     1      -2.840  -3.753   1.176  1.00  0.00     0.001 C   
ATOM     34  C19 UNL     1      -2.407  -4.581  -0.031  1.00  0.00     0.001 C   
ENDBRANCH  16  30
ENDBRANCH   3  16
TORSDOF 7
