REMARK SMILES CC(C)(C)[C@H]([NH2+]Cc1ccc2c(c1)OCO2)c1cn(C[C@@H](O)c2cccs2)nn1
REMARK SMILES IDX 17 1 18 2 19 3 28 4 29 5 5 7 2 8 1 9 3 10 4 11 6 12 7 15
REMARK SMILES IDX 8 16 9 17 13 18 10 19 12 20 11 21 14 22 16 23 15 24 20 25
REMARK SMILES IDX 21 26 22 27 23 29 24 30 27 31 25 32 26 33
REMARK H PARENT 18 6 6 13 6 14 22 28
ROOT
ATOM     1   C14 UNL     1       0.498  -0.963   1.129  1.00  0.00     0.127 A   
ATOM     2   C15 UNL     1       0.841  -1.542   2.330  1.00  0.00     0.046 A   
ATOM     3   N2  UNL     1      -0.360  -1.773   2.942  1.00  0.00    -0.209 N   
ATOM     4   N3  UNL     1      -1.381  -1.452   2.125  1.00  0.00    -0.076 NA  
ATOM     5   N4  UNL     1      -0.870  -0.930   1.023  1.00  0.00    -0.132 NA  
ATOM     6   H20 UNL     1       1.784  -1.772   2.809  1.00  0.00     0.083 HD  
ENDROOT
BRANCH   1   7
ATOM     7   C5  UNL     1       1.333  -0.469  -0.014  1.00  0.00     0.120 C   
BRANCH   7   8
ATOM     8   C2  UNL     1       1.751   1.039   0.103  1.00  0.00     0.010 C   
ATOM     9   C1  UNL     1       2.707   1.423  -1.051  1.00  0.00     0.017 C   
ATOM     10  C3  UNL     1       0.541   1.995   0.069  1.00  0.00     0.017 C   
ATOM     11  C4  UNL     1       2.523   1.281   1.420  1.00  0.00     0.017 C   
ENDBRANCH   7   8
BRANCH   7  12
ATOM     12  N1  UNL     1       0.571  -0.704  -1.298  1.00  0.00     0.250 N   
ATOM     13  H11 UNL     1       0.905  -0.123  -2.071  1.00  0.00     0.199 HD  
ATOM     14  H12 UNL     1      -0.401  -0.408  -1.117  1.00  0.00     0.199 HD  
BRANCH  12  15
ATOM     15  C6  UNL     1       0.513  -2.121  -1.755  1.00  0.00     0.164 C   
BRANCH  15  16
ATOM     16  C7  UNL     1      -0.325  -2.237  -2.997  1.00  0.00    -0.002 A   
ATOM     17  C8  UNL     1       0.278  -2.209  -4.277  1.00  0.00     0.012 A   
ATOM     18  C12 UNL     1      -1.725  -2.319  -2.891  1.00  0.00     0.045 A   
ATOM     19  C9  UNL     1      -0.500  -2.274  -5.438  1.00  0.00     0.037 A   
ATOM     20  C11 UNL     1      -2.462  -2.380  -4.055  1.00  0.00     0.109 A   
ATOM     21  C10 UNL     1      -1.867  -2.358  -5.293  1.00  0.00     0.108 A   
ATOM     22  O1  UNL     1      -3.816  -2.461  -4.131  1.00  0.00    -0.316 OA  
ATOM     23  O2  UNL     1      -2.772  -2.426  -6.304  1.00  0.00    -0.316 OA  
ATOM     24  C13 UNL     1      -4.008  -2.511  -5.563  1.00  0.00     0.337 C   
ENDBRANCH  15  16
ENDBRANCH  12  15
ENDBRANCH   7  12
ENDBRANCH   1   7
BRANCH   3  25
ATOM     25  C16 UNL     1      -0.610  -2.369   4.238  1.00  0.00     0.171 C   
BRANCH  25  26
ATOM     26  C17 UNL     1      -0.283  -1.456   5.423  1.00  0.00     0.170 C   
BRANCH  26  27
ATOM     27  O3  UNL     1       1.126  -1.205   5.481  1.00  0.00    -0.386 OA  
ATOM     28  H24 UNL     1       1.280  -0.708   6.307  1.00  0.00     0.211 HD  
ENDBRANCH  26  27
BRANCH  26  29
ATOM     29  C18 UNL     1      -0.989  -0.130   5.388  1.00  0.00     0.019 A   
ATOM     30  C19 UNL     1      -0.542   1.092   4.918  1.00  0.00     0.014 A   
ATOM     31  S1  UNL     1      -2.590  -0.011   5.997  1.00  0.00    -0.100 S   
ATOM     32  C20 UNL     1      -1.517   2.121   5.058  1.00  0.00     0.008 A   
ATOM     33  C21 UNL     1      -2.679   1.655   5.631  1.00  0.00     0.046 A   
ENDBRANCH  26  29
ENDBRANCH  25  26
ENDBRANCH   3  25
TORSDOF 9
