REMARK SMILES CC(C)(C)[C@H]([NH2+]Cc1ccc2c(c1)OCO2)c1cn(C[C@H](O)c2cccs2)nn1
REMARK SMILES IDX 17 1 18 2 19 3 28 4 29 5 5 7 2 8 1 9 3 10 4 11 6 12 7 15
REMARK SMILES IDX 8 16 9 17 13 18 10 19 12 20 11 21 14 22 16 23 15 24 20 25
REMARK SMILES IDX 21 26 22 27 23 29 24 30 27 31 25 32 26 33
REMARK H PARENT 18 6 6 13 6 14 22 28
ROOT
ATOM     1   C14 UNL     1       1.566   0.206   1.912  1.00  0.00     0.127 A   
ATOM     2   C15 UNL     1       0.736   0.936   2.734  1.00  0.00     0.046 A   
ATOM     3   N2  UNL     1       1.155   2.224   2.564  1.00  0.00    -0.209 N   
ATOM     4   N3  UNL     1       2.173   2.290   1.687  1.00  0.00    -0.076 NA  
ATOM     5   N4  UNL     1       2.436   1.059   1.281  1.00  0.00    -0.132 NA  
ATOM     6   H20 UNL     1      -0.091   0.673   3.380  1.00  0.00     0.083 HD  
ENDROOT
BRANCH   1   7
ATOM     7   C5  UNL     1       1.583  -1.252   1.568  1.00  0.00     0.120 C   
BRANCH   7   8
ATOM     8   C2  UNL     1       2.579  -2.105   2.429  1.00  0.00     0.010 C   
ATOM     9   C1  UNL     1       2.407  -3.610   2.114  1.00  0.00     0.017 C   
ATOM     10  C3  UNL     1       2.271  -1.925   3.934  1.00  0.00     0.017 C   
ATOM     11  C4  UNL     1       4.054  -1.728   2.189  1.00  0.00     0.017 C   
ENDBRANCH   7   8
BRANCH   7  12
ATOM     12  N1  UNL     1       1.901  -1.400   0.092  1.00  0.00     0.250 N   
ATOM     13  H11 UNL     1       2.735  -0.818  -0.076  1.00  0.00     0.199 HD  
ATOM     14  H12 UNL     1       2.150  -2.363  -0.142  1.00  0.00     0.199 HD  
BRANCH  12  15
ATOM     15  C6  UNL     1       0.850  -0.933  -0.862  1.00  0.00     0.164 C   
BRANCH  15  16
ATOM     16  C7  UNL     1      -0.363  -1.820  -0.870  1.00  0.00    -0.002 A   
ATOM     17  C8  UNL     1      -0.335  -3.068  -1.536  1.00  0.00     0.012 A   
ATOM     18  C12 UNL     1      -1.526  -1.429  -0.184  1.00  0.00     0.045 A   
ATOM     19  C9  UNL     1      -1.448  -3.917  -1.519  1.00  0.00     0.037 A   
ATOM     20  C11 UNL     1      -2.603  -2.289  -0.184  1.00  0.00     0.109 A   
ATOM     21  C10 UNL     1      -2.565  -3.499  -0.832  1.00  0.00     0.108 A   
ATOM     22  O1  UNL     1      -3.792  -2.068   0.435  1.00  0.00    -0.316 OA  
ATOM     23  O2  UNL     1      -3.727  -4.191  -0.705  1.00  0.00    -0.316 OA  
ATOM     24  C13 UNL     1      -4.511  -3.274   0.088  1.00  0.00     0.337 C   
ENDBRANCH  15  16
ENDBRANCH  12  15
ENDBRANCH   7  12
ENDBRANCH   1   7
BRANCH   3  25
ATOM     25  C16 UNL     1       0.612   3.426   3.153  1.00  0.00     0.171 C   
BRANCH  25  26
ATOM     26  C17 UNL     1      -0.213   4.251   2.165  1.00  0.00     0.170 C   
BRANCH  26  27
ATOM     27  O3  UNL     1      -0.647   5.443   2.822  1.00  0.00    -0.386 OA  
ATOM     28  H24 UNL     1      -1.145   5.967   2.168  1.00  0.00     0.211 HD  
ENDBRANCH  26  27
BRANCH  26  29
ATOM     29  C18 UNL     1      -1.458   3.533   1.712  1.00  0.00     0.019 A   
ATOM     30  C19 UNL     1      -2.623   3.293   2.417  1.00  0.00     0.014 A   
ATOM     31  S1  UNL     1      -1.545   2.880   0.127  1.00  0.00    -0.100 S   
ATOM     32  C20 UNL     1      -3.585   2.574   1.652  1.00  0.00     0.008 A   
ATOM     33  C21 UNL     1      -3.128   2.292   0.385  1.00  0.00     0.046 A   
ENDBRANCH  26  29
ENDBRANCH  25  26
ENDBRANCH   3  25
TORSDOF 9
