REMARK SMILES COc1ccc(C)cc1Cn1cc([C@@H]([NH2+]Cc2ccc3c(c2)OCO3)C2CCCCC2)nn1
REMARK SMILES IDX 11 1 12 2 13 3 32 4 33 5 10 7 9 8 3 9 4 10 5 11 8 12 6 13
REMARK SMILES IDX 7 14 2 15 1 16 14 17 15 18 16 21 17 22 18 23 22 24 19 25
REMARK SMILES IDX 21 26 20 27 23 28 25 29 24 30 26 31 27 32 31 33 28 34 30 35
REMARK SMILES IDX 29 36
REMARK H PARENT 12 6 15 19 15 20
ROOT
ATOM     1   N1  UNL     1      -1.945  -0.631   1.331  1.00  0.00    -0.208 N   
ATOM     2   C10 UNL     1      -0.873  -1.476   1.244  1.00  0.00     0.046 A   
ATOM     3   C11 UNL     1       0.209  -0.634   1.121  1.00  0.00     0.127 A   
ATOM     4   N3  UNL     1      -0.230   0.666   1.138  1.00  0.00    -0.132 NA  
ATOM     5   N4  UNL     1      -1.546   0.655   1.269  1.00  0.00    -0.076 NA  
ATOM     6   H12 UNL     1      -0.986  -2.552   1.261  1.00  0.00     0.083 HD  
ENDROOT
BRANCH   1   7
ATOM     7   C9  UNL     1      -3.349  -0.969   1.479  1.00  0.00     0.172 C   
BRANCH   7   8
ATOM     8   C8  UNL     1      -3.978  -1.261   0.139  1.00  0.00     0.002 A   
ATOM     9   C2  UNL     1      -4.013  -2.565  -0.387  1.00  0.00     0.079 A   
ATOM     10  C3  UNL     1      -4.597  -2.788  -1.637  1.00  0.00     0.034 A   
ATOM     11  C4  UNL     1      -5.143  -1.726  -2.364  1.00  0.00     0.006 A   
ATOM     12  C7  UNL     1      -4.524  -0.200  -0.608  1.00  0.00     0.011 A   
ATOM     13  C5  UNL     1      -5.100  -0.423  -1.863  1.00  0.00    -0.051 A   
ATOM     14  C6  UNL     1      -5.719   0.709  -2.629  1.00  0.00     0.044 C   
BRANCH   9  15
ATOM     15  O1  UNL     1      -3.435  -3.540   0.385  1.00  0.00    -0.349 OA  
ATOM     16  C1  UNL     1      -3.730  -4.891   0.037  1.00  0.00     0.203 C   
ENDBRANCH   9  15
ENDBRANCH   7   8
ENDBRANCH   1   7
BRANCH   3  17
ATOM     17  C12 UNL     1       1.660  -0.913   0.911  1.00  0.00     0.117 C   
BRANCH  17  18
ATOM     18  N2  UNL     1       2.265   0.165   0.044  1.00  0.00     0.249 N   
ATOM     19  H14 UNL     1       3.286   0.190   0.129  1.00  0.00     0.199 HD  
ATOM     20  H15 UNL     1       1.918   1.065   0.409  1.00  0.00     0.199 HD  
BRANCH  18  21
ATOM     21  C13 UNL     1       1.890   0.106  -1.396  1.00  0.00     0.164 C   
BRANCH  21  22
ATOM     22  C14 UNL     1       2.520   1.245  -2.147  1.00  0.00    -0.002 A   
ATOM     23  C15 UNL     1       3.760   1.072  -2.806  1.00  0.00     0.012 A   
ATOM     24  C19 UNL     1       1.902   2.508  -2.152  1.00  0.00     0.045 A   
ATOM     25  C16 UNL     1       4.374   2.139  -3.471  1.00  0.00     0.037 A   
ATOM     26  C18 UNL     1       2.535   3.538  -2.817  1.00  0.00     0.109 A   
ATOM     27  C17 UNL     1       3.736   3.359  -3.458  1.00  0.00     0.108 A   
ATOM     28  O2  UNL     1       2.078   4.813  -2.918  1.00  0.00    -0.316 OA  
ATOM     29  O3  UNL     1       4.185   4.498  -4.045  1.00  0.00    -0.316 OA  
ATOM     30  C20 UNL     1       3.119   5.416  -3.719  1.00  0.00     0.337 C   
ENDBRANCH  21  22
ENDBRANCH  18  21
ENDBRANCH  17  18
BRANCH  17  31
ATOM     31  C21 UNL     1       2.491  -1.014   2.218  1.00  0.00     0.043 C   
ATOM     32  C22 UNL     1       2.463   0.260   3.086  1.00  0.00     0.010 C   
ATOM     33  C26 UNL     1       2.082  -2.239   3.059  1.00  0.00     0.010 C   
ATOM     34  C23 UNL     1       3.330   0.108   4.336  1.00  0.00     0.001 C   
ATOM     35  C25 UNL     1       2.955  -2.385   4.304  1.00  0.00     0.001 C   
ATOM     36  C24 UNL     1       2.936  -1.118   5.152  1.00  0.00     0.000 C   
ENDBRANCH  17  31
ENDBRANCH   3  17
TORSDOF 8
