REMARK SMILES Cn1nccc1-n1cc([C@@H]([NH2+]Cc2ccc3c(c2)OCO3)C2CCCCC2)nn1
REMARK SMILES IDX 10 1 9 2 7 3 8 4 29 5 28 6 6 7 2 8 3 9 4 10 5 11 1 12 11 13
REMARK SMILES IDX 12 16 13 17 14 18 18 19 15 20 17 21 16 22 19 23 21 24 20 25
REMARK SMILES IDX 22 26 23 27 27 28 24 29 26 30 25 31
REMARK H PARENT 11 14 11 15
ROOT
ATOM     1   C7  UNL     1      -0.629   1.375  -0.265  1.00  0.00     0.117 C   
ENDROOT
BRANCH   1   2
ATOM     2   C6  UNL     1      -1.220   0.036  -0.574  1.00  0.00     0.128 A   
ATOM     3   N3  UNL     1      -1.994  -2.006  -0.621  1.00  0.00    -0.165 N   
ATOM     4   C5  UNL     1      -1.454  -1.061   0.224  1.00  0.00     0.137 A   
ATOM     5   N6  UNL     1      -2.038  -1.508  -1.875  1.00  0.00    -0.070 NA  
ATOM     6   N5  UNL     1      -1.577  -0.268  -1.859  1.00  0.00    -0.131 NA  
BRANCH   3   7
ATOM     7   C4  UNL     1      -2.432  -3.287  -0.348  1.00  0.00     0.135 A   
ATOM     8   N1  UNL     1      -2.966  -4.177  -1.246  1.00  0.00    -0.213 N   
ATOM     9   N2  UNL     1      -3.288  -5.354  -0.670  1.00  0.00    -0.189 NA  
ATOM     10  C2  UNL     1      -2.965  -5.199   0.613  1.00  0.00     0.134 A   
ATOM     11  C3  UNL     1      -2.426  -3.928   0.874  1.00  0.00     0.065 A   
ATOM     12  C1  UNL     1      -3.223  -4.024  -2.661  1.00  0.00     0.161 C   
ENDBRANCH   3   7
ENDBRANCH   1   2
BRANCH   1  13
ATOM     13  N4  UNL     1       0.153   1.893  -1.455  1.00  0.00     0.249 N   
ATOM     14  H8  UNL     1       0.346   2.893  -1.342  1.00  0.00     0.199 HD  
ATOM     15  H9  UNL     1      -0.460   1.792  -2.276  1.00  0.00     0.199 HD  
BRANCH  13  16
ATOM     16  C8  UNL     1       1.430   1.186  -1.774  1.00  0.00     0.164 C   
BRANCH  16  17
ATOM     17  C9  UNL     1       2.483   1.377  -0.718  1.00  0.00    -0.002 A   
ATOM     18  C10 UNL     1       3.146   2.620  -0.582  1.00  0.00     0.012 A   
ATOM     19  C14 UNL     1       2.794   0.327   0.164  1.00  0.00     0.045 A   
ATOM     20  C11 UNL     1       4.099   2.819   0.423  1.00  0.00     0.037 A   
ATOM     21  C13 UNL     1       3.737   0.557   1.143  1.00  0.00     0.109 A   
ATOM     22  C12 UNL     1       4.371   1.768   1.270  1.00  0.00     0.108 A   
ATOM     23  O1  UNL     1       4.142  -0.342   2.077  1.00  0.00    -0.316 OA  
ATOM     24  O2  UNL     1       5.258   1.783   2.298  1.00  0.00    -0.316 OA  
ATOM     25  C15 UNL     1       5.140   0.429   2.786  1.00  0.00     0.337 C   
ENDBRANCH  16  17
ENDBRANCH  13  16
ENDBRANCH   1  13
BRANCH   1  26
ATOM     26  C16 UNL     1      -1.672   2.455   0.137  1.00  0.00     0.043 C   
ATOM     27  C17 UNL     1      -2.739   2.740  -0.938  1.00  0.00     0.010 C   
ATOM     28  C21 UNL     1      -2.349   2.119   1.481  1.00  0.00     0.010 C   
ATOM     29  C18 UNL     1      -3.707   3.837  -0.494  1.00  0.00     0.001 C   
ATOM     30  C20 UNL     1      -3.312   3.221   1.919  1.00  0.00     0.001 C   
ATOM     31  C19 UNL     1      -4.356   3.509   0.846  1.00  0.00     0.000 C   
ENDBRANCH   1  26
TORSDOF 6
