REMARK SMILES CC(C)[C@H]([NH2+]Cc1ccc2c(c1)OCO2)c1cn(CCCc2ccsc2)nn1
REMARK SMILES IDX 16 1 17 2 18 3 27 4 28 5 4 7 2 8 1 9 3 10 5 11 6 14 7 15
REMARK SMILES IDX 8 16 12 17 9 18 11 19 10 20 13 21 15 22 14 23 19 24 20 25
REMARK SMILES IDX 21 26 22 27 23 28 26 29 24 30 25 31
REMARK H PARENT 17 6 5 12 5 13
ROOT
ATOM     1   C13 UNL     1      -0.824  -0.175  -3.297  1.00  0.00     0.127 A   
ATOM     2   C14 UNL     1       0.066  -0.838  -4.117  1.00  0.00     0.045 A   
ATOM     3   N2  UNL     1      -0.138  -2.158  -3.831  1.00  0.00    -0.212 N   
ATOM     4   N3  UNL     1      -1.147  -2.312  -2.958  1.00  0.00    -0.076 NA  
ATOM     5   N4  UNL     1      -1.560  -1.107  -2.607  1.00  0.00    -0.132 NA  
ATOM     6   H18 UNL     1       0.822  -0.511  -4.815  1.00  0.00     0.083 HD  
ENDROOT
BRANCH   1   7
ATOM     7   C4  UNL     1      -1.067   1.276  -3.012  1.00  0.00     0.117 C   
BRANCH   7   8
ATOM     8   C2  UNL     1      -0.158   2.267  -3.786  1.00  0.00     0.037 C   
ATOM     9   C1  UNL     1      -0.731   3.691  -3.738  1.00  0.00     0.014 C   
ATOM     10  C3  UNL     1       1.303   2.296  -3.322  1.00  0.00     0.014 C   
ENDBRANCH   7   8
BRANCH   7  11
ATOM     11  N1  UNL     1      -0.972   1.524  -1.528  1.00  0.00     0.249 N   
ATOM     12  H9  UNL     1      -0.532   2.421  -1.305  1.00  0.00     0.199 HD  
ATOM     13  H10 UNL     1      -0.344   0.804  -1.135  1.00  0.00     0.199 HD  
BRANCH  11  14
ATOM     14  C5  UNL     1      -2.263   1.433  -0.789  1.00  0.00     0.164 C   
BRANCH  14  15
ATOM     15  C6  UNL     1      -2.020   1.490   0.692  1.00  0.00    -0.002 A   
ATOM     16  C7  UNL     1      -1.959   2.732   1.367  1.00  0.00     0.012 A   
ATOM     17  C11 UNL     1      -1.787   0.301   1.405  1.00  0.00     0.045 A   
ATOM     18  C8  UNL     1      -1.675   2.791   2.736  1.00  0.00     0.037 A   
ATOM     19  C10 UNL     1      -1.504   0.395   2.751  1.00  0.00     0.109 A   
ATOM     20  C9  UNL     1      -1.450   1.604   3.398  1.00  0.00     0.108 A   
ATOM     21  O1  UNL     1      -1.240  -0.650   3.578  1.00  0.00    -0.316 OA  
ATOM     22  O2  UNL     1      -1.153   1.473   4.717  1.00  0.00    -0.316 OA  
ATOM     23  C12 UNL     1      -1.048   0.038   4.835  1.00  0.00     0.337 C   
ENDBRANCH  14  15
ENDBRANCH  11  14
ENDBRANCH   7  11
ENDBRANCH   1   7
BRANCH   3  24
ATOM     24  C15 UNL     1       0.573  -3.305  -4.347  1.00  0.00     0.134 C   
BRANCH  24  25
ATOM     25  C16 UNL     1       1.272  -4.159  -3.284  1.00  0.00     0.026 C   
BRANCH  25  26
ATOM     26  C17 UNL     1       2.491  -3.495  -2.632  1.00  0.00     0.038 C   
BRANCH  26  27
ATOM     27  C18 UNL     1       2.168  -2.442  -1.607  1.00  0.00    -0.041 A   
ATOM     28  C19 UNL     1       1.413  -2.676  -0.409  1.00  0.00     0.011 A   
ATOM     29  C21 UNL     1       2.606  -1.131  -1.653  1.00  0.00     0.049 A   
ATOM     30  C20 UNL     1       1.299  -1.553   0.380  1.00  0.00     0.046 A   
ATOM     31  S1  UNL     1       2.066  -0.200  -0.322  1.00  0.00    -0.106 S   
ENDBRANCH  26  27
ENDBRANCH  25  26
ENDBRANCH  24  25
ENDBRANCH   3  24
TORSDOF 9
