REMARK SMILES CCc1ccc([C@H](CO)n2cc([C@@H]([NH2+]Cc3ccc4c(c3)OCO4)C(C)(C)C)nn2)cc1
REMARK SMILES IDX 10 1 11 2 12 3 29 4 30 5 7 7 6 8 3 9 4 10 32 11 5 12 31 13
REMARK SMILES IDX 2 14 1 15 8 16 9 17 13 19 14 20 15 23 16 24 17 25 21 26
REMARK SMILES IDX 18 27 20 28 19 29 22 30 24 31 23 32 25 33 26 34 27 35 28 36
REMARK H PARENT 11 6 9 18 14 21 14 22
ROOT
ATOM     1   N1  UNL     1      -0.090  -2.265   0.032  1.00  0.00    -0.202 N   
ATOM     2   C9  UNL     1      -0.024  -0.972  -0.416  1.00  0.00     0.046 A   
ATOM     3   C10 UNL     1       0.388  -0.254   0.683  1.00  0.00     0.127 A   
ATOM     4   N3  UNL     1       0.507  -1.103   1.754  1.00  0.00    -0.132 NA  
ATOM     5   N4  UNL     1       0.201  -2.325   1.349  1.00  0.00    -0.075 NA  
ATOM     6   H12 UNL     1      -0.258  -0.705  -1.437  1.00  0.00     0.083 HD  
ENDROOT
BRANCH   1   7
ATOM     7   C7  UNL     1      -0.421  -3.482  -0.708  1.00  0.00     0.155 C   
BRANCH   7   8
ATOM     8   C6  UNL     1       0.422  -3.587  -1.974  1.00  0.00    -0.023 A   
ATOM     9   C3  UNL     1       2.080  -3.789  -4.261  1.00  0.00    -0.048 A   
ATOM     10  C4  UNL     1       0.756  -3.351  -4.377  1.00  0.00     0.004 A   
ATOM     11  C25 UNL     1       2.577  -4.110  -2.994  1.00  0.00     0.004 A   
ATOM     12  C5  UNL     1      -0.063  -3.252  -3.248  1.00  0.00     0.006 A   
ATOM     13  C24 UNL     1       1.760  -4.008  -1.866  1.00  0.00     0.006 A   
BRANCH   9  14
ATOM     14  C2  UNL     1       2.963  -3.895  -5.480  1.00  0.00     0.032 C   
ATOM     15  C1  UNL     1       3.830  -2.658  -5.664  1.00  0.00     0.009 C   
ENDBRANCH   9  14
ENDBRANCH   7   8
BRANCH   7  16
ATOM     16  C8  UNL     1      -1.947  -3.647  -0.860  1.00  0.00     0.185 C   
BRANCH  16  17
ATOM     17  O1  UNL     1      -2.580  -2.524  -1.482  1.00  0.00    -0.394 OA  
ATOM     18  H11 UNL     1      -3.514  -2.771  -1.618  1.00  0.00     0.210 HD  
ENDBRANCH  16  17
ENDBRANCH   7  16
ENDBRANCH   1   7
BRANCH   3  19
ATOM     19  C11 UNL     1       0.621   1.213   0.867  1.00  0.00     0.120 C   
BRANCH  19  20
ATOM     20  N2  UNL     1       0.174   1.602   2.264  1.00  0.00     0.250 N   
ATOM     21  H14 UNL     1       0.579   0.894   2.894  1.00  0.00     0.199 HD  
ATOM     22  H15 UNL     1       0.559   2.506   2.542  1.00  0.00     0.199 HD  
BRANCH  20  23
ATOM     23  C12 UNL     1      -1.299   1.607   2.504  1.00  0.00     0.164 C   
BRANCH  23  24
ATOM     24  C13 UNL     1      -2.007   2.707   1.762  1.00  0.00    -0.002 A   
ATOM     25  C14 UNL     1      -2.859   2.397   0.674  1.00  0.00     0.012 A   
ATOM     26  C18 UNL     1      -1.810   4.050   2.127  1.00  0.00     0.045 A   
ATOM     27  C15 UNL     1      -3.506   3.409  -0.043  1.00  0.00     0.037 A   
ATOM     28  C17 UNL     1      -2.461   5.023   1.397  1.00  0.00     0.109 A   
ATOM     29  C16 UNL     1      -3.286   4.712   0.344  1.00  0.00     0.108 A   
ATOM     30  O2  UNL     1      -2.377   6.362   1.614  1.00  0.00    -0.316 OA  
ATOM     31  O3  UNL     1      -3.830   5.815  -0.233  1.00  0.00    -0.316 OA  
ATOM     32  C19 UNL     1      -3.274   6.861   0.595  1.00  0.00     0.337 C   
ENDBRANCH  23  24
ENDBRANCH  20  23
ENDBRANCH  19  20
BRANCH  19  33
ATOM     33  C20 UNL     1       2.106   1.663   0.629  1.00  0.00     0.010 C   
ATOM     34  C21 UNL     1       3.082   1.084   1.673  1.00  0.00     0.017 C   
ATOM     35  C22 UNL     1       2.209   3.206   0.672  1.00  0.00     0.017 C   
ATOM     36  C23 UNL     1       2.580   1.222  -0.775  1.00  0.00     0.017 C   
ENDBRANCH  19  33
ENDBRANCH   3  19
TORSDOF 10
