REMARK SMILES CCc1ccc([C@@H](CO)n2cc([C@@H]([NH2+]Cc3ccc4c(c3)OCO4)C(C)(C)C)nn2)cc1
REMARK SMILES IDX 10 1 11 2 12 3 29 4 30 5 7 7 6 8 3 9 4 10 32 11 5 12 31 13
REMARK SMILES IDX 2 14 1 15 8 16 9 17 13 19 14 20 15 23 16 24 17 25 21 26
REMARK SMILES IDX 18 27 20 28 19 29 22 30 24 31 23 32 25 33 26 34 27 35 28 36
REMARK H PARENT 11 6 9 18 14 21 14 22
ROOT
ATOM     1   N1  UNL     1      -1.273   2.404  -0.038  1.00  0.00    -0.202 N   
ATOM     2   C9  UNL     1      -0.039   1.907  -0.361  1.00  0.00     0.046 A   
ATOM     3   C10 UNL     1      -0.020   1.911  -1.736  1.00  0.00     0.127 A   
ATOM     4   N3  UNL     1      -1.229   2.361  -2.201  1.00  0.00    -0.132 NA  
ATOM     5   N4  UNL     1      -1.981   2.670  -1.159  1.00  0.00    -0.075 NA  
ATOM     6   H12 UNL     1       0.672   1.590   0.390  1.00  0.00     0.083 HD  
ENDROOT
BRANCH   1   7
ATOM     7   C7  UNL     1      -1.883   2.609   1.274  1.00  0.00     0.155 C   
BRANCH   7   8
ATOM     8   C6  UNL     1      -2.386   1.289   1.840  1.00  0.00    -0.023 A   
ATOM     9   C3  UNL     1      -3.412  -1.143   2.863  1.00  0.00    -0.048 A   
ATOM     10  C4  UNL     1      -4.225  -0.292   2.109  1.00  0.00     0.004 A   
ATOM     11  C25 UNL     1      -2.079  -0.782   3.083  1.00  0.00     0.004 A   
ATOM     12  C5  UNL     1      -3.718   0.906   1.601  1.00  0.00     0.006 A   
ATOM     13  C24 UNL     1      -1.571   0.419   2.577  1.00  0.00     0.006 A   
BRANCH   9  14
ATOM     14  C2  UNL     1      -3.962  -2.435   3.415  1.00  0.00     0.032 C   
ATOM     15  C1  UNL     1      -3.985  -3.542   2.372  1.00  0.00     0.009 C   
ENDBRANCH   9  14
ENDBRANCH   7   8
BRANCH   7  16
ATOM     16  C8  UNL     1      -1.032   3.483   2.222  1.00  0.00     0.185 C   
BRANCH  16  17
ATOM     17  O1  UNL     1       0.265   2.954   2.499  1.00  0.00    -0.394 OA  
ATOM     18  H11 UNL     1       0.659   3.520   3.189  1.00  0.00     0.210 HD  
ENDBRANCH  16  17
ENDBRANCH   7  16
ENDBRANCH   1   7
BRANCH   3  19
ATOM     19  C11 UNL     1       0.996   1.408  -2.715  1.00  0.00     0.120 C   
BRANCH  19  20
ATOM     20  N2  UNL     1       0.251   0.603  -3.768  1.00  0.00     0.250 N   
ATOM     21  H14 UNL     1       0.436   0.959  -4.709  1.00  0.00     0.199 HD  
ATOM     22  H15 UNL     1      -0.751   0.803  -3.614  1.00  0.00     0.199 HD  
BRANCH  20  23
ATOM     23  C12 UNL     1       0.445  -0.873  -3.746  1.00  0.00     0.164 C   
BRANCH  23  24
ATOM     24  C13 UNL     1       0.182  -1.517  -2.413  1.00  0.00    -0.002 A   
ATOM     25  C14 UNL     1      -1.105  -1.477  -1.824  1.00  0.00     0.012 A   
ATOM     26  C18 UNL     1       1.234  -2.149  -1.726  1.00  0.00     0.045 A   
ATOM     27  C15 UNL     1      -1.337  -2.041  -0.564  1.00  0.00     0.037 A   
ATOM     28  C17 UNL     1       0.971  -2.695  -0.487  1.00  0.00     0.109 A   
ATOM     29  C16 UNL     1      -0.278  -2.642   0.079  1.00  0.00     0.108 A   
ATOM     30  O2  UNL     1       1.877  -3.324   0.306  1.00  0.00    -0.316 OA  
ATOM     31  O3  UNL     1      -0.316  -3.236   1.301  1.00  0.00    -0.316 OA  
ATOM     32  C19 UNL     1       1.047  -3.690   1.431  1.00  0.00     0.337 C   
ENDBRANCH  23  24
ENDBRANCH  20  23
ENDBRANCH  19  20
BRANCH  19  33
ATOM     33  C20 UNL     1       1.873   2.524  -3.377  1.00  0.00     0.010 C   
ATOM     34  C21 UNL     1       1.052   3.547  -4.185  1.00  0.00     0.017 C   
ATOM     35  C22 UNL     1       2.652   3.289  -2.282  1.00  0.00     0.017 C   
ATOM     36  C23 UNL     1       2.920   1.884  -4.317  1.00  0.00     0.017 C   
ENDBRANCH  19  33
ENDBRANCH   3  19
TORSDOF 10
