REMARK SMILES COCc1ccoc1Cn1cc([C@H](CC(C)C)[NH2+]Cc2ccc3c(c2)OCO3)nn1
REMARK SMILES IDX 10 1 11 2 12 3 29 4 30 5 9 7 8 8 4 9 5 10 6 11 7 12 3 13
REMARK SMILES IDX 2 14 1 15 13 16 14 17 15 18 16 19 17 20 18 21 19 24 20 25
REMARK SMILES IDX 21 26 25 27 22 28 24 29 23 30 26 31 28 32 27 33
REMARK H PARENT 11 6 18 22 18 23
ROOT
ATOM     1   N1  UNL     1       1.960  -0.617  -2.934  1.00  0.00    -0.206 N   
ATOM     2   C8  UNL     1       0.935  -0.624  -2.024  1.00  0.00     0.046 A   
ATOM     3   C9  UNL     1       0.750   0.704  -1.716  1.00  0.00     0.127 A   
ATOM     4   N3  UNL     1       1.688   1.455  -2.376  1.00  0.00    -0.132 NA  
ATOM     5   N4  UNL     1       2.441   0.635  -3.091  1.00  0.00    -0.076 NA  
ATOM     6   H10 UNL     1       0.433  -1.534  -1.726  1.00  0.00     0.083 HD  
ENDROOT
BRANCH   1   7
ATOM     7   C7  UNL     1       2.572  -1.732  -3.641  1.00  0.00     0.196 C   
BRANCH   7   8
ATOM     8   C6  UNL     1       1.554  -2.697  -4.130  1.00  0.00     0.083 A   
ATOM     9   C3  UNL     1       1.150  -3.955  -3.707  1.00  0.00     0.008 A   
ATOM     10  C4  UNL     1       0.119  -4.344  -4.608  1.00  0.00     0.034 A   
ATOM     11  C5  UNL     1      -0.034  -3.313  -5.501  1.00  0.00     0.136 A   
ATOM     12  O2  UNL     1       0.832  -2.309  -5.217  1.00  0.00    -0.320 OA  
BRANCH   9  13
ATOM     13  C2  UNL     1       1.680  -4.749  -2.562  1.00  0.00     0.197 C   
BRANCH  13  14
ATOM     14  O1  UNL     1       1.938  -3.908  -1.434  1.00  0.00    -0.380 OA  
ATOM     15  C1  UNL     1       2.338  -4.679  -0.307  1.00  0.00     0.195 C   
ENDBRANCH  13  14
ENDBRANCH   9  13
ENDBRANCH   7   8
ENDBRANCH   1   7
BRANCH   3  16
ATOM     16  C10 UNL     1      -0.249   1.373  -0.831  1.00  0.00     0.114 C   
BRANCH  16  17
ATOM     17  C11 UNL     1      -1.578   1.595  -1.582  1.00  0.00     0.064 C   
BRANCH  17  18
ATOM     18  C12 UNL     1      -2.763   2.103  -0.731  1.00  0.00    -0.012 C   
ATOM     19  C13 UNL     1      -3.143   1.127   0.385  1.00  0.00     0.007 C   
ATOM     20  C14 UNL     1      -3.975   2.342  -1.638  1.00  0.00     0.007 C   
ENDBRANCH  17  18
ENDBRANCH  16  17
BRANCH  16  21
ATOM     21  N2  UNL     1       0.278   2.713  -0.370  1.00  0.00     0.249 N   
ATOM     22  H21 UNL     1      -0.479   3.321  -0.054  1.00  0.00     0.199 HD  
ATOM     23  H22 UNL     1       0.691   3.152  -1.206  1.00  0.00     0.199 HD  
BRANCH  21  24
ATOM     24  C15 UNL     1       1.341   2.672   0.676  1.00  0.00     0.164 C   
BRANCH  24  25
ATOM     25  C16 UNL     1       0.836   2.170   2.001  1.00  0.00    -0.002 A   
ATOM     26  C17 UNL     1       1.290   0.930   2.510  1.00  0.00     0.012 A   
ATOM     27  C21 UNL     1      -0.107   2.914   2.732  1.00  0.00     0.045 A   
ATOM     28  C18 UNL     1       0.805   0.430   3.723  1.00  0.00     0.037 A   
ATOM     29  C20 UNL     1      -0.569   2.389   3.921  1.00  0.00     0.109 A   
ATOM     30  C19 UNL     1      -0.128   1.181   4.401  1.00  0.00     0.108 A   
ATOM     31  O3  UNL     1      -1.480   2.974   4.742  1.00  0.00    -0.316 OA  
ATOM     32  O4  UNL     1      -0.704   0.853   5.586  1.00  0.00    -0.316 OA  
ATOM     33  C22 UNL     1      -1.541   2.007   5.816  1.00  0.00     0.337 C   
ENDBRANCH  24  25
ENDBRANCH  21  24
ENDBRANCH  16  21
ENDBRANCH   3  16
TORSDOF 10
