REMARK SMILES COc1ccc([C@H](O)Cn2cc([C@@H]([NH2+]Cc3ccc4c(c3)OCO4)C(C)C)nn2)cc1
REMARK SMILES IDX 10 1 11 2 12 3 28 4 29 5 9 7 7 8 6 9 3 10 4 11 31 12 5 13
REMARK SMILES IDX 30 14 2 15 1 16 8 17 13 19 14 20 15 23 16 24 17 25 21 26
REMARK SMILES IDX 18 27 20 28 19 29 22 30 24 31 23 32 25 33 26 34 27 35
REMARK H PARENT 11 6 8 18 14 21 14 22
ROOT
ATOM     1   N1  UNL     1      -1.342  -0.042  -0.540  1.00  0.00    -0.209 N   
ATOM     2   C8  UNL     1      -1.153  -1.221   0.124  1.00  0.00     0.045 A   
ATOM     3   C9  UNL     1      -0.182  -0.927   1.054  1.00  0.00     0.127 A   
ATOM     4   N3  UNL     1       0.173   0.394   0.931  1.00  0.00    -0.132 NA  
ATOM     5   N4  UNL     1      -0.536   0.921  -0.054  1.00  0.00    -0.076 NA  
ATOM     6   H10 UNL     1      -1.697  -2.119  -0.132  1.00  0.00     0.083 HD  
ENDROOT
BRANCH   1   7
ATOM     7   C7  UNL     1      -2.260   0.239  -1.626  1.00  0.00     0.170 C   
BRANCH   7   8
ATOM     8   C6  UNL     1      -1.595   0.018  -2.986  1.00  0.00     0.164 C   
BRANCH   8   9
ATOM     9   C5  UNL     1      -2.446   0.557  -4.117  1.00  0.00    -0.018 A   
ATOM     10  C2  UNL     1      -4.025   1.592  -6.213  1.00  0.00     0.075 A   
ATOM     11  C3  UNL     1      -2.824   2.209  -5.868  1.00  0.00     0.034 A   
ATOM     12  C23 UNL     1      -4.434   0.458  -5.508  1.00  0.00     0.034 A   
ATOM     13  C4  UNL     1      -2.040   1.696  -4.827  1.00  0.00     0.009 A   
ATOM     14  C22 UNL     1      -3.657  -0.057  -4.469  1.00  0.00     0.009 A   
BRANCH  10  15
ATOM     15  O1  UNL     1      -4.880   1.988  -7.202  1.00  0.00    -0.349 OA  
ATOM     16  C1  UNL     1      -4.504   3.130  -7.963  1.00  0.00     0.203 C   
ENDBRANCH  10  15
ENDBRANCH   8   9
BRANCH   8  17
ATOM     17  O2  UNL     1      -1.368  -1.383  -3.191  1.00  0.00    -0.387 OA  
ATOM     18  H7  UNL     1      -1.321  -1.526  -4.156  1.00  0.00     0.211 HD  
ENDBRANCH   8  17
ENDBRANCH   7   8
ENDBRANCH   1   7
BRANCH   3  19
ATOM     19  C10 UNL     1       0.500  -1.786   2.071  1.00  0.00     0.117 C   
BRANCH  19  20
ATOM     20  N2  UNL     1       1.804  -1.166   2.494  1.00  0.00     0.249 N   
ATOM     21  H12 UNL     1       2.130  -1.521   3.397  1.00  0.00     0.199 HD  
ATOM     22  H13 UNL     1       1.623  -0.159   2.625  1.00  0.00     0.199 HD  
BRANCH  20  23
ATOM     23  C11 UNL     1       2.913  -1.283   1.504  1.00  0.00     0.164 C   
BRANCH  23  24
ATOM     24  C12 UNL     1       4.122  -0.535   1.989  1.00  0.00    -0.002 A   
ATOM     25  C13 UNL     1       4.261   0.846   1.709  1.00  0.00     0.012 A   
ATOM     26  C17 UNL     1       5.090  -1.183   2.775  1.00  0.00     0.045 A   
ATOM     27  C14 UNL     1       5.354   1.572   2.194  1.00  0.00     0.037 A   
ATOM     28  C16 UNL     1       6.154  -0.437   3.239  1.00  0.00     0.109 A   
ATOM     29  C15 UNL     1       6.283   0.900   2.957  1.00  0.00     0.108 A   
ATOM     30  O3  UNL     1       7.170  -0.906   4.010  1.00  0.00    -0.316 OA  
ATOM     31  O4  UNL     1       7.397   1.442   3.514  1.00  0.00    -0.316 OA  
ATOM     32  C18 UNL     1       7.971   0.288   4.163  1.00  0.00     0.337 C   
ENDBRANCH  23  24
ENDBRANCH  20  23
ENDBRANCH  19  20
BRANCH  19  33
ATOM     33  C19 UNL     1      -0.395  -2.050   3.311  1.00  0.00     0.037 C   
ATOM     34  C20 UNL     1      -0.653  -0.804   4.167  1.00  0.00     0.014 C   
ATOM     35  C21 UNL     1       0.169  -3.173   4.189  1.00  0.00     0.014 C   
ENDBRANCH  19  33
ENDBRANCH   3  19
TORSDOF 10
