REMARK SMILES COc1ccc([C@@H](O)Cn2cc([C@@H]([NH2+]Cc3ccc4c(c3)OCO4)C(C)C)nn2)cc1
REMARK SMILES IDX 10 1 11 2 12 3 28 4 29 5 9 7 7 8 6 9 3 10 4 11 31 12 5 13
REMARK SMILES IDX 30 14 2 15 1 16 8 17 13 19 14 20 15 23 16 24 17 25 21 26
REMARK SMILES IDX 18 27 20 28 19 29 22 30 24 31 23 32 25 33 26 34 27 35
REMARK H PARENT 11 6 8 18 14 21 14 22
ROOT
ATOM     1   N1  UNL     1       1.711   0.281  -3.017  1.00  0.00    -0.209 N   
ATOM     2   C8  UNL     1       0.451  -0.193  -3.267  1.00  0.00     0.045 A   
ATOM     3   C9  UNL     1      -0.340   0.478  -2.363  1.00  0.00     0.127 A   
ATOM     4   N3  UNL     1       0.435   1.359  -1.654  1.00  0.00    -0.132 NA  
ATOM     5   N4  UNL     1       1.683   1.246  -2.079  1.00  0.00    -0.076 NA  
ATOM     6   H10 UNL     1       0.259  -0.982  -3.978  1.00  0.00     0.083 HD  
ENDROOT
BRANCH   1   7
ATOM     7   C7  UNL     1       2.964  -0.260  -3.495  1.00  0.00     0.170 C   
BRANCH   7   8
ATOM     8   C6  UNL     1       3.817  -0.892  -2.383  1.00  0.00     0.164 C   
BRANCH   8   9
ATOM     9   C5  UNL     1       3.038  -1.820  -1.463  1.00  0.00    -0.018 A   
ATOM     10  C2  UNL     1       1.493  -3.438   0.248  1.00  0.00     0.075 A   
ATOM     11  C3  UNL     1       2.103  -2.284   0.744  1.00  0.00     0.034 A   
ATOM     12  C23 UNL     1       1.662  -3.787  -1.097  1.00  0.00     0.034 A   
ATOM     13  C4  UNL     1       2.867  -1.481  -0.110  1.00  0.00     0.009 A   
ATOM     14  C22 UNL     1       2.440  -2.994  -1.945  1.00  0.00     0.009 A   
BRANCH  10  15
ATOM     15  O1  UNL     1       0.675  -4.261   0.970  1.00  0.00    -0.349 OA  
ATOM     16  C1  UNL     1       0.918  -4.301   2.382  1.00  0.00     0.203 C   
ENDBRANCH  10  15
ENDBRANCH   8   9
BRANCH   8  17
ATOM     17  O2  UNL     1       4.886  -1.624  -2.993  1.00  0.00    -0.387 OA  
ATOM     18  H7  UNL     1       5.234  -2.241  -2.329  1.00  0.00     0.211 HD  
ENDBRANCH   8  17
ENDBRANCH   7   8
ENDBRANCH   1   7
BRANCH   3  19
ATOM     19  C10 UNL     1      -1.778   0.291  -1.996  1.00  0.00     0.117 C   
BRANCH  19  20
ATOM     20  N2  UNL     1      -1.940   0.384  -0.504  1.00  0.00     0.249 N   
ATOM     21  H12 UNL     1      -2.917   0.518  -0.224  1.00  0.00     0.199 HD  
ATOM     22  H13 UNL     1      -1.430   1.230  -0.206  1.00  0.00     0.199 HD  
BRANCH  20  23
ATOM     23  C11 UNL     1      -1.376  -0.767   0.262  1.00  0.00     0.164 C   
BRANCH  23  24
ATOM     24  C12 UNL     1      -1.438  -0.492   1.738  1.00  0.00    -0.002 A   
ATOM     25  C13 UNL     1      -2.499  -1.001   2.522  1.00  0.00     0.012 A   
ATOM     26  C17 UNL     1      -0.465   0.332   2.334  1.00  0.00     0.045 A   
ATOM     27  C14 UNL     1      -2.595  -0.693   3.886  1.00  0.00     0.037 A   
ATOM     28  C16 UNL     1      -0.595   0.618   3.677  1.00  0.00     0.109 A   
ATOM     29  C15 UNL     1      -1.630   0.123   4.431  1.00  0.00     0.108 A   
ATOM     30  O3  UNL     1       0.243   1.405   4.402  1.00  0.00    -0.316 OA  
ATOM     31  O4  UNL     1      -1.575   0.536   5.724  1.00  0.00    -0.316 OA  
ATOM     32  C18 UNL     1      -0.403   1.377   5.697  1.00  0.00     0.337 C   
ENDBRANCH  23  24
ENDBRANCH  20  23
ENDBRANCH  19  20
BRANCH  19  33
ATOM     33  C19 UNL     1      -2.714   1.296  -2.709  1.00  0.00     0.037 C   
ATOM     34  C20 UNL     1      -4.192   0.897  -2.570  1.00  0.00     0.014 C   
ATOM     35  C21 UNL     1      -2.526   2.751  -2.261  1.00  0.00     0.014 C   
ENDBRANCH  19  33
ENDBRANCH   3  19
TORSDOF 10
