REMARK SMILES CC(C)C[C@H]([NH2+]Cc1ccc2c(c1)OCO2)c1cn(-c2cccc(CO)c2)nn1
REMARK SMILES IDX 17 1 18 2 19 3 28 4 29 5 5 6 4 7 2 8 1 9 3 10 6 11 7 14 8 15
REMARK SMILES IDX 9 16 13 17 10 18 12 19 11 20 14 21 16 22 15 23 20 24 21 25
REMARK SMILES IDX 27 26 22 27 24 28 23 29 25 30 26 31
REMARK H PARENT 6 12 6 13 26 32
ROOT
ATOM     1   C14 UNL     1      -1.795   0.502  -0.393  1.00  0.00     0.127 A   
ATOM     2   C15 UNL     1      -1.004  -0.261   0.436  1.00  0.00     0.135 A   
ATOM     3   N2  UNL     1      -1.262  -1.569   0.072  1.00  0.00    -0.181 N   
ATOM     4   N3  UNL     1      -2.226  -1.572  -0.887  1.00  0.00    -0.071 NA  
ATOM     5   N4  UNL     1      -2.542  -0.322  -1.185  1.00  0.00    -0.131 NA  
ENDROOT
BRANCH   1   6
ATOM     6   C5  UNL     1      -1.861   1.976  -0.609  1.00  0.00     0.114 C   
BRANCH   6   7
ATOM     7   C4  UNL     1      -3.174   2.592  -0.088  1.00  0.00     0.064 C   
BRANCH   7   8
ATOM     8   C2  UNL     1      -3.405   2.447   1.432  1.00  0.00    -0.012 C   
ATOM     9   C1  UNL     1      -2.304   3.114   2.256  1.00  0.00     0.007 C   
ATOM     10  C3  UNL     1      -4.764   3.045   1.806  1.00  0.00     0.007 C   
ENDBRANCH   7   8
ENDBRANCH   6   7
BRANCH   6  11
ATOM     11  N1  UNL     1      -1.791   2.261  -2.102  1.00  0.00     0.249 N   
ATOM     12  H11 UNL     1      -2.370   3.073  -2.339  1.00  0.00     0.199 HD  
ATOM     13  H12 UNL     1      -2.235   1.453  -2.566  1.00  0.00     0.199 HD  
BRANCH  11  14
ATOM     14  C6  UNL     1      -0.429   2.453  -2.686  1.00  0.00     0.164 C   
BRANCH  14  15
ATOM     15  C7  UNL     1       0.481   1.269  -2.521  1.00  0.00    -0.002 A   
ATOM     16  C8  UNL     1       0.283   0.101  -3.297  1.00  0.00     0.012 A   
ATOM     17  C12 UNL     1       1.493   1.286  -1.546  1.00  0.00     0.045 A   
ATOM     18  C9  UNL     1       1.060  -1.043  -3.085  1.00  0.00     0.037 A   
ATOM     19  C11 UNL     1       2.232   0.137  -1.355  1.00  0.00     0.109 A   
ATOM     20  C10 UNL     1       2.020  -0.996  -2.100  1.00  0.00     0.108 A   
ATOM     21  O1  UNL     1       3.206  -0.029  -0.422  1.00  0.00    -0.316 OA  
ATOM     22  O2  UNL     1       2.840  -2.015  -1.739  1.00  0.00    -0.316 OA  
ATOM     23  C13 UNL     1       3.590  -1.401  -0.669  1.00  0.00     0.337 C   
ENDBRANCH  14  15
ENDBRANCH  11  14
ENDBRANCH   6  11
ENDBRANCH   1   6
BRANCH   3  24
ATOM     24  C16 UNL     1      -0.645  -2.760   0.527  1.00  0.00     0.058 A   
ATOM     25  C17 UNL     1      -1.059  -3.994   0.008  1.00  0.00     0.026 A   
ATOM     26  C22 UNL     1       0.387  -2.720   1.476  1.00  0.00     0.032 A   
ATOM     27  C18 UNL     1      -0.445  -5.171   0.433  1.00  0.00     0.002 A   
ATOM     28  C20 UNL     1       1.024  -3.901   1.894  1.00  0.00    -0.021 A   
ATOM     29  C19 UNL     1       0.586  -5.126   1.371  1.00  0.00     0.006 A   
BRANCH  28  30
ATOM     30  C21 UNL     1       2.119  -3.885   2.930  1.00  0.00     0.191 C   
BRANCH  30  31
ATOM     31  O3  UNL     1       2.811  -2.640   2.920  1.00  0.00    -0.392 OA  
ATOM     32  H26 UNL     1       3.475  -2.699   3.629  1.00  0.00     0.211 HD  
ENDBRANCH  30  31
ENDBRANCH  28  30
ENDBRANCH   3  24
TORSDOF 9
