REMARK SMILES Nc1ccc(CCCn2cc([C@@H]([NH2+]Cc3ccc4c(c3)OCO4)C3CCCCC3)nn2)cc1
REMARK SMILES IDX 8 1 7 2 6 3 5 4 2 5 3 6 33 7 4 8 32 9 1 10 9 13 10 14 31 15
REMARK SMILES IDX 11 16 30 17 12 19 13 20 14 23 15 24 16 25 20 26 17 27 19 28
REMARK SMILES IDX 18 29 21 30 23 31 22 32 24 33 25 34 29 35 26 36 28 37 27 38
REMARK H PARENT 1 11 1 12 10 18 13 21 13 22
ROOT
ATOM     1   C7  UNL     1       2.318   1.542   4.381  1.00  0.00     0.134 C   
ENDROOT
BRANCH   1   2
ATOM     2   C6  UNL     1       2.736   2.964   3.985  1.00  0.00     0.026 C   
BRANCH   2   3
ATOM     3   C5  UNL     1       1.570   3.943   3.771  1.00  0.00     0.037 C   
BRANCH   3   4
ATOM     4   C4  UNL     1       0.697   3.632   2.581  1.00  0.00    -0.048 A   
ATOM     5   C1  UNL     1      -0.906   2.909   0.380  1.00  0.00     0.023 A   
ATOM     6   C2  UNL     1      -1.454   2.974   1.661  1.00  0.00     0.023 A   
ATOM     7   C26 UNL     1       0.450   3.191   0.206  1.00  0.00     0.023 A   
ATOM     8   C3  UNL     1      -0.667   3.361   2.750  1.00  0.00     0.005 A   
ATOM     9   C25 UNL     1       1.240   3.574   1.292  1.00  0.00     0.005 A   
BRANCH   5  10
ATOM     10  N1  UNL     1      -1.639   2.313  -0.674  1.00  0.00    -0.358 N   
ATOM     11  H1  UNL     1      -1.342   2.720  -1.571  1.00  0.00     0.143 HD  
ATOM     12  H2  UNL     1      -2.636   2.523  -0.566  1.00  0.00     0.143 HD  
ENDBRANCH   5  10
ENDBRANCH   3   4
ENDBRANCH   2   3
ENDBRANCH   1   2
BRANCH   1  13
ATOM     13  N2  UNL     1       1.776   0.744   3.302  1.00  0.00    -0.212 N   
ATOM     14  C8  UNL     1       0.512   0.236   3.179  1.00  0.00     0.045 A   
ATOM     15  N5  UNL     1       2.532   0.419   2.235  1.00  0.00    -0.076 NA  
ATOM     16  C9  UNL     1       0.503  -0.331   1.924  1.00  0.00     0.127 A   
ATOM     17  N4  UNL     1       1.756  -0.217   1.373  1.00  0.00    -0.132 NA  
ATOM     18  H11 UNL     1      -0.246   0.379   3.936  1.00  0.00     0.083 HD  
BRANCH  16  19
ATOM     19  C10 UNL     1      -0.607  -0.926   1.110  1.00  0.00     0.117 C   
BRANCH  19  20
ATOM     20  N3  UNL     1      -0.417  -0.452  -0.310  1.00  0.00     0.249 N   
ATOM     21  H13 UNL     1      -0.572   0.575  -0.293  1.00  0.00     0.199 HD  
ATOM     22  H14 UNL     1       0.583  -0.568  -0.535  1.00  0.00     0.199 HD  
BRANCH  20  23
ATOM     23  C11 UNL     1      -1.265  -0.993  -1.394  1.00  0.00     0.164 C   
BRANCH  23  24
ATOM     24  C12 UNL     1      -1.032  -0.372  -2.752  1.00  0.00    -0.002 A   
ATOM     25  C13 UNL     1      -1.888  -0.759  -3.817  1.00  0.00     0.012 A   
ATOM     26  C17 UNL     1       0.007   0.539  -3.018  1.00  0.00     0.045 A   
ATOM     27  C14 UNL     1      -1.720  -0.253  -5.113  1.00  0.00     0.037 A   
ATOM     28  C16 UNL     1       0.140   1.026  -4.304  1.00  0.00     0.109 A   
ATOM     29  C15 UNL     1      -0.693   0.637  -5.325  1.00  0.00     0.108 A   
ATOM     30  O1  UNL     1       1.078   1.921  -4.709  1.00  0.00    -0.316 OA  
ATOM     31  O2  UNL     1      -0.374   1.221  -6.508  1.00  0.00    -0.316 OA  
ATOM     32  C18 UNL     1       0.775   2.010  -6.123  1.00  0.00     0.337 C   
ENDBRANCH  23  24
ENDBRANCH  20  23
ENDBRANCH  19  20
BRANCH  19  33
ATOM     33  C19 UNL     1      -0.684  -2.474   1.201  1.00  0.00     0.043 C   
ATOM     34  C20 UNL     1       0.578  -3.218   0.733  1.00  0.00     0.010 C   
ATOM     35  C24 UNL     1      -1.087  -2.953   2.617  1.00  0.00     0.010 C   
ATOM     36  C21 UNL     1       0.333  -4.727   0.625  1.00  0.00     0.001 C   
ATOM     37  C23 UNL     1      -0.733  -4.418   2.897  1.00  0.00     0.001 C   
ATOM     38  C22 UNL     1      -0.697  -5.254   1.625  1.00  0.00     0.000 C   
ENDBRANCH  19  33
ENDBRANCH  16  19
ENDBRANCH   1  13
TORSDOF 10
