REMARK SMILES Cc1ccc([C@H](CO)n2cc([C@@H]([NH2+]Cc3ccc4c(c3)OCO4)C3CCCC3)nn2)c(F)c1
REMARK SMILES IDX 9 1 10 2 11 3 29 4 30 5 6 7 5 8 2 9 3 10 33 11 4 12 31 13
REMARK SMILES IDX 1 14 32 15 7 16 8 17 12 19 13 20 14 23 15 24 16 25 20 26
REMARK SMILES IDX 17 27 19 28 18 29 21 30 23 31 22 32 24 33 25 34 28 35 26 36
REMARK SMILES IDX 27 37
REMARK H PARENT 10 6 8 18 13 21 13 22
ROOT
ATOM     1   N1  UNL     1      -0.667  -1.775   0.719  1.00  0.00    -0.202 N   
ATOM     2   C8  UNL     1      -0.718  -1.085  -0.462  1.00  0.00     0.046 A   
ATOM     3   C9  UNL     1       0.594  -0.754  -0.714  1.00  0.00     0.127 A   
ATOM     4   N3  UNL     1       1.380  -1.219   0.309  1.00  0.00    -0.132 NA  
ATOM     5   N4  UNL     1       0.600  -1.838   1.181  1.00  0.00    -0.075 NA  
ATOM     6   H10 UNL     1      -1.647  -0.903  -0.984  1.00  0.00     0.083 HD  
ENDROOT
BRANCH   1   7
ATOM     7   C6  UNL     1      -1.787  -2.348   1.470  1.00  0.00     0.158 C   
BRANCH   7   8
ATOM     8   C5  UNL     1      -1.944  -1.620   2.793  1.00  0.00     0.013 A   
ATOM     9   C2  UNL     1      -2.284  -0.155   5.191  1.00  0.00    -0.048 A   
ATOM     10  C3  UNL     1      -1.640  -1.398   5.197  1.00  0.00     0.004 A   
ATOM     11  C25 UNL     1      -2.729   0.369   3.975  1.00  0.00     0.043 A   
ATOM     12  C4  UNL     1      -1.472  -2.125   4.013  1.00  0.00     0.009 A   
ATOM     13  C24 UNL     1      -2.557  -0.359   2.800  1.00  0.00     0.128 A   
ATOM     14  C1  UNL     1      -2.435   0.629   6.461  1.00  0.00     0.044 C   
ATOM     15  F1  UNL     1      -2.977   0.177   1.644  1.00  0.00    -0.207 F   
ENDBRANCH   7   8
BRANCH   7  16
ATOM     16  C7  UNL     1      -1.658  -3.878   1.556  1.00  0.00     0.186 C   
BRANCH  16  17
ATOM     17  O1  UNL     1      -1.882  -4.463   0.270  1.00  0.00    -0.394 OA  
ATOM     18  H9  UNL     1      -1.800  -5.429   0.374  1.00  0.00     0.210 HD  
ENDBRANCH  16  17
ENDBRANCH   7  16
ENDBRANCH   1   7
BRANCH   3  19
ATOM     19  C10 UNL     1       1.203   0.054  -1.810  1.00  0.00     0.117 C   
BRANCH  19  20
ATOM     20  N2  UNL     1       2.330   0.912  -1.272  1.00  0.00     0.249 N   
ATOM     21  H12 UNL     1       2.976   0.271  -0.790  1.00  0.00     0.199 HD  
ATOM     22  H13 UNL     1       2.844   1.342  -2.047  1.00  0.00     0.199 HD  
BRANCH  20  23
ATOM     23  C11 UNL     1       1.948   1.969  -0.287  1.00  0.00     0.164 C   
BRANCH  23  24
ATOM     24  C12 UNL     1       1.030   3.010  -0.862  1.00  0.00    -0.002 A   
ATOM     25  C13 UNL     1      -0.336   3.038  -0.489  1.00  0.00     0.012 A   
ATOM     26  C17 UNL     1       1.511   3.942  -1.798  1.00  0.00     0.045 A   
ATOM     27  C14 UNL     1      -1.215   3.974  -1.046  1.00  0.00     0.037 A   
ATOM     28  C16 UNL     1       0.617   4.851  -2.327  1.00  0.00     0.109 A   
ATOM     29  C15 UNL     1      -0.707   4.865  -1.964  1.00  0.00     0.108 A   
ATOM     30  O2  UNL     1       0.915   5.808  -3.244  1.00  0.00    -0.316 OA  
ATOM     31  O3  UNL     1      -1.410   5.834  -2.606  1.00  0.00    -0.316 OA  
ATOM     32  C18 UNL     1      -0.373   6.447  -3.401  1.00  0.00     0.337 C   
ENDBRANCH  23  24
ENDBRANCH  20  23
ENDBRANCH  19  20
BRANCH  19  33
ATOM     33  C19 UNL     1       1.761  -0.772  -2.986  1.00  0.00     0.043 C   
ATOM     34  C20 UNL     1       0.734  -1.660  -3.694  1.00  0.00     0.010 C   
ATOM     35  C23 UNL     1       2.921  -1.731  -2.671  1.00  0.00     0.010 C   
ATOM     36  C21 UNL     1       1.610  -2.551  -4.560  1.00  0.00     0.001 C   
ATOM     37  C22 UNL     1       2.786  -2.896  -3.656  1.00  0.00     0.001 C   
ENDBRANCH  19  33
ENDBRANCH   3  19
TORSDOF 9
