REMARK SMILES Cc1ccc([C@@H](CO)n2cc([C@@H]([NH2+]Cc3ccc4c(c3)OCO4)C3CCCC3)nn2)c(F)c1
REMARK SMILES IDX 9 1 10 2 11 3 29 4 30 5 6 7 5 8 2 9 3 10 33 11 4 12 31 13
REMARK SMILES IDX 1 14 32 15 7 16 8 17 12 19 13 20 14 23 15 24 16 25 20 26
REMARK SMILES IDX 17 27 19 28 18 29 21 30 23 31 22 32 24 33 25 34 28 35 26 36
REMARK SMILES IDX 27 37
REMARK H PARENT 10 6 8 18 13 21 13 22
ROOT
ATOM     1   N1  UNL     1       2.149  -1.680  -1.571  1.00  0.00    -0.202 N   
ATOM     2   C8  UNL     1       0.866  -1.912  -1.150  1.00  0.00     0.046 A   
ATOM     3   C9  UNL     1       0.307  -0.658  -1.067  1.00  0.00     0.127 A   
ATOM     4   N3  UNL     1       1.238   0.276  -1.443  1.00  0.00    -0.132 NA  
ATOM     5   N4  UNL     1       2.357  -0.358  -1.749  1.00  0.00    -0.075 NA  
ATOM     6   H10 UNL     1       0.495  -2.910  -0.957  1.00  0.00     0.083 HD  
ENDROOT
BRANCH   1   7
ATOM     7   C6  UNL     1       3.228  -2.639  -1.821  1.00  0.00     0.158 C   
BRANCH   7   8
ATOM     8   C5  UNL     1       3.366  -3.616  -0.663  1.00  0.00     0.013 A   
ATOM     9   C2  UNL     1       3.658  -5.317   1.586  1.00  0.00    -0.048 A   
ATOM     10  C3  UNL     1       3.157  -5.809   0.376  1.00  0.00     0.004 A   
ATOM     11  C25 UNL     1       4.029  -3.973   1.663  1.00  0.00     0.043 A   
ATOM     12  C4  UNL     1       3.007  -4.969  -0.735  1.00  0.00     0.009 A   
ATOM     13  C24 UNL     1       3.875  -3.144   0.555  1.00  0.00     0.128 A   
ATOM     14  C1  UNL     1       3.855  -6.231   2.759  1.00  0.00     0.044 C   
ATOM     15  F1  UNL     1       4.221  -1.853   0.670  1.00  0.00    -0.207 F   
ENDBRANCH   7   8
BRANCH   7  16
ATOM     16  C7  UNL     1       3.104  -3.230  -3.240  1.00  0.00     0.186 C   
BRANCH  16  17
ATOM     17  O1  UNL     1       1.863  -3.905  -3.453  1.00  0.00    -0.394 OA  
ATOM     18  H9  UNL     1       1.874  -4.237  -4.370  1.00  0.00     0.210 HD  
ENDBRANCH  16  17
ENDBRANCH   7  16
ENDBRANCH   1   7
BRANCH   3  19
ATOM     19  C10 UNL     1      -1.044  -0.209  -0.618  1.00  0.00     0.117 C   
BRANCH  19  20
ATOM     20  N2  UNL     1      -0.943   1.165  -0.012  1.00  0.00     0.249 N   
ATOM     21  H12 UNL     1      -0.321   1.710  -0.628  1.00  0.00     0.199 HD  
ATOM     22  H13 UNL     1      -1.839   1.657  -0.002  1.00  0.00     0.199 HD  
BRANCH  20  23
ATOM     23  C11 UNL     1      -0.344   1.208   1.351  1.00  0.00     0.164 C   
BRANCH  23  24
ATOM     24  C12 UNL     1      -0.181   2.630   1.807  1.00  0.00    -0.002 A   
ATOM     25  C13 UNL     1       0.985   3.355   1.461  1.00  0.00     0.012 A   
ATOM     26  C17 UNL     1      -1.204   3.267   2.528  1.00  0.00     0.045 A   
ATOM     27  C14 UNL     1       1.139   4.692   1.841  1.00  0.00     0.037 A   
ATOM     28  C16 UNL     1      -1.020   4.586   2.888  1.00  0.00     0.109 A   
ATOM     29  C15 UNL     1       0.117   5.279   2.555  1.00  0.00     0.108 A   
ATOM     30  O2  UNL     1      -1.905   5.344   3.588  1.00  0.00    -0.316 OA  
ATOM     31  O3  UNL     1       0.094   6.560   3.005  1.00  0.00    -0.316 OA  
ATOM     32  C18 UNL     1      -1.182   6.593   3.680  1.00  0.00     0.337 C   
ENDBRANCH  23  24
ENDBRANCH  20  23
ENDBRANCH  19  20
BRANCH  19  33
ATOM     33  C19 UNL     1      -2.063  -0.224  -1.774  1.00  0.00     0.043 C   
ATOM     34  C20 UNL     1      -3.522  -0.026  -1.341  1.00  0.00     0.010 C   
ATOM     35  C23 UNL     1      -1.880   0.841  -2.858  1.00  0.00     0.010 C   
ATOM     36  C21 UNL     1      -4.254   0.483  -2.584  1.00  0.00     0.001 C   
ATOM     37  C22 UNL     1      -3.183   0.751  -3.638  1.00  0.00     0.001 C   
ENDBRANCH  19  33
ENDBRANCH   3  19
TORSDOF 9
