REMARK SMILES Cc1cnc2c(c1)[C@H](n1cc([C@@H]([NH2+]Cc3ccc4c(c3)OCO4)C(C)C)nn1)CCO2
REMARK SMILES IDX 12 1 11 2 9 3 10 4 28 5 27 6 8 8 2 9 3 10 7 11 4 12 6 13
REMARK SMILES IDX 5 14 31 15 29 16 30 17 1 18 13 19 14 22 15 23 16 24 20 25
REMARK SMILES IDX 17 26 19 27 18 28 21 29 23 30 22 31 24 32 25 33 26 34
REMARK H PARENT 10 7 13 20 13 21
ROOT
ATOM     1   C10 UNL     1       0.510   1.178   0.702  1.00  0.00     0.117 C   
ENDROOT
BRANCH   1   2
ATOM     2   C9  UNL     1      -0.691   1.052  -0.181  1.00  0.00     0.127 A   
ATOM     3   N2  UNL     1      -2.645   0.924  -1.118  1.00  0.00    -0.204 N   
ATOM     4   C8  UNL     1      -2.038   1.124   0.095  1.00  0.00     0.046 A   
ATOM     5   N5  UNL     1      -1.719   0.701  -2.073  1.00  0.00    -0.075 NA  
ATOM     6   N4  UNL     1      -0.523   0.789  -1.516  1.00  0.00    -0.132 NA  
ATOM     7   H7  UNL     1      -2.594   1.308   1.004  1.00  0.00     0.083 HD  
BRANCH   3   8
ATOM     8   C7  UNL     1      -4.065   0.959  -1.482  1.00  0.00     0.136 C   
ATOM     9   C2  UNL     1      -5.893  -1.129   1.126  1.00  0.00    -0.032 A   
ATOM     10  C3  UNL     1      -6.516  -0.091   1.804  1.00  0.00     0.117 A   
ATOM     11  C6  UNL     1      -5.080  -0.790   0.044  1.00  0.00     0.015 A   
ATOM     12  N1  UNL     1      -6.395   1.210   1.464  1.00  0.00    -0.232 NA  
ATOM     13  C5  UNL     1      -4.943   0.554  -0.334  1.00  0.00     0.025 A   
ATOM     14  C4  UNL     1      -5.630   1.513   0.400  1.00  0.00     0.172 A   
ATOM     15  O3  UNL     1      -5.616   2.845   0.106  1.00  0.00    -0.329 OA  
ATOM     16  C22 UNL     1      -4.476   2.334  -2.005  1.00  0.00     0.059 C   
ATOM     17  C23 UNL     1      -4.649   3.290  -0.839  1.00  0.00     0.172 C   
ATOM     18  C1  UNL     1      -6.053  -2.551   1.562  1.00  0.00     0.046 C   
ENDBRANCH   3   8
ENDBRANCH   1   2
BRANCH   1  19
ATOM     19  N3  UNL     1       1.669   0.415   0.106  1.00  0.00     0.249 N   
ATOM     20  H9  UNL     1       1.677   0.624  -0.903  1.00  0.00     0.199 HD  
ATOM     21  H10 UNL     1       2.567   0.743   0.476  1.00  0.00     0.199 HD  
BRANCH  19  22
ATOM     22  C11 UNL     1       1.596  -1.065   0.244  1.00  0.00     0.164 C   
BRANCH  22  23
ATOM     23  C12 UNL     1       2.739  -1.714  -0.485  1.00  0.00    -0.002 A   
ATOM     24  C13 UNL     1       2.598  -2.076  -1.846  1.00  0.00     0.012 A   
ATOM     25  C17 UNL     1       3.971  -1.911   0.160  1.00  0.00     0.045 A   
ATOM     26  C14 UNL     1       3.665  -2.638  -2.554  1.00  0.00     0.037 A   
ATOM     27  C16 UNL     1       5.004  -2.462  -0.569  1.00  0.00     0.109 A   
ATOM     28  C15 UNL     1       4.856  -2.816  -1.887  1.00  0.00     0.108 A   
ATOM     29  O1  UNL     1       6.255  -2.710  -0.101  1.00  0.00    -0.316 OA  
ATOM     30  O2  UNL     1       5.994  -3.336  -2.414  1.00  0.00    -0.316 OA  
ATOM     31  C18 UNL     1       6.878  -3.283  -1.274  1.00  0.00     0.337 C   
ENDBRANCH  22  23
ENDBRANCH  19  22
ENDBRANCH   1  19
BRANCH   1  32
ATOM     32  C19 UNL     1       0.968   2.640   0.947  1.00  0.00     0.037 C   
ATOM     33  C20 UNL     1       1.319   3.409  -0.332  1.00  0.00     0.014 C   
ATOM     34  C21 UNL     1      -0.064   3.431   1.759  1.00  0.00     0.014 C   
ENDBRANCH   1  32
TORSDOF 6
