REMARK SMILES Cc1cnc2c(c1)[C@@H](n1cc([C@@H]([NH2+]Cc3ccc4c(c3)OCO4)C(C)C)nn1)CCO2
REMARK SMILES IDX 12 1 11 2 9 3 10 4 28 5 27 6 8 8 2 9 3 10 7 11 4 12 6 13
REMARK SMILES IDX 5 14 31 15 29 16 30 17 1 18 13 19 14 22 15 23 16 24 20 25
REMARK SMILES IDX 17 26 19 27 18 28 21 29 23 30 22 31 24 32 25 33 26 34
REMARK H PARENT 10 7 13 20 13 21
ROOT
ATOM     1   C10 UNL     1      -1.485  -1.651  -2.472  1.00  0.00     0.117 C   
ENDROOT
BRANCH   1   2
ATOM     2   C9  UNL     1      -1.008  -0.732  -1.395  1.00  0.00     0.127 A   
ATOM     3   N2  UNL     1      -0.009   0.334   0.206  1.00  0.00    -0.204 N   
ATOM     4   C8  UNL     1       0.160  -0.709  -0.666  1.00  0.00     0.046 A   
ATOM     5   N5  UNL     1      -1.220   0.901   0.034  1.00  0.00    -0.075 NA  
ATOM     6   N4  UNL     1      -1.839   0.259  -0.942  1.00  0.00    -0.132 NA  
ATOM     7   H7  UNL     1       1.055  -1.316  -0.687  1.00  0.00     0.083 HD  
BRANCH   3   8
ATOM     8   C7  UNL     1       0.888   0.848   1.245  1.00  0.00     0.136 C   
ATOM     9   C2  UNL     1       4.218   1.407  -0.517  1.00  0.00    -0.032 A   
ATOM     10  C3  UNL     1       4.950   0.421   0.130  1.00  0.00     0.117 A   
ATOM     11  C6  UNL     1       2.884   1.561  -0.142  1.00  0.00     0.015 A   
ATOM     12  N1  UNL     1       4.440  -0.402   1.072  1.00  0.00    -0.232 NA  
ATOM     13  C5  UNL     1       2.329   0.725   0.837  1.00  0.00     0.025 A   
ATOM     14  C4  UNL     1       3.150  -0.236   1.416  1.00  0.00     0.172 A   
ATOM     15  O3  UNL     1       2.741  -1.079   2.409  1.00  0.00    -0.329 OA  
ATOM     16  C22 UNL     1       0.643   0.165   2.589  1.00  0.00     0.059 C   
ATOM     17  C23 UNL     1       1.336  -1.185   2.610  1.00  0.00     0.172 C   
ATOM     18  C1  UNL     1       4.860   2.311  -1.521  1.00  0.00     0.046 C   
ENDBRANCH   3   8
ENDBRANCH   1   2
BRANCH   1  19
ATOM     19  N3  UNL     1      -2.974  -1.892  -2.309  1.00  0.00     0.249 N   
ATOM     20  H9  UNL     1      -3.435  -1.925  -3.223  1.00  0.00     0.199 HD  
ATOM     21  H10 UNL     1      -3.346  -1.054  -1.833  1.00  0.00     0.199 HD  
BRANCH  19  22
ATOM     22  C11 UNL     1      -3.370  -3.097  -1.526  1.00  0.00     0.164 C   
BRANCH  22  23
ATOM     23  C12 UNL     1      -2.906  -3.088  -0.097  1.00  0.00    -0.002 A   
ATOM     24  C13 UNL     1      -1.865  -3.952   0.324  1.00  0.00     0.012 A   
ATOM     25  C17 UNL     1      -3.485  -2.205   0.831  1.00  0.00     0.045 A   
ATOM     26  C14 UNL     1      -1.400  -3.930   1.643  1.00  0.00     0.037 A   
ATOM     27  C16 UNL     1      -3.005  -2.210   2.124  1.00  0.00     0.109 A   
ATOM     28  C15 UNL     1      -1.989  -3.045   2.518  1.00  0.00     0.108 A   
ATOM     29  O1  UNL     1      -3.448  -1.419   3.136  1.00  0.00    -0.316 OA  
ATOM     30  O2  UNL     1      -1.658  -2.877   3.824  1.00  0.00    -0.316 OA  
ATOM     31  C18 UNL     1      -2.633  -1.892   4.231  1.00  0.00     0.337 C   
ENDBRANCH  22  23
ENDBRANCH  19  22
ENDBRANCH   1  19
BRANCH   1  32
ATOM     32  C19 UNL     1      -1.221  -1.128  -3.908  1.00  0.00     0.037 C   
ATOM     33  C20 UNL     1      -1.872   0.226  -4.216  1.00  0.00     0.014 C   
ATOM     34  C21 UNL     1       0.280  -1.061  -4.215  1.00  0.00     0.014 C   
ENDBRANCH   1  32
TORSDOF 6
