REMARK SMILES C[C@H](c1ccccn1)n1cc([C@@H]([NH2+]Cc2ccc3c(c2)OCO3)C(C)(C)C)nn1
REMARK SMILES IDX 12 1 11 2 9 3 10 4 29 5 28 6 2 8 1 9 3 10 4 11 8 12 5 13
REMARK SMILES IDX 7 14 6 15 13 16 14 19 15 20 16 21 20 22 17 23 19 24 18 25
REMARK SMILES IDX 21 26 23 27 22 28 24 29 25 30 26 31 27 32
REMARK H PARENT 10 7 13 17 13 18
ROOT
ATOM     1   C10 UNL     1       0.518  -0.401   1.513  1.00  0.00     0.120 C   
ENDROOT
BRANCH   1   2
ATOM     2   C9  UNL     1       1.149  -0.243   0.166  1.00  0.00     0.127 A   
ATOM     3   N2  UNL     1       1.700   0.335  -1.847  1.00  0.00    -0.203 N   
ATOM     4   C8  UNL     1       1.145   0.828  -0.696  1.00  0.00     0.046 A   
ATOM     5   N5  UNL     1       2.062  -0.956  -1.683  1.00  0.00    -0.075 NA  
ATOM     6   N4  UNL     1       1.728  -1.319  -0.454  1.00  0.00    -0.132 NA  
ATOM     7   H9  UNL     1       0.750   1.833  -0.632  1.00  0.00     0.083 HD  
BRANCH   3   8
ATOM     8   C2  UNL     1       1.829   0.981  -3.150  1.00  0.00     0.145 C   
ATOM     9   C1  UNL     1       2.533   2.335  -3.063  1.00  0.00     0.038 C   
BRANCH   8  10
ATOM     10  C3  UNL     1       0.453   1.090  -3.787  1.00  0.00     0.063 A   
ATOM     11  C4  UNL     1       0.142   0.333  -4.917  1.00  0.00     0.026 A   
ATOM     12  N1  UNL     1      -0.454   1.921  -3.201  1.00  0.00    -0.259 NA  
ATOM     13  C5  UNL     1      -1.133   0.441  -5.468  1.00  0.00     0.004 A   
ATOM     14  C7  UNL     1      -1.680   2.010  -3.765  1.00  0.00     0.111 A   
ATOM     15  C6  UNL     1      -2.062   1.296  -4.886  1.00  0.00     0.020 A   
ENDBRANCH   8  10
ENDBRANCH   3   8
ENDBRANCH   1   2
BRANCH   1  16
ATOM     16  N3  UNL     1      -0.235  -1.717   1.560  1.00  0.00     0.250 N   
ATOM     17  H11 UNL     1       0.449  -2.450   1.329  1.00  0.00     0.199 HD  
ATOM     18  H12 UNL     1      -0.585  -1.901   2.502  1.00  0.00     0.199 HD  
BRANCH  16  19
ATOM     19  C11 UNL     1      -1.366  -1.871   0.591  1.00  0.00     0.164 C   
BRANCH  19  20
ATOM     20  C12 UNL     1      -2.484  -0.890   0.819  1.00  0.00    -0.002 A   
ATOM     21  C13 UNL     1      -3.358  -1.044   1.923  1.00  0.00     0.012 A   
ATOM     22  C17 UNL     1      -2.649   0.205  -0.050  1.00  0.00     0.045 A   
ATOM     23  C14 UNL     1      -4.382  -0.120   2.162  1.00  0.00     0.037 A   
ATOM     24  C16 UNL     1      -3.666   1.100   0.216  1.00  0.00     0.109 A   
ATOM     25  C15 UNL     1      -4.509   0.941   1.291  1.00  0.00     0.108 A   
ATOM     26  O1  UNL     1      -3.956   2.212  -0.513  1.00  0.00    -0.316 OA  
ATOM     27  O2  UNL     1      -5.439   1.929   1.371  1.00  0.00    -0.316 OA  
ATOM     28  C18 UNL     1      -5.092   2.731   0.218  1.00  0.00     0.337 C   
ENDBRANCH  19  20
ENDBRANCH  16  19
ENDBRANCH   1  16
BRANCH   1  29
ATOM     29  C19 UNL     1       1.521  -0.296   2.715  1.00  0.00     0.010 C   
ATOM     30  C20 UNL     1       2.303   1.036   2.631  1.00  0.00     0.017 C   
ATOM     31  C21 UNL     1       0.747  -0.284   4.053  1.00  0.00     0.017 C   
ATOM     32  C22 UNL     1       2.538  -1.452   2.760  1.00  0.00     0.017 C   
ENDBRANCH   1  29
TORSDOF 7
