REMARK SMILES C[C@@H](c1ccccn1)n1cc([C@@H]([NH2+]Cc2ccc3c(c2)OCO3)C(C)(C)C)nn1
REMARK SMILES IDX 12 1 11 2 9 3 10 4 29 5 28 6 2 8 1 9 3 10 4 11 8 12 5 13
REMARK SMILES IDX 7 14 6 15 13 16 14 19 15 20 16 21 20 22 17 23 19 24 18 25
REMARK SMILES IDX 21 26 23 27 22 28 24 29 25 30 26 31 27 32
REMARK H PARENT 10 7 13 17 13 18
ROOT
ATOM     1   C10 UNL     1       0.694   1.213  -0.387  1.00  0.00     0.120 C   
ENDROOT
BRANCH   1   2
ATOM     2   C9  UNL     1       0.636  -0.240  -0.023  1.00  0.00     0.127 A   
ATOM     3   N2  UNL     1       0.953  -2.296   0.585  1.00  0.00    -0.203 N   
ATOM     4   C8  UNL     1       1.602  -1.097   0.449  1.00  0.00     0.046 A   
ATOM     5   N5  UNL     1      -0.318  -2.196   0.140  1.00  0.00    -0.075 NA  
ATOM     6   N4  UNL     1      -0.527  -0.941  -0.220  1.00  0.00    -0.132 NA  
ATOM     7   H9  UNL     1       2.641  -0.974   0.725  1.00  0.00     0.083 HD  
BRANCH   3   8
ATOM     8   C2  UNL     1       1.465  -3.572   1.076  1.00  0.00     0.145 C   
ATOM     9   C1  UNL     1       2.538  -4.141   0.146  1.00  0.00     0.038 C   
BRANCH   8  10
ATOM     10  C3  UNL     1       1.946  -3.415   2.506  1.00  0.00     0.063 A   
ATOM     11  C4  UNL     1       1.121  -3.787   3.568  1.00  0.00     0.026 A   
ATOM     12  N1  UNL     1       3.178  -2.875   2.705  1.00  0.00    -0.259 NA  
ATOM     13  C5  UNL     1       1.583  -3.623   4.871  1.00  0.00     0.004 A   
ATOM     14  C7  UNL     1       3.603  -2.738   3.982  1.00  0.00     0.111 A   
ATOM     15  C6  UNL     1       2.848  -3.093   5.086  1.00  0.00     0.020 A   
ENDBRANCH   8  10
ENDBRANCH   3   8
ENDBRANCH   1   2
BRANCH   1  16
ATOM     16  N3  UNL     1      -0.225   1.452  -1.563  1.00  0.00     0.250 N   
ATOM     17  H11 UNL     1      -1.101   0.948  -1.355  1.00  0.00     0.199 HD  
ATOM     18  H12 UNL     1      -0.482   2.436  -1.670  1.00  0.00     0.199 HD  
BRANCH  16  19
ATOM     19  C11 UNL     1       0.271   0.943  -2.873  1.00  0.00     0.164 C   
BRANCH  19  20
ATOM     20  C12 UNL     1      -0.754   1.177  -3.946  1.00  0.00    -0.002 A   
ATOM     21  C13 UNL     1      -0.694   2.337  -4.756  1.00  0.00     0.012 A   
ATOM     22  C17 UNL     1      -1.812   0.267  -4.115  1.00  0.00     0.045 A   
ATOM     23  C14 UNL     1      -1.669   2.583  -5.729  1.00  0.00     0.037 A   
ATOM     24  C16 UNL     1      -2.756   0.541  -5.083  1.00  0.00     0.109 A   
ATOM     25  C15 UNL     1      -2.687   1.666  -5.867  1.00  0.00     0.108 A   
ATOM     26  O1  UNL     1      -3.837  -0.229  -5.374  1.00  0.00    -0.316 OA  
ATOM     27  O2  UNL     1      -3.714   1.744  -6.752  1.00  0.00    -0.316 OA  
ATOM     28  C18 UNL     1      -4.432   0.528  -6.451  1.00  0.00     0.337 C   
ENDBRANCH  19  20
ENDBRANCH  16  19
ENDBRANCH   1  16
BRANCH   1  29
ATOM     29  C19 UNL     1       0.335   2.185   0.791  1.00  0.00     0.010 C   
ATOM     30  C20 UNL     1       0.565   3.654   0.364  1.00  0.00     0.017 C   
ATOM     31  C21 UNL     1       1.258   1.922   2.003  1.00  0.00     0.017 C   
ATOM     32  C22 UNL     1      -1.128   2.040   1.256  1.00  0.00     0.017 C   
ENDBRANCH   1  29
TORSDOF 7
