REMARK SMILES Fc1ccc(F)c(Cn2cc([C@@H]([NH2+]Cc3ccc4c(c3)OCO4)C3CCCC3)nn2)c1
REMARK SMILES IDX 9 1 10 2 11 3 29 4 30 5 8 7 7 8 2 9 3 10 31 11 4 12 5 13
REMARK SMILES IDX 1 14 6 15 12 16 13 17 14 20 15 21 16 22 20 23 17 24 19 25
REMARK SMILES IDX 18 26 21 27 23 28 22 29 24 30 25 31 28 32 26 33 27 34
REMARK H PARENT 10 6 13 18 13 19
ROOT
ATOM     1   N1  UNL     1      -0.014   1.072   3.243  1.00  0.00    -0.208 N   
ATOM     2   C7  UNL     1      -0.484   1.284   1.976  1.00  0.00     0.046 A   
ATOM     3   C8  UNL     1      -0.884   0.035   1.556  1.00  0.00     0.127 A   
ATOM     4   N3  UNL     1      -0.653  -0.873   2.559  1.00  0.00    -0.132 NA  
ATOM     5   N4  UNL     1      -0.114  -0.229   3.581  1.00  0.00    -0.076 NA  
ATOM     6   H5  UNL     1      -0.475   2.262   1.511  1.00  0.00     0.083 HD  
ENDROOT
BRANCH   1   7
ATOM     7   C6  UNL     1       0.550   2.038   4.169  1.00  0.00     0.172 C   
BRANCH   7   8
ATOM     8   C5  UNL     1       2.020   2.224   3.916  1.00  0.00     0.010 A   
ATOM     9   C1  UNL     1       4.330   1.607   4.282  1.00  0.00     0.123 A   
ATOM     10  C2  UNL     1       4.758   2.586   3.389  1.00  0.00     0.042 A   
ATOM     11  C23 UNL     1       2.976   1.420   4.552  1.00  0.00     0.047 A   
ATOM     12  C3  UNL     1       3.816   3.385   2.746  1.00  0.00     0.042 A   
ATOM     13  C4  UNL     1       2.461   3.196   3.009  1.00  0.00     0.128 A   
ATOM     14  F1  UNL     1       5.234   0.829   4.887  1.00  0.00    -0.207 F   
ATOM     15  F2  UNL     1       1.562   3.951   2.364  1.00  0.00    -0.207 F   
ENDBRANCH   7   8
ENDBRANCH   1   7
BRANCH   3  16
ATOM     16  C9  UNL     1      -1.430  -0.442   0.250  1.00  0.00     0.117 C   
BRANCH  16  17
ATOM     17  N2  UNL     1      -0.891  -1.829  -0.041  1.00  0.00     0.249 N   
ATOM     18  H7  UNL     1      -1.034  -2.375   0.821  1.00  0.00     0.199 HD  
ATOM     19  H8  UNL     1      -1.433  -2.284  -0.780  1.00  0.00     0.199 HD  
BRANCH  17  20
ATOM     20  C10 UNL     1       0.560  -1.914  -0.384  1.00  0.00     0.164 C   
BRANCH  20  21
ATOM     21  C11 UNL     1       0.872  -1.302  -1.722  1.00  0.00    -0.002 A   
ATOM     22  C12 UNL     1       0.483  -1.956  -2.916  1.00  0.00     0.012 A   
ATOM     23  C16 UNL     1       1.519  -0.055  -1.795  1.00  0.00     0.045 A   
ATOM     24  C13 UNL     1       0.728  -1.377  -4.165  1.00  0.00     0.037 A   
ATOM     25  C15 UNL     1       1.741   0.489  -3.043  1.00  0.00     0.109 A   
ATOM     26  C14 UNL     1       1.356  -0.152  -4.194  1.00  0.00     0.108 A   
ATOM     27  O1  UNL     1       2.336   1.686  -3.290  1.00  0.00    -0.316 OA  
ATOM     28  O2  UNL     1       1.665   0.556  -5.311  1.00  0.00    -0.316 OA  
ATOM     29  C17 UNL     1       2.307   1.715  -4.736  1.00  0.00     0.337 C   
ENDBRANCH  20  21
ENDBRANCH  17  20
ENDBRANCH  16  17
BRANCH  16  30
ATOM     30  C18 UNL     1      -2.970  -0.514   0.249  1.00  0.00     0.043 C   
ATOM     31  C19 UNL     1      -3.649   0.840   0.486  1.00  0.00     0.010 C   
ATOM     32  C22 UNL     1      -3.575  -0.983  -1.088  1.00  0.00     0.010 C   
ATOM     33  C20 UNL     1      -5.069   0.601   0.000  1.00  0.00     0.001 C   
ATOM     34  C21 UNL     1      -4.886  -0.218  -1.268  1.00  0.00     0.001 C   
ENDBRANCH  16  30
ENDBRANCH   3  16
TORSDOF 7
