REMARK SMILES c1cnc2c(c1)CCC[C@@H]2n1cc([C@@H]([NH2+]Cc2ccc3c(c2)OCO3)C2CCCCC2)nn1
REMARK SMILES IDX 14 1 13 2 11 3 12 4 33 5 32 6 10 8 1 9 2 10 6 11 3 12 5 13
REMARK SMILES IDX 4 14 7 15 8 16 9 17 15 18 16 21 17 22 18 23 22 24 19 25
REMARK SMILES IDX 21 26 20 27 23 28 25 29 24 30 26 31 27 32 31 33 28 34 30 35
REMARK SMILES IDX 29 36
REMARK H PARENT 12 7 15 19 15 20
ROOT
ATOM     1   C12 UNL     1      -0.276   0.139  -1.252  1.00  0.00     0.117 C   
ENDROOT
BRANCH   1   2
ATOM     2   C11 UNL     1      -1.410  -0.156  -0.320  1.00  0.00     0.127 A   
ATOM     3   N2  UNL     1      -2.782  -0.455   1.332  1.00  0.00    -0.203 N   
ATOM     4   C10 UNL     1      -1.629   0.204   0.989  1.00  0.00     0.046 A   
ATOM     5   N5  UNL     1      -3.251  -1.160   0.280  1.00  0.00    -0.075 NA  
ATOM     6   N4  UNL     1      -2.420  -0.987  -0.733  1.00  0.00    -0.132 NA  
ATOM     7   H11 UNL     1      -1.081   0.806   1.701  1.00  0.00     0.083 HD  
BRANCH   3   8
ATOM     8   C9  UNL     1      -3.483  -0.417   2.616  1.00  0.00     0.149 C   
ATOM     9   C1  UNL     1      -1.819  -3.223   5.380  1.00  0.00     0.020 A   
ATOM     10  C2  UNL     1      -1.056  -2.500   4.484  1.00  0.00     0.111 A   
ATOM     11  C5  UNL     1      -3.194  -3.038   5.367  1.00  0.00     0.007 A   
ATOM     12  N1  UNL     1      -1.571  -1.626   3.591  1.00  0.00    -0.259 NA  
ATOM     13  C4  UNL     1      -3.769  -2.131   4.469  1.00  0.00    -0.024 A   
ATOM     14  C3  UNL     1      -2.925  -1.462   3.571  1.00  0.00     0.066 A   
ATOM     15  C6  UNL     1      -5.262  -1.938   4.468  1.00  0.00     0.037 C   
ATOM     16  C7  UNL     1      -5.688  -0.628   3.811  1.00  0.00     0.007 C   
ATOM     17  C8  UNL     1      -5.012  -0.484   2.454  1.00  0.00     0.032 C   
ENDBRANCH   3   8
ENDBRANCH   1   2
BRANCH   1  18
ATOM     18  N3  UNL     1      -0.064  -1.097  -2.096  1.00  0.00     0.249 N   
ATOM     19  H13 UNL     1      -0.004  -1.883  -1.435  1.00  0.00     0.199 HD  
ATOM     20  H14 UNL     1      -0.944  -1.280  -2.598  1.00  0.00     0.199 HD  
BRANCH  18  21
ATOM     21  C13 UNL     1       1.095  -1.166  -3.017  1.00  0.00     0.164 C   
BRANCH  21  22
ATOM     22  C14 UNL     1       2.419  -1.069  -2.314  1.00  0.00    -0.002 A   
ATOM     23  C15 UNL     1       2.891  -2.147  -1.525  1.00  0.00     0.012 A   
ATOM     24  C19 UNL     1       3.188   0.103  -2.411  1.00  0.00     0.045 A   
ATOM     25  C16 UNL     1       4.108  -2.058  -0.840  1.00  0.00     0.037 A   
ATOM     26  C18 UNL     1       4.383   0.156  -1.725  1.00  0.00     0.109 A   
ATOM     27  C17 UNL     1       4.830  -0.892  -0.959  1.00  0.00     0.108 A   
ATOM     28  O1  UNL     1       5.239   1.212  -1.711  1.00  0.00    -0.316 OA  
ATOM     29  O2  UNL     1       6.024  -0.629  -0.367  1.00  0.00    -0.316 OA  
ATOM     30  C20 UNL     1       6.299   0.694  -0.875  1.00  0.00     0.337 C   
ENDBRANCH  21  22
ENDBRANCH  18  21
ENDBRANCH   1  18
BRANCH   1  31
ATOM     31  C21 UNL     1      -0.496   1.396  -2.134  1.00  0.00     0.043 C   
ATOM     32  C22 UNL     1      -0.588   2.676  -1.277  1.00  0.00     0.010 C   
ATOM     33  C26 UNL     1      -1.707   1.305  -3.083  1.00  0.00     0.010 C   
ATOM     34  C23 UNL     1      -0.728   3.928  -2.140  1.00  0.00     0.001 C   
ATOM     35  C25 UNL     1      -1.861   2.567  -3.933  1.00  0.00     0.001 C   
ATOM     36  C24 UNL     1      -1.927   3.826  -3.076  1.00  0.00     0.000 C   
ENDBRANCH   1  31
TORSDOF 6
