REMARK SMILES c1cnc2c(c1)CCC[C@H]2n1cc([C@@H]([NH2+]Cc2ccc3c(c2)OCO3)C2CCCCC2)nn1
REMARK SMILES IDX 14 1 13 2 11 3 12 4 33 5 32 6 10 8 1 9 2 10 6 11 3 12 5 13
REMARK SMILES IDX 4 14 7 15 8 16 9 17 15 18 16 21 17 22 18 23 22 24 19 25
REMARK SMILES IDX 21 26 20 27 23 28 25 29 24 30 26 31 27 32 31 33 28 34 30 35
REMARK SMILES IDX 29 36
REMARK H PARENT 12 7 15 19 15 20
ROOT
ATOM     1   C12 UNL     1      -0.797   1.048  -0.119  1.00  0.00     0.117 C   
ENDROOT
BRANCH   1   2
ATOM     2   C11 UNL     1       0.128  -0.101  -0.355  1.00  0.00     0.127 A   
ATOM     3   N2  UNL     1       1.133  -2.016  -0.523  1.00  0.00    -0.203 N   
ATOM     4   C10 UNL     1      -0.114  -1.453  -0.451  1.00  0.00     0.046 A   
ATOM     5   N5  UNL     1       2.083  -1.052  -0.508  1.00  0.00    -0.075 NA  
ATOM     6   N4  UNL     1       1.479   0.120  -0.407  1.00  0.00    -0.132 NA  
ATOM     7   H11 UNL     1      -1.019  -2.045  -0.433  1.00  0.00     0.083 HD  
BRANCH   3   8
ATOM     8   C9  UNL     1       1.537  -3.423  -0.601  1.00  0.00     0.149 C   
ATOM     9   C1  UNL     1      -1.467  -5.934   1.103  1.00  0.00     0.020 A   
ATOM     10  C2  UNL     1      -0.695  -5.059   1.843  1.00  0.00     0.111 A   
ATOM     11  C5  UNL     1      -1.254  -5.997  -0.268  1.00  0.00     0.007 A   
ATOM     12  N1  UNL     1       0.248  -4.253   1.307  1.00  0.00    -0.259 NA  
ATOM     13  C4  UNL     1      -0.280  -5.186  -0.863  1.00  0.00    -0.024 A   
ATOM     14  C3  UNL     1       0.463  -4.335  -0.035  1.00  0.00     0.066 A   
ATOM     15  C6  UNL     1      -0.020  -5.304  -2.341  1.00  0.00     0.037 C   
ATOM     16  C7  UNL     1       0.752  -4.113  -2.906  1.00  0.00     0.007 C   
ATOM     17  C8  UNL     1       1.962  -3.805  -2.029  1.00  0.00     0.032 C   
ENDBRANCH   3   8
ENDBRANCH   1   2
BRANCH   1  18
ATOM     18  N3  UNL     1      -0.217   1.912   0.977  1.00  0.00     0.249 N   
ATOM     19  H13 UNL     1       0.740   2.161   0.688  1.00  0.00     0.199 HD  
ATOM     20  H14 UNL     1      -0.728   2.791   1.086  1.00  0.00     0.199 HD  
BRANCH  18  21
ATOM     21  C13 UNL     1      -0.120   1.267   2.320  1.00  0.00     0.164 C   
BRANCH  21  22
ATOM     22  C14 UNL     1       0.375   2.255   3.337  1.00  0.00    -0.002 A   
ATOM     23  C15 UNL     1       1.765   2.459   3.514  1.00  0.00     0.012 A   
ATOM     24  C19 UNL     1      -0.538   3.022   4.081  1.00  0.00     0.045 A   
ATOM     25  C16 UNL     1       2.242   3.408   4.425  1.00  0.00     0.037 A   
ATOM     26  C18 UNL     1      -0.035   3.947   4.972  1.00  0.00     0.109 A   
ATOM     27  C17 UNL     1       1.315   4.135   5.141  1.00  0.00     0.108 A   
ATOM     28  O1  UNL     1      -0.777   4.762   5.767  1.00  0.00    -0.316 OA  
ATOM     29  O2  UNL     1       1.593   5.090   6.065  1.00  0.00    -0.316 OA  
ATOM     30  C20 UNL     1       0.264   5.481   6.469  1.00  0.00     0.337 C   
ENDBRANCH  21  22
ENDBRANCH  18  21
ENDBRANCH   1  18
BRANCH   1  31
ATOM     31  C21 UNL     1      -1.020   1.912  -1.396  1.00  0.00     0.043 C   
ATOM     32  C22 UNL     1      -1.569   1.050  -2.558  1.00  0.00     0.010 C   
ATOM     33  C26 UNL     1      -1.978   3.098  -1.142  1.00  0.00     0.010 C   
ATOM     34  C23 UNL     1      -1.851   1.871  -3.814  1.00  0.00     0.001 C   
ATOM     35  C25 UNL     1      -2.269   3.903  -2.406  1.00  0.00     0.001 C   
ATOM     36  C24 UNL     1      -2.800   3.025  -3.529  1.00  0.00     0.000 C   
ENDBRANCH   1  31
TORSDOF 6
