REMARK SMILES CC(C)c1ocnc1Cn1cc([C@@H]([NH2+]Cc2ccc3c(c2)OCO3)C2CCCC2)nn1
REMARK SMILES IDX 10 1 11 2 12 3 30 4 31 5 9 7 8 8 4 9 5 10 6 11 7 12 2 13
REMARK SMILES IDX 1 14 3 15 13 16 14 17 15 20 16 21 17 22 21 23 18 24 20 25
REMARK SMILES IDX 19 26 22 27 24 28 23 29 25 30 26 31 29 32 27 33 28 34
REMARK H PARENT 11 6 14 18 14 19
ROOT
ATOM     1   N2  UNL     1      -0.748   1.579  -1.585  1.00  0.00    -0.206 N   
ATOM     2   C8  UNL     1      -1.224   1.271  -0.339  1.00  0.00     0.046 A   
ATOM     3   C9  UNL     1      -0.272   0.426   0.183  1.00  0.00     0.127 A   
ATOM     4   N4  UNL     1       0.728   0.250  -0.740  1.00  0.00    -0.132 NA  
ATOM     5   N5  UNL     1       0.424   0.956  -1.818  1.00  0.00    -0.076 NA  
ATOM     6   H11 UNL     1      -2.162   1.665   0.030  1.00  0.00     0.083 HD  
ENDROOT
BRANCH   1   7
ATOM     7   C7  UNL     1      -1.327   2.471  -2.573  1.00  0.00     0.192 C   
BRANCH   7   8
ATOM     8   C6  UNL     1      -2.484   1.818  -3.228  1.00  0.00     0.089 A   
ATOM     9   C4  UNL     1      -2.538   1.090  -4.400  1.00  0.00     0.086 A   
ATOM     10  O1  UNL     1      -3.840   0.713  -4.595  1.00  0.00    -0.301 OA  
ATOM     11  C5  UNL     1      -4.502   1.234  -3.530  1.00  0.00     0.247 A   
ATOM     12  N1  UNL     1      -3.747   1.886  -2.672  1.00  0.00    -0.232 NA  
BRANCH   9  13
ATOM     13  C2  UNL     1      -1.537   0.667  -5.421  1.00  0.00     0.039 C   
ATOM     14  C1  UNL     1      -1.815   1.334  -6.768  1.00  0.00     0.015 C   
ATOM     15  C3  UNL     1      -1.503  -0.856  -5.562  1.00  0.00     0.015 C   
ENDBRANCH   9  13
ENDBRANCH   7   8
ENDBRANCH   1   7
BRANCH   3  16
ATOM     16  C10 UNL     1      -0.196  -0.287   1.496  1.00  0.00     0.117 C   
BRANCH  16  17
ATOM     17  N3  UNL     1       0.677  -1.505   1.364  1.00  0.00     0.249 N   
ATOM     18  H13 UNL     1       1.102  -1.786   2.251  1.00  0.00     0.199 HD  
ATOM     19  H14 UNL     1       1.461  -1.236   0.748  1.00  0.00     0.199 HD  
BRANCH  17  20
ATOM     20  C11 UNL     1       0.025  -2.686   0.733  1.00  0.00     0.164 C   
BRANCH  20  21
ATOM     21  C12 UNL     1       1.032  -3.775   0.498  1.00  0.00    -0.002 A   
ATOM     22  C13 UNL     1       1.363  -4.683   1.534  1.00  0.00     0.012 A   
ATOM     23  C17 UNL     1       1.704  -3.854  -0.735  1.00  0.00     0.045 A   
ATOM     24  C14 UNL     1       2.347  -5.659   1.345  1.00  0.00     0.037 A   
ATOM     25  C16 UNL     1       2.661  -4.834  -0.891  1.00  0.00     0.109 A   
ATOM     26  C15 UNL     1       2.977  -5.708   0.120  1.00  0.00     0.108 A   
ATOM     27  O2  UNL     1       3.402  -5.045  -2.011  1.00  0.00    -0.316 OA  
ATOM     28  O3  UNL     1       3.960  -6.576  -0.233  1.00  0.00    -0.316 OA  
ATOM     29  C18 UNL     1       4.193  -6.185  -1.605  1.00  0.00     0.337 C   
ENDBRANCH  20  21
ENDBRANCH  17  20
ENDBRANCH  16  17
BRANCH  16  30
ATOM     30  C19 UNL     1       0.316   0.640   2.615  1.00  0.00     0.043 C   
ATOM     31  C20 UNL     1       0.215   0.059   4.026  1.00  0.00     0.010 C   
ATOM     32  C23 UNL     1       1.783   1.079   2.523  1.00  0.00     0.010 C   
ATOM     33  C21 UNL     1       1.024   1.049   4.850  1.00  0.00     0.001 C   
ATOM     34  C22 UNL     1       2.196   1.437   3.954  1.00  0.00     0.001 C   
ENDBRANCH  16  30
ENDBRANCH   3  16
TORSDOF 8
