REMARK SMILES Cc1ccc([C@H](CO)n2cc([C@@H]([NH2+]Cc3ccc4c(c3)OCO4)C(C)(C)C)nn2)cc1
REMARK SMILES IDX 9 1 10 2 11 3 28 4 29 5 6 7 5 8 2 9 3 10 31 11 4 12 30 13
REMARK SMILES IDX 1 14 7 15 8 16 12 18 13 19 14 22 15 23 16 24 20 25 17 26
REMARK SMILES IDX 19 27 18 28 21 29 23 30 22 31 24 32 25 33 26 34 27 35
REMARK H PARENT 10 6 8 17 13 20 13 21
ROOT
ATOM     1   N1  UNL     1      -0.909   2.214  -0.484  1.00  0.00    -0.202 N   
ATOM     2   C8  UNL     1       0.213   1.441  -0.626  1.00  0.00     0.046 A   
ATOM     3   C9  UNL     1       0.020   0.400   0.252  1.00  0.00     0.127 A   
ATOM     4   N3  UNL     1      -1.155   0.601   0.934  1.00  0.00    -0.132 NA  
ATOM     5   N4  UNL     1      -1.705   1.718   0.489  1.00  0.00    -0.075 NA  
ATOM     6   H10 UNL     1       0.993   1.688  -1.333  1.00  0.00     0.083 HD  
ENDROOT
BRANCH   1   7
ATOM     7   C6  UNL     1      -1.310   3.400  -1.240  1.00  0.00     0.155 C   
BRANCH   7   8
ATOM     8   C5  UNL     1      -1.317   3.095  -2.735  1.00  0.00    -0.023 A   
ATOM     9   C2  UNL     1      -1.407   2.432  -5.487  1.00  0.00    -0.051 A   
ATOM     10  C3  UNL     1      -0.345   3.181  -4.968  1.00  0.00     0.004 A   
ATOM     11  C24 UNL     1      -2.418   2.001  -4.622  1.00  0.00     0.004 A   
ATOM     12  C4  UNL     1      -0.301   3.510  -3.609  1.00  0.00     0.006 A   
ATOM     13  C23 UNL     1      -2.375   2.329  -3.264  1.00  0.00     0.006 A   
ATOM     14  C1  UNL     1      -1.450   2.061  -6.940  1.00  0.00     0.044 C   
ENDBRANCH   7   8
BRANCH   7  15
ATOM     15  C7  UNL     1      -0.541   4.652  -0.772  1.00  0.00     0.185 C   
BRANCH  15  16
ATOM     16  O1  UNL     1       0.879   4.512  -0.857  1.00  0.00    -0.394 OA  
ATOM     17  H9  UNL     1       1.262   5.381  -0.630  1.00  0.00     0.210 HD  
ENDBRANCH  15  16
ENDBRANCH   7  15
ENDBRANCH   1   7
BRANCH   3  18
ATOM     18  C10 UNL     1       0.874  -0.787   0.576  1.00  0.00     0.120 C   
BRANCH  18  19
ATOM     19  N2  UNL     1       0.664  -1.155   2.027  1.00  0.00     0.250 N   
ATOM     20  H12 UNL     1       0.974  -2.106   2.240  1.00  0.00     0.199 HD  
ATOM     21  H13 UNL     1      -0.354  -1.137   2.190  1.00  0.00     0.199 HD  
BRANCH  19  22
ATOM     22  C11 UNL     1       1.280  -0.228   3.017  1.00  0.00     0.164 C   
BRANCH  22  23
ATOM     23  C12 UNL     1       0.967  -0.681   4.414  1.00  0.00    -0.002 A   
ATOM     24  C13 UNL     1      -0.231  -0.265   5.044  1.00  0.00     0.012 A   
ATOM     25  C17 UNL     1       1.826  -1.573   5.078  1.00  0.00     0.045 A   
ATOM     26  C14 UNL     1      -0.562  -0.714   6.327  1.00  0.00     0.037 A   
ATOM     27  C16 UNL     1       1.467  -2.000   6.340  1.00  0.00     0.109 A   
ATOM     28  C15 UNL     1       0.309  -1.582   6.949  1.00  0.00     0.108 A   
ATOM     29  O2  UNL     1       2.177  -2.865   7.110  1.00  0.00    -0.316 OA  
ATOM     30  O3  UNL     1       0.149  -2.122   8.185  1.00  0.00    -0.316 OA  
ATOM     31  C18 UNL     1       1.346  -2.920   8.294  1.00  0.00     0.337 C   
ENDBRANCH  22  23
ENDBRANCH  19  22
ENDBRANCH  18  19
BRANCH  18  32
ATOM     32  C19 UNL     1       0.615  -2.033  -0.344  1.00  0.00     0.010 C   
ATOM     33  C20 UNL     1      -0.817  -2.587  -0.202  1.00  0.00     0.017 C   
ATOM     34  C21 UNL     1       1.611  -3.169  -0.009  1.00  0.00     0.017 C   
ATOM     35  C22 UNL     1       0.846  -1.659  -1.827  1.00  0.00     0.017 C   
ENDBRANCH  18  32
ENDBRANCH   3  18
TORSDOF 9
