REMARK SMILES Cc1ccc([C@@H](CO)n2cc([C@@H]([NH2+]Cc3ccc4c(c3)OCO4)C(C)(C)C)nn2)cc1
REMARK SMILES IDX 9 1 10 2 11 3 28 4 29 5 6 7 5 8 2 9 3 10 31 11 4 12 30 13
REMARK SMILES IDX 1 14 7 15 8 16 12 18 13 19 14 22 15 23 16 24 20 25 17 26
REMARK SMILES IDX 19 27 18 28 21 29 23 30 22 31 24 32 25 33 26 34 27 35
REMARK H PARENT 10 6 8 17 13 20 13 21
ROOT
ATOM     1   N1  UNL     1      -2.201   0.962  -0.550  1.00  0.00    -0.202 N   
ATOM     2   C8  UNL     1      -1.585  -0.250  -0.385  1.00  0.00     0.046 A   
ATOM     3   C9  UNL     1      -0.776  -0.073   0.713  1.00  0.00     0.127 A   
ATOM     4   N3  UNL     1      -0.902   1.218   1.161  1.00  0.00    -0.132 NA  
ATOM     5   N4  UNL     1      -1.772   1.841   0.382  1.00  0.00    -0.075 NA  
ATOM     6   H10 UNL     1      -1.776  -1.085  -1.046  1.00  0.00     0.083 HD  
ENDROOT
BRANCH   1   7
ATOM     7   C6  UNL     1      -3.142   1.383  -1.587  1.00  0.00     0.155 C   
BRANCH   7   8
ATOM     8   C5  UNL     1      -2.503   1.239  -2.965  1.00  0.00    -0.023 A   
ATOM     9   C2  UNL     1      -1.226   1.041  -5.483  1.00  0.00    -0.051 A   
ATOM     10  C3  UNL     1      -0.972   2.130  -4.646  1.00  0.00     0.004 A   
ATOM     11  C24 UNL     1      -2.130   0.061  -5.063  1.00  0.00     0.004 A   
ATOM     12  C4  UNL     1      -1.597   2.224  -3.400  1.00  0.00     0.006 A   
ATOM     13  C23 UNL     1      -2.757   0.155  -3.816  1.00  0.00     0.006 A   
ATOM     14  C1  UNL     1      -0.590   0.962  -6.839  1.00  0.00     0.044 C   
ENDBRANCH   7   8
BRANCH   7  15
ATOM     15  C7  UNL     1      -4.537   0.756  -1.379  1.00  0.00     0.185 C   
BRANCH  15  16
ATOM     16  O1  UNL     1      -4.520  -0.672  -1.347  1.00  0.00    -0.394 OA  
ATOM     17  H9  UNL     1      -5.446  -0.965  -1.256  1.00  0.00     0.210 HD  
ENDBRANCH  15  16
ENDBRANCH   7  15
ENDBRANCH   1   7
BRANCH   3  18
ATOM     18  C10 UNL     1       0.211  -0.991   1.365  1.00  0.00     0.120 C   
BRANCH  18  19
ATOM     19  N2  UNL     1       1.425  -0.174   1.765  1.00  0.00     0.250 N   
ATOM     20  H12 UNL     1       1.991  -0.659   2.464  1.00  0.00     0.199 HD  
ATOM     21  H13 UNL     1       1.055   0.678   2.210  1.00  0.00     0.199 HD  
BRANCH  19  22
ATOM     22  C11 UNL     1       2.313   0.266   0.647  1.00  0.00     0.164 C   
BRANCH  22  23
ATOM     23  C12 UNL     1       3.133  -0.863   0.086  1.00  0.00    -0.002 A   
ATOM     24  C13 UNL     1       4.239  -1.372   0.810  1.00  0.00     0.012 A   
ATOM     25  C17 UNL     1       2.785  -1.445  -1.145  1.00  0.00     0.045 A   
ATOM     26  C14 UNL     1       4.985  -2.448   0.318  1.00  0.00     0.037 A   
ATOM     27  C16 UNL     1       3.542  -2.505  -1.600  1.00  0.00     0.109 A   
ATOM     28  C15 UNL     1       4.610  -2.993  -0.889  1.00  0.00     0.108 A   
ATOM     29  O2  UNL     1       3.337  -3.183  -2.760  1.00  0.00    -0.316 OA  
ATOM     30  O3  UNL     1       5.215  -4.037  -1.513  1.00  0.00    -0.316 OA  
ATOM     31  C18 UNL     1       4.425  -4.135  -2.717  1.00  0.00     0.337 C   
ENDBRANCH  22  23
ENDBRANCH  19  22
ENDBRANCH  18  19
BRANCH  18  32
ATOM     32  C19 UNL     1      -0.353  -1.774   2.602  1.00  0.00     0.010 C   
ATOM     33  C20 UNL     1      -0.716  -0.851   3.782  1.00  0.00     0.017 C   
ATOM     34  C21 UNL     1      -1.618  -2.567   2.200  1.00  0.00     0.017 C   
ATOM     35  C22 UNL     1       0.686  -2.808   3.097  1.00  0.00     0.017 C   
ENDBRANCH  18  32
ENDBRANCH   3  18
TORSDOF 9
