REMARK SMILES CC(C)(C)[C@H]([NH2+]Cc1ccc2c(c1)OCO2)c1cn([C@H](CO)c2cccnc2F)nn1
REMARK SMILES IDX 17 1 18 2 19 3 30 4 31 5 5 7 2 8 1 9 3 10 4 11 6 12 7 15
REMARK SMILES IDX 8 16 9 17 13 18 10 19 12 20 11 21 14 22 16 23 15 24 20 25
REMARK SMILES IDX 21 26 22 27 23 29 24 30 28 31 25 32 27 33 26 34 29 35
REMARK H PARENT 18 6 6 13 6 14 22 28
ROOT
ATOM     1   C14 UNL     1      -0.083  -1.502   0.302  1.00  0.00     0.127 A   
ATOM     2   C15 UNL     1       0.770  -1.329  -0.763  1.00  0.00     0.046 A   
ATOM     3   N2  UNL     1       0.347  -2.253  -1.681  1.00  0.00    -0.202 N   
ATOM     4   N4  UNL     1      -0.666  -2.992  -1.181  1.00  0.00    -0.075 NA  
ATOM     5   N5  UNL     1      -0.947  -2.531   0.025  1.00  0.00    -0.132 NA  
ATOM     6   H20 UNL     1       1.577  -0.637  -0.967  1.00  0.00     0.083 HD  
ENDROOT
BRANCH   1   7
ATOM     7   C5  UNL     1      -0.255  -0.711   1.561  1.00  0.00     0.120 C   
BRANCH   7   8
ATOM     8   C2  UNL     1       0.482  -1.311   2.808  1.00  0.00     0.010 C   
ATOM     9   C1  UNL     1       0.393  -0.334   4.004  1.00  0.00     0.017 C   
ATOM     10  C3  UNL     1      -0.095  -2.670   3.251  1.00  0.00     0.017 C   
ATOM     11  C4  UNL     1       1.984  -1.499   2.495  1.00  0.00     0.017 C   
ENDBRANCH   7   8
BRANCH   7  12
ATOM     12  N1  UNL     1      -1.740  -0.571   1.837  1.00  0.00     0.250 N   
ATOM     13  H11 UNL     1      -2.139  -1.514   1.728  1.00  0.00     0.199 HD  
ATOM     14  H12 UNL     1      -1.916  -0.277   2.799  1.00  0.00     0.199 HD  
BRANCH  12  15
ATOM     15  C6  UNL     1      -2.497   0.330   0.911  1.00  0.00     0.164 C   
BRANCH  15  16
ATOM     16  C7  UNL     1      -2.132   1.777   1.091  1.00  0.00    -0.002 A   
ATOM     17  C8  UNL     1      -1.377   2.453   0.102  1.00  0.00     0.012 A   
ATOM     18  C12 UNL     1      -2.510   2.461   2.260  1.00  0.00     0.045 A   
ATOM     19  C9  UNL     1      -0.986   3.784   0.282  1.00  0.00     0.037 A   
ATOM     20  C11 UNL     1      -2.106   3.772   2.406  1.00  0.00     0.109 A   
ATOM     21  C10 UNL     1      -1.360   4.414   1.449  1.00  0.00     0.108 A   
ATOM     22  O1  UNL     1      -2.381   4.566   3.473  1.00  0.00    -0.316 OA  
ATOM     23  O2  UNL     1      -1.061   5.691   1.800  1.00  0.00    -0.316 OA  
ATOM     24  C13 UNL     1      -1.734   5.795   3.072  1.00  0.00     0.337 C   
ENDBRANCH  15  16
ENDBRANCH  12  15
ENDBRANCH   7  12
ENDBRANCH   1   7
BRANCH   3  25
ATOM     25  C16 UNL     1       0.779  -2.443  -3.070  1.00  0.00     0.160 C   
BRANCH  25  26
ATOM     26  C17 UNL     1       2.011  -3.369  -3.099  1.00  0.00     0.186 C   
BRANCH  26  27
ATOM     27  O3  UNL     1       3.135  -2.784  -2.444  1.00  0.00    -0.394 OA  
ATOM     28  H24 UNL     1       3.850  -3.448  -2.450  1.00  0.00     0.210 HD  
ENDBRANCH  26  27
ENDBRANCH  25  26
BRANCH  25  29
ATOM     29  C18 UNL     1       0.884  -1.115  -3.801  1.00  0.00     0.032 A   
ATOM     30  C19 UNL     1       2.032  -0.668  -4.465  1.00  0.00     0.012 A   
ATOM     31  C22 UNL     1      -0.224  -0.265  -3.840  1.00  0.00     0.218 A   
ATOM     32  C20 UNL     1       2.030   0.570  -5.104  1.00  0.00     0.021 A   
ATOM     33  N3  UNL     1      -0.246   0.950  -4.424  1.00  0.00    -0.228 NA  
ATOM     34  C21 UNL     1       0.879   1.336  -5.057  1.00  0.00     0.114 A   
ATOM     35  F1  UNL     1      -1.355  -0.642  -3.222  1.00  0.00    -0.185 F   
ENDBRANCH  25  29
ENDBRANCH   3  25
TORSDOF 9
