REMARK SMILES CC(C)(C)[C@H]([NH2+]Cc1ccc2c(c1)OCO2)c1cn([C@@H](CO)c2cccnc2F)nn1
REMARK SMILES IDX 17 1 18 2 19 3 30 4 31 5 5 7 2 8 1 9 3 10 4 11 6 12 7 15
REMARK SMILES IDX 8 16 9 17 13 18 10 19 12 20 11 21 14 22 16 23 15 24 20 25
REMARK SMILES IDX 21 26 22 27 23 29 24 30 28 31 25 32 27 33 26 34 29 35
REMARK H PARENT 18 6 6 13 6 14 22 28
ROOT
ATOM     1   C14 UNL     1       1.408  -0.418  -0.139  1.00  0.00     0.127 A   
ATOM     2   C15 UNL     1       1.413   0.515  -1.153  1.00  0.00     0.046 A   
ATOM     3   N2  UNL     1       1.572  -0.232  -2.293  1.00  0.00    -0.202 N   
ATOM     4   N4  UNL     1       1.716  -1.536  -1.986  1.00  0.00    -0.075 NA  
ATOM     5   N5  UNL     1       1.610  -1.663  -0.674  1.00  0.00    -0.132 NA  
ATOM     6   H20 UNL     1       1.265   1.585  -1.177  1.00  0.00     0.083 HD  
ENDROOT
BRANCH   1   7
ATOM     7   C5  UNL     1       1.118  -0.275   1.324  1.00  0.00     0.120 C   
BRANCH   7   8
ATOM     8   C2  UNL     1       2.402  -0.222   2.228  1.00  0.00     0.010 C   
ATOM     9   C1  UNL     1       3.325   0.931   1.768  1.00  0.00     0.017 C   
ATOM     10  C3  UNL     1       2.015   0.071   3.696  1.00  0.00     0.017 C   
ATOM     11  C4  UNL     1       3.214  -1.532   2.196  1.00  0.00     0.017 C   
ENDBRANCH   7   8
BRANCH   7  12
ATOM     12  N1  UNL     1       0.205  -1.404   1.766  1.00  0.00     0.250 N   
ATOM     13  H11 UNL     1       0.673  -2.281   1.498  1.00  0.00     0.199 HD  
ATOM     14  H12 UNL     1       0.097  -1.409   2.782  1.00  0.00     0.199 HD  
BRANCH  12  15
ATOM     15  C6  UNL     1      -1.159  -1.449   1.145  1.00  0.00     0.164 C   
BRANCH  15  16
ATOM     16  C7  UNL     1      -1.978  -0.214   1.402  1.00  0.00    -0.002 A   
ATOM     17  C8  UNL     1      -2.353   0.622   0.322  1.00  0.00     0.012 A   
ATOM     18  C12 UNL     1      -2.366   0.130   2.708  1.00  0.00     0.045 A   
ATOM     19  C9  UNL     1      -3.087   1.793   0.537  1.00  0.00     0.037 A   
ATOM     20  C11 UNL     1      -3.086   1.294   2.886  1.00  0.00     0.109 A   
ATOM     21  C10 UNL     1      -3.436   2.103   1.832  1.00  0.00     0.108 A   
ATOM     22  O1  UNL     1      -3.522   1.779   4.079  1.00  0.00    -0.316 OA  
ATOM     23  O2  UNL     1      -4.140   3.196   2.228  1.00  0.00    -0.316 OA  
ATOM     24  C13 UNL     1      -4.212   2.978   3.654  1.00  0.00     0.337 C   
ENDBRANCH  15  16
ENDBRANCH  12  15
ENDBRANCH   7  12
ENDBRANCH   1   7
BRANCH   3  25
ATOM     25  C16 UNL     1       1.490   0.234  -3.679  1.00  0.00     0.160 C   
BRANCH  25  26
ATOM     26  C17 UNL     1       1.829  -0.848  -4.721  1.00  0.00     0.186 C   
BRANCH  26  27
ATOM     27  O3  UNL     1       2.069  -0.238  -5.991  1.00  0.00    -0.394 OA  
ATOM     28  H24 UNL     1       2.217  -0.957  -6.633  1.00  0.00     0.210 HD  
ENDBRANCH  26  27
ENDBRANCH  25  26
BRANCH  25  29
ATOM     29  C18 UNL     1       0.136   0.866  -3.953  1.00  0.00     0.032 A   
ATOM     30  C19 UNL     1       0.037   2.111  -4.590  1.00  0.00     0.012 A   
ATOM     31  C22 UNL     1      -1.059   0.247  -3.592  1.00  0.00     0.218 A   
ATOM     32  C20 UNL     1      -1.216   2.677  -4.809  1.00  0.00     0.021 A   
ATOM     33  N3  UNL     1      -2.282   0.789  -3.757  1.00  0.00    -0.228 NA  
ATOM     34  C21 UNL     1      -2.336   1.986  -4.377  1.00  0.00     0.114 A   
ATOM     35  F1  UNL     1      -1.019  -0.950  -2.989  1.00  0.00    -0.185 F   
ENDBRANCH  25  29
ENDBRANCH   3  25
TORSDOF 9
