REMARK SMILES CC(C)[C@H]([NH2+]Cc1ccc2c(c1)OCO2)c1cn(CCc2ccc(N)cc2)nn1
REMARK SMILES IDX 16 1 17 2 18 3 28 4 29 5 4 7 2 8 1 9 3 10 5 11 6 14 7 15
REMARK SMILES IDX 8 16 12 17 9 18 11 19 10 20 13 21 15 22 14 23 19 24 20 25
REMARK SMILES IDX 21 26 22 27 27 28 23 29 26 30 24 31 25 32
REMARK H PARENT 17 6 5 12 5 13 25 33 25 34
ROOT
ATOM     1   C13 UNL     1       1.681   1.443   0.822  1.00  0.00     0.127 A   
ATOM     2   C14 UNL     1       0.939   2.361   0.114  1.00  0.00     0.045 A   
ATOM     3   N2  UNL     1       1.846   2.933  -0.733  1.00  0.00    -0.212 N   
ATOM     4   N4  UNL     1       3.074   2.416  -0.548  1.00  0.00    -0.076 NA  
ATOM     5   N5  UNL     1       2.985   1.496   0.399  1.00  0.00    -0.132 NA  
ATOM     6   H18 UNL     1      -0.110   2.622   0.104  1.00  0.00     0.083 HD  
ENDROOT
BRANCH   1   7
ATOM     7   C4  UNL     1       1.273   0.420   1.830  1.00  0.00     0.117 C   
BRANCH   7   8
ATOM     8   C2  UNL     1       1.446   0.872   3.303  1.00  0.00     0.037 C   
ATOM     9   C1  UNL     1       0.512   2.038   3.647  1.00  0.00     0.014 C   
ATOM     10  C3  UNL     1       2.885   1.231   3.691  1.00  0.00     0.014 C   
ENDBRANCH   7   8
BRANCH   7  11
ATOM     11  N1  UNL     1       2.075  -0.846   1.619  1.00  0.00     0.249 N   
ATOM     12  H9  UNL     1       3.052  -0.546   1.494  1.00  0.00     0.199 HD  
ATOM     13  H10 UNL     1       2.039  -1.438   2.453  1.00  0.00     0.199 HD  
BRANCH  11  14
ATOM     14  C5  UNL     1       1.706  -1.656   0.419  1.00  0.00     0.164 C   
BRANCH  14  15
ATOM     15  C6  UNL     1       0.395  -2.373   0.585  1.00  0.00    -0.002 A   
ATOM     16  C7  UNL     1      -0.747  -1.944  -0.132  1.00  0.00     0.012 A   
ATOM     17  C11 UNL     1       0.286  -3.461   1.469  1.00  0.00     0.045 A   
ATOM     18  C8  UNL     1      -1.980  -2.585   0.026  1.00  0.00     0.037 A   
ATOM     19  C10 UNL     1      -0.945  -4.067   1.604  1.00  0.00     0.109 A   
ATOM     20  C9  UNL     1      -2.047  -3.643   0.904  1.00  0.00     0.108 A   
ATOM     21  O1  UNL     1      -1.220  -5.122   2.415  1.00  0.00    -0.316 OA  
ATOM     22  O2  UNL     1      -3.154  -4.377   1.185  1.00  0.00    -0.316 OA  
ATOM     23  C12 UNL     1      -2.621  -5.333   2.126  1.00  0.00     0.337 C   
ENDBRANCH  14  15
ENDBRANCH  11  14
ENDBRANCH   7  11
ENDBRANCH   1   7
BRANCH   3  24
ATOM     24  C15 UNL     1       1.597   3.905  -1.777  1.00  0.00     0.139 C   
BRANCH  24  25
ATOM     25  C16 UNL     1       1.643   3.298  -3.183  1.00  0.00     0.057 C   
BRANCH  25  26
ATOM     26  C17 UNL     1       0.690   2.138  -3.365  1.00  0.00    -0.046 A   
ATOM     27  C18 UNL     1      -0.695   2.332  -3.330  1.00  0.00     0.005 A   
ATOM     28  C22 UNL     1       1.186   0.839  -3.525  1.00  0.00     0.005 A   
ATOM     29  C19 UNL     1      -1.564   1.242  -3.441  1.00  0.00     0.023 A   
ATOM     30  C21 UNL     1       0.311  -0.244  -3.648  1.00  0.00     0.023 A   
ATOM     31  C20 UNL     1      -1.071  -0.048  -3.647  1.00  0.00     0.023 A   
BRANCH  31  32
ATOM     32  N3  UNL     1      -1.937  -1.148  -3.616  1.00  0.00    -0.358 N   
ATOM     33  H25 UNL     1      -1.574  -1.960  -4.109  1.00  0.00     0.143 HD  
ATOM     34  H26 UNL     1      -2.876  -0.924  -3.939  1.00  0.00     0.143 HD  
ENDBRANCH  31  32
ENDBRANCH  25  26
ENDBRANCH  24  25
ENDBRANCH   3  24
TORSDOF 9
