REMARK SMILES Cc1ccc(F)c([C@@H](CO)n2cc([C@@H]([NH2+]Cc3ccc4c(c3)OCO4)C(C)C)nn2)c1
REMARK SMILES IDX 11 1 12 2 13 3 29 4 30 5 8 7 7 8 2 9 3 10 31 11 4 12 5 13
REMARK SMILES IDX 1 14 6 15 9 16 10 17 14 19 15 20 16 23 17 24 18 25 22 26
REMARK SMILES IDX 19 27 21 28 20 29 23 30 25 31 24 32 26 33 27 34 28 35
REMARK H PARENT 12 6 10 18 15 21 15 22
ROOT
ATOM     1   N1  UNL     1      -2.062  -0.706   0.803  1.00  0.00    -0.202 N   
ATOM     2   C9  UNL     1      -1.738  -0.648  -0.528  1.00  0.00     0.046 A   
ATOM     3   C10 UNL     1      -0.436  -0.201  -0.537  1.00  0.00     0.127 A   
ATOM     4   N3  UNL     1      -0.026   0.018   0.754  1.00  0.00    -0.132 NA  
ATOM     5   N4  UNL     1      -1.024  -0.294   1.563  1.00  0.00    -0.075 NA  
ATOM     6   H10 UNL     1      -2.438  -0.929  -1.303  1.00  0.00     0.083 HD  
ENDROOT
BRANCH   1   7
ATOM     7   C7  UNL     1      -3.324  -1.148   1.396  1.00  0.00     0.158 C   
BRANCH   7   8
ATOM     8   C6  UNL     1      -3.152  -2.534   1.986  1.00  0.00     0.013 A   
ATOM     9   C2  UNL     1      -2.586  -4.058   3.810  1.00  0.00    -0.051 A   
ATOM     10  C3  UNL     1      -2.828  -5.151   2.968  1.00  0.00     0.006 A   
ATOM     11  C23 UNL     1      -2.733  -2.755   3.309  1.00  0.00     0.012 A   
ATOM     12  C4  UNL     1      -3.225  -4.946   1.649  1.00  0.00     0.040 A   
ATOM     13  C5  UNL     1      -3.379  -3.650   1.172  1.00  0.00     0.128 A   
ATOM     14  C1  UNL     1      -2.112  -4.283   5.218  1.00  0.00     0.044 C   
ATOM     15  F1  UNL     1      -3.738  -3.472  -0.108  1.00  0.00    -0.207 F   
ENDBRANCH   7   8
BRANCH   7  16
ATOM     16  C8  UNL     1      -3.901  -0.098   2.362  1.00  0.00     0.186 C   
BRANCH  16  17
ATOM     17  O1  UNL     1      -4.345   1.052   1.634  1.00  0.00    -0.394 OA  
ATOM     18  H9  UNL     1      -4.758   1.654   2.281  1.00  0.00     0.210 HD  
ENDBRANCH  16  17
ENDBRANCH   7  16
ENDBRANCH   1   7
BRANCH   3  19
ATOM     19  C11 UNL     1       0.490   0.112  -1.665  1.00  0.00     0.117 C   
BRANCH  19  20
ATOM     20  N2  UNL     1       1.386   1.266  -1.285  1.00  0.00     0.249 N   
ATOM     21  H12 UNL     1       2.217   1.312  -1.883  1.00  0.00     0.199 HD  
ATOM     22  H13 UNL     1       1.723   1.075  -0.329  1.00  0.00     0.199 HD  
BRANCH  20  23
ATOM     23  C12 UNL     1       0.725   2.600  -1.256  1.00  0.00     0.164 C   
BRANCH  23  24
ATOM     24  C13 UNL     1       1.694   3.655  -0.803  1.00  0.00    -0.002 A   
ATOM     25  C14 UNL     1       2.425   4.414  -1.747  1.00  0.00     0.012 A   
ATOM     26  C18 UNL     1       1.915   3.857   0.571  1.00  0.00     0.045 A   
ATOM     27  C15 UNL     1       3.358   5.370  -1.330  1.00  0.00     0.037 A   
ATOM     28  C17 UNL     1       2.842   4.807   0.947  1.00  0.00     0.109 A   
ATOM     29  C16 UNL     1       3.543   5.543   0.024  1.00  0.00     0.108 A   
ATOM     30  O2  UNL     1       3.174   5.126   2.225  1.00  0.00    -0.316 OA  
ATOM     31  O3  UNL     1       4.404   6.418   0.604  1.00  0.00    -0.316 OA  
ATOM     32  C19 UNL     1       4.152   6.167   2.004  1.00  0.00     0.337 C   
ENDBRANCH  23  24
ENDBRANCH  20  23
ENDBRANCH  19  20
BRANCH  19  33
ATOM     33  C20 UNL     1       1.382  -1.078  -2.104  1.00  0.00     0.037 C   
ATOM     34  C21 UNL     1       0.548  -2.223  -2.692  1.00  0.00     0.014 C   
ATOM     35  C22 UNL     1       2.298  -1.621  -1.000  1.00  0.00     0.014 C   
ENDBRANCH  19  33
ENDBRANCH   3  19
TORSDOF 9
