REMARK SMILES Cc1ccc(F)c([C@H](CO)n2cc([C@@H]([NH2+]Cc3ccc4c(c3)OCO4)C(C)C)nn2)c1
REMARK SMILES IDX 11 1 12 2 13 3 29 4 30 5 8 7 7 8 2 9 3 10 31 11 4 12 5 13
REMARK SMILES IDX 1 14 6 15 9 16 10 17 14 19 15 20 16 23 17 24 18 25 22 26
REMARK SMILES IDX 19 27 21 28 20 29 23 30 25 31 24 32 26 33 27 34 28 35
REMARK H PARENT 12 6 10 18 15 21 15 22
ROOT
ATOM     1   N1  UNL     1       2.512  -0.722  -0.493  1.00  0.00    -0.202 N   
ATOM     2   C9  UNL     1       1.292  -0.451   0.067  1.00  0.00     0.046 A   
ATOM     3   C10 UNL     1       0.699  -1.684   0.198  1.00  0.00     0.127 A   
ATOM     4   N3  UNL     1       1.531  -2.641  -0.319  1.00  0.00    -0.132 NA  
ATOM     5   N4  UNL     1       2.631  -2.042  -0.749  1.00  0.00    -0.075 NA  
ATOM     6   H10 UNL     1       0.975   0.556   0.307  1.00  0.00     0.083 HD  
ENDROOT
BRANCH   1   7
ATOM     7   C7  UNL     1       3.582   0.201  -0.880  1.00  0.00     0.158 C   
BRANCH   7   8
ATOM     8   C6  UNL     1       3.733   1.331   0.127  1.00  0.00     0.013 A   
ATOM     9   C2  UNL     1       3.473   3.647   0.870  1.00  0.00    -0.051 A   
ATOM     10  C3  UNL     1       4.046   3.317   2.103  1.00  0.00     0.006 A   
ATOM     11  C23 UNL     1       3.308   2.649  -0.105  1.00  0.00     0.012 A   
ATOM     12  C4  UNL     1       4.470   2.014   2.352  1.00  0.00     0.040 A   
ATOM     13  C5  UNL     1       4.311   1.042   1.371  1.00  0.00     0.128 A   
ATOM     14  C1  UNL     1       2.990   5.044   0.611  1.00  0.00     0.044 C   
ATOM     15  F1  UNL     1       4.708  -0.209   1.638  1.00  0.00    -0.207 F   
ENDBRANCH   7   8
BRANCH   7  16
ATOM     16  C8  UNL     1       3.434   0.601  -2.363  1.00  0.00     0.186 C   
BRANCH  16  17
ATOM     17  O1  UNL     1       2.162   1.185  -2.659  1.00  0.00    -0.394 OA  
ATOM     18  H9  UNL     1       2.198   1.468  -3.593  1.00  0.00     0.210 HD  
ENDBRANCH  16  17
ENDBRANCH   7  16
ENDBRANCH   1   7
BRANCH   3  19
ATOM     19  C11 UNL     1      -0.651  -2.062   0.706  1.00  0.00     0.117 C   
BRANCH  19  20
ATOM     20  N2  UNL     1      -1.248  -3.173  -0.132  1.00  0.00     0.249 N   
ATOM     21  H12 UNL     1      -0.573  -3.948  -0.117  1.00  0.00     0.199 HD  
ATOM     22  H13 UNL     1      -2.114  -3.507   0.300  1.00  0.00     0.199 HD  
BRANCH  20  23
ATOM     23  C12 UNL     1      -1.504  -2.858  -1.572  1.00  0.00     0.164 C   
BRANCH  23  24
ATOM     24  C13 UNL     1      -2.447  -1.706  -1.776  1.00  0.00    -0.002 A   
ATOM     25  C14 UNL     1      -1.955  -0.460  -2.236  1.00  0.00     0.012 A   
ATOM     26  C18 UNL     1      -3.814  -1.843  -1.477  1.00  0.00     0.045 A   
ATOM     27  C15 UNL     1      -2.808   0.637  -2.390  1.00  0.00     0.037 A   
ATOM     28  C17 UNL     1      -4.626  -0.740  -1.638  1.00  0.00     0.109 A   
ATOM     29  C16 UNL     1      -4.138   0.465  -2.080  1.00  0.00     0.108 A   
ATOM     30  O2  UNL     1      -5.960  -0.697  -1.378  1.00  0.00    -0.316 OA  
ATOM     31  O3  UNL     1      -5.104   1.418  -2.157  1.00  0.00    -0.316 OA  
ATOM     32  C19 UNL     1      -6.263   0.674  -1.727  1.00  0.00     0.337 C   
ENDBRANCH  23  24
ENDBRANCH  20  23
ENDBRANCH  19  20
BRANCH  19  33
ATOM     33  C20 UNL     1      -0.669  -2.502   2.194  1.00  0.00     0.037 C   
ATOM     34  C21 UNL     1      -0.265  -1.353   3.125  1.00  0.00     0.014 C   
ATOM     35  C22 UNL     1       0.186  -3.737   2.503  1.00  0.00     0.014 C   
ENDBRANCH  19  33
ENDBRANCH   3  19
TORSDOF 9
