REMARK SMILES CC(C)[C@H]([NH2+]Cc1ccc2c(c1)OCO2)c1cn(Cc2cc(F)ccc2F)nn1
REMARK SMILES IDX 16 1 17 2 18 3 28 4 29 5 4 7 2 8 1 9 3 10 5 11 6 14 7 15
REMARK SMILES IDX 8 16 12 17 9 18 11 19 10 20 13 21 15 22 14 23 19 24 20 25
REMARK SMILES IDX 21 26 26 27 22 28 25 29 24 30 27 31 23 32
REMARK H PARENT 17 6 5 12 5 13
ROOT
ATOM     1   C13 UNL     1      -1.459   0.237  -0.477  1.00  0.00     0.127 A   
ATOM     2   C14 UNL     1      -2.522   1.105  -0.348  1.00  0.00     0.046 A   
ATOM     3   N2  UNL     1      -3.102   0.748   0.839  1.00  0.00    -0.208 N   
ATOM     4   N3  UNL     1      -2.437  -0.279   1.405  1.00  0.00    -0.076 NA  
ATOM     5   N4  UNL     1      -1.440  -0.609   0.603  1.00  0.00    -0.132 NA  
ATOM     6   H18 UNL     1      -2.906   1.911  -0.959  1.00  0.00     0.083 HD  
ENDROOT
BRANCH   1   7
ATOM     7   C4  UNL     1      -0.382   0.127  -1.511  1.00  0.00     0.117 C   
BRANCH   7   8
ATOM     8   C2  UNL     1      -0.794  -0.660  -2.781  1.00  0.00     0.037 C   
ATOM     9   C1  UNL     1      -1.252  -2.097  -2.506  1.00  0.00     0.014 C   
ATOM     10  C3  UNL     1      -1.864   0.078  -3.593  1.00  0.00     0.014 C   
ENDBRANCH   7   8
BRANCH   7  11
ATOM     11  N1  UNL     1       0.832  -0.547  -0.915  1.00  0.00     0.249 N   
ATOM     12  H9  UNL     1       0.485  -1.363  -0.390  1.00  0.00     0.199 HD  
ATOM     13  H10 UNL     1       1.458  -0.913  -1.639  1.00  0.00     0.199 HD  
BRANCH  11  14
ATOM     14  C5  UNL     1       1.622   0.276   0.042  1.00  0.00     0.164 C   
BRANCH  14  15
ATOM     15  C6  UNL     1       2.684  -0.566   0.693  1.00  0.00    -0.002 A   
ATOM     16  C7  UNL     1       2.348  -1.412   1.780  1.00  0.00     0.012 A   
ATOM     17  C11 UNL     1       3.996  -0.569   0.194  1.00  0.00     0.045 A   
ATOM     18  C8  UNL     1       3.307  -2.246   2.365  1.00  0.00     0.037 A   
ATOM     19  C10 UNL     1       4.917  -1.401   0.796  1.00  0.00     0.109 A   
ATOM     20  C9  UNL     1       4.583  -2.216   1.848  1.00  0.00     0.108 A   
ATOM     21  O1  UNL     1       6.222  -1.524   0.437  1.00  0.00    -0.316 OA  
ATOM     22  O2  UNL     1       5.635  -2.953   2.289  1.00  0.00    -0.316 OA  
ATOM     23  C12 UNL     1       6.677  -2.511   1.392  1.00  0.00     0.337 C   
ENDBRANCH  14  15
ENDBRANCH  11  14
ENDBRANCH   7  11
ENDBRANCH   1   7
BRANCH   3  24
ATOM     24  C15 UNL     1      -4.286   1.299   1.475  1.00  0.00     0.172 C   
BRANCH  24  25
ATOM     25  C16 UNL     1      -4.037   2.691   1.986  1.00  0.00     0.010 A   
ATOM     26  C17 UNL     1      -3.496   2.911   3.260  1.00  0.00     0.047 A   
ATOM     27  C21 UNL     1      -4.322   3.801   1.181  1.00  0.00     0.128 A   
ATOM     28  C18 UNL     1      -3.268   4.214   3.701  1.00  0.00     0.123 A   
ATOM     29  C20 UNL     1      -4.095   5.103   1.624  1.00  0.00     0.042 A   
ATOM     30  C19 UNL     1      -3.565   5.311   2.896  1.00  0.00     0.042 A   
ATOM     31  F2  UNL     1      -4.809   3.612  -0.055  1.00  0.00    -0.207 F   
ATOM     32  F1  UNL     1      -2.753   4.407   4.920  1.00  0.00    -0.207 F   
ENDBRANCH  24  25
ENDBRANCH   3  24
TORSDOF 7
