REMARK SMILES COCc1ccc(Cn2cc([C@@H]([NH2+]Cc3ccc4c(c3)OCO4)C3CCCC3)nn2)o1
REMARK SMILES IDX 9 1 10 2 11 3 29 4 30 5 8 7 7 8 4 9 5 10 31 11 6 12 3 13
REMARK SMILES IDX 2 14 1 15 12 16 13 17 14 20 15 21 16 22 20 23 17 24 19 25
REMARK SMILES IDX 18 26 21 27 23 28 22 29 24 30 25 31 28 32 26 33 27 34
REMARK H PARENT 10 6 13 18 13 19
ROOT
ATOM     1   N1  UNL     1       2.615  -0.141  -2.938  1.00  0.00    -0.206 N   
ATOM     2   C8  UNL     1       1.313   0.111  -2.596  1.00  0.00     0.046 A   
ATOM     3   C9  UNL     1       1.399   1.194  -1.753  1.00  0.00     0.127 A   
ATOM     4   N3  UNL     1       2.707   1.593  -1.657  1.00  0.00    -0.132 NA  
ATOM     5   N4  UNL     1       3.441   0.777  -2.396  1.00  0.00    -0.076 NA  
ATOM     6   H10 UNL     1       0.501  -0.532  -2.908  1.00  0.00     0.083 HD  
ENDROOT
BRANCH   1   7
ATOM     7   C7  UNL     1       3.141  -1.286  -3.662  1.00  0.00     0.195 C   
BRANCH   7   8
ATOM     8   C6  UNL     1       3.353  -2.407  -2.714  1.00  0.00     0.078 A   
ATOM     9   C3  UNL     1       2.641  -3.932  -1.301  1.00  0.00     0.085 A   
ATOM     10  C4  UNL     1       4.019  -3.997  -1.288  1.00  0.00     0.034 A   
ATOM     11  O4  UNL     1       2.230  -2.976  -2.183  1.00  0.00    -0.315 OA  
ATOM     12  C5  UNL     1       4.478  -3.017  -2.201  1.00  0.00     0.033 A   
BRANCH   9  13
ATOM     13  C2  UNL     1       1.584  -4.674  -0.573  1.00  0.00     0.221 C   
BRANCH  13  14
ATOM     14  O1  UNL     1       1.195  -3.858   0.535  1.00  0.00    -0.378 OA  
ATOM     15  C1  UNL     1       0.250  -4.537   1.356  1.00  0.00     0.195 C   
ENDBRANCH  13  14
ENDBRANCH   9  13
ENDBRANCH   7   8
ENDBRANCH   1   7
BRANCH   3  16
ATOM     16  C10 UNL     1       0.368   1.846  -0.895  1.00  0.00     0.117 C   
BRANCH  16  17
ATOM     17  N2  UNL     1       0.910   1.993   0.507  1.00  0.00     0.249 N   
ATOM     18  H12 UNL     1       0.373   2.681   1.039  1.00  0.00     0.199 HD  
ATOM     19  H13 UNL     1       1.865   2.364   0.403  1.00  0.00     0.199 HD  
BRANCH  17  20
ATOM     20  C11 UNL     1       1.018   0.728   1.298  1.00  0.00     0.164 C   
BRANCH  20  21
ATOM     21  C12 UNL     1      -0.325   0.174   1.686  1.00  0.00    -0.002 A   
ATOM     22  C13 UNL     1      -1.102   0.808   2.686  1.00  0.00     0.012 A   
ATOM     23  C17 UNL     1      -0.833  -0.961   1.031  1.00  0.00     0.045 A   
ATOM     24  C14 UNL     1      -2.370   0.323   3.024  1.00  0.00     0.037 A   
ATOM     25  C16 UNL     1      -2.087  -1.412   1.387  1.00  0.00     0.109 A   
ATOM     26  C15 UNL     1      -2.834  -0.787   2.355  1.00  0.00     0.108 A   
ATOM     27  O2  UNL     1      -2.724  -2.488   0.853  1.00  0.00    -0.316 OA  
ATOM     28  O3  UNL     1      -4.036  -1.389   2.552  1.00  0.00    -0.316 OA  
ATOM     29  C18 UNL     1      -3.957  -2.478   1.607  1.00  0.00     0.337 C   
ENDBRANCH  20  21
ENDBRANCH  17  20
ENDBRANCH  16  17
BRANCH  16  30
ATOM     30  C19 UNL     1      -0.080   3.211  -1.454  1.00  0.00     0.043 C   
ATOM     31  C20 UNL     1      -1.328   3.792  -0.764  1.00  0.00     0.010 C   
ATOM     32  C23 UNL     1       0.947   4.348  -1.401  1.00  0.00     0.010 C   
ATOM     33  C21 UNL     1      -1.133   5.309  -0.732  1.00  0.00     0.001 C   
ATOM     34  C22 UNL     1       0.087   5.586  -1.598  1.00  0.00     0.001 C   
ENDBRANCH  16  30
ENDBRANCH   3  16
TORSDOF 9
