REMARK SMILES CC(C)(C)[C@H]([NH2+]Cc1ccc2c(c1)OCO2)c1cn(CC(=O)c2cccs2)nn1
REMARK SMILES IDX 17 1 18 2 19 3 28 4 29 5 5 7 2 8 1 9 3 10 4 11 6 12 7 15
REMARK SMILES IDX 8 16 9 17 13 18 10 19 12 20 11 21 14 22 16 23 15 24 20 25
REMARK SMILES IDX 21 26 22 27 23 28 24 29 27 30 25 31 26 32
REMARK H PARENT 18 6 6 13 6 14
ROOT
ATOM     1   C14 UNL     1      -0.863  -0.302  -1.930  1.00  0.00     0.127 A   
ATOM     2   C15 UNL     1      -0.237   0.714  -2.619  1.00  0.00     0.046 A   
ATOM     3   N2  UNL     1      -1.250   1.580  -2.928  1.00  0.00    -0.204 N   
ATOM     4   N3  UNL     1      -2.424   1.134  -2.445  1.00  0.00    -0.076 NA  
ATOM     5   N4  UNL     1      -2.202  -0.019  -1.837  1.00  0.00    -0.132 NA  
ATOM     6   H20 UNL     1       0.792   0.897  -2.901  1.00  0.00     0.083 HD  
ENDROOT
BRANCH   1   7
ATOM     7   C5  UNL     1      -0.314  -1.522  -1.254  1.00  0.00     0.120 C   
BRANCH   7   8
ATOM     8   C2  UNL     1      -0.290  -2.802  -2.165  1.00  0.00     0.010 C   
ATOM     9   C1  UNL     1      -1.698  -3.256  -2.596  1.00  0.00     0.017 C   
ATOM     10  C3  UNL     1       0.544  -2.531  -3.439  1.00  0.00     0.017 C   
ATOM     11  C4  UNL     1       0.392  -3.977  -1.425  1.00  0.00     0.017 C   
ENDBRANCH   7   8
BRANCH   7  12
ATOM     12  N1  UNL     1      -1.109  -1.792   0.011  1.00  0.00     0.250 N   
ATOM     13  H11 UNL     1      -2.100  -1.810  -0.269  1.00  0.00     0.199 HD  
ATOM     14  H12 UNL     1      -0.883  -2.710   0.399  1.00  0.00     0.199 HD  
BRANCH  12  15
ATOM     15  C6  UNL     1      -0.990  -0.778   1.104  1.00  0.00     0.164 C   
BRANCH  15  16
ATOM     16  C7  UNL     1       0.391  -0.707   1.692  1.00  0.00    -0.002 A   
ATOM     17  C8  UNL     1       1.231   0.397   1.405  1.00  0.00     0.012 A   
ATOM     18  C12 UNL     1       0.870  -1.747   2.507  1.00  0.00     0.045 A   
ATOM     19  C9  UNL     1       2.532   0.462   1.915  1.00  0.00     0.037 A   
ATOM     20  C11 UNL     1       2.156  -1.649   2.995  1.00  0.00     0.109 A   
ATOM     21  C10 UNL     1       2.965  -0.578   2.707  1.00  0.00     0.108 A   
ATOM     22  O1  UNL     1       2.769  -2.564   3.790  1.00  0.00    -0.316 OA  
ATOM     23  O2  UNL     1       4.189  -0.683   3.285  1.00  0.00    -0.316 OA  
ATOM     24  C13 UNL     1       4.051  -1.928   4.002  1.00  0.00     0.337 C   
ENDBRANCH  15  16
ENDBRANCH  12  15
ENDBRANCH   7  12
ENDBRANCH   1   7
BRANCH   3  25
ATOM     25  C16 UNL     1      -1.181   2.819  -3.670  1.00  0.00     0.215 C   
BRANCH  25  26
ATOM     26  C17 UNL     1      -0.263   3.802  -2.982  1.00  0.00     0.188 C   
ATOM     27  O3  UNL     1       0.944   3.759  -3.249  1.00  0.00    -0.292 OA  
BRANCH  26  28
ATOM     28  C18 UNL     1      -0.788   4.736  -1.991  1.00  0.00     0.056 A   
ATOM     29  C19 UNL     1      -0.077   5.745  -1.365  1.00  0.00     0.020 A   
ATOM     30  S1  UNL     1      -2.405   4.691  -1.431  1.00  0.00    -0.094 S   
ATOM     31  C20 UNL     1      -0.869   6.487  -0.441  1.00  0.00     0.009 A   
ATOM     32  C21 UNL     1      -2.159   6.015  -0.381  1.00  0.00     0.046 A   
ENDBRANCH  26  28
ENDBRANCH  25  26
ENDBRANCH   3  25
TORSDOF 8
