REMARK SMILES CN(C)c1cc(F)ccc1Cn1cc([C@@H]([NH2+]Cc2ccc3c(c2)OCO3)C(C)(C)C)nn1
REMARK SMILES IDX 12 1 13 2 14 3 31 4 32 5 11 7 10 8 4 9 5 10 6 11 9 12 8 13
REMARK SMILES IDX 7 14 2 15 1 16 3 17 15 18 16 19 17 22 18 23 19 24 23 25
REMARK SMILES IDX 20 26 22 27 21 28 24 29 26 30 25 31 27 32 28 33 29 34 30 35
REMARK H PARENT 13 6 16 20 16 21
ROOT
ATOM     1   N2  UNL     1       0.177   1.856   1.604  1.00  0.00    -0.208 N   
ATOM     2   C10 UNL     1      -0.309   0.650   1.181  1.00  0.00     0.046 A   
ATOM     3   C11 UNL     1       0.566  -0.268   1.715  1.00  0.00     0.127 A   
ATOM     4   N4  UNL     1       1.520   0.391   2.448  1.00  0.00    -0.132 NA  
ATOM     5   N5  UNL     1       1.271   1.688   2.376  1.00  0.00    -0.076 NA  
ATOM     6   H12 UNL     1      -1.172   0.575   0.534  1.00  0.00     0.083 HD  
ENDROOT
BRANCH   1   7
ATOM     7   C9  UNL     1      -0.319   3.186   1.293  1.00  0.00     0.171 C   
BRANCH   7   8
ATOM     8   C8  UNL     1       0.267   3.680  -0.010  1.00  0.00    -0.007 A   
ATOM     9   C3  UNL     1      -0.367   3.431  -1.251  1.00  0.00     0.036 A   
ATOM     10  C4  UNL     1       0.261   3.878  -2.424  1.00  0.00     0.063 A   
ATOM     11  C5  UNL     1       1.484   4.539  -2.367  1.00  0.00     0.125 A   
ATOM     12  C7  UNL     1       1.508   4.350   0.021  1.00  0.00     0.010 A   
ATOM     13  C6  UNL     1       2.114   4.779  -1.156  1.00  0.00     0.040 A   
ATOM     14  F1  UNL     1       2.063   4.948  -3.503  1.00  0.00    -0.207 F   
BRANCH   9  15
ATOM     15  N1  UNL     1      -1.621   2.771  -1.270  1.00  0.00    -0.337 N   
ATOM     16  C1  UNL     1      -1.770   1.776  -2.343  1.00  0.00     0.129 C   
ATOM     17  C2  UNL     1      -2.713   3.764  -1.268  1.00  0.00     0.129 C   
ENDBRANCH   9  15
ENDBRANCH   7   8
ENDBRANCH   1   7
BRANCH   3  18
ATOM     18  C12 UNL     1       0.671  -1.748   1.521  1.00  0.00     0.120 C   
BRANCH  18  19
ATOM     19  N3  UNL     1       2.132  -2.120   1.344  1.00  0.00     0.250 N   
ATOM     20  H14 UNL     1       2.627  -1.730   2.158  1.00  0.00     0.199 HD  
ATOM     21  H15 UNL     1       2.257  -3.134   1.362  1.00  0.00     0.199 HD  
BRANCH  19  22
ATOM     22  C13 UNL     1       2.815  -1.575   0.130  1.00  0.00     0.164 C   
BRANCH  22  23
ATOM     23  C14 UNL     1       2.224  -2.076  -1.158  1.00  0.00    -0.002 A   
ATOM     24  C15 UNL     1       2.423  -3.417  -1.568  1.00  0.00     0.012 A   
ATOM     25  C19 UNL     1       1.438  -1.220  -1.950  1.00  0.00     0.045 A   
ATOM     26  C16 UNL     1       1.845  -3.900  -2.746  1.00  0.00     0.037 A   
ATOM     27  C18 UNL     1       0.880  -1.729  -3.104  1.00  0.00     0.109 A   
ATOM     28  C17 UNL     1       1.078  -3.031  -3.491  1.00  0.00     0.108 A   
ATOM     29  O1  UNL     1       0.089  -1.044  -3.972  1.00  0.00    -0.316 OA  
ATOM     30  O2  UNL     1       0.443  -3.329  -4.654  1.00  0.00    -0.316 OA  
ATOM     31  C20 UNL     1      -0.148  -2.054  -4.981  1.00  0.00     0.337 C   
ENDBRANCH  22  23
ENDBRANCH  19  22
ENDBRANCH  18  19
BRANCH  18  32
ATOM     32  C21 UNL     1       0.025  -2.596   2.674  1.00  0.00     0.010 C   
ATOM     33  C22 UNL     1       0.055  -4.100   2.313  1.00  0.00     0.017 C   
ATOM     34  C23 UNL     1       0.737  -2.413   4.029  1.00  0.00     0.017 C   
ATOM     35  C24 UNL     1      -1.460  -2.205   2.849  1.00  0.00     0.017 C   
ENDBRANCH  18  32
ENDBRANCH   3  18
TORSDOF 8
