REMARK SMILES CC(C)[C@H]([NH2+]Cc1ccc2c(c1)OCO2)c1cn([C@@H](CO)Cc2ccccc2)nn1
REMARK SMILES IDX 16 1 17 2 18 3 29 4 30 5 4 7 2 8 1 9 3 10 5 11 6 14 7 15
REMARK SMILES IDX 8 16 12 17 9 18 11 19 10 20 13 21 15 22 14 23 19 24 20 25
REMARK SMILES IDX 21 26 22 28 23 29 24 30 28 31 25 32 27 33 26 34
REMARK H PARENT 17 6 5 12 5 13 21 27
ROOT
ATOM     1   C13 UNL     1       0.519  -0.585  -1.407  1.00  0.00     0.127 A   
ATOM     2   C14 UNL     1      -0.512  -1.185  -0.720  1.00  0.00     0.046 A   
ATOM     3   N2  UNL     1      -0.053  -2.450  -0.478  1.00  0.00    -0.206 N   
ATOM     4   N3  UNL     1       1.174  -2.626  -1.005  1.00  0.00    -0.076 NA  
ATOM     5   N4  UNL     1       1.537  -1.487  -1.573  1.00  0.00    -0.132 NA  
ATOM     6   H18 UNL     1      -1.469  -0.835  -0.359  1.00  0.00     0.083 HD  
ENDROOT
BRANCH   1   7
ATOM     7   C4  UNL     1       0.704   0.829  -1.858  1.00  0.00     0.117 C   
BRANCH   7   8
ATOM     8   C2  UNL     1       0.668   0.963  -3.406  1.00  0.00     0.037 C   
ATOM     9   C1  UNL     1       0.893   2.405  -3.882  1.00  0.00     0.014 C   
ATOM     10  C3  UNL     1      -0.673   0.472  -3.975  1.00  0.00     0.014 C   
ENDBRANCH   7   8
BRANCH   7  11
ATOM     11  N1  UNL     1       2.038   1.335  -1.344  1.00  0.00     0.249 N   
ATOM     12  H9  UNL     1       2.748   0.677  -1.693  1.00  0.00     0.199 HD  
ATOM     13  H10 UNL     1       2.250   2.256  -1.731  1.00  0.00     0.199 HD  
BRANCH  11  14
ATOM     14  C5  UNL     1       2.191   1.410   0.143  1.00  0.00     0.164 C   
BRANCH  14  15
ATOM     15  C6  UNL     1       1.311   2.457   0.766  1.00  0.00    -0.002 A   
ATOM     16  C7  UNL     1       1.650   3.829   0.674  1.00  0.00     0.012 A   
ATOM     17  C11 UNL     1       0.122   2.082   1.415  1.00  0.00     0.045 A   
ATOM     18  C8  UNL     1       0.818   4.812   1.220  1.00  0.00     0.037 A   
ATOM     19  C10 UNL     1      -0.677   3.076   1.940  1.00  0.00     0.109 A   
ATOM     20  C9  UNL     1      -0.339   4.402   1.845  1.00  0.00     0.108 A   
ATOM     21  O1  UNL     1      -1.855   2.884   2.588  1.00  0.00    -0.316 OA  
ATOM     22  O2  UNL     1      -1.260   5.214   2.426  1.00  0.00    -0.316 OA  
ATOM     23  C12 UNL     1      -2.209   4.245   2.922  1.00  0.00     0.337 C   
ENDBRANCH  14  15
ENDBRANCH  11  14
ENDBRANCH   7  11
ENDBRANCH   1   7
BRANCH   3  24
ATOM     24  C15 UNL     1      -0.697  -3.493   0.304  1.00  0.00     0.129 C   
BRANCH  24  25
ATOM     25  C16 UNL     1      -0.900  -4.757  -0.540  1.00  0.00     0.181 C   
BRANCH  25  26
ATOM     26  O3  UNL     1      -1.780  -5.649   0.136  1.00  0.00    -0.394 OA  
ATOM     27  H22 UNL     1      -1.889  -6.438  -0.427  1.00  0.00     0.210 HD  
ENDBRANCH  25  26
ENDBRANCH  24  25
BRANCH  24  28
ATOM     28  C17 UNL     1       0.073  -3.804   1.604  1.00  0.00     0.063 C   
BRANCH  28  29
ATOM     29  C18 UNL     1       0.287  -2.594   2.489  1.00  0.00    -0.046 A   
ATOM     30  C19 UNL     1       1.577  -2.078   2.682  1.00  0.00     0.004 A   
ATOM     31  C23 UNL     1      -0.793  -1.982   3.138  1.00  0.00     0.004 A   
ATOM     32  C20 UNL     1       1.782  -0.972   3.510  1.00  0.00     0.000 A   
ATOM     33  C22 UNL     1      -0.587  -0.872   3.959  1.00  0.00     0.000 A   
ATOM     34  C21 UNL     1       0.700  -0.369   4.146  1.00  0.00     0.000 A   
ENDBRANCH  28  29
ENDBRANCH  24  28
ENDBRANCH   3  24
TORSDOF 10
