REMARK SMILES CC(C)[C@H]([NH2+]Cc1ccc2c(c1)OCO2)c1cn([C@H](CO)Cc2ccccc2)nn1
REMARK SMILES IDX 16 1 17 2 18 3 29 4 30 5 4 7 2 8 1 9 3 10 5 11 6 14 7 15
REMARK SMILES IDX 8 16 12 17 9 18 11 19 10 20 13 21 15 22 14 23 19 24 20 25
REMARK SMILES IDX 21 26 22 28 23 29 24 30 28 31 25 32 27 33 26 34
REMARK H PARENT 17 6 5 12 5 13 21 27
ROOT
ATOM     1   C13 UNL     1       1.574  -0.205  -1.577  1.00  0.00     0.127 A   
ATOM     2   C14 UNL     1       2.340   0.907  -1.306  1.00  0.00     0.046 A   
ATOM     3   N2  UNL     1       1.635   1.934  -1.872  1.00  0.00    -0.206 N   
ATOM     4   N3  UNL     1       0.546   1.470  -2.521  1.00  0.00    -0.076 NA  
ATOM     5   N4  UNL     1       0.488   0.164  -2.331  1.00  0.00    -0.132 NA  
ATOM     6   H18 UNL     1       3.244   1.074  -0.733  1.00  0.00     0.083 HD  
ENDROOT
BRANCH   1   7
ATOM     7   C4  UNL     1       1.674  -1.610  -1.085  1.00  0.00     0.117 C   
BRANCH   7   8
ATOM     8   C2  UNL     1       2.332  -2.565  -2.114  1.00  0.00     0.037 C   
ATOM     9   C1  UNL     1       2.699  -3.911  -1.477  1.00  0.00     0.014 C   
ATOM     10  C3  UNL     1       1.498  -2.808  -3.376  1.00  0.00     0.014 C   
ENDBRANCH   7   8
BRANCH   7  11
ATOM     11  N1  UNL     1       0.298  -2.094  -0.708  1.00  0.00     0.249 N   
ATOM     12  H9  UNL     1      -0.335  -1.778  -1.461  1.00  0.00     0.199 HD  
ATOM     13  H10 UNL     1       0.228  -3.115  -0.693  1.00  0.00     0.199 HD  
BRANCH  11  14
ATOM     14  C5  UNL     1      -0.239  -1.535   0.567  1.00  0.00     0.164 C   
BRANCH  14  15
ATOM     15  C6  UNL     1      -1.657  -1.986   0.776  1.00  0.00    -0.002 A   
ATOM     16  C7  UNL     1      -2.732  -1.161   0.362  1.00  0.00     0.012 A   
ATOM     17  C11 UNL     1      -1.923  -3.255   1.317  1.00  0.00     0.045 A   
ATOM     18  C8  UNL     1      -4.057  -1.593   0.493  1.00  0.00     0.037 A   
ATOM     19  C10 UNL     1      -3.240  -3.652   1.422  1.00  0.00     0.109 A   
ATOM     20  C9  UNL     1      -4.278  -2.846   1.022  1.00  0.00     0.108 A   
ATOM     21  O1  UNL     1      -3.667  -4.851   1.905  1.00  0.00    -0.316 OA  
ATOM     22  O2  UNL     1      -5.489  -3.431   1.205  1.00  0.00    -0.316 OA  
ATOM     23  C12 UNL     1      -5.100  -4.697   1.788  1.00  0.00     0.337 C   
ENDBRANCH  14  15
ENDBRANCH  11  14
ENDBRANCH   7  11
ENDBRANCH   1   7
BRANCH   3  24
ATOM     24  C15 UNL     1       1.834   3.372  -1.729  1.00  0.00     0.129 C   
BRANCH  24  25
ATOM     25  C16 UNL     1       3.045   3.834  -2.550  1.00  0.00     0.181 C   
BRANCH  25  26
ATOM     26  O3  UNL     1       4.268   3.413  -1.950  1.00  0.00    -0.394 OA  
ATOM     27  H22 UNL     1       4.991   3.757  -2.510  1.00  0.00     0.210 HD  
ENDBRANCH  25  26
ENDBRANCH  24  25
BRANCH  24  28
ATOM     28  C17 UNL     1       1.920   3.807  -0.247  1.00  0.00     0.063 C   
BRANCH  28  29
ATOM     29  C18 UNL     1       0.811   3.281   0.649  1.00  0.00    -0.046 A   
ATOM     30  C19 UNL     1       1.132   2.671   1.872  1.00  0.00     0.004 A   
ATOM     31  C23 UNL     1      -0.540   3.405   0.295  1.00  0.00     0.004 A   
ATOM     32  C20 UNL     1       0.130   2.174   2.708  1.00  0.00     0.000 A   
ATOM     33  C22 UNL     1      -1.542   2.901   1.131  1.00  0.00     0.000 A   
ATOM     34  C21 UNL     1      -1.206   2.282   2.333  1.00  0.00     0.000 A   
ENDBRANCH  28  29
ENDBRANCH  24  28
ENDBRANCH   3  24
TORSDOF 10
