REMARK SMILES CC(C)(C)[C@H]([NH2+]Cc1ccc2c(c1)OCO2)c1cn(Cc2ccncc2Cl)nn1
REMARK SMILES IDX 17 1 18 2 19 3 28 4 29 5 5 7 2 8 1 9 3 10 4 11 6 12 7 15
REMARK SMILES IDX 8 16 9 17 13 18 10 19 12 20 11 21 14 22 16 23 15 24 20 25
REMARK SMILES IDX 21 26 22 27 26 28 23 29 25 30 24 31 27 32
REMARK H PARENT 18 6 6 13 6 14
ROOT
ATOM     1   C14 UNL     1       0.468  -0.888   0.917  1.00  0.00     0.127 A   
ATOM     2   C15 UNL     1       1.441   0.071   1.088  1.00  0.00     0.046 A   
ATOM     3   N2  UNL     1       2.316  -0.159   0.063  1.00  0.00    -0.208 N   
ATOM     4   N4  UNL     1       1.915  -1.207  -0.684  1.00  0.00    -0.076 NA  
ATOM     5   N5  UNL     1       0.775  -1.650  -0.181  1.00  0.00    -0.132 NA  
ATOM     6   H20 UNL     1       1.582   0.867   1.806  1.00  0.00     0.083 HD  
ENDROOT
BRANCH   1   7
ATOM     7   C5  UNL     1      -0.810  -1.149   1.655  1.00  0.00     0.120 C   
BRANCH   7   8
ATOM     8   C2  UNL     1      -0.687  -2.210   2.803  1.00  0.00     0.010 C   
ATOM     9   C1  UNL     1       0.381  -1.764   3.827  1.00  0.00     0.017 C   
ATOM     10  C3  UNL     1      -0.302  -3.611   2.286  1.00  0.00     0.017 C   
ATOM     11  C4  UNL     1      -2.026  -2.320   3.570  1.00  0.00     0.017 C   
ENDBRANCH   7   8
BRANCH   7  12
ATOM     12  N1  UNL     1      -1.864  -1.572   0.647  1.00  0.00     0.250 N   
ATOM     13  H11 UNL     1      -2.392  -2.385   0.973  1.00  0.00     0.199 HD  
ATOM     14  H12 UNL     1      -1.343  -1.906  -0.181  1.00  0.00     0.199 HD  
BRANCH  12  15
ATOM     15  C6  UNL     1      -2.816  -0.517   0.206  1.00  0.00     0.164 C   
BRANCH  15  16
ATOM     16  C7  UNL     1      -2.180   0.574  -0.608  1.00  0.00    -0.002 A   
ATOM     17  C8  UNL     1      -1.936   1.848  -0.042  1.00  0.00     0.012 A   
ATOM     18  C12 UNL     1      -1.809   0.330  -1.942  1.00  0.00     0.045 A   
ATOM     19  C9  UNL     1      -1.336   2.866  -0.791  1.00  0.00     0.037 A   
ATOM     20  C11 UNL     1      -1.228   1.358  -2.656  1.00  0.00     0.109 A   
ATOM     21  C10 UNL     1      -0.998   2.590  -2.097  1.00  0.00     0.108 A   
ATOM     22  O1  UNL     1      -0.836   1.294  -3.955  1.00  0.00    -0.316 OA  
ATOM     23  O2  UNL     1      -0.429   3.458  -2.973  1.00  0.00    -0.316 OA  
ATOM     24  C13 UNL     1      -0.372   2.646  -4.168  1.00  0.00     0.337 C   
ENDBRANCH  15  16
ENDBRANCH  12  15
ENDBRANCH   7  12
ENDBRANCH   1   7
BRANCH   3  25
ATOM     25  C16 UNL     1       3.566   0.523  -0.226  1.00  0.00     0.171 C   
BRANCH  25  26
ATOM     26  C17 UNL     1       3.439   1.449  -1.407  1.00  0.00    -0.007 A   
ATOM     27  C18 UNL     1       3.812   0.988  -2.681  1.00  0.00     0.027 A   
ATOM     28  C21 UNL     1       2.949   2.756  -1.301  1.00  0.00     0.064 A   
ATOM     29  C19 UNL     1       3.698   1.837  -3.770  1.00  0.00     0.111 A   
ATOM     30  C20 UNL     1       2.874   3.532  -2.452  1.00  0.00     0.131 A   
ATOM     31  N3  UNL     1       3.235   3.100  -3.683  1.00  0.00    -0.263 NA  
ATOM     32  CL1 UNL     1       2.434   3.436   0.195  1.00  0.00    -0.082 Cl  
ENDBRANCH  25  26
ENDBRANCH   3  25
TORSDOF 7
