REMARK SMILES Cc1nc(Cn2cc([C@@H]([NH2+]Cc3ccc4c(c3)OCO4)C3CCCC3)nn2)ccc1F
REMARK SMILES IDX 6 1 7 2 8 3 26 4 27 5 5 7 4 8 2 9 3 10 30 11 29 12 28 13
REMARK SMILES IDX 1 14 31 15 9 16 10 17 11 20 12 21 13 22 17 23 14 24 16 25
REMARK SMILES IDX 15 26 18 27 20 28 19 29 21 30 22 31 25 32 23 33 24 34
REMARK H PARENT 7 6 10 18 10 19
ROOT
ATOM     1   N2  UNL     1       0.134  -3.274   0.235  1.00  0.00    -0.206 N   
ATOM     2   C5  UNL     1       1.001  -2.422   0.863  1.00  0.00     0.046 A   
ATOM     3   C6  UNL     1       0.194  -1.409   1.329  1.00  0.00     0.127 A   
ATOM     4   N4  UNL     1      -1.107  -1.673   0.981  1.00  0.00    -0.132 NA  
ATOM     5   N5  UNL     1      -1.131  -2.812   0.308  1.00  0.00    -0.076 NA  
ATOM     6   H6  UNL     1       2.067  -2.607   0.894  1.00  0.00     0.083 HD  
ENDROOT
BRANCH   1   7
ATOM     7   C4  UNL     1       0.433  -4.520  -0.442  1.00  0.00     0.190 C   
BRANCH   7   8
ATOM     8   C3  UNL     1       0.866  -4.246  -1.857  1.00  0.00     0.060 A   
ATOM     9   C2  UNL     1       2.587  -3.672  -3.320  1.00  0.00     0.073 A   
ATOM     10  N1  UNL     1       2.173  -3.920  -2.047  1.00  0.00    -0.253 NA  
ATOM     11  C23 UNL     1       1.721  -3.718  -4.406  1.00  0.00     0.144 A   
ATOM     12  C22 UNL     1       0.387  -4.032  -4.199  1.00  0.00     0.043 A   
ATOM     13  C21 UNL     1      -0.053  -4.301  -2.906  1.00  0.00     0.028 A   
ATOM     14  C1  UNL     1       4.033  -3.341  -3.530  1.00  0.00     0.070 C   
ATOM     15  F1  UNL     1       2.158  -3.456  -5.645  1.00  0.00    -0.205 F   
ENDBRANCH   7   8
ENDBRANCH   1   7
BRANCH   3  16
ATOM     16  C7  UNL     1       0.521  -0.139   2.046  1.00  0.00     0.117 C   
BRANCH  16  17
ATOM     17  N3  UNL     1      -0.372   0.966   1.538  1.00  0.00     0.249 N   
ATOM     18  H8  UNL     1      -1.336   0.601   1.557  1.00  0.00     0.199 HD  
ATOM     19  H9  UNL     1      -0.361   1.782   2.156  1.00  0.00     0.199 HD  
BRANCH  17  20
ATOM     20  C8  UNL     1      -0.096   1.420   0.146  1.00  0.00     0.164 C   
BRANCH  20  21
ATOM     21  C9  UNL     1      -1.074   2.487  -0.258  1.00  0.00    -0.002 A   
ATOM     22  C10 UNL     1      -2.332   2.128  -0.800  1.00  0.00     0.012 A   
ATOM     23  C14 UNL     1      -0.771   3.842  -0.049  1.00  0.00     0.045 A   
ATOM     24  C11 UNL     1      -3.272   3.106  -1.143  1.00  0.00     0.037 A   
ATOM     25  C13 UNL     1      -1.720   4.781  -0.398  1.00  0.00     0.109 A   
ATOM     26  C12 UNL     1      -2.934   4.424  -0.930  1.00  0.00     0.108 A   
ATOM     27  O1  UNL     1      -1.588   6.126  -0.261  1.00  0.00    -0.316 OA  
ATOM     28  O2  UNL     1      -3.718   5.499  -1.200  1.00  0.00    -0.316 OA  
ATOM     29  C15 UNL     1      -2.850   6.582  -0.800  1.00  0.00     0.337 C   
ENDBRANCH  20  21
ENDBRANCH  17  20
ENDBRANCH  16  17
BRANCH  16  30
ATOM     30  C16 UNL     1       0.323  -0.268   3.568  1.00  0.00     0.043 C   
ATOM     31  C17 UNL     1       0.676   0.995   4.361  1.00  0.00     0.010 C   
ATOM     32  C20 UNL     1       1.245  -1.306   4.217  1.00  0.00     0.010 C   
ATOM     33  C18 UNL     1       0.909   0.515   5.792  1.00  0.00     0.001 C   
ATOM     34  C19 UNL     1       1.170  -0.986   5.703  1.00  0.00     0.001 C   
ENDBRANCH  16  30
ENDBRANCH   3  16
TORSDOF 7
