REMARK SMILES Cc1ccc([C@H](CO)n2cc([C@@H]([NH2+]Cc3ccc4c(c3)OCO4)C3CCCCC3)nn2)o1
REMARK SMILES IDX 9 1 10 2 11 3 30 4 31 5 6 7 5 8 2 9 3 10 32 11 4 12 1 13
REMARK SMILES IDX 7 14 8 15 12 17 13 18 14 21 15 22 16 23 20 24 17 25 19 26
REMARK SMILES IDX 18 27 21 28 23 29 22 30 24 31 25 32 29 33 26 34 28 35 27 36
REMARK H PARENT 10 6 8 16 13 19 13 20
ROOT
ATOM     1   N1  UNL     1      -2.178  -0.845  -0.576  1.00  0.00    -0.200 N   
ATOM     2   C8  UNL     1      -1.203   0.116  -0.506  1.00  0.00     0.046 A   
ATOM     3   C9  UNL     1      -0.036  -0.595  -0.356  1.00  0.00     0.127 A   
ATOM     4   N3  UNL     1      -0.325  -1.935  -0.321  1.00  0.00    -0.132 NA  
ATOM     5   N4  UNL     1      -1.635  -2.076  -0.447  1.00  0.00    -0.075 NA  
ATOM     6   H10 UNL     1      -1.435   1.172  -0.546  1.00  0.00     0.083 HD  
ENDROOT
BRANCH   1   7
ATOM     7   C6  UNL     1      -3.624  -0.690  -0.689  1.00  0.00     0.179 C   
BRANCH   7   8
ATOM     8   C5  UNL     1      -3.980   0.359  -1.698  1.00  0.00     0.084 A   
ATOM     9   C2  UNL     1      -4.369   2.421  -2.345  1.00  0.00     0.056 A   
ATOM     10  C3  UNL     1      -4.552   1.627  -3.455  1.00  0.00     0.031 A   
ATOM     11  O4  UNL     1      -4.015   1.657  -1.276  1.00  0.00    -0.317 OA  
ATOM     12  C4  UNL     1      -4.302   0.297  -3.039  1.00  0.00     0.034 A   
ATOM     13  C1  UNL     1      -4.483   3.873  -2.103  1.00  0.00     0.073 C   
ENDBRANCH   7   8
BRANCH   7  14
ATOM     14  C7  UNL     1      -4.286  -0.485   0.684  1.00  0.00     0.188 C   
BRANCH  14  15
ATOM     15  O1  UNL     1      -3.675   0.552   1.458  1.00  0.00    -0.394 OA  
ATOM     16  H9  UNL     1      -4.330   0.829   2.126  1.00  0.00     0.210 HD  
ENDBRANCH  14  15
ENDBRANCH   7  14
ENDBRANCH   1   7
BRANCH   3  17
ATOM     17  C10 UNL     1       1.368  -0.132  -0.138  1.00  0.00     0.117 C   
BRANCH  17  18
ATOM     18  N2  UNL     1       1.937  -0.886   1.042  1.00  0.00     0.249 N   
ATOM     19  H12 UNL     1       1.788  -1.888   0.855  1.00  0.00     0.199 HD  
ATOM     20  H13 UNL     1       2.946  -0.753   1.136  1.00  0.00     0.199 HD  
BRANCH  18  21
ATOM     21  C11 UNL     1       1.305  -0.576   2.357  1.00  0.00     0.164 C   
BRANCH  21  22
ATOM     22  C12 UNL     1       1.935  -1.398   3.447  1.00  0.00    -0.002 A   
ATOM     23  C13 UNL     1       1.467  -2.708   3.708  1.00  0.00     0.012 A   
ATOM     24  C17 UNL     1       3.023  -0.892   4.178  1.00  0.00     0.045 A   
ATOM     25  C14 UNL     1       2.064  -3.500   4.695  1.00  0.00     0.037 A   
ATOM     26  C16 UNL     1       3.587  -1.699   5.144  1.00  0.00     0.109 A   
ATOM     27  C15 UNL     1       3.121  -2.966   5.396  1.00  0.00     0.108 A   
ATOM     28  O2  UNL     1       4.636  -1.364   5.939  1.00  0.00    -0.316 OA  
ATOM     29  O3  UNL     1       3.817  -3.586   6.384  1.00  0.00    -0.316 OA  
ATOM     30  C18 UNL     1       4.758  -2.555   6.750  1.00  0.00     0.337 C   
ENDBRANCH  21  22
ENDBRANCH  18  21
ENDBRANCH  17  18
BRANCH  17  31
ATOM     31  C19 UNL     1       2.273  -0.371  -1.386  1.00  0.00     0.043 C   
ATOM     32  C20 UNL     1       3.729   0.115  -1.207  1.00  0.00     0.010 C   
ATOM     33  C24 UNL     1       1.711   0.293  -2.665  1.00  0.00     0.010 C   
ATOM     34  C21 UNL     1       3.844   1.637  -1.146  1.00  0.00     0.001 C   
ATOM     35  C23 UNL     1       1.792   1.818  -2.621  1.00  0.00     0.001 C   
ATOM     36  C22 UNL     1       3.219   2.297  -2.372  1.00  0.00     0.000 C   
ENDBRANCH  17  31
ENDBRANCH   3  17
TORSDOF 9
