REMARK SMILES Cc1ccc([C@@H](CO)n2cc([C@@H]([NH2+]Cc3ccc4c(c3)OCO4)C3CCCCC3)nn2)o1
REMARK SMILES IDX 9 1 10 2 11 3 30 4 31 5 6 7 5 8 2 9 3 10 32 11 4 12 1 13
REMARK SMILES IDX 7 14 8 15 12 17 13 18 14 21 15 22 16 23 20 24 17 25 19 26
REMARK SMILES IDX 18 27 21 28 23 29 22 30 24 31 25 32 29 33 26 34 28 35 27 36
REMARK H PARENT 10 6 8 16 13 19 13 20
ROOT
ATOM     1   N1  UNL     1       1.457  -2.729  -1.235  1.00  0.00    -0.200 N   
ATOM     2   C8  UNL     1       1.932  -1.448  -1.150  1.00  0.00     0.046 A   
ATOM     3   C9  UNL     1       1.645  -1.061   0.138  1.00  0.00     0.127 A   
ATOM     4   N3  UNL     1       1.026  -2.094   0.792  1.00  0.00    -0.132 NA  
ATOM     5   N4  UNL     1       0.918  -3.107  -0.052  1.00  0.00    -0.075 NA  
ATOM     6   H10 UNL     1       2.379  -0.949  -2.000  1.00  0.00     0.083 HD  
ENDROOT
BRANCH   1   7
ATOM     7   C6  UNL     1       1.450  -3.645  -2.372  1.00  0.00     0.179 C   
BRANCH   7   8
ATOM     8   C5  UNL     1       0.481  -3.199  -3.424  1.00  0.00     0.084 A   
ATOM     9   C2  UNL     1      -0.385  -1.758  -4.840  1.00  0.00     0.056 A   
ATOM     10  C3  UNL     1      -1.114  -2.916  -4.978  1.00  0.00     0.031 A   
ATOM     11  O4  UNL     1       0.586  -1.921  -3.897  1.00  0.00    -0.317 OA  
ATOM     12  C4  UNL     1      -0.556  -3.847  -4.066  1.00  0.00     0.034 A   
ATOM     13  C1  UNL     1      -0.443  -0.439  -5.505  1.00  0.00     0.073 C   
ENDBRANCH   7   8
BRANCH   7  14
ATOM     14  C7  UNL     1       2.856  -3.945  -2.924  1.00  0.00     0.188 C   
BRANCH  14  15
ATOM     15  O1  UNL     1       3.550  -2.786  -3.391  1.00  0.00    -0.394 OA  
ATOM     16  H9  UNL     1       4.359  -3.093  -3.836  1.00  0.00     0.210 HD  
ENDBRANCH  14  15
ENDBRANCH   7  14
ENDBRANCH   1   7
BRANCH   3  17
ATOM     17  C10 UNL     1       1.799   0.259   0.822  1.00  0.00     0.117 C   
BRANCH  17  18
ATOM     18  N2  UNL     1       0.466   0.618   1.438  1.00  0.00     0.249 N   
ATOM     19  H12 UNL     1       0.166  -0.199   1.990  1.00  0.00     0.199 HD  
ATOM     20  H13 UNL     1       0.542   1.401   2.090  1.00  0.00     0.199 HD  
BRANCH  18  21
ATOM     21  C11 UNL     1      -0.621   0.920   0.462  1.00  0.00     0.164 C   
BRANCH  21  22
ATOM     22  C12 UNL     1      -1.915   1.199   1.174  1.00  0.00    -0.002 A   
ATOM     23  C13 UNL     1      -2.332   2.529   1.415  1.00  0.00     0.012 A   
ATOM     24  C17 UNL     1      -2.704   0.130   1.636  1.00  0.00     0.045 A   
ATOM     25  C14 UNL     1      -3.529   2.792   2.092  1.00  0.00     0.037 A   
ATOM     26  C16 UNL     1      -3.873   0.426   2.305  1.00  0.00     0.109 A   
ATOM     27  C15 UNL     1      -4.280   1.719   2.518  1.00  0.00     0.108 A   
ATOM     28  O2  UNL     1      -4.739  -0.484   2.824  1.00  0.00    -0.316 OA  
ATOM     29  O3  UNL     1      -5.464   1.785   3.182  1.00  0.00    -0.316 OA  
ATOM     30  C18 UNL     1      -5.764   0.386   3.353  1.00  0.00     0.337 C   
ENDBRANCH  21  22
ENDBRANCH  18  21
ENDBRANCH  17  18
BRANCH  17  31
ATOM     31  C19 UNL     1       2.892   0.226   1.934  1.00  0.00     0.043 C   
ATOM     32  C20 UNL     1       3.065   1.562   2.689  1.00  0.00     0.010 C   
ATOM     33  C24 UNL     1       4.277  -0.189   1.386  1.00  0.00     0.010 C   
ATOM     34  C21 UNL     1       3.675   2.658   1.816  1.00  0.00     0.001 C   
ATOM     35  C23 UNL     1       4.910   0.882   0.497  1.00  0.00     0.001 C   
ATOM     36  C22 UNL     1       5.012   2.223   1.220  1.00  0.00     0.000 C   
ENDBRANCH  17  31
ENDBRANCH   3  17
TORSDOF 9
