REMARK SMILES CN(C)c1ccc(Cn2cc([C@@H]([NH2+]Cc3ccc4c(c3)OCO4)C3CCCCC3)nn2)cc1F
REMARK SMILES IDX 9 1 10 2 11 3 30 4 31 5 8 7 7 8 4 9 5 10 33 11 6 12 32 13
REMARK SMILES IDX 34 14 2 15 1 16 3 17 12 18 13 19 14 22 15 23 16 24 20 25
REMARK SMILES IDX 17 26 19 27 18 28 21 29 23 30 22 31 24 32 25 33 29 34 26 35
REMARK SMILES IDX 28 36 27 37
REMARK H PARENT 10 6 13 20 13 21
ROOT
ATOM     1   N2  UNL     1       3.114   0.239  -0.136  1.00  0.00    -0.208 N   
ATOM     2   C8  UNL     1       1.943  -0.427   0.106  1.00  0.00     0.046 A   
ATOM     3   C9  UNL     1       1.399   0.237   1.184  1.00  0.00     0.127 A   
ATOM     4   N4  UNL     1       2.263   1.225   1.585  1.00  0.00    -0.132 NA  
ATOM     5   N5  UNL     1       3.314   1.204   0.783  1.00  0.00    -0.076 NA  
ATOM     6   H11 UNL     1       1.606  -1.251  -0.509  1.00  0.00     0.083 HD  
ENDROOT
BRANCH   1   7
ATOM     7   C7  UNL     1       4.089  -0.001  -1.188  1.00  0.00     0.169 C   
BRANCH   7   8
ATOM     8   C6  UNL     1       3.498   0.256  -2.550  1.00  0.00    -0.026 A   
ATOM     9   C3  UNL     1       2.332   0.741  -5.122  1.00  0.00     0.064 A   
ATOM     10  C4  UNL     1       2.661   1.790  -4.243  1.00  0.00     0.027 A   
ATOM     11  C26 UNL     1       2.600  -0.560  -4.655  1.00  0.00     0.144 A   
ATOM     12  C5  UNL     1       3.234   1.559  -2.984  1.00  0.00     0.007 A   
ATOM     13  C25 UNL     1       3.175  -0.803  -3.402  1.00  0.00     0.046 A   
ATOM     14  F1  UNL     1       2.334  -1.638  -5.408  1.00  0.00    -0.205 F   
BRANCH   9  15
ATOM     15  N1  UNL     1       1.733   1.044  -6.361  1.00  0.00    -0.335 N   
ATOM     16  C1  UNL     1       1.138  -0.056  -7.124  1.00  0.00     0.129 C   
ATOM     17  C2  UNL     1       2.487   2.000  -7.181  1.00  0.00     0.129 C   
ENDBRANCH   9  15
ENDBRANCH   7   8
ENDBRANCH   1   7
BRANCH   3  18
ATOM     18  C10 UNL     1       0.112   0.036   1.919  1.00  0.00     0.117 C   
BRANCH  18  19
ATOM     19  N3  UNL     1       0.220   0.575   3.326  1.00  0.00     0.249 N   
ATOM     20  H13 UNL     1      -0.704   0.750   3.726  1.00  0.00     0.199 HD  
ATOM     21  H14 UNL     1       0.692   1.487   3.245  1.00  0.00     0.199 HD  
BRANCH  19  22
ATOM     22  C11 UNL     1       1.016  -0.247   4.284  1.00  0.00     0.164 C   
BRANCH  22  23
ATOM     23  C12 UNL     1       0.367  -1.566   4.604  1.00  0.00    -0.002 A   
ATOM     24  C13 UNL     1       0.950  -2.774   4.151  1.00  0.00     0.012 A   
ATOM     25  C17 UNL     1      -0.835  -1.610   5.333  1.00  0.00     0.045 A   
ATOM     26  C14 UNL     1       0.344  -4.009   4.411  1.00  0.00     0.037 A   
ATOM     27  C16 UNL     1      -1.406  -2.843   5.571  1.00  0.00     0.109 A   
ATOM     28  C15 UNL     1      -0.834  -4.008   5.123  1.00  0.00     0.108 A   
ATOM     29  O1  UNL     1      -2.561  -3.059   6.253  1.00  0.00    -0.316 OA  
ATOM     30  O2  UNL     1      -1.556  -5.105   5.469  1.00  0.00    -0.316 OA  
ATOM     31  C18 UNL     1      -2.636  -4.503   6.216  1.00  0.00     0.337 C   
ENDBRANCH  22  23
ENDBRANCH  19  22
ENDBRANCH  18  19
BRANCH  18  32
ATOM     32  C19 UNL     1      -1.088   0.691   1.181  1.00  0.00     0.043 C   
ATOM     33  C20 UNL     1      -2.438   0.198   1.738  1.00  0.00     0.010 C   
ATOM     34  C24 UNL     1      -1.050   2.232   1.165  1.00  0.00     0.010 C   
ATOM     35  C21 UNL     1      -3.616   0.786   0.964  1.00  0.00     0.001 C   
ATOM     36  C23 UNL     1      -2.233   2.816   0.393  1.00  0.00     0.001 C   
ATOM     37  C22 UNL     1      -3.565   2.310   0.937  1.00  0.00     0.000 C   
ENDBRANCH  18  32
ENDBRANCH   3  18
TORSDOF 8
