REMARK SMILES COc1c(C)cnc(Cn2cc([C@@H]([NH2+]Cc3ccc4c(c3)OCO4)C3CCCC3)nn2)c1C
REMARK SMILES IDX 10 1 11 2 12 3 30 4 31 5 9 7 8 8 3 9 4 10 32 11 6 12 7 13
REMARK SMILES IDX 5 14 33 15 2 16 1 17 13 18 14 19 15 22 16 23 17 24 21 25
REMARK SMILES IDX 18 26 20 27 19 28 22 29 24 30 23 31 25 32 26 33 29 34 27 35
REMARK SMILES IDX 28 36
REMARK H PARENT 11 6 14 20 14 21
ROOT
ATOM     1   N2  UNL     1       0.628   2.172   0.331  1.00  0.00    -0.206 N   
ATOM     2   C8  UNL     1      -0.636   1.647   0.349  1.00  0.00     0.046 A   
ATOM     3   C9  UNL     1      -0.691   0.958   1.538  1.00  0.00     0.127 A   
ATOM     4   N4  UNL     1       0.504   1.100   2.198  1.00  0.00    -0.132 NA  
ATOM     5   N5  UNL     1       1.295   1.858   1.460  1.00  0.00    -0.076 NA  
ATOM     6   H10 UNL     1      -1.324   1.776  -0.475  1.00  0.00     0.083 HD  
ENDROOT
BRANCH   1   7
ATOM     7   C7  UNL     1       1.254   2.973  -0.705  1.00  0.00     0.190 C   
BRANCH   7   8
ATOM     8   C6  UNL     1       1.830   2.081  -1.774  1.00  0.00     0.065 A   
ATOM     9   C2  UNL     1       3.586   0.863  -2.850  1.00  0.00     0.084 A   
ATOM     10  C3  UNL     1       2.674   0.383  -3.793  1.00  0.00    -0.002 A   
ATOM     11  C24 UNL     1       3.175   1.687  -1.790  1.00  0.00     0.003 A   
ATOM     12  C5  UNL     1       1.371   0.836  -3.684  1.00  0.00     0.117 A   
ATOM     13  N1  UNL     1       0.934   1.665  -2.710  1.00  0.00    -0.259 NA  
ATOM     14  C4  UNL     1       3.064  -0.542  -4.903  1.00  0.00     0.049 C   
ATOM     15  C25 UNL     1       4.156   2.152  -0.750  1.00  0.00     0.049 C   
BRANCH   9  16
ATOM     16  O1  UNL     1       4.894   0.450  -2.916  1.00  0.00    -0.349 OA  
ATOM     17  C1  UNL     1       5.660   1.340  -3.731  1.00  0.00     0.203 C   
ENDBRANCH   9  16
ENDBRANCH   7   8
ENDBRANCH   1   7
BRANCH   3  18
ATOM     18  C10 UNL     1      -1.744   0.082   2.135  1.00  0.00     0.117 C   
BRANCH  18  19
ATOM     19  N3  UNL     1      -1.069  -1.087   2.821  1.00  0.00     0.249 N   
ATOM     20  H12 UNL     1      -0.075  -0.819   2.912  1.00  0.00     0.199 HD  
ATOM     21  H13 UNL     1      -1.399  -1.192   3.785  1.00  0.00     0.199 HD  
BRANCH  19  22
ATOM     22  C11 UNL     1      -1.139  -2.401   2.129  1.00  0.00     0.164 C   
BRANCH  22  23
ATOM     23  C12 UNL     1      -0.621  -2.402   0.717  1.00  0.00    -0.002 A   
ATOM     24  C13 UNL     1       0.731  -2.096   0.431  1.00  0.00     0.012 A   
ATOM     25  C17 UNL     1      -1.492  -2.718  -0.341  1.00  0.00     0.045 A   
ATOM     26  C14 UNL     1       1.208  -2.096  -0.886  1.00  0.00     0.037 A   
ATOM     27  C16 UNL     1      -0.990  -2.715  -1.625  1.00  0.00     0.109 A   
ATOM     28  C15 UNL     1       0.323  -2.415  -1.891  1.00  0.00     0.108 A   
ATOM     29  O2  UNL     1      -1.698  -3.000  -2.750  1.00  0.00    -0.316 OA  
ATOM     30  O3  UNL     1       0.609  -2.482  -3.218  1.00  0.00    -0.316 OA  
ATOM     31  C18 UNL     1      -0.669  -2.879  -3.757  1.00  0.00     0.337 C   
ENDBRANCH  22  23
ENDBRANCH  19  22
ENDBRANCH  18  19
BRANCH  18  32
ATOM     32  C19 UNL     1      -2.643   0.853   3.120  1.00  0.00     0.043 C   
ATOM     33  C20 UNL     1      -3.829   0.047   3.657  1.00  0.00     0.010 C   
ATOM     34  C23 UNL     1      -1.958   1.407   4.383  1.00  0.00     0.010 C   
ATOM     35  C21 UNL     1      -4.298   0.888   4.833  1.00  0.00     0.001 C   
ATOM     36  C22 UNL     1      -3.003   1.332   5.498  1.00  0.00     0.001 C   
ENDBRANCH  18  32
ENDBRANCH   3  18
TORSDOF 8
