REMARK SMILES Cc1cc([C@@H](O)Cn2cc([C@@H]([NH2+]Cc3ccc4c(c3)OCO4)C(C)(C)C)nn2)cs1
REMARK SMILES IDX 8 1 9 2 10 3 27 4 28 5 7 7 5 8 4 9 2 10 3 11 30 12 29 13
REMARK SMILES IDX 1 14 6 15 11 17 12 18 13 21 14 22 15 23 19 24 16 25 18 26
REMARK SMILES IDX 17 27 20 28 22 29 21 30 23 31 24 32 25 33 26 34
REMARK H PARENT 9 6 6 16 12 19 12 20
ROOT
ATOM     1   N1  UNL     1       2.785  -0.834  -0.960  1.00  0.00    -0.209 N   
ATOM     2   C7  UNL     1       2.012  -0.683   0.157  1.00  0.00     0.046 A   
ATOM     3   C8  UNL     1       1.208  -1.802   0.157  1.00  0.00     0.127 A   
ATOM     4   N3  UNL     1       1.512  -2.573  -0.935  1.00  0.00    -0.132 NA  
ATOM     5   N4  UNL     1       2.487  -1.978  -1.601  1.00  0.00    -0.076 NA  
ATOM     6   H9  UNL     1       2.081   0.184   0.800  1.00  0.00     0.083 HD  
ENDROOT
BRANCH   1   7
ATOM     7   C6  UNL     1       3.744   0.097  -1.507  1.00  0.00     0.170 C   
BRANCH   7   8
ATOM     8   C5  UNL     1       3.369   0.611  -2.902  1.00  0.00     0.164 C   
BRANCH   8   9
ATOM     9   C4  UNL     1       1.984   1.210  -2.959  1.00  0.00    -0.010 A   
ATOM     10  C2  UNL     1       0.271   2.767  -2.575  1.00  0.00    -0.014 A   
ATOM     11  C3  UNL     1       1.605   2.471  -2.387  1.00  0.00     0.017 A   
ATOM     12  S1  UNL     1      -0.532   1.531  -3.439  1.00  0.00    -0.102 S   
ATOM     13  C22 UNL     1       0.900   0.611  -3.574  1.00  0.00     0.052 A   
ATOM     14  C1  UNL     1      -0.481   3.981  -2.141  1.00  0.00     0.052 C   
ENDBRANCH   8   9
BRANCH   8  15
ATOM     15  O1  UNL     1       4.345   1.582  -3.291  1.00  0.00    -0.387 OA  
ATOM     16  H6  UNL     1       4.075   1.919  -4.165  1.00  0.00     0.211 HD  
ENDBRANCH   8  15
ENDBRANCH   7   8
ENDBRANCH   1   7
BRANCH   3  17
ATOM     17  C9  UNL     1       0.068  -2.188   1.048  1.00  0.00     0.120 C   
BRANCH  17  18
ATOM     18  N2  UNL     1      -1.088  -2.661   0.189  1.00  0.00     0.250 N   
ATOM     19  H11 UNL     1      -0.703  -3.379  -0.441  1.00  0.00     0.199 HD  
ATOM     20  H12 UNL     1      -1.810  -3.107   0.756  1.00  0.00     0.199 HD  
BRANCH  18  21
ATOM     21  C10 UNL     1      -1.736  -1.626  -0.675  1.00  0.00     0.164 C   
BRANCH  21  22
ATOM     22  C11 UNL     1      -2.444  -0.562   0.117  1.00  0.00    -0.002 A   
ATOM     23  C12 UNL     1      -3.678  -0.841   0.751  1.00  0.00     0.012 A   
ATOM     24  C16 UNL     1      -1.865   0.711   0.262  1.00  0.00     0.045 A   
ATOM     25  C13 UNL     1      -4.326   0.133   1.520  1.00  0.00     0.037 A   
ATOM     26  C15 UNL     1      -2.529   1.647   1.025  1.00  0.00     0.109 A   
ATOM     27  C14 UNL     1      -3.724   1.366   1.638  1.00  0.00     0.108 A   
ATOM     28  O2  UNL     1      -2.104   2.915   1.268  1.00  0.00    -0.316 OA  
ATOM     29  O3  UNL     1      -4.206   2.423   2.341  1.00  0.00    -0.316 OA  
ATOM     30  C17 UNL     1      -3.194   3.417   2.076  1.00  0.00     0.337 C   
ENDBRANCH  21  22
ENDBRANCH  18  21
ENDBRANCH  17  18
BRANCH  17  31
ATOM     31  C18 UNL     1       0.430  -3.270   2.127  1.00  0.00     0.010 C   
ATOM     32  C19 UNL     1       0.804  -4.634   1.514  1.00  0.00     0.017 C   
ATOM     33  C20 UNL     1       1.619  -2.780   2.986  1.00  0.00     0.017 C   
ATOM     34  C21 UNL     1      -0.762  -3.485   3.089  1.00  0.00     0.017 C   
ENDBRANCH  17  31
ENDBRANCH   3  17
TORSDOF 9
