REMARK SMILES Cc1cc([C@H](O)Cn2cc([C@@H]([NH2+]Cc3ccc4c(c3)OCO4)C(C)(C)C)nn2)cs1
REMARK SMILES IDX 8 1 9 2 10 3 27 4 28 5 7 7 5 8 4 9 2 10 3 11 30 12 29 13
REMARK SMILES IDX 1 14 6 15 11 17 12 18 13 21 14 22 15 23 19 24 16 25 18 26
REMARK SMILES IDX 17 27 20 28 22 29 21 30 23 31 24 32 25 33 26 34
REMARK H PARENT 9 6 6 16 12 19 12 20
ROOT
ATOM     1   N1  UNL     1       2.215  -0.913   0.247  1.00  0.00    -0.209 N   
ATOM     2   C7  UNL     1       1.690   0.034   1.081  1.00  0.00     0.046 A   
ATOM     3   C8  UNL     1       0.434   0.269   0.568  1.00  0.00     0.127 A   
ATOM     4   N3  UNL     1       0.271  -0.477  -0.574  1.00  0.00    -0.132 NA  
ATOM     5   N4  UNL     1       1.373  -1.182  -0.767  1.00  0.00    -0.076 NA  
ATOM     6   H9  UNL     1       2.221   0.401   1.949  1.00  0.00     0.083 HD  
ENDROOT
BRANCH   1   7
ATOM     7   C6  UNL     1       3.471  -1.616   0.373  1.00  0.00     0.170 C   
BRANCH   7   8
ATOM     8   C5  UNL     1       3.296  -3.088   0.760  1.00  0.00     0.164 C   
BRANCH   8   9
ATOM     9   C4  UNL     1       2.551  -3.264   2.060  1.00  0.00    -0.010 A   
ATOM     10  C2  UNL     1       0.727  -3.753   3.454  1.00  0.00    -0.014 A   
ATOM     11  C3  UNL     1       1.185  -3.699   2.155  1.00  0.00     0.017 A   
ATOM     12  S1  UNL     1       1.934  -3.278   4.566  1.00  0.00    -0.102 S   
ATOM     13  C22 UNL     1       3.071  -3.023   3.319  1.00  0.00     0.052 A   
ATOM     14  C1  UNL     1      -0.620  -4.159   3.948  1.00  0.00     0.052 C   
ENDBRANCH   8   9
BRANCH   8  15
ATOM     15  O1  UNL     1       4.595  -3.681   0.844  1.00  0.00    -0.387 OA  
ATOM     16  H6  UNL     1       4.465  -4.607   1.121  1.00  0.00     0.211 HD  
ENDBRANCH   8  15
ENDBRANCH   7   8
ENDBRANCH   1   7
BRANCH   3  17
ATOM     17  C9  UNL     1      -0.667   1.187   1.012  1.00  0.00     0.120 C   
BRANCH  17  18
ATOM     18  N2  UNL     1      -1.431   1.645  -0.209  1.00  0.00     0.250 N   
ATOM     19  H11 UNL     1      -2.362   2.003   0.017  1.00  0.00     0.199 HD  
ATOM     20  H12 UNL     1      -1.580   0.808  -0.794  1.00  0.00     0.199 HD  
BRANCH  18  21
ATOM     21  C10 UNL     1      -0.732   2.649  -1.059  1.00  0.00     0.164 C   
BRANCH  21  22
ATOM     22  C11 UNL     1      -1.544   2.946  -2.288  1.00  0.00    -0.002 A   
ATOM     23  C12 UNL     1      -1.413   2.130  -3.438  1.00  0.00     0.012 A   
ATOM     24  C16 UNL     1      -2.477   3.996  -2.286  1.00  0.00     0.045 A   
ATOM     25  C13 UNL     1      -2.192   2.363  -4.576  1.00  0.00     0.037 A   
ATOM     26  C15 UNL     1      -3.230   4.197  -3.425  1.00  0.00     0.109 A   
ATOM     27  C14 UNL     1      -3.092   3.405  -4.537  1.00  0.00     0.108 A   
ATOM     28  O2  UNL     1      -4.172   5.163  -3.587  1.00  0.00    -0.316 OA  
ATOM     29  O3  UNL     1      -3.928   3.773  -5.542  1.00  0.00    -0.316 OA  
ATOM     30  C17 UNL     1      -4.596   4.905  -4.946  1.00  0.00     0.337 C   
ENDBRANCH  21  22
ENDBRANCH  18  21
ENDBRANCH  17  18
BRANCH  17  31
ATOM     31  C18 UNL     1      -1.645   0.549   2.061  1.00  0.00     0.010 C   
ATOM     32  C19 UNL     1      -2.687   1.590   2.534  1.00  0.00     0.017 C   
ATOM     33  C20 UNL     1      -2.401  -0.672   1.500  1.00  0.00     0.017 C   
ATOM     34  C21 UNL     1      -0.864   0.100   3.317  1.00  0.00     0.017 C   
ENDBRANCH  17  31
ENDBRANCH   3  17
TORSDOF 9
