REMARK SMILES CCOc1cccc(Cn2cc([C@H](CC(C)C)[NH2+]Cc3ccc4c(c3)OCO4)nn2)c1O
REMARK SMILES IDX 10 1 11 2 12 3 29 4 30 5 9 7 8 8 4 9 5 10 31 11 6 12 7 13
REMARK SMILES IDX 3 14 2 15 1 16 32 17 13 19 14 20 15 21 16 22 17 23 18 24
REMARK SMILES IDX 19 27 20 28 21 29 25 30 22 31 24 32 23 33 26 34 28 35 27 36
REMARK H PARENT 11 6 32 18 18 25 18 26
ROOT
ATOM     1   N1  UNL     1       0.685  -2.758  -1.249  1.00  0.00    -0.208 N   
ATOM     2   C9  UNL     1       1.464  -2.052  -0.371  1.00  0.00     0.046 A   
ATOM     3   C10 UNL     1       1.061  -0.744  -0.540  1.00  0.00     0.127 A   
ATOM     4   N3  UNL     1       0.104  -0.692  -1.522  1.00  0.00    -0.132 NA  
ATOM     5   N4  UNL     1      -0.100  -1.924  -1.964  1.00  0.00    -0.076 NA  
ATOM     6   H11 UNL     1       2.176  -2.542   0.281  1.00  0.00     0.083 HD  
ENDROOT
BRANCH   1   7
ATOM     7   C8  UNL     1       0.692  -4.189  -1.510  1.00  0.00     0.172 C   
BRANCH   7   8
ATOM     8   C7  UNL     1      -0.373  -4.901  -0.718  1.00  0.00     0.004 A   
ATOM     9   C3  UNL     1      -1.169  -5.903   1.376  1.00  0.00     0.105 A   
ATOM     10  C4  UNL     1      -2.370  -6.245   0.760  1.00  0.00     0.036 A   
ATOM     11  C24 UNL     1      -0.184  -5.237   0.628  1.00  0.00     0.106 A   
ATOM     12  C5  UNL     1      -2.583  -5.906  -0.582  1.00  0.00     0.003 A   
ATOM     13  C6  UNL     1      -1.596  -5.237  -1.314  1.00  0.00     0.008 A   
BRANCH   9  14
ATOM     14  O1  UNL     1      -0.828  -6.150   2.682  1.00  0.00    -0.344 OA  
BRANCH  14  15
ATOM     15  C2  UNL     1      -1.788  -6.846   3.481  1.00  0.00     0.164 C   
ATOM     16  C1  UNL     1      -1.222  -6.955   4.890  1.00  0.00     0.035 C   
ENDBRANCH  14  15
ENDBRANCH   9  14
BRANCH  11  17
ATOM     17  O4  UNL     1       1.001  -4.906   1.239  1.00  0.00    -0.358 OA  
ATOM     18  H31 UNL     1       0.922  -5.278   2.145  1.00  0.00     0.218 HD  
ENDBRANCH  11  17
ENDBRANCH   7   8
ENDBRANCH   1   7
BRANCH   3  19
ATOM     19  C11 UNL     1       1.498   0.519   0.133  1.00  0.00     0.114 C   
BRANCH  19  20
ATOM     20  C12 UNL     1       1.073   0.550   1.617  1.00  0.00     0.064 C   
BRANCH  20  21
ATOM     21  C13 UNL     1       1.564   1.764   2.442  1.00  0.00    -0.012 C   
ATOM     22  C14 UNL     1       3.080   1.950   2.376  1.00  0.00     0.007 C   
ATOM     23  C15 UNL     1       1.119   1.607   3.902  1.00  0.00     0.007 C   
ENDBRANCH  20  21
ENDBRANCH  19  20
BRANCH  19  24
ATOM     24  N2  UNL     1       0.902   1.707  -0.582  1.00  0.00     0.249 N   
ATOM     25  H22 UNL     1       0.641   2.481   0.053  1.00  0.00     0.199 HD  
ATOM     26  H23 UNL     1       0.003   1.370  -0.985  1.00  0.00     0.199 HD  
BRANCH  24  27
ATOM     27  C16 UNL     1       1.720   2.240  -1.714  1.00  0.00     0.164 C   
BRANCH  27  28
ATOM     28  C17 UNL     1       0.992   3.367  -2.397  1.00  0.00    -0.002 A   
ATOM     29  C18 UNL     1       1.111   4.699  -1.922  1.00  0.00     0.012 A   
ATOM     30  C22 UNL     1       0.127   3.088  -3.470  1.00  0.00     0.045 A   
ATOM     31  C19 UNL     1       0.378   5.741  -2.503  1.00  0.00     0.037 A   
ATOM     32  C21 UNL     1      -0.578   4.140  -4.022  1.00  0.00     0.109 A   
ATOM     33  C20 UNL     1      -0.460   5.428  -3.550  1.00  0.00     0.108 A   
ATOM     34  O2  UNL     1      -1.451   4.044  -5.058  1.00  0.00    -0.316 OA  
ATOM     35  O3  UNL     1      -1.249   6.307  -4.224  1.00  0.00    -0.316 OA  
ATOM     36  C23 UNL     1      -1.893   5.421  -5.170  1.00  0.00     0.337 C   
ENDBRANCH  27  28
ENDBRANCH  24  27
ENDBRANCH  19  24
ENDBRANCH   3  19
TORSDOF 11
