REMARK SMILES Cc1ccc([C@@H](CO)n2cc([C@@H]([NH2+]Cc3ccc4c(c3)OCO4)C3CCCCC3)nn2)c(O)c1
REMARK SMILES IDX 9 1 10 2 11 3 30 4 31 5 6 7 5 8 2 9 3 10 34 11 4 12 32 13
REMARK SMILES IDX 1 14 33 15 7 17 8 18 12 20 13 21 14 24 15 25 16 26 20 27
REMARK SMILES IDX 17 28 19 29 18 30 21 31 23 32 22 33 24 34 25 35 29 36 26 37
REMARK SMILES IDX 28 38 27 39
REMARK H PARENT 10 6 33 16 8 19 13 22 13 23
ROOT
ATOM     1   N1  UNL     1      -0.739  -1.152  -1.919  1.00  0.00    -0.202 N   
ATOM     2   C8  UNL     1      -0.558  -1.119  -0.563  1.00  0.00     0.046 A   
ATOM     3   C9  UNL     1      -1.455  -0.173  -0.125  1.00  0.00     0.127 A   
ATOM     4   N3  UNL     1      -2.119   0.351  -1.204  1.00  0.00    -0.132 NA  
ATOM     5   N4  UNL     1      -1.663  -0.241  -2.296  1.00  0.00    -0.075 NA  
ATOM     6   H10 UNL     1       0.162  -1.751  -0.063  1.00  0.00     0.083 HD  
ENDROOT
BRANCH   1   7
ATOM     7   C6  UNL     1      -0.013  -1.935  -2.922  1.00  0.00     0.158 C   
BRANCH   7   8
ATOM     8   C5  UNL     1       1.462  -1.541  -2.915  1.00  0.00     0.007 A   
ATOM     9   C2  UNL     1       4.140  -0.591  -2.951  1.00  0.00    -0.049 A   
ATOM     10  C3  UNL     1       3.114   0.175  -3.504  1.00  0.00     0.004 A   
ATOM     11  C26 UNL     1       3.830  -1.838  -2.401  1.00  0.00     0.037 A   
ATOM     12  C4  UNL     1       1.798  -0.291  -3.480  1.00  0.00     0.009 A   
ATOM     13  C25 UNL     1       2.508  -2.301  -2.379  1.00  0.00     0.077 A   
ATOM     14  C1  UNL     1       5.561  -0.112  -3.010  1.00  0.00     0.044 C   
BRANCH  13  15
ATOM     15  O4  UNL     1       2.257  -3.518  -1.812  1.00  0.00    -0.361 OA  
ATOM     16  H32 UNL     1       3.111  -3.961  -1.643  1.00  0.00     0.218 HD  
ENDBRANCH  13  15
ENDBRANCH   7   8
BRANCH   7  17
ATOM     17  C7  UNL     1      -0.419  -3.421  -2.866  1.00  0.00     0.186 C   
BRANCH  17  18
ATOM     18  O1  UNL     1      -0.270  -4.017  -1.578  1.00  0.00    -0.394 OA  
ATOM     19  H9  UNL     1       0.697  -4.100  -1.441  1.00  0.00     0.210 HD  
ENDBRANCH  17  18
ENDBRANCH   7  17
ENDBRANCH   1   7
BRANCH   3  20
ATOM     20  C10 UNL     1      -1.704   0.369   1.242  1.00  0.00     0.117 C   
BRANCH  20  21
ATOM     21  N2  UNL     1      -1.981   1.858   1.186  1.00  0.00     0.249 N   
ATOM     22  H12 UNL     1      -2.781   1.983   0.552  1.00  0.00     0.199 HD  
ATOM     23  H13 UNL     1      -2.262   2.193   2.111  1.00  0.00     0.199 HD  
BRANCH  21  24
ATOM     24  C11 UNL     1      -0.883   2.725   0.656  1.00  0.00     0.164 C   
BRANCH  24  25
ATOM     25  C12 UNL     1       0.407   2.603   1.418  1.00  0.00    -0.002 A   
ATOM     26  C13 UNL     1       1.517   1.945   0.832  1.00  0.00     0.012 A   
ATOM     27  C17 UNL     1       0.514   3.109   2.724  1.00  0.00     0.045 A   
ATOM     28  C14 UNL     1       2.714   1.786   1.536  1.00  0.00     0.037 A   
ATOM     29  C16 UNL     1       1.709   2.935   3.391  1.00  0.00     0.109 A   
ATOM     30  C15 UNL     1       2.777   2.292   2.816  1.00  0.00     0.108 A   
ATOM     31  O2  UNL     1       1.976   3.356   4.655  1.00  0.00    -0.316 OA  
ATOM     32  O3  UNL     1       3.852   2.227   3.645  1.00  0.00    -0.316 OA  
ATOM     33  C18 UNL     1       3.351   2.933   4.801  1.00  0.00     0.337 C   
ENDBRANCH  24  25
ENDBRANCH  21  24
ENDBRANCH  20  21
BRANCH  20  34
ATOM     34  C19 UNL     1      -2.870  -0.319   2.003  1.00  0.00     0.043 C   
ATOM     35  C20 UNL     1      -2.544  -1.793   2.320  1.00  0.00     0.010 C   
ATOM     36  C24 UNL     1      -4.240  -0.218   1.304  1.00  0.00     0.010 C   
ATOM     37  C21 UNL     1      -3.649  -2.452   3.143  1.00  0.00     0.001 C   
ATOM     38  C23 UNL     1      -5.343  -0.887   2.125  1.00  0.00     0.001 C   
ATOM     39  C22 UNL     1      -5.005  -2.337   2.455  1.00  0.00     0.000 C   
ENDBRANCH  20  34
ENDBRANCH   3  20
TORSDOF 10
