REMARK SMILES CC(C)(C)[C@H]([NH2+]Cc1ccc2c(c1)OCO2)c1cn(CCc2cnn3ccccc23)nn1
REMARK SMILES IDX 17 1 18 2 19 3 31 4 32 5 5 7 2 8 1 9 3 10 4 11 6 12 7 15
REMARK SMILES IDX 8 16 9 17 13 18 10 19 12 20 11 21 14 22 16 23 15 24 20 25
REMARK SMILES IDX 21 26 22 27 23 28 30 29 24 30 25 31 29 32 26 33 28 34 27 35
REMARK H PARENT 18 6 6 13 6 14
ROOT
ATOM     1   C14 UNL     1       1.652  -1.180  -0.605  1.00  0.00     0.127 A   
ATOM     2   C15 UNL     1       1.021  -1.657  -1.734  1.00  0.00     0.045 A   
ATOM     3   N2  UNL     1       1.490  -0.860  -2.745  1.00  0.00    -0.212 N   
ATOM     4   N5  UNL     1       2.463  -0.049  -2.300  1.00  0.00    -0.076 NA  
ATOM     5   N6  UNL     1       2.575  -0.237  -0.993  1.00  0.00    -0.132 NA  
ATOM     6   H20 UNL     1       0.214  -2.355  -1.901  1.00  0.00     0.083 HD  
ENDROOT
BRANCH   1   7
ATOM     7   C5  UNL     1       1.413  -1.386   0.865  1.00  0.00     0.120 C   
BRANCH   7   8
ATOM     8   C2  UNL     1       0.718  -2.720   1.317  1.00  0.00     0.010 C   
ATOM     9   C1  UNL     1       0.869  -2.883   2.854  1.00  0.00     0.017 C   
ATOM     10  C3  UNL     1      -0.789  -2.770   0.994  1.00  0.00     0.017 C   
ATOM     11  C4  UNL     1       1.414  -3.947   0.685  1.00  0.00     0.017 C   
ENDBRANCH   7   8
BRANCH   7  12
ATOM     12  N1  UNL     1       0.664  -0.193   1.429  1.00  0.00     0.250 N   
ATOM     13  H11 UNL     1       0.140  -0.437   2.270  1.00  0.00     0.199 HD  
ATOM     14  H12 UNL     1      -0.060   0.126   0.752  1.00  0.00     0.199 HD  
BRANCH  12  15
ATOM     15  C6  UNL     1       1.503   0.998   1.749  1.00  0.00     0.164 C   
BRANCH  15  16
ATOM     16  C7  UNL     1       0.784   1.907   2.711  1.00  0.00    -0.002 A   
ATOM     17  C8  UNL     1      -0.038   2.954   2.235  1.00  0.00     0.012 A   
ATOM     18  C12 UNL     1       0.879   1.678   4.095  1.00  0.00     0.045 A   
ATOM     19  C9  UNL     1      -0.748   3.772   3.121  1.00  0.00     0.037 A   
ATOM     20  C11 UNL     1       0.164   2.501   4.941  1.00  0.00     0.109 A   
ATOM     21  C10 UNL     1      -0.626   3.519   4.469  1.00  0.00     0.108 A   
ATOM     22  O1  UNL     1       0.140   2.411   6.296  1.00  0.00    -0.316 OA  
ATOM     23  O2  UNL     1      -1.243   4.202   5.467  1.00  0.00    -0.316 OA  
ATOM     24  C13 UNL     1      -0.738   3.510   6.628  1.00  0.00     0.337 C   
ENDBRANCH  15  16
ENDBRANCH  12  15
ENDBRANCH   7  12
ENDBRANCH   1   7
BRANCH   3  25
ATOM     25  C16 UNL     1       0.815  -0.589  -4.004  1.00  0.00     0.139 C   
BRANCH  25  26
ATOM     26  C17 UNL     1      -0.081   0.664  -3.936  1.00  0.00     0.060 C   
BRANCH  26  27
ATOM     27  C18 UNL     1      -0.902   0.717  -2.684  1.00  0.00    -0.003 A   
ATOM     28  C19 UNL     1      -0.546   1.377  -1.486  1.00  0.00     0.137 A   
ATOM     29  C24 UNL     1      -2.082   0.078  -2.369  1.00  0.00     0.061 A   
ATOM     30  N3  UNL     1      -1.300   1.013  -0.443  1.00  0.00    -0.185 NA  
ATOM     31  N4  UNL     1      -2.342   0.333  -1.017  1.00  0.00    -0.201 N   
ATOM     32  C23 UNL     1      -3.010  -0.734  -3.083  1.00  0.00     0.026 A   
ATOM     33  C20 UNL     1      -3.483  -0.151  -0.377  1.00  0.00     0.102 A   
ATOM     34  C22 UNL     1      -4.105  -1.200  -2.453  1.00  0.00     0.003 A   
ATOM     35  C21 UNL     1      -4.367  -0.901  -1.055  1.00  0.00     0.018 A   
ENDBRANCH  26  27
ENDBRANCH  25  26
ENDBRANCH   3  25
TORSDOF 8
