REMARK SMILES O=C(Cn1cc([C@@H]([NH2+]Cc2ccc3c(c2)OCO3)C2CCCC2)nn1)c1cccc(F)c1
REMARK SMILES IDX 4 1 5 2 6 3 24 4 25 5 3 7 2 8 1 9 26 10 27 11 32 12 28 13
REMARK SMILES IDX 30 14 29 15 31 16 7 17 8 18 9 21 10 22 11 23 15 24 12 25
REMARK SMILES IDX 14 26 13 27 16 28 18 29 17 30 19 31 20 32 23 33 21 34 22 35
REMARK H PARENT 5 6 8 19 8 20
ROOT
ATOM     1   N1  UNL     1      -1.491  -1.007   1.144  1.00  0.00    -0.204 N   
ATOM     2   C3  UNL     1      -1.627  -0.177   0.067  1.00  0.00     0.046 A   
ATOM     3   C4  UNL     1      -1.095  -0.898  -0.977  1.00  0.00     0.127 A   
ATOM     4   N3  UNL     1      -0.686  -2.124  -0.514  1.00  0.00    -0.132 NA  
ATOM     5   N4  UNL     1      -0.936  -2.179   0.783  1.00  0.00    -0.076 NA  
ATOM     6   H3  UNL     1      -2.033   0.822   0.156  1.00  0.00     0.083 HD  
ENDROOT
BRANCH   1   7
ATOM     7   C2  UNL     1      -1.857  -0.760   2.519  1.00  0.00     0.214 C   
BRANCH   7   8
ATOM     8   C1  UNL     1      -0.870   0.171   3.172  1.00  0.00     0.182 C   
ATOM     9   O1  UNL     1      -0.893   1.380   2.938  1.00  0.00    -0.292 OA  
BRANCH   8  10
ATOM     10  C19 UNL     1       0.152  -0.371   4.110  1.00  0.00     0.022 A   
ATOM     11  C20 UNL     1       0.578  -1.706   4.073  1.00  0.00     0.012 A   
ATOM     12  C24 UNL     1       0.716   0.508   5.042  1.00  0.00     0.051 A   
ATOM     13  C21 UNL     1       1.554  -2.155   4.969  1.00  0.00     0.004 A   
ATOM     14  C23 UNL     1       1.687   0.048   5.922  1.00  0.00     0.123 A   
ATOM     15  C22 UNL     1       2.108  -1.276   5.897  1.00  0.00     0.039 A   
ATOM     16  F1  UNL     1       2.225   0.894   6.809  1.00  0.00    -0.207 F   
ENDBRANCH   8  10
ENDBRANCH   7   8
ENDBRANCH   1   7
BRANCH   3  17
ATOM     17  C5  UNL     1      -0.852  -0.535  -2.406  1.00  0.00     0.117 C   
BRANCH  17  18
ATOM     18  N2  UNL     1       0.451  -1.150  -2.871  1.00  0.00     0.249 N   
ATOM     19  H5  UNL     1       0.600  -1.975  -2.269  1.00  0.00     0.199 HD  
ATOM     20  H6  UNL     1       0.369  -1.513  -3.824  1.00  0.00     0.199 HD  
BRANCH  18  21
ATOM     21  C6  UNL     1       1.661  -0.283  -2.781  1.00  0.00     0.164 C   
BRANCH  21  22
ATOM     22  C7  UNL     1       1.985   0.173  -1.386  1.00  0.00    -0.002 A   
ATOM     23  C8  UNL     1       2.506  -0.737  -0.434  1.00  0.00     0.012 A   
ATOM     24  C12 UNL     1       1.729   1.500  -1.002  1.00  0.00     0.045 A   
ATOM     25  C9  UNL     1       2.758  -0.336   0.882  1.00  0.00     0.037 A   
ATOM     26  C11 UNL     1       1.985   1.861   0.303  1.00  0.00     0.109 A   
ATOM     27  C10 UNL     1       2.483   0.970   1.220  1.00  0.00     0.108 A   
ATOM     28  O2  UNL     1       1.781   3.095   0.834  1.00  0.00    -0.316 OA  
ATOM     29  O3  UNL     1       2.659   1.530   2.445  1.00  0.00    -0.316 OA  
ATOM     30  C13 UNL     1       2.200   2.877   2.200  1.00  0.00     0.337 C   
ENDBRANCH  21  22
ENDBRANCH  18  21
ENDBRANCH  17  18
BRANCH  17  31
ATOM     31  C14 UNL     1      -2.017  -0.978  -3.313  1.00  0.00     0.043 C   
ATOM     32  C15 UNL     1      -1.941  -0.432  -4.744  1.00  0.00     0.010 C   
ATOM     33  C18 UNL     1      -2.211  -2.497  -3.486  1.00  0.00     0.010 C   
ATOM     34  C16 UNL     1      -2.906  -1.327  -5.502  1.00  0.00     0.001 C   
ATOM     35  C17 UNL     1      -2.611  -2.712  -4.946  1.00  0.00     0.001 C   
ENDBRANCH  17  31
ENDBRANCH   3  17
TORSDOF 8
