REMARK SMILES CC(C)[C@H]([NH2+]Cc1ccc2c(c1)OCO2)c1cn(Cc2csc(C3CC3)n2)nn1
REMARK SMILES IDX 16 1 17 2 18 3 28 4 29 5 4 7 2 8 1 9 3 10 5 11 6 14 7 15
REMARK SMILES IDX 8 16 12 17 9 18 11 19 10 20 13 21 15 22 14 23 19 24 20 25
REMARK SMILES IDX 21 26 27 27 22 28 23 29 24 30 25 31 26 32
REMARK H PARENT 17 6 5 12 5 13
ROOT
ATOM     1   C13 UNL     1       0.184   1.974  -1.290  1.00  0.00     0.127 A   
ATOM     2   C14 UNL     1       1.138   1.110  -1.781  1.00  0.00     0.046 A   
ATOM     3   N2  UNL     1       2.315   1.790  -1.620  1.00  0.00    -0.206 N   
ATOM     4   N4  UNL     1       2.095   3.012  -1.091  1.00  0.00    -0.076 NA  
ATOM     5   N5  UNL     1       0.793   3.138  -0.893  1.00  0.00    -0.132 NA  
ATOM     6   H18 UNL     1       1.107   0.102  -2.171  1.00  0.00     0.083 HD  
ENDROOT
BRANCH   1   7
ATOM     7   C4  UNL     1      -1.290   1.807  -1.108  1.00  0.00     0.117 C   
BRANCH   7   8
ATOM     8   C2  UNL     1      -2.078   2.092  -2.414  1.00  0.00     0.037 C   
ATOM     9   C1  UNL     1      -2.040   3.558  -2.862  1.00  0.00     0.014 C   
ATOM     10  C3  UNL     1      -3.536   1.623  -2.311  1.00  0.00     0.014 C   
ENDBRANCH   7   8
BRANCH   7  11
ATOM     11  N1  UNL     1      -1.788   2.693   0.009  1.00  0.00     0.249 N   
ATOM     12  H9  UNL     1      -2.803   2.804  -0.034  1.00  0.00     0.199 HD  
ATOM     13  H10 UNL     1      -1.371   3.621  -0.154  1.00  0.00     0.199 HD  
BRANCH  11  14
ATOM     14  C5  UNL     1      -1.401   2.278   1.394  1.00  0.00     0.164 C   
BRANCH  14  15
ATOM     15  C6  UNL     1      -2.032   0.979   1.815  1.00  0.00    -0.002 A   
ATOM     16  C7  UNL     1      -1.237  -0.182   1.979  1.00  0.00     0.012 A   
ATOM     17  C11 UNL     1      -3.421   0.901   2.021  1.00  0.00     0.045 A   
ATOM     18  C8  UNL     1      -1.816  -1.405   2.339  1.00  0.00     0.037 A   
ATOM     19  C10 UNL     1      -3.958  -0.321   2.372  1.00  0.00     0.109 A   
ATOM     20  C9  UNL     1      -3.180  -1.442   2.526  1.00  0.00     0.108 A   
ATOM     21  O1  UNL     1      -5.276  -0.568   2.597  1.00  0.00    -0.316 OA  
ATOM     22  O2  UNL     1      -3.909  -2.536   2.871  1.00  0.00    -0.316 OA  
ATOM     23  C12 UNL     1      -5.237  -1.972   2.947  1.00  0.00     0.337 C   
ENDBRANCH  14  15
ENDBRANCH  11  14
ENDBRANCH   7  11
ENDBRANCH   1   7
BRANCH   3  24
ATOM     24  C15 UNL     1       3.662   1.337  -1.920  1.00  0.00     0.190 C   
BRANCH  24  25
ATOM     25  C16 UNL     1       4.126   0.408  -0.848  1.00  0.00     0.067 A   
ATOM     26  C17 UNL     1       4.999   0.706   0.184  1.00  0.00     0.073 A   
ATOM     27  N3  UNL     1       3.650  -0.900  -0.845  1.00  0.00    -0.248 NA  
ATOM     28  S1  UNL     1       5.235  -0.674   1.173  1.00  0.00    -0.080 S   
ATOM     29  C18 UNL     1       4.182  -1.564   0.158  1.00  0.00     0.081 A   
BRANCH  29  30
ATOM     30  C19 UNL     1       3.857  -3.076   0.417  1.00  0.00     0.045 C   
ATOM     31  C20 UNL     1       2.429  -3.548   0.294  1.00  0.00     0.011 C   
ATOM     32  C21 UNL     1       3.445  -3.954  -0.737  1.00  0.00     0.011 C   
ENDBRANCH  29  30
ENDBRANCH  24  25
ENDBRANCH   3  24
TORSDOF 8
