REMARK SMILES CC(C)(C)[C@H]([NH2+]Cc1ccc2c(c1)OCO2)c1cn(CCc2cc(F)cc(F)c2O)nn1
REMARK SMILES IDX 17 1 18 2 19 3 31 4 32 5 5 7 2 8 1 9 3 10 4 11 6 12 7 15
REMARK SMILES IDX 8 16 9 17 13 18 10 19 12 20 11 21 14 22 16 23 15 24 20 25
REMARK SMILES IDX 21 26 22 27 23 28 29 29 24 30 27 31 26 32 25 33 28 34 30 35
REMARK H PARENT 18 6 6 13 6 14 30 36
ROOT
ATOM     1   C14 UNL     1      -0.423  -0.642   1.616  1.00  0.00     0.127 A   
ATOM     2   C15 UNL     1       0.623  -1.401   2.092  1.00  0.00     0.045 A   
ATOM     3   N2  UNL     1       0.280  -2.681   1.757  1.00  0.00    -0.212 N   
ATOM     4   N3  UNL     1      -0.902  -2.710   1.116  1.00  0.00    -0.076 NA  
ATOM     5   N4  UNL     1      -1.339  -1.467   1.017  1.00  0.00    -0.132 NA  
ATOM     6   H20 UNL     1       1.552  -1.162   2.590  1.00  0.00     0.083 HD  
ENDROOT
BRANCH   1   7
ATOM     7   C5  UNL     1      -0.644   0.840   1.566  1.00  0.00     0.120 C   
BRANCH   7   8
ATOM     8   C2  UNL     1      -1.466   1.417   2.766  1.00  0.00     0.010 C   
ATOM     9   C1  UNL     1      -2.927   0.924   2.785  1.00  0.00     0.017 C   
ATOM     10  C3  UNL     1      -1.473   2.962   2.705  1.00  0.00     0.017 C   
ATOM     11  C4  UNL     1      -0.804   1.024   4.106  1.00  0.00     0.017 C   
ENDBRANCH   7   8
BRANCH   7  12
ATOM     12  N1  UNL     1      -1.326   1.157   0.253  1.00  0.00     0.250 N   
ATOM     13  H11 UNL     1      -1.990   1.933   0.321  1.00  0.00     0.199 HD  
ATOM     14  H12 UNL     1      -1.904   0.328   0.025  1.00  0.00     0.199 HD  
BRANCH  12  15
ATOM     15  C6  UNL     1      -0.413   1.383  -0.902  1.00  0.00     0.164 C   
BRANCH  15  16
ATOM     16  C7  UNL     1      -1.189   1.413  -2.188  1.00  0.00    -0.002 A   
ATOM     17  C8  UNL     1      -1.194   0.285  -3.043  1.00  0.00     0.012 A   
ATOM     18  C12 UNL     1      -1.963   2.539  -2.520  1.00  0.00     0.045 A   
ATOM     19  C9  UNL     1      -1.959   0.275  -4.215  1.00  0.00     0.037 A   
ATOM     20  C11 UNL     1      -2.712   2.492  -3.678  1.00  0.00     0.109 A   
ATOM     21  C10 UNL     1      -2.711   1.392  -4.501  1.00  0.00     0.108 A   
ATOM     22  O1  UNL     1      -3.524   3.481  -4.132  1.00  0.00    -0.316 OA  
ATOM     23  O2  UNL     1      -3.522   1.551  -5.579  1.00  0.00    -0.316 OA  
ATOM     24  C13 UNL     1      -4.049   2.873  -5.336  1.00  0.00     0.337 C   
ENDBRANCH  15  16
ENDBRANCH  12  15
ENDBRANCH   7  12
ENDBRANCH   1   7
BRANCH   3  25
ATOM     25  C16 UNL     1       1.063  -3.892   1.910  1.00  0.00     0.139 C   
BRANCH  25  26
ATOM     26  C17 UNL     1       1.545  -4.450   0.570  1.00  0.00     0.060 C   
BRANCH  26  27
ATOM     27  C18 UNL     1       2.452  -3.493  -0.170  1.00  0.00    -0.010 A   
ATOM     28  C19 UNL     1       1.939  -2.690  -1.200  1.00  0.00     0.046 A   
ATOM     29  C23 UNL     1       3.801  -3.353   0.168  1.00  0.00     0.111 A   
ATOM     30  C20 UNL     1       2.763  -1.778  -1.858  1.00  0.00     0.126 A   
ATOM     31  C22 UNL     1       4.619  -2.454  -0.519  1.00  0.00     0.156 A   
ATOM     32  C21 UNL     1       4.108  -1.657  -1.533  1.00  0.00     0.081 A   
ATOM     33  F1  UNL     1       2.233  -0.984  -2.798  1.00  0.00    -0.207 F   
ATOM     34  F2  UNL     1       5.909  -2.345  -0.171  1.00  0.00    -0.204 F   
BRANCH  29  35
ATOM     35  O3  UNL     1       4.308  -4.094   1.196  1.00  0.00    -0.358 OA  
ATOM     36  H27 UNL     1       5.285  -4.016   1.165  1.00  0.00     0.218 HD  
ENDBRANCH  29  35
ENDBRANCH  26  27
ENDBRANCH  25  26
ENDBRANCH   3  25
TORSDOF 9
