REMARK SMILES CC(C)[C@H]([NH2+]Cc1ccc2c(c1)OCO2)c1cn(-c2ccc(O)c(Cl)c2)nn1
REMARK SMILES IDX 16 1 17 2 18 3 27 4 28 5 4 6 2 7 1 8 3 9 5 10 6 13 7 14 8 15
REMARK SMILES IDX 12 16 9 17 11 18 10 19 13 20 15 21 14 22 19 23 20 24 26 25
REMARK SMILES IDX 21 26 24 27 22 28 25 29 23 30
REMARK H PARENT 5 11 5 12 23 31
ROOT
ATOM     1   C13 UNL     1       1.341  -1.304   0.010  1.00  0.00     0.127 A   
ATOM     2   C14 UNL     1       1.855  -1.043   1.262  1.00  0.00     0.135 A   
ATOM     3   N2  UNL     1       2.113   0.315   1.270  1.00  0.00    -0.181 N   
ATOM     4   N3  UNL     1       1.723   0.838   0.079  1.00  0.00    -0.071 NA  
ATOM     5   N4  UNL     1       1.266  -0.134  -0.692  1.00  0.00    -0.131 NA  
ENDROOT
BRANCH   1   6
ATOM     6   C4  UNL     1       0.848  -2.570  -0.619  1.00  0.00     0.117 C   
BRANCH   6   7
ATOM     7   C2  UNL     1       1.956  -3.413  -1.303  1.00  0.00     0.037 C   
ATOM     8   C1  UNL     1       2.701  -2.678  -2.424  1.00  0.00     0.014 C   
ATOM     9   C3  UNL     1       2.962  -3.963  -0.286  1.00  0.00     0.014 C   
ENDBRANCH   6   7
BRANCH   6  10
ATOM     10  N1  UNL     1      -0.210  -2.256  -1.649  1.00  0.00     0.249 N   
ATOM     11  H9  UNL     1       0.133  -1.456  -2.202  1.00  0.00     0.199 HD  
ATOM     12  H10 UNL     1      -0.334  -3.030  -2.311  1.00  0.00     0.199 HD  
BRANCH  10  13
ATOM     13  C5  UNL     1      -1.542  -1.871  -1.104  1.00  0.00     0.164 C   
BRANCH  13  14
ATOM     14  C6  UNL     1      -2.474  -1.493  -2.220  1.00  0.00    -0.002 A   
ATOM     15  C7  UNL     1      -2.487  -0.166  -2.714  1.00  0.00     0.012 A   
ATOM     16  C11 UNL     1      -3.295  -2.464  -2.818  1.00  0.00     0.045 A   
ATOM     17  C8  UNL     1      -3.316   0.194  -3.782  1.00  0.00     0.037 A   
ATOM     18  C10 UNL     1      -4.099  -2.075  -3.869  1.00  0.00     0.109 A   
ATOM     19  C9  UNL     1      -4.110  -0.784  -4.338  1.00  0.00     0.108 A   
ATOM     20  O1  UNL     1      -4.947  -2.884  -4.555  1.00  0.00    -0.316 OA  
ATOM     21  O2  UNL     1      -4.969  -0.618  -5.377  1.00  0.00    -0.316 OA  
ATOM     22  C12 UNL     1      -5.518  -1.948  -5.498  1.00  0.00     0.337 C   
ENDBRANCH  13  14
ENDBRANCH  10  13
ENDBRANCH   6  10
ENDBRANCH   1   6
BRANCH   3  23
ATOM     23  C15 UNL     1       2.669   1.117   2.298  1.00  0.00     0.059 A   
ATOM     24  C16 UNL     1       2.831   2.497   2.086  1.00  0.00     0.029 A   
ATOM     25  C20 UNL     1       3.060   0.554   3.522  1.00  0.00     0.049 A   
ATOM     26  C17 UNL     1       3.376   3.304   3.088  1.00  0.00     0.037 A   
ATOM     27  C19 UNL     1       3.604   1.371   4.517  1.00  0.00     0.072 A   
ATOM     28  C18 UNL     1       3.760   2.740   4.298  1.00  0.00     0.090 A   
ATOM     29  CL1 UNL     1       4.080   0.667   6.017  1.00  0.00    -0.081 Cl  
BRANCH  28  30
ATOM     30  O3  UNL     1       4.286   3.577   5.240  1.00  0.00    -0.359 OA  
ATOM     31  H21 UNL     1       4.511   3.043   6.026  1.00  0.00     0.218 HD  
ENDBRANCH  28  30
ENDBRANCH   3  23
TORSDOF 7
