REMARK SMILES CC(C)(C)[C@H]([NH2+]Cc1ccc2c(c1)OCO2)c1cn(CCc2ccccc2O)nn1
REMARK SMILES IDX 17 1 18 2 19 3 29 4 30 5 5 7 2 8 1 9 3 10 4 11 6 12 7 15
REMARK SMILES IDX 8 16 9 17 13 18 10 19 12 20 11 21 14 22 16 23 15 24 20 25
REMARK SMILES IDX 21 26 22 27 23 28 27 29 24 30 26 31 25 32 28 33
REMARK H PARENT 18 6 6 13 6 14 28 34
ROOT
ATOM     1   C14 UNL     1      -0.502   0.043  -1.042  1.00  0.00     0.127 A   
ATOM     2   C15 UNL     1      -0.106  -0.832  -2.028  1.00  0.00     0.045 A   
ATOM     3   N2  UNL     1       0.937  -0.193  -2.633  1.00  0.00    -0.212 N   
ATOM     4   N3  UNL     1       1.166   1.006  -2.066  1.00  0.00    -0.076 NA  
ATOM     5   N4  UNL     1       0.291   1.162  -1.088  1.00  0.00    -0.132 NA  
ATOM     6   H20 UNL     1      -0.419  -1.827  -2.316  1.00  0.00     0.083 HD  
ENDROOT
BRANCH   1   7
ATOM     7   C5  UNL     1      -1.500  -0.106   0.063  1.00  0.00     0.120 C   
BRANCH   7   8
ATOM     8   C2  UNL     1      -2.893   0.550  -0.227  1.00  0.00     0.010 C   
ATOM     9   C1  UNL     1      -3.889   0.215   0.909  1.00  0.00     0.017 C   
ATOM     10  C3  UNL     1      -3.489  -0.030  -1.531  1.00  0.00     0.017 C   
ATOM     11  C4  UNL     1      -2.816   2.083  -0.366  1.00  0.00     0.017 C   
ENDBRANCH   7   8
BRANCH   7  12
ATOM     12  N1  UNL     1      -0.894   0.469   1.323  1.00  0.00     0.250 N   
ATOM     13  H11 UNL     1      -0.475   1.374   1.058  1.00  0.00     0.199 HD  
ATOM     14  H12 UNL     1      -1.594   0.676   2.038  1.00  0.00     0.199 HD  
BRANCH  12  15
ATOM     15  C6  UNL     1       0.191  -0.352   1.931  1.00  0.00     0.164 C   
BRANCH  15  16
ATOM     16  C7  UNL     1       0.778   0.357   3.118  1.00  0.00    -0.002 A   
ATOM     17  C8  UNL     1       1.834   1.282   2.939  1.00  0.00     0.012 A   
ATOM     18  C12 UNL     1       0.246   0.152   4.403  1.00  0.00     0.045 A   
ATOM     19  C9  UNL     1       2.362   1.988   4.025  1.00  0.00     0.037 A   
ATOM     20  C11 UNL     1       0.787   0.867   5.452  1.00  0.00     0.109 A   
ATOM     21  C10 UNL     1       1.814   1.760   5.268  1.00  0.00     0.108 A   
ATOM     22  O1  UNL     1       0.387   0.793   6.749  1.00  0.00    -0.316 OA  
ATOM     23  O2  UNL     1       2.195   2.355   6.428  1.00  0.00    -0.316 OA  
ATOM     24  C13 UNL     1       1.296   1.729   7.372  1.00  0.00     0.337 C   
ENDBRANCH  15  16
ENDBRANCH  12  15
ENDBRANCH   7  12
ENDBRANCH   1   7
BRANCH   3  25
ATOM     25  C16 UNL     1       1.812  -0.708  -3.666  1.00  0.00     0.139 C   
BRANCH  25  26
ATOM     26  C17 UNL     1       3.173  -1.144  -3.119  1.00  0.00     0.059 C   
BRANCH  26  27
ATOM     27  C18 UNL     1       3.102  -2.164  -2.004  1.00  0.00    -0.016 A   
ATOM     28  C19 UNL     1       3.549  -1.822  -0.717  1.00  0.00     0.006 A   
ATOM     29  C23 UNL     1       2.615  -3.457  -2.218  1.00  0.00     0.074 A   
ATOM     30  C20 UNL     1       3.506  -2.753   0.320  1.00  0.00     0.000 A   
ATOM     31  C22 UNL     1       2.562  -4.390  -1.185  1.00  0.00     0.033 A   
ATOM     32  C21 UNL     1       3.010  -4.035   0.087  1.00  0.00     0.003 A   
BRANCH  29  33
ATOM     33  O3  UNL     1       2.184  -3.798  -3.468  1.00  0.00    -0.361 OA  
ATOM     34  H29 UNL     1       2.159  -4.771  -3.533  1.00  0.00     0.218 HD  
ENDBRANCH  29  33
ENDBRANCH  26  27
ENDBRANCH  25  26
ENDBRANCH   3  25
TORSDOF 9
