REMARK SMILES CC(C)(C)[C@H]([NH2+]Cc1ccc2c(c1)OCO2)c1cn(CCc2n[nH]c3ccccc23)nn1
REMARK SMILES IDX 17 1 18 2 19 3 31 4 32 5 5 7 2 8 1 9 3 10 4 11 6 12 7 15
REMARK SMILES IDX 8 16 9 17 13 18 10 19 12 20 11 21 14 22 16 23 15 24 20 25
REMARK SMILES IDX 21 26 22 27 23 28 30 29 24 30 25 31 29 32 26 33 28 34 27 35
REMARK H PARENT 18 6 6 13 6 14 24 36
ROOT
ATOM     1   C14 UNL     1      -2.217  -0.019   0.254  1.00  0.00     0.127 A   
ATOM     2   C15 UNL     1      -2.316  -0.333  -1.083  1.00  0.00     0.045 A   
ATOM     3   N2  UNL     1      -1.555   0.624  -1.695  1.00  0.00    -0.212 N   
ATOM     4   N5  UNL     1      -1.099   1.523  -0.806  1.00  0.00    -0.076 NA  
ATOM     5   N6  UNL     1      -1.484   1.131   0.396  1.00  0.00    -0.132 NA  
ATOM     6   H20 UNL     1      -2.752  -1.161  -1.623  1.00  0.00     0.083 HD  
ENDROOT
BRANCH   1   7
ATOM     7   C5  UNL     1      -2.583  -0.803   1.477  1.00  0.00     0.120 C   
BRANCH   7   8
ATOM     8   C2  UNL     1      -3.822  -0.256   2.260  1.00  0.00     0.010 C   
ATOM     9   C1  UNL     1      -3.585   1.138   2.872  1.00  0.00     0.017 C   
ATOM     10  C3  UNL     1      -4.197  -1.227   3.404  1.00  0.00     0.017 C   
ATOM     11  C4  UNL     1      -5.043  -0.173   1.317  1.00  0.00     0.017 C   
ENDBRANCH   7   8
BRANCH   7  12
ATOM     12  N1  UNL     1      -1.356  -0.841   2.360  1.00  0.00     0.250 N   
ATOM     13  H11 UNL     1      -1.562  -1.067   3.335  1.00  0.00     0.199 HD  
ATOM     14  H12 UNL     1      -0.988   0.124   2.361  1.00  0.00     0.199 HD  
BRANCH  12  15
ATOM     15  C6  UNL     1      -0.261  -1.726   1.863  1.00  0.00     0.164 C   
BRANCH  15  16
ATOM     16  C7  UNL     1       1.072  -1.304   2.411  1.00  0.00    -0.002 A   
ATOM     17  C8  UNL     1       1.736  -0.182   1.854  1.00  0.00     0.012 A   
ATOM     18  C12 UNL     1       1.656  -1.991   3.486  1.00  0.00     0.045 A   
ATOM     19  C9  UNL     1       2.973   0.241   2.349  1.00  0.00     0.037 A   
ATOM     20  C11 UNL     1       2.876  -1.545   3.951  1.00  0.00     0.109 A   
ATOM     21  C10 UNL     1       3.517  -0.464   3.398  1.00  0.00     0.108 A   
ATOM     22  O1  UNL     1       3.578  -2.096   4.976  1.00  0.00    -0.316 OA  
ATOM     23  O2  UNL     1       4.704  -0.201   4.002  1.00  0.00    -0.316 OA  
ATOM     24  C13 UNL     1       4.740  -1.237   5.007  1.00  0.00     0.337 C   
ENDBRANCH  15  16
ENDBRANCH  12  15
ENDBRANCH   7  12
ENDBRANCH   1   7
BRANCH   3  25
ATOM     25  C16 UNL     1      -1.148   0.690  -3.083  1.00  0.00     0.140 C   
BRANCH  25  26
ATOM     26  C17 UNL     1      -0.284  -0.494  -3.509  1.00  0.00     0.080 C   
BRANCH  26  27
ATOM     27  C18 UNL     1       1.015  -0.579  -2.774  1.00  0.00     0.069 A   
ATOM     28  N3  UNL     1       1.153  -1.406  -1.724  1.00  0.00    -0.188 NA  
ATOM     29  C24 UNL     1       2.210   0.142  -3.049  1.00  0.00     0.020 A   
ATOM     30  N4  UNL     1       2.455  -1.269  -1.391  1.00  0.00    -0.238 N   
ATOM     31  C19 UNL     1       3.127  -0.325  -2.116  1.00  0.00     0.057 A   
ATOM     32  C23 UNL     1       2.617   1.119  -3.976  1.00  0.00     0.012 A   
ATOM     33  C20 UNL     1       4.446   0.136  -2.043  1.00  0.00     0.026 A   
ATOM     34  C22 UNL     1       3.932   1.597  -3.920  1.00  0.00     0.001 A   
ATOM     35  C21 UNL     1       4.829   1.113  -2.967  1.00  0.00     0.002 A   
ATOM     36  H25 UNL     1       2.832  -1.841  -0.644  1.00  0.00     0.176 HD  
ENDBRANCH  26  27
ENDBRANCH  25  26
ENDBRANCH   3  25
TORSDOF 8
