REMARK SMILES CC(C)(C)[C@H]([NH2+]Cc1ccc2c(c1)OCO2)c1cn(Cc2cnc(C3CC3)nc2)nn1
REMARK SMILES IDX 17 1 18 2 19 3 30 4 31 5 5 7 2 8 1 9 3 10 4 11 6 12 7 15
REMARK SMILES IDX 8 16 9 17 13 18 10 19 12 20 11 21 14 22 16 23 15 24 20 25
REMARK SMILES IDX 21 26 22 27 29 28 23 29 28 30 24 31 25 32 26 33 27 34
REMARK H PARENT 18 6 6 13 6 14
ROOT
ATOM     1   C14 UNL     1      -1.887  -1.528   0.535  1.00  0.00     0.127 A   
ATOM     2   C15 UNL     1      -1.254  -1.190   1.712  1.00  0.00     0.046 A   
ATOM     3   N2  UNL     1      -0.732  -2.373   2.158  1.00  0.00    -0.208 N   
ATOM     4   N5  UNL     1      -1.030  -3.378   1.315  1.00  0.00    -0.076 NA  
ATOM     5   N6  UNL     1      -1.748  -2.877   0.323  1.00  0.00    -0.132 NA  
ATOM     6   H20 UNL     1      -1.095  -0.251   2.225  1.00  0.00     0.083 HD  
ENDROOT
BRANCH   1   7
ATOM     7   C5  UNL     1      -2.547  -0.675  -0.505  1.00  0.00     0.120 C   
BRANCH   7   8
ATOM     8   C2  UNL     1      -4.106  -0.566  -0.346  1.00  0.00     0.010 C   
ATOM     9   C1  UNL     1      -4.824  -1.918  -0.526  1.00  0.00     0.017 C   
ATOM     10  C3  UNL     1      -4.686   0.428  -1.380  1.00  0.00     0.017 C   
ATOM     11  C4  UNL     1      -4.457  -0.013   1.055  1.00  0.00     0.017 C   
ENDBRANCH   7   8
BRANCH   7  12
ATOM     12  N1  UNL     1      -2.193  -1.193  -1.887  1.00  0.00     0.250 N   
ATOM     13  H11 UNL     1      -2.727  -0.702  -2.607  1.00  0.00     0.199 HD  
ATOM     14  H12 UNL     1      -2.478  -2.181  -1.910  1.00  0.00     0.199 HD  
BRANCH  12  15
ATOM     15  C6  UNL     1      -0.747  -1.158  -2.270  1.00  0.00     0.164 C   
BRANCH  15  16
ATOM     16  C7  UNL     1      -0.163   0.226  -2.288  1.00  0.00    -0.002 A   
ATOM     17  C8  UNL     1      -0.535   1.153  -3.292  1.00  0.00     0.012 A   
ATOM     18  C12 UNL     1       0.750   0.614  -1.293  1.00  0.00     0.045 A   
ATOM     19  C9  UNL     1      -0.008   2.449  -3.304  1.00  0.00     0.037 A   
ATOM     20  C11 UNL     1       1.249   1.899  -1.333  1.00  0.00     0.109 A   
ATOM     21  C10 UNL     1       0.883   2.790  -2.310  1.00  0.00     0.108 A   
ATOM     22  O1  UNL     1       2.134   2.431  -0.450  1.00  0.00    -0.316 OA  
ATOM     23  O2  UNL     1       1.497   3.994  -2.170  1.00  0.00    -0.316 OA  
ATOM     24  C13 UNL     1       2.331   3.746  -1.017  1.00  0.00     0.337 C   
ENDBRANCH  15  16
ENDBRANCH  12  15
ENDBRANCH   7  12
ENDBRANCH   1   7
BRANCH   3  25
ATOM     25  C16 UNL     1       0.168  -2.591   3.282  1.00  0.00     0.172 C   
BRANCH  25  26
ATOM     26  C17 UNL     1       1.482  -1.928   3.027  1.00  0.00     0.008 A   
ATOM     27  C18 UNL     1       2.298  -2.274   1.970  1.00  0.00     0.120 A   
ATOM     28  C23 UNL     1       1.955  -0.893   3.799  1.00  0.00     0.120 A   
ATOM     29  N3  UNL     1       3.441  -1.634   1.667  1.00  0.00    -0.241 NA  
ATOM     30  N4  UNL     1       3.099  -0.234   3.542  1.00  0.00    -0.241 NA  
ATOM     31  C19 UNL     1       3.822  -0.620   2.471  1.00  0.00     0.131 A   
BRANCH  31  32
ATOM     32  C20 UNL     1       5.109   0.102   2.162  1.00  0.00     0.058 C   
ATOM     33  C21 UNL     1       5.247   0.885   0.874  1.00  0.00     0.012 C   
ATOM     34  C22 UNL     1       5.164   1.615   2.181  1.00  0.00     0.012 C   
ENDBRANCH  31  32
ENDBRANCH  25  26
ENDBRANCH   3  25
TORSDOF 8
