REMARK SMILES CN1CCc2cc(Cn3cc([C@@H]([NH2+]Cc4ccc5c(c4)OCO5)C4CCCC4)nn3)ccc21
REMARK SMILES IDX 9 1 10 2 11 3 29 4 30 5 8 7 7 8 2 9 3 10 33 11 4 12 5 13
REMARK SMILES IDX 32 14 6 15 31 16 1 17 12 18 13 19 14 22 15 23 16 24 20 25
REMARK SMILES IDX 17 26 19 27 18 28 21 29 23 30 22 31 24 32 25 33 28 34 26 35
REMARK SMILES IDX 27 36
REMARK H PARENT 10 6 13 20 13 21
ROOT
ATOM     1   N2  UNL     1       1.017   2.291  -1.778  1.00  0.00    -0.208 N   
ATOM     2   C8  UNL     1       0.495   1.051  -2.035  1.00  0.00     0.046 A   
ATOM     3   C9  UNL     1      -0.864   1.265  -2.077  1.00  0.00     0.127 A   
ATOM     4   N4  UNL     1      -1.114   2.606  -1.939  1.00  0.00    -0.132 NA  
ATOM     5   N5  UNL     1       0.043   3.222  -1.749  1.00  0.00    -0.076 NA  
ATOM     6   H11 UNL     1       1.107   0.160  -2.066  1.00  0.00     0.083 HD  
ENDROOT
BRANCH   1   7
ATOM     7   C7  UNL     1       2.376   2.617  -1.370  1.00  0.00     0.169 C   
BRANCH   7   8
ATOM     8   C6  UNL     1       2.675   1.959  -0.041  1.00  0.00    -0.028 A   
ATOM     9   N1  UNL     1       2.995  -0.021   3.640  1.00  0.00    -0.333 N   
ATOM     10  C2  UNL     1       2.576   1.084   4.524  1.00  0.00     0.110 C   
ATOM     11  C26 UNL     1       3.021   0.566   2.363  1.00  0.00     0.032 A   
ATOM     12  C3  UNL     1       1.733   2.046   3.669  1.00  0.00     0.056 C   
ATOM     13  C4  UNL     1       2.291   1.758   2.316  1.00  0.00    -0.025 A   
ATOM     14  C25 UNL     1       3.608   0.076   1.211  1.00  0.00     0.024 A   
ATOM     15  C5  UNL     1       2.107   2.465   1.139  1.00  0.00     0.011 A   
ATOM     16  C24 UNL     1       3.440   0.775   0.010  1.00  0.00     0.007 A   
ATOM     17  C1  UNL     1       4.147  -0.811   4.051  1.00  0.00     0.130 C   
ENDBRANCH   7   8
ENDBRANCH   1   7
BRANCH   3  18
ATOM     18  C10 UNL     1      -1.996   0.294  -2.112  1.00  0.00     0.117 C   
BRANCH  18  19
ATOM     19  N3  UNL     1      -3.085   0.713  -1.151  1.00  0.00     0.249 N   
ATOM     20  H13 UNL     1      -3.901   0.105  -1.243  1.00  0.00     0.199 HD  
ATOM     21  H14 UNL     1      -3.370   1.662  -1.424  1.00  0.00     0.199 HD  
BRANCH  19  22
ATOM     22  C11 UNL     1      -2.704   0.793   0.295  1.00  0.00     0.164 C   
BRANCH  22  23
ATOM     23  C12 UNL     1      -2.204  -0.502   0.867  1.00  0.00    -0.002 A   
ATOM     24  C13 UNL     1      -0.849  -0.627   1.259  1.00  0.00     0.012 A   
ATOM     25  C17 UNL     1      -3.066  -1.602   1.009  1.00  0.00     0.045 A   
ATOM     26  C14 UNL     1      -0.353  -1.827   1.779  1.00  0.00     0.037 A   
ATOM     27  C16 UNL     1      -2.545  -2.772   1.522  1.00  0.00     0.109 A   
ATOM     28  C15 UNL     1      -1.228  -2.883   1.895  1.00  0.00     0.108 A   
ATOM     29  O1  UNL     1      -3.239  -3.924   1.717  1.00  0.00    -0.316 OA  
ATOM     30  O2  UNL     1      -0.927  -4.120   2.370  1.00  0.00    -0.316 OA  
ATOM     31  C18 UNL     1      -2.216  -4.764   2.297  1.00  0.00     0.337 C   
ENDBRANCH  22  23
ENDBRANCH  19  22
ENDBRANCH  18  19
BRANCH  18  32
ATOM     32  C19 UNL     1      -2.553   0.108  -3.537  1.00  0.00     0.043 C   
ATOM     33  C20 UNL     1      -3.579  -1.017  -3.684  1.00  0.00     0.010 C   
ATOM     34  C23 UNL     1      -3.277   1.306  -4.163  1.00  0.00     0.010 C   
ATOM     35  C21 UNL     1      -4.121  -0.799  -5.090  1.00  0.00     0.001 C   
ATOM     36  C22 UNL     1      -4.153   0.716  -5.272  1.00  0.00     0.001 C   
ENDBRANCH  18  32
ENDBRANCH   3  18
TORSDOF 7
