REMARK SMILES Cc1ccoc1CCn1cc([C@@H]([NH2+]Cc2ccc3c(c2)OCO3)C2CCCC2)nn1
REMARK SMILES IDX 9 1 10 2 11 3 29 4 30 5 8 7 7 8 6 9 2 10 3 11 4 12 5 13 1 14
REMARK SMILES IDX 12 15 13 16 14 19 15 20 16 21 20 22 17 23 19 24 18 25 21 26
REMARK SMILES IDX 23 27 22 28 24 29 25 30 28 31 26 32 27 33
REMARK H PARENT 10 6 13 17 13 18
ROOT
ATOM     1   N1  UNL     1       1.395   1.727  -1.598  1.00  0.00    -0.212 N   
ATOM     2   C8  UNL     1       0.678   0.617  -1.253  1.00  0.00     0.045 A   
ATOM     3   C9  UNL     1       0.274   0.872   0.038  1.00  0.00     0.127 A   
ATOM     4   N3  UNL     1       0.812   2.066   0.449  1.00  0.00    -0.132 NA  
ATOM     5   N4  UNL     1       1.504   2.574  -0.558  1.00  0.00    -0.076 NA  
ATOM     6   H10 UNL     1       0.486  -0.187  -1.951  1.00  0.00     0.083 HD  
ENDROOT
BRANCH   1   7
ATOM     7   C7  UNL     1       1.958   2.062  -2.889  1.00  0.00     0.141 C   
BRANCH   7   8
ATOM     8   C6  UNL     1       1.078   3.032  -3.673  1.00  0.00     0.083 C   
BRANCH   8   9
ATOM     9   C5  UNL     1      -0.257   2.453  -3.988  1.00  0.00     0.063 A   
ATOM     10  C2  UNL     1      -1.552   2.791  -3.636  1.00  0.00    -0.022 A   
ATOM     11  C3  UNL     1      -2.383   1.827  -4.273  1.00  0.00     0.031 A   
ATOM     12  C4  UNL     1      -1.546   0.974  -4.952  1.00  0.00     0.136 A   
ATOM     13  O1  UNL     1      -0.253   1.339  -4.773  1.00  0.00    -0.322 OA  
ATOM     14  C1  UNL     1      -1.988   3.926  -2.785  1.00  0.00     0.047 C   
ENDBRANCH   8   9
ENDBRANCH   7   8
ENDBRANCH   1   7
BRANCH   3  15
ATOM     15  C10 UNL     1      -0.572   0.081   0.980  1.00  0.00     0.117 C   
BRANCH  15  16
ATOM     16  N2  UNL     1      -0.143   0.348   2.409  1.00  0.00     0.249 N   
ATOM     17  H12 UNL     1      -0.862   0.025   3.063  1.00  0.00     0.199 HD  
ATOM     18  H13 UNL     1      -0.080   1.372   2.499  1.00  0.00     0.199 HD  
BRANCH  16  19
ATOM     19  C11 UNL     1       1.180  -0.211   2.817  1.00  0.00     0.164 C   
BRANCH  19  20
ATOM     20  C12 UNL     1       1.167  -1.711   2.926  1.00  0.00    -0.002 A   
ATOM     21  C13 UNL     1       0.534  -2.345   4.021  1.00  0.00     0.012 A   
ATOM     22  C17 UNL     1       1.758  -2.495   1.920  1.00  0.00     0.045 A   
ATOM     23  C14 UNL     1       0.483  -3.740   4.113  1.00  0.00     0.037 A   
ATOM     24  C16 UNL     1       1.688  -3.868   2.039  1.00  0.00     0.109 A   
ATOM     25  C15 UNL     1       1.068  -4.473   3.104  1.00  0.00     0.108 A   
ATOM     26  O2  UNL     1       2.196  -4.765   1.154  1.00  0.00    -0.316 OA  
ATOM     27  O3  UNL     1       1.110  -5.829   3.025  1.00  0.00    -0.316 OA  
ATOM     28  C18 UNL     1       1.855  -6.012   1.802  1.00  0.00     0.337 C   
ENDBRANCH  19  20
ENDBRANCH  16  19
ENDBRANCH  15  16
BRANCH  15  29
ATOM     29  C19 UNL     1      -2.082   0.380   0.884  1.00  0.00     0.043 C   
ATOM     30  C20 UNL     1      -2.510   1.831   1.130  1.00  0.00     0.010 C   
ATOM     31  C23 UNL     1      -2.713   0.084  -0.478  1.00  0.00     0.010 C   
ATOM     32  C21 UNL     1      -3.928   1.916   0.567  1.00  0.00     0.001 C   
ATOM     33  C22 UNL     1      -4.092   0.726  -0.378  1.00  0.00     0.001 C   
ENDBRANCH  15  29
ENDBRANCH   3  15
TORSDOF 8
