REMARK SMILES CC(C)(C)[C@H]([NH2+]Cc1ccc2c(c1)OCO2)c1cn([C@@H](CO)c2cccs2)nn1
REMARK SMILES IDX 17 1 18 2 19 3 28 4 29 5 5 7 2 8 1 9 3 10 4 11 6 12 7 15
REMARK SMILES IDX 8 16 9 17 13 18 10 19 12 20 11 21 14 22 16 23 15 24 20 25
REMARK SMILES IDX 21 26 22 27 23 29 24 30 27 31 25 32 26 33
REMARK H PARENT 18 6 6 13 6 14 22 28
ROOT
ATOM     1   C14 UNL     1       0.332   0.785  -1.216  1.00  0.00     0.127 A   
ATOM     2   C15 UNL     1       0.706   1.700  -0.260  1.00  0.00     0.046 A   
ATOM     3   N2  UNL     1       0.514   2.915  -0.863  1.00  0.00    -0.202 N   
ATOM     4   N3  UNL     1      -0.015   2.751  -2.095  1.00  0.00    -0.075 NA  
ATOM     5   N4  UNL     1      -0.117   1.452  -2.326  1.00  0.00    -0.132 NA  
ATOM     6   H20 UNL     1       1.080   1.608   0.750  1.00  0.00     0.083 HD  
ENDROOT
BRANCH   1   7
ATOM     7   C5  UNL     1       0.268  -0.710  -1.169  1.00  0.00     0.120 C   
BRANCH   7   8
ATOM     8   C2  UNL     1       1.527  -1.425  -1.777  1.00  0.00     0.010 C   
ATOM     9   C1  UNL     1       1.692  -1.170  -3.288  1.00  0.00     0.017 C   
ATOM     10  C3  UNL     1       2.809  -0.940  -1.061  1.00  0.00     0.017 C   
ATOM     11  C4  UNL     1       1.438  -2.953  -1.551  1.00  0.00     0.017 C   
ENDBRANCH   7   8
BRANCH   7  12
ATOM     12  N1  UNL     1      -0.993  -1.173  -1.874  1.00  0.00     0.250 N   
ATOM     13  H11 UNL     1      -0.980  -2.184  -2.025  1.00  0.00     0.199 HD  
ATOM     14  H12 UNL     1      -0.987  -0.722  -2.799  1.00  0.00     0.199 HD  
BRANCH  12  15
ATOM     15  C6  UNL     1      -2.287  -0.806  -1.222  1.00  0.00     0.164 C   
BRANCH  15  16
ATOM     16  C7  UNL     1      -2.476  -1.458   0.119  1.00  0.00    -0.002 A   
ATOM     17  C8  UNL     1      -2.380  -0.689   1.304  1.00  0.00     0.012 A   
ATOM     18  C12 UNL     1      -2.717  -2.840   0.209  1.00  0.00     0.045 A   
ATOM     19  C9  UNL     1      -2.515  -1.286   2.562  1.00  0.00     0.037 A   
ATOM     20  C11 UNL     1      -2.845  -3.397   1.464  1.00  0.00     0.109 A   
ATOM     21  C10 UNL     1      -2.746  -2.643   2.608  1.00  0.00     0.108 A   
ATOM     22  O1  UNL     1      -3.073  -4.710   1.726  1.00  0.00    -0.316 OA  
ATOM     23  O2  UNL     1      -2.901  -3.387   3.734  1.00  0.00    -0.316 OA  
ATOM     24  C13 UNL     1      -3.135  -4.696   3.171  1.00  0.00     0.337 C   
ENDBRANCH  15  16
ENDBRANCH  12  15
ENDBRANCH   7  12
ENDBRANCH   1   7
BRANCH   3  25
ATOM     25  C16 UNL     1       0.752   4.261  -0.342  1.00  0.00     0.162 C   
BRANCH  25  26
ATOM     26  C17 UNL     1      -0.484   4.792   0.408  1.00  0.00     0.186 C   
BRANCH  26  27
ATOM     27  O3  UNL     1      -0.895   3.939   1.482  1.00  0.00    -0.394 OA  
ATOM     28  H24 UNL     1      -1.604   4.412   1.958  1.00  0.00     0.210 HD  
ENDBRANCH  26  27
ENDBRANCH  25  26
BRANCH  25  29
ATOM     29  C18 UNL     1       2.040   4.323   0.457  1.00  0.00     0.014 A   
ATOM     30  C19 UNL     1       2.248   4.258   1.824  1.00  0.00     0.013 A   
ATOM     31  S1  UNL     1       3.535   4.497  -0.382  1.00  0.00    -0.100 S   
ATOM     32  C20 UNL     1       3.626   4.357   2.176  1.00  0.00     0.008 A   
ATOM     33  C21 UNL     1       4.433   4.491   1.070  1.00  0.00     0.046 A   
ENDBRANCH  25  29
ENDBRANCH   3  25
TORSDOF 9
