REMARK SMILES CC(C)(C)[C@H]([NH2+]Cc1ccc2c(c1)OCO2)c1cn([C@H](CO)c2cccs2)nn1
REMARK SMILES IDX 17 1 18 2 19 3 28 4 29 5 5 7 2 8 1 9 3 10 4 11 6 12 7 15
REMARK SMILES IDX 8 16 9 17 13 18 10 19 12 20 11 21 14 22 16 23 15 24 20 25
REMARK SMILES IDX 21 26 22 27 23 29 24 30 27 31 25 32 26 33
REMARK H PARENT 18 6 6 13 6 14 22 28
ROOT
ATOM     1   C14 UNL     1       1.072   0.409  -0.853  1.00  0.00     0.127 A   
ATOM     2   C15 UNL     1       0.378   0.000  -1.967  1.00  0.00     0.046 A   
ATOM     3   N2  UNL     1       0.653  -1.339  -2.064  1.00  0.00    -0.202 N   
ATOM     4   N3  UNL     1       1.458  -1.729  -1.052  1.00  0.00    -0.075 NA  
ATOM     5   N4  UNL     1       1.719  -0.669  -0.305  1.00  0.00    -0.132 NA  
ATOM     6   H20 UNL     1      -0.259   0.508  -2.679  1.00  0.00     0.083 HD  
ENDROOT
BRANCH   1   7
ATOM     7   C5  UNL     1       1.143   1.738  -0.164  1.00  0.00     0.120 C   
BRANCH   7   8
ATOM     8   C2  UNL     1       2.351   2.632  -0.613  1.00  0.00     0.010 C   
ATOM     9   C1  UNL     1       2.326   2.837  -2.145  1.00  0.00     0.017 C   
ATOM     10  C3  UNL     1       2.245   4.036   0.029  1.00  0.00     0.017 C   
ATOM     11  C4  UNL     1       3.716   2.025  -0.228  1.00  0.00     0.017 C   
ENDBRANCH   7   8
BRANCH   7  12
ATOM     12  N1  UNL     1       1.189   1.500   1.327  1.00  0.00     0.250 N   
ATOM     13  H11 UNL     1       1.859   0.729   1.477  1.00  0.00     0.199 HD  
ATOM     14  H12 UNL     1       1.557   2.301   1.845  1.00  0.00     0.199 HD  
BRANCH  12  15
ATOM     15  C6  UNL     1      -0.100   1.079   1.946  1.00  0.00     0.164 C   
BRANCH  15  16
ATOM     16  C7  UNL     1       0.096   0.774   3.403  1.00  0.00    -0.002 A   
ATOM     17  C8  UNL     1      -0.086   1.781   4.381  1.00  0.00     0.012 A   
ATOM     18  C12 UNL     1       0.520  -0.507   3.797  1.00  0.00     0.045 A   
ATOM     19  C9  UNL     1       0.141   1.514   5.736  1.00  0.00     0.037 A   
ATOM     20  C11 UNL     1       0.732  -0.737   5.141  1.00  0.00     0.109 A   
ATOM     21  C10 UNL     1       0.550   0.245   6.083  1.00  0.00     0.108 A   
ATOM     22  O1  UNL     1       1.137  -1.913   5.688  1.00  0.00    -0.316 OA  
ATOM     23  O2  UNL     1       0.818  -0.188   7.342  1.00  0.00    -0.316 OA  
ATOM     24  C13 UNL     1       1.159  -1.569   7.092  1.00  0.00     0.337 C   
ENDBRANCH  15  16
ENDBRANCH  12  15
ENDBRANCH   7  12
ENDBRANCH   1   7
BRANCH   3  25
ATOM     25  C16 UNL     1       0.180  -2.313  -3.047  1.00  0.00     0.162 C   
BRANCH  25  26
ATOM     26  C17 UNL     1       0.923  -2.173  -4.387  1.00  0.00     0.186 C   
BRANCH  26  27
ATOM     27  O3  UNL     1       0.779  -0.878  -4.975  1.00  0.00    -0.394 OA  
ATOM     28  H24 UNL     1       1.243  -0.904  -5.834  1.00  0.00     0.210 HD  
ENDBRANCH  26  27
ENDBRANCH  25  26
BRANCH  25  29
ATOM     29  C18 UNL     1      -1.333  -2.272  -3.153  1.00  0.00     0.014 A   
ATOM     30  C19 UNL     1      -2.148  -1.638  -4.076  1.00  0.00     0.013 A   
ATOM     31  S1  UNL     1      -2.275  -3.113  -1.981  1.00  0.00    -0.100 S   
ATOM     32  C20 UNL     1      -3.534  -1.851  -3.823  1.00  0.00     0.008 A   
ATOM     33  C21 UNL     1      -3.742  -2.638  -2.714  1.00  0.00     0.046 A   
ENDBRANCH  25  29
ENDBRANCH   3  25
TORSDOF 9
