REMARK SMILES Cn1c(-n2cc([C@@H]([NH2+]Cc3ccc4c(c3)OCO4)C3CCCCC3)nn2)nc2ccccc21
REMARK SMILES IDX 7 1 6 2 4 3 5 4 26 5 25 6 3 7 2 8 33 9 27 10 28 11 32 12
REMARK SMILES IDX 29 13 31 14 30 15 1 16 8 17 9 20 10 21 11 22 15 23 12 24
REMARK SMILES IDX 14 25 13 26 16 27 18 28 17 29 19 30 20 31 24 32 21 33 23 34
REMARK SMILES IDX 22 35
REMARK H PARENT 8 18 8 19
ROOT
ATOM     1   C5  UNL     1       0.564   0.633   1.257  1.00  0.00     0.117 C   
ENDROOT
BRANCH   1   2
ATOM     2   C4  UNL     1       0.743  -0.333   0.127  1.00  0.00     0.128 A   
ATOM     3   N2  UNL     1       1.419  -1.609  -1.512  1.00  0.00    -0.149 N   
ATOM     4   C3  UNL     1       1.857  -0.667  -0.605  1.00  0.00     0.138 A   
ATOM     5   N5  UNL     1       0.091  -1.806  -1.347  1.00  0.00    -0.068 NA  
ATOM     6   N4  UNL     1      -0.330  -1.042  -0.349  1.00  0.00    -0.131 NA  
BRANCH   3   7
ATOM     7   C2  UNL     1       2.154  -2.277  -2.482  1.00  0.00     0.214 A   
ATOM     8   N1  UNL     1       1.697  -3.225  -3.372  1.00  0.00    -0.273 N   
ATOM     9   C25 UNL     1       2.769  -3.612  -4.151  1.00  0.00     0.061 A   
ATOM     10  N6  UNL     1       3.442  -2.042  -2.643  1.00  0.00    -0.215 NA  
ATOM     11  C20 UNL     1       3.838  -2.858  -3.671  1.00  0.00     0.088 A   
ATOM     12  C24 UNL     1       2.914  -4.525  -5.205  1.00  0.00     0.026 A   
ATOM     13  C21 UNL     1       5.108  -3.006  -4.247  1.00  0.00     0.030 A   
ATOM     14  C23 UNL     1       4.188  -4.659  -5.769  1.00  0.00     0.002 A   
ATOM     15  C22 UNL     1       5.270  -3.913  -5.300  1.00  0.00     0.002 A   
ATOM     16  C1  UNL     1       0.355  -3.748  -3.487  1.00  0.00     0.139 C   
ENDBRANCH   3   7
ENDBRANCH   1   2
BRANCH   1  17
ATOM     17  N3  UNL     1      -0.870   1.076   1.352  1.00  0.00     0.249 N   
ATOM     18  H6  UNL     1      -1.455   0.236   1.226  1.00  0.00     0.199 HD  
ATOM     19  H7  UNL     1      -1.099   1.445   2.279  1.00  0.00     0.199 HD  
BRANCH  17  20
ATOM     20  C6  UNL     1      -1.298   2.069   0.327  1.00  0.00     0.164 C   
BRANCH  20  21
ATOM     21  C7  UNL     1      -2.770   2.342   0.449  1.00  0.00    -0.002 A   
ATOM     22  C8  UNL     1      -3.702   1.528  -0.239  1.00  0.00     0.012 A   
ATOM     23  C12 UNL     1      -3.233   3.365   1.293  1.00  0.00     0.045 A   
ATOM     24  C9  UNL     1      -5.078   1.738  -0.100  1.00  0.00     0.037 A   
ATOM     25  C11 UNL     1      -4.596   3.544   1.408  1.00  0.00     0.109 A   
ATOM     26  C10 UNL     1      -5.493   2.754   0.731  1.00  0.00     0.108 A   
ATOM     27  O1  UNL     1      -5.208   4.481   2.178  1.00  0.00    -0.316 OA  
ATOM     28  O2  UNL     1      -6.782   3.097   0.987  1.00  0.00    -0.316 OA  
ATOM     29  C13 UNL     1      -6.598   4.210   1.889  1.00  0.00     0.337 C   
ENDBRANCH  20  21
ENDBRANCH  17  20
ENDBRANCH   1  17
BRANCH   1  30
ATOM     30  C14 UNL     1       1.038   0.037   2.611  1.00  0.00     0.043 C   
ATOM     31  C15 UNL     1       0.150  -1.110   3.135  1.00  0.00     0.010 C   
ATOM     32  C19 UNL     1       1.193   1.126   3.691  1.00  0.00     0.010 C   
ATOM     33  C16 UNL     1       0.686  -1.681   4.447  1.00  0.00     0.001 C   
ATOM     34  C18 UNL     1       1.727   0.548   5.001  1.00  0.00     0.001 C   
ATOM     35  C17 UNL     1       0.855  -0.596   5.506  1.00  0.00     0.000 C   
ENDBRANCH   1  30
TORSDOF 6
