REMARK SMILES O=C(c1nn[nH]c1Cl)n1cc([C@@H]([NH2+]Cc2ccc3c(c2)OCO3)C2CCCCC2)nn1
REMARK SMILES IDX 9 1 10 2 11 3 30 4 31 5 2 6 1 7 3 8 4 9 7 10 5 11 6 12 8 13
REMARK SMILES IDX 12 15 13 16 14 19 15 20 16 21 20 22 17 23 19 24 18 25 21 26
REMARK SMILES IDX 23 27 22 28 24 29 25 30 29 31 26 32 28 33 27 34
REMARK H PARENT 6 14 13 17 13 18
ROOT
ATOM     1   N4  UNL     1      -2.110   0.429  -2.648  1.00  0.00    -0.142 N   
ATOM     2   C4  UNL     1      -0.757   0.123  -2.592  1.00  0.00     0.139 A   
ATOM     3   C5  UNL     1      -0.425   0.172  -1.256  1.00  0.00     0.128 A   
ATOM     4   N6  UNL     1      -1.535   0.505  -0.534  1.00  0.00    -0.131 NA  
ATOM     5   N7  UNL     1      -2.538   0.682  -1.375  1.00  0.00    -0.068 NA  
ENDROOT
BRANCH   1   6
ATOM     6   C1  UNL     1      -3.016   0.522  -3.732  1.00  0.00     0.294 C   
ATOM     7   O1  UNL     1      -4.161   0.877  -3.462  1.00  0.00    -0.267 OA  
BRANCH   6   8
ATOM     8   C2  UNL     1      -2.630   0.215  -5.099  1.00  0.00     0.186 A   
ATOM     9   N1  UNL     1      -1.384  -0.237  -5.470  1.00  0.00    -0.126 NA  
ATOM     10  C3  UNL     1      -3.394   0.299  -6.237  1.00  0.00     0.148 A   
ATOM     11  N2  UNL     1      -1.369  -0.430  -6.782  1.00  0.00    -0.077 NA  
ATOM     12  N3  UNL     1      -2.587  -0.104  -7.251  1.00  0.00    -0.206 N   
ATOM     13  CL1 UNL     1      -4.978   0.760  -6.595  1.00  0.00    -0.063 Cl  
ATOM     14  H1  UNL     1      -2.785  -0.184  -8.243  1.00  0.00     0.178 HD  
ENDBRANCH   6   8
ENDBRANCH   1   6
BRANCH   3  15
ATOM     15  C6  UNL     1       0.878  -0.051  -0.545  1.00  0.00     0.117 C   
BRANCH  15  16
ATOM     16  N5  UNL     1       0.807   0.490   0.858  1.00  0.00     0.249 N   
ATOM     17  H4  UNL     1      -0.124   0.242   1.227  1.00  0.00     0.199 HD  
ATOM     18  H5  UNL     1       1.485   0.047   1.486  1.00  0.00     0.199 HD  
BRANCH  16  19
ATOM     19  C7  UNL     1       0.940   1.970   0.980  1.00  0.00     0.164 C   
BRANCH  19  20
ATOM     20  C8  UNL     1       0.609   2.412   2.378  1.00  0.00    -0.002 A   
ATOM     21  C9  UNL     1      -0.737   2.665   2.739  1.00  0.00     0.012 A   
ATOM     22  C13 UNL     1       1.618   2.519   3.348  1.00  0.00     0.045 A   
ATOM     23  C10 UNL     1      -1.074   3.033   4.045  1.00  0.00     0.037 A   
ATOM     24  C12 UNL     1       1.251   2.886   4.626  1.00  0.00     0.109 A   
ATOM     25  C11 UNL     1      -0.056   3.136   4.965  1.00  0.00     0.108 A   
ATOM     26  O2  UNL     1       2.099   3.040   5.676  1.00  0.00    -0.316 OA  
ATOM     27  O3  UNL     1      -0.196   3.480   6.271  1.00  0.00    -0.316 OA  
ATOM     28  C14 UNL     1       1.176   3.438   6.716  1.00  0.00     0.337 C   
ENDBRANCH  19  20
ENDBRANCH  16  19
ENDBRANCH  15  16
BRANCH  15  29
ATOM     29  C15 UNL     1       1.285  -1.548  -0.530  1.00  0.00     0.043 C   
ATOM     30  C16 UNL     1       0.373  -2.434   0.341  1.00  0.00     0.010 C   
ATOM     31  C20 UNL     1       2.760  -1.734  -0.122  1.00  0.00     0.010 C   
ATOM     32  C17 UNL     1       0.799  -3.901   0.287  1.00  0.00     0.001 C   
ATOM     33  C19 UNL     1       3.177  -3.204  -0.175  1.00  0.00     0.001 C   
ATOM     34  C18 UNL     1       2.262  -4.079   0.676  1.00  0.00     0.000 C   
ENDBRANCH  15  29
ENDBRANCH   3  15
TORSDOF 7
