REMARK SMILES COc1cc(Cn2cc([C@@H]([NH2+]Cc3ccc4c(c3)OCO4)C(C)(C)C)nn2)cc(OC)c1
REMARK SMILES IDX 7 1 8 2 9 3 26 4 27 5 6 7 5 8 3 9 4 10 32 11 29 12 28 13
REMARK SMILES IDX 2 14 1 15 30 16 31 17 10 18 11 19 12 22 13 23 14 24 18 25
REMARK SMILES IDX 15 26 17 27 16 28 19 29 21 30 20 31 22 32 23 33 24 34 25 35
REMARK H PARENT 8 6 11 20 11 21
ROOT
ATOM     1   N1  UNL     1      -1.513   1.470   1.604  1.00  0.00    -0.208 N   
ATOM     2   C6  UNL     1      -0.152   1.408   1.487  1.00  0.00     0.046 A   
ATOM     3   C7  UNL     1       0.100   1.945   0.244  1.00  0.00     0.127 A   
ATOM     4   N3  UNL     1      -1.082   2.354  -0.318  1.00  0.00    -0.132 NA  
ATOM     5   N4  UNL     1      -2.061   2.056   0.521  1.00  0.00    -0.076 NA  
ATOM     6   H7  UNL     1       0.475   0.944   2.236  1.00  0.00     0.083 HD  
ENDROOT
BRANCH   1   7
ATOM     7   C5  UNL     1      -2.347   0.869   2.631  1.00  0.00     0.169 C   
BRANCH   7   8
ATOM     8   C4  UNL     1      -2.491  -0.611   2.369  1.00  0.00    -0.023 A   
ATOM     9   C2  UNL     1      -3.565  -2.446   1.194  1.00  0.00     0.077 A   
ATOM     10  C3  UNL     1      -3.483  -1.085   1.495  1.00  0.00     0.039 A   
ATOM     11  C24 UNL     1      -2.645  -3.338   1.756  1.00  0.00     0.066 A   
ATOM     12  C22 UNL     1      -1.658  -2.884   2.628  1.00  0.00     0.077 A   
ATOM     13  C21 UNL     1      -1.588  -1.523   2.932  1.00  0.00     0.039 A   
BRANCH   9  14
ATOM     14  O1  UNL     1      -4.471  -3.022   0.347  1.00  0.00    -0.349 OA  
ATOM     15  C1  UNL     1      -5.585  -2.227  -0.044  1.00  0.00     0.203 C   
ENDBRANCH   9  14
BRANCH  12  16
ATOM     16  O4  UNL     1      -0.694  -3.649   3.223  1.00  0.00    -0.349 OA  
ATOM     17  C23 UNL     1      -0.829  -5.062   3.096  1.00  0.00     0.203 C   
ENDBRANCH  12  16
ENDBRANCH   7   8
ENDBRANCH   1   7
BRANCH   3  18
ATOM     18  C8  UNL     1       1.368   2.002  -0.549  1.00  0.00     0.120 C   
BRANCH  18  19
ATOM     19  N2  UNL     1       1.096   1.580  -1.982  1.00  0.00     0.250 N   
ATOM     20  H9  UNL     1       0.401   2.238  -2.357  1.00  0.00     0.199 HD  
ATOM     21  H10 UNL     1       1.942   1.666  -2.548  1.00  0.00     0.199 HD  
BRANCH  19  22
ATOM     22  C9  UNL     1       0.529   0.207  -2.187  1.00  0.00     0.164 C   
BRANCH  22  23
ATOM     23  C10 UNL     1       1.365  -0.892  -1.594  1.00  0.00    -0.002 A   
ATOM     24  C11 UNL     1       0.871  -1.645  -0.500  1.00  0.00     0.012 A   
ATOM     25  C15 UNL     1       2.645  -1.171  -2.101  1.00  0.00     0.045 A   
ATOM     26  C12 UNL     1       1.642  -2.650   0.091  1.00  0.00     0.037 A   
ATOM     27  C14 UNL     1       3.379  -2.170  -1.495  1.00  0.00     0.109 A   
ATOM     28  C13 UNL     1       2.894  -2.887  -0.430  1.00  0.00     0.108 A   
ATOM     29  O2  UNL     1       4.630  -2.558  -1.857  1.00  0.00    -0.316 OA  
ATOM     30  O3  UNL     1       3.777  -3.818   0.013  1.00  0.00    -0.316 OA  
ATOM     31  C16 UNL     1       4.868  -3.628  -0.913  1.00  0.00     0.337 C   
ENDBRANCH  22  23
ENDBRANCH  19  22
ENDBRANCH  18  19
BRANCH  18  32
ATOM     32  C17 UNL     1       2.087   3.397  -0.514  1.00  0.00     0.010 C   
ATOM     33  C18 UNL     1       3.445   3.321  -1.252  1.00  0.00     0.017 C   
ATOM     34  C19 UNL     1       1.255   4.523  -1.159  1.00  0.00     0.017 C   
ATOM     35  C20 UNL     1       2.390   3.796   0.949  1.00  0.00     0.017 C   
ENDBRANCH  18  32
ENDBRANCH   3  18
TORSDOF 9
