REMARK SMILES CC(C)(C)[C@H]([NH2+]Cc1ccc2c(c1)OCO2)c1cn(CCc2cc[nH]n2)nn1
REMARK SMILES IDX 17 1 18 2 19 3 27 4 28 5 5 7 2 8 1 9 3 10 4 11 6 12 7 15
REMARK SMILES IDX 8 16 9 17 13 18 10 19 12 20 11 21 14 22 16 23 15 24 20 25
REMARK SMILES IDX 21 26 22 27 23 28 26 29 24 30 25 31
REMARK H PARENT 18 6 6 13 6 14 25 32
ROOT
ATOM     1   C14 UNL     1      -0.573  -1.211   0.775  1.00  0.00     0.127 A   
ATOM     2   C15 UNL     1      -0.911  -1.940  -0.342  1.00  0.00     0.045 A   
ATOM     3   N2  UNL     1      -2.176  -2.380  -0.079  1.00  0.00    -0.212 N   
ATOM     4   N5  UNL     1      -2.577  -1.989   1.146  1.00  0.00    -0.076 NA  
ATOM     5   N6  UNL     1      -1.604  -1.268   1.679  1.00  0.00    -0.132 NA  
ATOM     6   H20 UNL     1      -0.418  -2.132  -1.285  1.00  0.00     0.083 HD  
ENDROOT
BRANCH   1   7
ATOM     7   C5  UNL     1       0.621  -0.357   1.060  1.00  0.00     0.120 C   
BRANCH   7   8
ATOM     8   C2  UNL     1       1.751  -1.083   1.875  1.00  0.00     0.010 C   
ATOM     9   C1  UNL     1       1.304  -1.485   3.295  1.00  0.00     0.017 C   
ATOM     10  C3  UNL     1       2.995  -0.172   2.000  1.00  0.00     0.017 C   
ATOM     11  C4  UNL     1       2.204  -2.360   1.129  1.00  0.00     0.017 C   
ENDBRANCH   7   8
BRANCH   7  12
ATOM     12  N1  UNL     1       0.177   0.902   1.785  1.00  0.00     0.250 N   
ATOM     13  H11 UNL     1       0.979   1.427   2.136  1.00  0.00     0.199 HD  
ATOM     14  H12 UNL     1      -0.369   0.584   2.597  1.00  0.00     0.199 HD  
BRANCH  12  15
ATOM     15  C6  UNL     1      -0.708   1.836   1.022  1.00  0.00     0.164 C   
BRANCH  15  16
ATOM     16  C7  UNL     1      -0.071   2.381  -0.227  1.00  0.00    -0.002 A   
ATOM     17  C8  UNL     1       0.995   3.307  -0.158  1.00  0.00     0.012 A   
ATOM     18  C12 UNL     1      -0.523   1.938  -1.482  1.00  0.00     0.045 A   
ATOM     19  C9  UNL     1       1.606   3.781  -1.325  1.00  0.00     0.037 A   
ATOM     20  C11 UNL     1       0.102   2.419  -2.613  1.00  0.00     0.109 A   
ATOM     21  C10 UNL     1       1.138   3.316  -2.535  1.00  0.00     0.108 A   
ATOM     22  O1  UNL     1      -0.203   2.081  -3.896  1.00  0.00    -0.316 OA  
ATOM     23  O2  UNL     1       1.614   3.665  -3.759  1.00  0.00    -0.316 OA  
ATOM     24  C13 UNL     1       0.742   2.905  -4.622  1.00  0.00     0.337 C   
ENDBRANCH  15  16
ENDBRANCH  12  15
ENDBRANCH   7  12
ENDBRANCH   1   7
BRANCH   3  25
ATOM     25  C16 UNL     1      -3.046  -3.175  -0.921  1.00  0.00     0.140 C   
BRANCH  25  26
ATOM     26  C17 UNL     1      -4.062  -2.336  -1.690  1.00  0.00     0.079 C   
BRANCH  26  27
ATOM     27  C18 UNL     1      -3.481  -1.663  -2.891  1.00  0.00     0.061 A   
ATOM     28  C19 UNL     1      -3.729  -1.956  -4.252  1.00  0.00     0.042 A   
ATOM     29  N4  UNL     1      -2.614  -0.650  -2.757  1.00  0.00    -0.189 NA  
ATOM     30  C20 UNL     1      -2.976  -1.049  -4.955  1.00  0.00     0.094 A   
ATOM     31  N3  UNL     1      -2.342  -0.281  -4.026  1.00  0.00    -0.246 N   
ATOM     32  H27 UNL     1      -1.710   0.500  -4.183  1.00  0.00     0.175 HD  
ENDBRANCH  26  27
ENDBRANCH  25  26
ENDBRANCH   3  25
TORSDOF 8
