REMARK SMILES CC(C)[C@H]([NH2+]Cc1ccc2c(c1)OCO2)c1cn(Cc2ccc(N([O-])[O-])cc2)nn1
REMARK SMILES IDX 16 1 17 2 18 3 29 4 30 5 4 7 2 8 1 9 3 10 5 11 6 14 7 15
REMARK SMILES IDX 8 16 12 17 9 18 11 19 10 20 13 21 15 22 14 23 19 24 20 25
REMARK SMILES IDX 21 26 28 27 22 28 27 29 23 30 24 31 25 32 26 33
REMARK H PARENT 17 6 5 12 5 13
ROOT
ATOM     1   C13 UNL     1      -2.264   0.163  -0.500  1.00  0.00     0.127 A   
ATOM     2   C14 UNL     1      -2.239   1.211   0.392  1.00  0.00     0.046 A   
ATOM     3   N2  UNL     1      -2.949   0.748   1.467  1.00  0.00    -0.208 N   
ATOM     4   N4  UNL     1      -3.426  -0.489   1.228  1.00  0.00    -0.076 NA  
ATOM     5   N5  UNL     1      -3.024  -0.853   0.021  1.00  0.00    -0.132 NA  
ATOM     6   H18 UNL     1      -1.748   2.174   0.393  1.00  0.00     0.083 HD  
ENDROOT
BRANCH   1   7
ATOM     7   C4  UNL     1      -1.547  -0.019  -1.799  1.00  0.00     0.117 C   
BRANCH   7   8
ATOM     8   C2  UNL     1      -2.380   0.488  -3.008  1.00  0.00     0.037 C   
ATOM     9   C1  UNL     1      -3.629  -0.349  -3.308  1.00  0.00     0.014 C   
ATOM     10  C3  UNL     1      -1.524   0.606  -4.276  1.00  0.00     0.014 C   
ENDBRANCH   7   8
BRANCH   7  11
ATOM     11  N1  UNL     1      -1.122  -1.454  -2.017  1.00  0.00     0.249 N   
ATOM     12  H9  UNL     1      -0.669  -1.549  -2.928  1.00  0.00     0.199 HD  
ATOM     13  H10 UNL     1      -1.978  -2.021  -2.035  1.00  0.00     0.199 HD  
BRANCH  11  14
ATOM     14  C5  UNL     1      -0.234  -2.067  -0.978  1.00  0.00     0.164 C   
BRANCH  14  15
ATOM     15  C6  UNL     1       1.011  -1.277  -0.685  1.00  0.00    -0.002 A   
ATOM     16  C7  UNL     1       2.054  -1.188  -1.637  1.00  0.00     0.012 A   
ATOM     17  C11 UNL     1       1.135  -0.600   0.542  1.00  0.00     0.045 A   
ATOM     18  C8  UNL     1       3.202  -0.431  -1.374  1.00  0.00     0.037 A   
ATOM     19  C10 UNL     1       2.279   0.136   0.770  1.00  0.00     0.109 A   
ATOM     20  C9  UNL     1       3.283   0.220  -0.162  1.00  0.00     0.108 A   
ATOM     21  O1  UNL     1       2.551   0.848   1.894  1.00  0.00    -0.316 OA  
ATOM     22  O2  UNL     1       4.317   0.994   0.260  1.00  0.00    -0.316 OA  
ATOM     23  C12 UNL     1       3.872   1.355   1.586  1.00  0.00     0.337 C   
ENDBRANCH  14  15
ENDBRANCH  11  14
ENDBRANCH   7  11
ENDBRANCH   1   7
BRANCH   3  24
ATOM     24  C15 UNL     1      -3.091   1.365   2.777  1.00  0.00     0.169 C   
BRANCH  24  25
ATOM     25  C16 UNL     1      -1.761   1.357   3.497  1.00  0.00    -0.028 A   
ATOM     26  C17 UNL     1      -0.967   2.514   3.541  1.00  0.00     0.007 A   
ATOM     27  C21 UNL     1      -1.273   0.169   4.067  1.00  0.00     0.007 A   
ATOM     28  C18 UNL     1       0.305   2.479   4.119  1.00  0.00     0.031 A   
ATOM     29  C20 UNL     1      -0.003   0.126   4.648  1.00  0.00     0.031 A   
ATOM     30  C19 UNL     1       0.788   1.281   4.657  1.00  0.00     0.118 A   
BRANCH  30  31
ATOM     31  N3  UNL     1       2.153   1.225   5.194  1.00  0.00     0.092 N   
ATOM     32  O3  UNL     1       2.499   0.189   5.779  1.00  0.00    -0.138 OA  
ATOM     33  O4  UNL     1       2.885   2.208   5.009  1.00  0.00    -0.138 OA  
ENDBRANCH  30  31
ENDBRANCH  24  25
ENDBRANCH   3  24
TORSDOF 8
