REMARK SMILES Cc1cc(O)c(CCn2cc([C@@H]([NH2+]Cc3ccc4c(c3)OCO4)C(C)C)nn2)cc1C
REMARK SMILES IDX 9 1 10 2 11 3 27 4 28 5 8 7 7 8 6 9 2 10 3 11 30 12 4 13
REMARK SMILES IDX 29 14 1 15 31 16 5 17 12 19 13 20 14 23 15 24 16 25 20 26
REMARK SMILES IDX 17 27 19 28 18 29 21 30 23 31 22 32 24 33 25 34 26 35
REMARK H PARENT 10 6 5 18 13 21 13 22
ROOT
ATOM     1   N1  UNL     1       0.099   2.319  -1.925  1.00  0.00    -0.212 N   
ATOM     2   C8  UNL     1      -0.605   1.175  -2.170  1.00  0.00     0.045 A   
ATOM     3   C9  UNL     1      -1.332   0.980  -1.016  1.00  0.00     0.127 A   
ATOM     4   N3  UNL     1      -1.061   1.999  -0.136  1.00  0.00    -0.132 NA  
ATOM     5   N4  UNL     1      -0.195   2.818  -0.708  1.00  0.00    -0.076 NA  
ATOM     6   H10 UNL     1      -0.487   0.603  -3.080  1.00  0.00     0.083 HD  
ENDROOT
BRANCH   1   7
ATOM     7   C7  UNL     1       1.177   2.892  -2.703  1.00  0.00     0.139 C   
BRANCH   7   8
ATOM     8   C6  UNL     1       2.521   2.857  -1.967  1.00  0.00     0.059 C   
BRANCH   8   9
ATOM     9   C5  UNL     1       3.015   1.454  -1.690  1.00  0.00    -0.016 A   
ATOM     10  C2  UNL     1       4.028  -1.165  -1.292  1.00  0.00    -0.046 A   
ATOM     11  C3  UNL     1       3.249  -0.535  -0.312  1.00  0.00     0.037 A   
ATOM     12  C23 UNL     1       4.300  -0.482  -2.491  1.00  0.00    -0.048 A   
ATOM     13  C4  UNL     1       2.739   0.748  -0.514  1.00  0.00     0.075 A   
ATOM     14  C22 UNL     1       3.792   0.816  -2.673  1.00  0.00     0.010 A   
ATOM     15  C1  UNL     1       4.575  -2.542  -1.030  1.00  0.00     0.045 C   
ATOM     16  C24 UNL     1       5.143  -1.103  -3.573  1.00  0.00     0.044 C   
BRANCH  13  17
ATOM     17  O1  UNL     1       1.959   1.228   0.501  1.00  0.00    -0.361 OA  
ATOM     18  H5  UNL     1       1.571   2.091   0.261  1.00  0.00     0.218 HD  
ENDBRANCH  13  17
ENDBRANCH   8   9
ENDBRANCH   7   8
ENDBRANCH   1   7
BRANCH   3  19
ATOM     19  C10 UNL     1      -2.205  -0.153  -0.586  1.00  0.00     0.117 C   
BRANCH  19  20
ATOM     20  N2  UNL     1      -1.875  -0.536   0.835  1.00  0.00     0.249 N   
ATOM     21  H12 UNL     1      -1.755   0.340   1.364  1.00  0.00     0.199 HD  
ATOM     22  H13 UNL     1      -2.648  -1.039   1.280  1.00  0.00     0.199 HD  
BRANCH  20  23
ATOM     23  C11 UNL     1      -0.620  -1.324   0.999  1.00  0.00     0.164 C   
BRANCH  23  24
ATOM     24  C12 UNL     1      -0.355  -1.601   2.451  1.00  0.00    -0.002 A   
ATOM     25  C13 UNL     1       0.440  -0.710   3.211  1.00  0.00     0.012 A   
ATOM     26  C17 UNL     1      -0.937  -2.716   3.077  1.00  0.00     0.045 A   
ATOM     27  C14 UNL     1       0.663  -0.930   4.574  1.00  0.00     0.037 A   
ATOM     28  C16 UNL     1      -0.698  -2.903   4.423  1.00  0.00     0.109 A   
ATOM     29  C15 UNL     1       0.079  -2.036   5.151  1.00  0.00     0.108 A   
ATOM     30  O2  UNL     1      -1.184  -3.924   5.176  1.00  0.00    -0.316 OA  
ATOM     31  O3  UNL     1       0.183  -2.403   6.454  1.00  0.00    -0.316 OA  
ATOM     32  C18 UNL     1      -0.604  -3.613   6.464  1.00  0.00     0.337 C   
ENDBRANCH  23  24
ENDBRANCH  20  23
ENDBRANCH  19  20
BRANCH  19  33
ATOM     33  C19 UNL     1      -3.724   0.134  -0.686  1.00  0.00     0.037 C   
ATOM     34  C20 UNL     1      -4.210   1.301   0.180  1.00  0.00     0.014 C   
ATOM     35  C21 UNL     1      -4.158   0.352  -2.140  1.00  0.00     0.014 C   
ENDBRANCH  19  33
ENDBRANCH   3  19
TORSDOF 9
