REMARK SMILES OC[C@@H](c1ccc(Cl)o1)n1cc([C@@H]([NH2+]Cc2ccc3c(c2)OCO3)C2CCCCC2)nn1
REMARK SMILES IDX 10 1 11 2 12 3 31 4 32 5 3 7 2 8 1 9 4 11 5 12 9 13 6 14
REMARK SMILES IDX 7 15 8 16 13 17 14 18 15 21 16 22 17 23 21 24 18 25 20 26
REMARK SMILES IDX 19 27 22 28 24 29 23 30 25 31 26 32 30 33 27 34 29 35 28 36
REMARK H PARENT 11 6 1 10 14 19 14 20
ROOT
ATOM     1   N1  UNL     1       0.762   3.175  -1.538  1.00  0.00    -0.200 N   
ATOM     2   C7  UNL     1       0.092   2.223  -0.815  1.00  0.00     0.046 A   
ATOM     3   C8  UNL     1       1.071   1.341  -0.425  1.00  0.00     0.127 A   
ATOM     4   N3  UNL     1       2.280   1.768  -0.909  1.00  0.00    -0.132 NA  
ATOM     5   N4  UNL     1       2.081   2.886  -1.587  1.00  0.00    -0.075 NA  
ATOM     6   H7  UNL     1      -0.982   2.246  -0.683  1.00  0.00     0.083 HD  
ENDROOT
BRANCH   1   7
ATOM     7   C2  UNL     1       0.236   4.319  -2.279  1.00  0.00     0.179 C   
BRANCH   7   8
ATOM     8   C1  UNL     1      -0.343   3.885  -3.635  1.00  0.00     0.188 C   
BRANCH   8   9
ATOM     9   O1  UNL     1      -1.405   2.932  -3.521  1.00  0.00    -0.394 OA  
ATOM     10  H1  UNL     1      -2.174   3.401  -3.139  1.00  0.00     0.210 HD  
ENDBRANCH   8   9
ENDBRANCH   7   8
BRANCH   7  11
ATOM     11  C3  UNL     1      -0.729   5.104  -1.443  1.00  0.00     0.086 A   
ATOM     12  C4  UNL     1      -0.593   6.234  -0.661  1.00  0.00     0.035 A   
ATOM     13  O2  UNL     1      -2.025   4.672  -1.405  1.00  0.00    -0.301 OA  
ATOM     14  C5  UNL     1      -1.873   6.498  -0.113  1.00  0.00     0.049 A   
ATOM     15  C6  UNL     1      -2.716   5.520  -0.592  1.00  0.00     0.147 A   
ATOM     16  CL1 UNL     1      -4.388   5.336  -0.246  1.00  0.00    -0.056 Cl  
ENDBRANCH   7  11
ENDBRANCH   1   7
BRANCH   3  17
ATOM     17  C9  UNL     1       0.977   0.048   0.316  1.00  0.00     0.117 C   
BRANCH  17  18
ATOM     18  N2  UNL     1       1.942  -0.959  -0.261  1.00  0.00     0.249 N   
ATOM     19  H9  UNL     1       2.059  -1.754   0.371  1.00  0.00     0.199 HD  
ATOM     20  H10 UNL     1       2.852  -0.482  -0.326  1.00  0.00     0.199 HD  
BRANCH  18  21
ATOM     21  C10 UNL     1       1.619  -1.469  -1.628  1.00  0.00     0.164 C   
BRANCH  21  22
ATOM     22  C11 UNL     1       0.360  -2.290  -1.663  1.00  0.00    -0.002 A   
ATOM     23  C12 UNL     1       0.328  -3.582  -1.085  1.00  0.00     0.012 A   
ATOM     24  C16 UNL     1      -0.808  -1.761  -2.242  1.00  0.00     0.045 A   
ATOM     25  C13 UNL     1      -0.853  -4.333  -1.071  1.00  0.00     0.037 A   
ATOM     26  C15 UNL     1      -1.954  -2.528  -2.211  1.00  0.00     0.109 A   
ATOM     27  C14 UNL     1      -1.976  -3.776  -1.640  1.00  0.00     0.108 A   
ATOM     28  O3  UNL     1      -3.164  -2.163  -2.710  1.00  0.00    -0.316 OA  
ATOM     29  O4  UNL     1      -3.204  -4.354  -1.709  1.00  0.00    -0.316 OA  
ATOM     30  C17 UNL     1      -3.946  -3.344  -2.425  1.00  0.00     0.337 C   
ENDBRANCH  21  22
ENDBRANCH  18  21
ENDBRANCH  17  18
BRANCH  17  31
ATOM     31  C18 UNL     1       1.216   0.224   1.840  1.00  0.00     0.043 C   
ATOM     32  C19 UNL     1       2.671   0.562   2.221  1.00  0.00     0.010 C   
ATOM     33  C23 UNL     1       0.732  -1.008   2.632  1.00  0.00     0.010 C   
ATOM     34  C20 UNL     1       2.831   0.750   3.730  1.00  0.00     0.001 C   
ATOM     35  C22 UNL     1       0.897  -0.812   4.138  1.00  0.00     0.001 C   
ATOM     36  C21 UNL     1       2.336  -0.466   4.504  1.00  0.00     0.000 C   
ENDBRANCH  17  31
ENDBRANCH   3  17
TORSDOF 9
