REMARK SMILES OC[C@H](c1ccc(Cl)o1)n1cc([C@@H]([NH2+]Cc2ccc3c(c2)OCO3)C2CCCCC2)nn1
REMARK SMILES IDX 10 1 11 2 12 3 31 4 32 5 3 7 2 8 1 9 4 11 5 12 9 13 6 14
REMARK SMILES IDX 7 15 8 16 13 17 14 18 15 21 16 22 17 23 21 24 18 25 20 26
REMARK SMILES IDX 19 27 22 28 24 29 23 30 25 31 26 32 30 33 27 34 29 35 28 36
REMARK H PARENT 11 6 1 10 14 19 14 20
ROOT
ATOM     1   N1  UNL     1      -0.208   0.893  -3.356  1.00  0.00    -0.200 N   
ATOM     2   C7  UNL     1       0.048  -0.265  -2.670  1.00  0.00     0.046 A   
ATOM     3   C8  UNL     1      -0.623  -0.109  -1.482  1.00  0.00     0.127 A   
ATOM     4   N3  UNL     1      -1.317   1.070  -1.508  1.00  0.00    -0.132 NA  
ATOM     5   N4  UNL     1      -1.061   1.673  -2.657  1.00  0.00    -0.075 NA  
ATOM     6   H7  UNL     1       0.738  -1.011  -3.049  1.00  0.00     0.083 HD  
ENDROOT
BRANCH   1   7
ATOM     7   C2  UNL     1       0.420   1.404  -4.573  1.00  0.00     0.179 C   
BRANCH   7   8
ATOM     8   C1  UNL     1      -0.060   0.637  -5.816  1.00  0.00     0.188 C   
BRANCH   8   9
ATOM     9   O1  UNL     1       0.334  -0.736  -5.797  1.00  0.00    -0.394 OA  
ATOM     10  H1  UNL     1       0.004  -1.144  -6.618  1.00  0.00     0.210 HD  
ENDBRANCH   8   9
ENDBRANCH   7   8
BRANCH   7  11
ATOM     11  C3  UNL     1       1.913   1.447  -4.409  1.00  0.00     0.086 A   
ATOM     12  C4  UNL     1       2.987   1.099  -5.207  1.00  0.00     0.035 A   
ATOM     13  O2  UNL     1       2.377   1.942  -3.219  1.00  0.00    -0.301 OA  
ATOM     14  C5  UNL     1       4.159   1.392  -4.461  1.00  0.00     0.049 A   
ATOM     15  C6  UNL     1       3.739   1.896  -3.251  1.00  0.00     0.147 A   
ATOM     16  CL1 UNL     1       4.725   2.388  -1.933  1.00  0.00    -0.056 Cl  
ENDBRANCH   7  11
ENDBRANCH   1   7
BRANCH   3  17
ATOM     17  C9  UNL     1      -0.572  -0.905  -0.220  1.00  0.00     0.117 C   
BRANCH  17  18
ATOM     18  N2  UNL     1      -0.455   0.029   0.956  1.00  0.00     0.249 N   
ATOM     19  H9  UNL     1      -1.149   0.778   0.811  1.00  0.00     0.199 HD  
ATOM     20  H10 UNL     1      -0.701  -0.426   1.838  1.00  0.00     0.199 HD  
BRANCH  18  21
ATOM     21  C10 UNL     1       0.879   0.679   1.104  1.00  0.00     0.164 C   
BRANCH  21  22
ATOM     22  C11 UNL     1       0.885   1.625   2.272  1.00  0.00    -0.002 A   
ATOM     23  C12 UNL     1       0.586   2.992   2.079  1.00  0.00     0.012 A   
ATOM     24  C16 UNL     1       1.165   1.152   3.566  1.00  0.00     0.045 A   
ATOM     25  C13 UNL     1       0.585   3.888   3.155  1.00  0.00     0.037 A   
ATOM     26  C15 UNL     1       1.152   2.059   4.606  1.00  0.00     0.109 A   
ATOM     27  C14 UNL     1       0.878   3.389   4.406  1.00  0.00     0.108 A   
ATOM     28  O3  UNL     1       1.405   1.773   5.909  1.00  0.00    -0.316 OA  
ATOM     29  O4  UNL     1       0.933   4.109   5.556  1.00  0.00    -0.316 OA  
ATOM     30  C17 UNL     1       1.282   3.082   6.508  1.00  0.00     0.337 C   
ENDBRANCH  21  22
ENDBRANCH  18  21
ENDBRANCH  17  18
BRANCH  17  31
ATOM     31  C18 UNL     1      -1.781  -1.860  -0.048  1.00  0.00     0.043 C   
ATOM     32  C19 UNL     1      -3.121  -1.145   0.215  1.00  0.00     0.010 C   
ATOM     33  C23 UNL     1      -1.506  -2.908   1.051  1.00  0.00     0.010 C   
ATOM     34  C20 UNL     1      -4.273  -2.138   0.377  1.00  0.00     0.001 C   
ATOM     35  C22 UNL     1      -2.667  -3.889   1.209  1.00  0.00     0.001 C   
ATOM     36  C21 UNL     1      -3.982  -3.162   1.468  1.00  0.00     0.000 C   
ENDBRANCH  17  31
ENDBRANCH   3  17
TORSDOF 9
