REMARK SMILES CC(C)C[C@H]([NH2+]Cc1ccc2c(c1)OCO2)c1cn(Cc2cn[nH]c2C2CCC2)nn1
REMARK SMILES IDX 17 1 18 2 19 3 30 4 31 5 5 7 4 8 2 9 1 10 3 11 6 12 7 15
REMARK SMILES IDX 8 16 9 17 13 18 10 19 12 20 11 21 14 22 16 23 15 24 20 25
REMARK SMILES IDX 21 26 22 27 25 28 23 29 24 30 26 32 27 33 29 34 28 35
REMARK H PARENT 18 6 6 13 6 14 24 31
ROOT
ATOM     1   C14 UNL     1      -0.383   0.780   2.101  1.00  0.00     0.127 A   
ATOM     2   C15 UNL     1      -1.704   0.452   1.895  1.00  0.00     0.046 A   
ATOM     3   N2  UNL     1      -2.336   1.664   1.810  1.00  0.00    -0.208 N   
ATOM     4   N5  UNL     1      -1.458   2.674   1.974  1.00  0.00    -0.076 NA  
ATOM     5   N6  UNL     1      -0.259   2.144   2.156  1.00  0.00    -0.132 NA  
ATOM     6   H20 UNL     1      -2.229  -0.486   1.779  1.00  0.00     0.083 HD  
ENDROOT
BRANCH   1   7
ATOM     7   C5  UNL     1       0.838  -0.075   2.201  1.00  0.00     0.114 C   
BRANCH   7   8
ATOM     8   C4  UNL     1       1.212  -0.319   3.678  1.00  0.00     0.064 C   
BRANCH   8   9
ATOM     9   C2  UNL     1       2.421  -1.243   3.937  1.00  0.00    -0.012 C   
ATOM     10  C1  UNL     1       2.259  -2.620   3.294  1.00  0.00     0.007 C   
ATOM     11  C3  UNL     1       2.632  -1.399   5.447  1.00  0.00     0.007 C   
ENDBRANCH   8   9
ENDBRANCH   7   8
BRANCH   7  12
ATOM     12  N1  UNL     1       2.002   0.585   1.500  1.00  0.00     0.249 N   
ATOM     13  H11 UNL     1       2.086   1.527   1.905  1.00  0.00     0.199 HD  
ATOM     14  H12 UNL     1       2.872   0.085   1.696  1.00  0.00     0.199 HD  
BRANCH  12  15
ATOM     15  C6  UNL     1       1.875   0.749   0.019  1.00  0.00     0.164 C   
BRANCH  15  16
ATOM     16  C7  UNL     1       1.850  -0.563  -0.713  1.00  0.00    -0.002 A   
ATOM     17  C8  UNL     1       3.034  -1.326  -0.859  1.00  0.00     0.012 A   
ATOM     18  C12 UNL     1       0.638  -1.060  -1.225  1.00  0.00     0.045 A   
ATOM     19  C9  UNL     1       3.011  -2.570  -1.500  1.00  0.00     0.037 A   
ATOM     20  C11 UNL     1       0.652  -2.291  -1.847  1.00  0.00     0.109 A   
ATOM     21  C10 UNL     1       1.804  -3.025  -1.981  1.00  0.00     0.108 A   
ATOM     22  O1  UNL     1      -0.428  -2.918  -2.382  1.00  0.00    -0.316 OA  
ATOM     23  O2  UNL     1       1.595  -4.205  -2.621  1.00  0.00    -0.316 OA  
ATOM     24  C13 UNL     1       0.182  -4.119  -2.906  1.00  0.00     0.337 C   
ENDBRANCH  15  16
ENDBRANCH  12  15
ENDBRANCH   7  12
ENDBRANCH   1   7
BRANCH   3  25
ATOM     25  C16 UNL     1      -3.744   1.928   1.558  1.00  0.00     0.172 C   
BRANCH  25  26
ATOM     26  C17 UNL     1      -4.047   1.758   0.112  1.00  0.00     0.010 A   
ATOM     27  C18 UNL     1      -4.503   0.579  -0.525  1.00  0.00     0.138 A   
ATOM     28  C19 UNL     1      -3.957   2.669  -0.923  1.00  0.00     0.034 A   
ATOM     29  N3  UNL     1      -4.641   0.725  -1.842  1.00  0.00    -0.192 NA  
ATOM     30  N4  UNL     1      -4.332   2.012  -2.060  1.00  0.00    -0.242 N   
ATOM     31  H24 UNL     1      -4.394   2.369  -3.009  1.00  0.00     0.175 HD  
BRANCH  28  32
ATOM     32  C20 UNL     1      -3.496   4.149  -0.832  1.00  0.00     0.035 C   
ATOM     33  C21 UNL     1      -3.808   5.044  -2.060  1.00  0.00     0.010 C   
ATOM     34  C23 UNL     1      -4.437   5.086  -0.031  1.00  0.00     0.010 C   
ATOM     35  C22 UNL     1      -4.097   6.183  -1.060  1.00  0.00     0.001 C   
ENDBRANCH  28  32
ENDBRANCH  25  26
ENDBRANCH   3  25
TORSDOF 9
