REMARK SMILES CC(C)(C)[C@H]([NH2+]Cc1ccc2c(c1)OCO2)c1cn(C[C@H](O)c2cccc(F)c2)nn1
REMARK SMILES IDX 17 1 18 2 19 3 30 4 31 5 5 7 2 8 1 9 3 10 4 11 6 12 7 15
REMARK SMILES IDX 8 16 9 17 13 18 10 19 12 20 11 21 14 22 16 23 15 24 20 25
REMARK SMILES IDX 21 26 22 27 23 29 24 30 29 31 25 32 27 33 26 34 28 35
REMARK H PARENT 18 6 6 13 6 14 22 28
ROOT
ATOM     1   C14 UNL     1       0.072   2.200  -0.785  1.00  0.00     0.127 A   
ATOM     2   C15 UNL     1       0.588   2.834   0.323  1.00  0.00     0.046 A   
ATOM     3   N2  UNL     1      -0.518   3.192   1.044  1.00  0.00    -0.209 N   
ATOM     4   N3  UNL     1      -1.645   2.815   0.414  1.00  0.00    -0.076 NA  
ATOM     5   N4  UNL     1      -1.298   2.214  -0.711  1.00  0.00    -0.132 NA  
ATOM     6   H20 UNL     1       1.594   3.016   0.676  1.00  0.00     0.083 HD  
ENDROOT
BRANCH   1   7
ATOM     7   C5  UNL     1       0.743   1.463  -1.906  1.00  0.00     0.120 C   
BRANCH   7   8
ATOM     8   C2  UNL     1       1.048   2.349  -3.165  1.00  0.00     0.010 C   
ATOM     9   C1  UNL     1       1.924   3.558  -2.765  1.00  0.00     0.017 C   
ATOM     10  C3  UNL     1       1.849   1.542  -4.213  1.00  0.00     0.017 C   
ATOM     11  C4  UNL     1      -0.232   2.880  -3.841  1.00  0.00     0.017 C   
ENDBRANCH   7   8
BRANCH   7  12
ATOM     12  N1  UNL     1      -0.111   0.278  -2.294  1.00  0.00     0.250 N   
ATOM     13  H11 UNL     1       0.158  -0.121  -3.196  1.00  0.00     0.199 HD  
ATOM     14  H12 UNL     1      -1.073   0.632  -2.407  1.00  0.00     0.199 HD  
BRANCH  12  15
ATOM     15  C6  UNL     1      -0.173  -0.828  -1.292  1.00  0.00     0.164 C   
BRANCH  15  16
ATOM     16  C7  UNL     1      -1.106  -1.906  -1.767  1.00  0.00    -0.002 A   
ATOM     17  C8  UNL     1      -0.606  -3.049  -2.433  1.00  0.00     0.012 A   
ATOM     18  C12 UNL     1      -2.494  -1.754  -1.597  1.00  0.00     0.045 A   
ATOM     19  C9  UNL     1      -1.474  -4.033  -2.919  1.00  0.00     0.037 A   
ATOM     20  C11 UNL     1      -3.322  -2.740  -2.091  1.00  0.00     0.109 A   
ATOM     21  C10 UNL     1      -2.827  -3.847  -2.735  1.00  0.00     0.108 A   
ATOM     22  O1  UNL     1      -4.679  -2.745  -2.016  1.00  0.00    -0.316 OA  
ATOM     23  O2  UNL     1      -3.810  -4.690  -3.146  1.00  0.00    -0.316 OA  
ATOM     24  C13 UNL     1      -4.986  -3.990  -2.685  1.00  0.00     0.337 C   
ENDBRANCH  15  16
ENDBRANCH  12  15
ENDBRANCH   7  12
ENDBRANCH   1   7
BRANCH   3  25
ATOM     25  C16 UNL     1      -0.569   3.746   2.379  1.00  0.00     0.170 C   
BRANCH  25  26
ATOM     26  C17 UNL     1      -0.958   2.705   3.439  1.00  0.00     0.164 C   
BRANCH  26  27
ATOM     27  O3  UNL     1      -0.966   3.334   4.721  1.00  0.00    -0.387 OA  
ATOM     28  H24 UNL     1      -1.103   2.636   5.388  1.00  0.00     0.211 HD  
ENDBRANCH  26  27
BRANCH  26  29
ATOM     29  C18 UNL     1      -0.012   1.517   3.460  1.00  0.00    -0.015 A   
ATOM     30  C19 UNL     1       1.236   1.582   4.102  1.00  0.00     0.006 A   
ATOM     31  C23 UNL     1      -0.348   0.349   2.757  1.00  0.00     0.045 A   
ATOM     32  C20 UNL     1       2.126   0.506   4.040  1.00  0.00     0.003 A   
ATOM     33  C22 UNL     1       0.557  -0.703   2.679  1.00  0.00     0.123 A   
ATOM     34  C21 UNL     1       1.789  -0.638   3.319  1.00  0.00     0.039 A   
ATOM     35  F1  UNL     1       0.251  -1.774   1.934  1.00  0.00    -0.207 F   
ENDBRANCH  26  29
ENDBRANCH  25  26
ENDBRANCH   3  25
TORSDOF 9
