REMARK SMILES CC(C)(C)[C@H]([NH2+]Cc1ccc2c(c1)OCO2)c1cn(C[C@@H](O)c2cccc(F)c2)nn1
REMARK SMILES IDX 17 1 18 2 19 3 30 4 31 5 5 7 2 8 1 9 3 10 4 11 6 12 7 15
REMARK SMILES IDX 8 16 9 17 13 18 10 19 12 20 11 21 14 22 16 23 15 24 20 25
REMARK SMILES IDX 21 26 22 27 23 29 24 30 29 31 25 32 27 33 26 34 28 35
REMARK H PARENT 18 6 6 13 6 14 22 28
ROOT
ATOM     1   C14 UNL     1      -0.624   0.437   0.159  1.00  0.00     0.127 A   
ATOM     2   C15 UNL     1      -1.256   1.513   0.740  1.00  0.00     0.046 A   
ATOM     3   N2  UNL     1      -0.463   1.825   1.809  1.00  0.00    -0.209 N   
ATOM     4   N3  UNL     1       0.649   1.066   1.818  1.00  0.00    -0.076 NA  
ATOM     5   N4  UNL     1       0.548   0.192   0.831  1.00  0.00    -0.132 NA  
ATOM     6   H20 UNL     1      -2.180   2.038   0.537  1.00  0.00     0.083 HD  
ENDROOT
BRANCH   1   7
ATOM     7   C5  UNL     1      -0.968  -0.400  -1.038  1.00  0.00     0.120 C   
BRANCH   7   8
ATOM     8   C2  UNL     1      -1.920  -1.608  -0.725  1.00  0.00     0.010 C   
ATOM     9   C1  UNL     1      -2.291  -2.357  -2.027  1.00  0.00     0.017 C   
ATOM     10  C3  UNL     1      -3.245  -1.101  -0.112  1.00  0.00     0.017 C   
ATOM     11  C4  UNL     1      -1.289  -2.620   0.253  1.00  0.00     0.017 C   
ENDBRANCH   7   8
BRANCH   7  12
ATOM     12  N1  UNL     1       0.319  -0.895  -1.659  1.00  0.00     0.250 N   
ATOM     13  H11 UNL     1       0.185  -1.716  -2.254  1.00  0.00     0.199 HD  
ATOM     14  H12 UNL     1       0.917  -1.204  -0.876  1.00  0.00     0.199 HD  
BRANCH  12  15
ATOM     15  C6  UNL     1       1.093   0.125  -2.420  1.00  0.00     0.164 C   
BRANCH  15  16
ATOM     16  C7  UNL     1       2.399  -0.453  -2.888  1.00  0.00    -0.002 A   
ATOM     17  C8  UNL     1       3.526  -0.442  -2.030  1.00  0.00     0.012 A   
ATOM     18  C12 UNL     1       2.495  -1.058  -4.152  1.00  0.00     0.045 A   
ATOM     19  C9  UNL     1       4.738  -1.014  -2.430  1.00  0.00     0.037 A   
ATOM     20  C11 UNL     1       3.705  -1.614  -4.514  1.00  0.00     0.109 A   
ATOM     21  C10 UNL     1       4.794  -1.593  -3.679  1.00  0.00     0.108 A   
ATOM     22  O1  UNL     1       3.966  -2.235  -5.694  1.00  0.00    -0.316 OA  
ATOM     23  O2  UNL     1       5.880  -2.196  -4.229  1.00  0.00    -0.316 OA  
ATOM     24  C13 UNL     1       5.358  -2.584  -5.517  1.00  0.00     0.337 C   
ENDBRANCH  15  16
ENDBRANCH  12  15
ENDBRANCH   7  12
ENDBRANCH   1   7
BRANCH   3  25
ATOM     25  C16 UNL     1      -0.670   2.842   2.820  1.00  0.00     0.170 C   
BRANCH  25  26
ATOM     26  C17 UNL     1      -1.745   2.481   3.854  1.00  0.00     0.164 C   
BRANCH  26  27
ATOM     27  O3  UNL     1      -3.037   2.474   3.237  1.00  0.00    -0.387 OA  
ATOM     28  H24 UNL     1      -3.677   2.231   3.933  1.00  0.00     0.211 HD  
ENDBRANCH  26  27
BRANCH  26  29
ATOM     29  C18 UNL     1      -1.492   1.181   4.589  1.00  0.00    -0.015 A   
ATOM     30  C19 UNL     1      -0.685   1.167   5.738  1.00  0.00     0.006 A   
ATOM     31  C23 UNL     1      -2.015  -0.036   4.124  1.00  0.00     0.045 A   
ATOM     32  C20 UNL     1      -0.413  -0.032   6.406  1.00  0.00     0.003 A   
ATOM     33  C22 UNL     1      -1.731  -1.223   4.791  1.00  0.00     0.123 A   
ATOM     34  C21 UNL     1      -0.937  -1.232   5.930  1.00  0.00     0.039 A   
ATOM     35  F1  UNL     1      -2.227  -2.374   4.318  1.00  0.00    -0.207 F   
ENDBRANCH  26  29
ENDBRANCH  25  26
ENDBRANCH   3  25
TORSDOF 9
