REMARK SMILES N#Cc1ccc(-n2cc([C@@H]([NH2+]Cc3ccc4c(c3)OCO4)C3CCCC3)nn2)cc1
REMARK SMILES IDX 10 1 9 2 7 3 8 4 28 5 27 6 6 7 3 8 4 9 30 10 5 11 29 12 2 13
REMARK SMILES IDX 1 14 11 15 12 18 13 19 14 20 18 21 15 22 17 23 16 24 19 25
REMARK SMILES IDX 21 26 20 27 22 28 23 29 26 30 24 31 25 32
REMARK H PARENT 11 16 11 17
ROOT
ATOM     1   C8  UNL     1       0.442  -1.113  -1.255  1.00  0.00     0.117 C   
ENDROOT
BRANCH   1   2
ATOM     2   C7  UNL     1      -0.627  -1.504  -0.283  1.00  0.00     0.127 A   
ATOM     3   N2  UNL     1      -2.365  -2.264   0.813  1.00  0.00    -0.181 N   
ATOM     4   C6  UNL     1      -1.783  -2.237  -0.440  1.00  0.00     0.135 A   
ATOM     5   N5  UNL     1      -1.588  -1.550   1.669  1.00  0.00    -0.071 NA  
ATOM     6   N4  UNL     1      -0.532  -1.096   1.018  1.00  0.00    -0.131 NA  
BRANCH   3   7
ATOM     7   C5  UNL     1      -3.569  -2.886   1.232  1.00  0.00     0.058 A   
ATOM     8   C2  UNL     1      -5.949  -4.098   2.105  1.00  0.00     0.052 A   
ATOM     9   C3  UNL     1      -5.560  -4.191   0.765  1.00  0.00     0.021 A   
ATOM     10  C23 UNL     1      -5.145  -3.400   3.010  1.00  0.00     0.021 A   
ATOM     11  C4  UNL     1      -4.374  -3.590   0.326  1.00  0.00     0.027 A   
ATOM     12  C22 UNL     1      -3.960  -2.796   2.577  1.00  0.00     0.027 A   
BRANCH   8  13
ATOM     13  C1  UNL     1      -7.167  -4.712   2.548  1.00  0.00     0.099 C   
ATOM     14  N1  UNL     1      -8.155  -5.206   2.901  1.00  0.00    -0.192 NA  
ENDBRANCH   8  13
ENDBRANCH   3   7
ENDBRANCH   1   2
BRANCH   1  15
ATOM     15  N3  UNL     1       1.186   0.095  -0.754  1.00  0.00     0.249 N   
ATOM     16  H5  UNL     1       1.311  -0.032   0.262  1.00  0.00     0.199 HD  
ATOM     17  H6  UNL     1       2.131   0.162  -1.144  1.00  0.00     0.199 HD  
BRANCH  15  18
ATOM     18  C9  UNL     1       0.491   1.399  -0.940  1.00  0.00     0.164 C   
BRANCH  18  19
ATOM     19  C10 UNL     1       1.304   2.511  -0.342  1.00  0.00    -0.002 A   
ATOM     20  C11 UNL     1       1.180   2.824   1.033  1.00  0.00     0.012 A   
ATOM     21  C15 UNL     1       2.237   3.207  -1.130  1.00  0.00     0.045 A   
ATOM     22  C12 UNL     1       1.966   3.823   1.616  1.00  0.00     0.037 A   
ATOM     23  C14 UNL     1       2.996   4.185  -0.523  1.00  0.00     0.109 A   
ATOM     24  C13 UNL     1       2.865   4.486   0.810  1.00  0.00     0.108 A   
ATOM     25  O1  UNL     1       3.941   4.944  -1.137  1.00  0.00    -0.316 OA  
ATOM     26  O2  UNL     1       3.708   5.475   1.203  1.00  0.00    -0.316 OA  
ATOM     27  C16 UNL     1       4.388   5.769  -0.036  1.00  0.00     0.337 C   
ENDBRANCH  18  19
ENDBRANCH  15  18
ENDBRANCH   1  15
BRANCH   1  28
ATOM     28  C17 UNL     1       1.425  -2.271  -1.520  1.00  0.00     0.043 C   
ATOM     29  C18 UNL     1       2.423  -2.005  -2.666  1.00  0.00     0.010 C   
ATOM     30  C21 UNL     1       2.294  -2.697  -0.328  1.00  0.00     0.010 C   
ATOM     31  C19 UNL     1       3.786  -2.476  -2.165  1.00  0.00     0.001 C   
ATOM     32  C20 UNL     1       3.481  -3.383  -0.984  1.00  0.00     0.001 C   
ENDBRANCH   1  28
TORSDOF 7
