REMARK SMILES COc1c(C)ccnc1Cn1cc([C@H](CC(C)C)[NH2+]Cc2ccc3c(c2)OCO3)nn1
REMARK SMILES IDX 11 1 12 2 13 3 30 4 31 5 10 7 9 8 3 9 4 10 6 11 8 12 7 13
REMARK SMILES IDX 5 14 2 15 1 16 14 17 15 18 16 19 17 20 18 21 19 22 20 25
REMARK SMILES IDX 21 26 22 27 26 28 23 29 25 30 24 31 27 32 29 33 28 34
REMARK H PARENT 12 6 19 23 19 24
ROOT
ATOM     1   N2  UNL     1       0.849   0.767   1.535  1.00  0.00    -0.206 N   
ATOM     2   C9  UNL     1       0.548  -0.228   0.644  1.00  0.00     0.046 A   
ATOM     3   C10 UNL     1       1.406  -0.003  -0.408  1.00  0.00     0.127 A   
ATOM     4   N4  UNL     1       2.220   1.057  -0.108  1.00  0.00    -0.132 NA  
ATOM     5   N5  UNL     1       1.876   1.516   1.085  1.00  0.00    -0.076 NA  
ATOM     6   H11 UNL     1      -0.254  -0.933   0.817  1.00  0.00     0.083 HD  
ENDROOT
BRANCH   1   7
ATOM     7   C8  UNL     1       0.194   1.075   2.792  1.00  0.00     0.192 C   
BRANCH   7   8
ATOM     8   C7  UNL     1      -1.276   1.314   2.576  1.00  0.00     0.090 A   
ATOM     9   C2  UNL     1      -1.756   2.517   2.042  1.00  0.00     0.101 A   
ATOM     10  C3  UNL     1      -3.122   2.648   1.763  1.00  0.00    -0.017 A   
ATOM     11  C5  UNL     1      -3.968   1.588   2.101  1.00  0.00     0.026 A   
ATOM     12  N1  UNL     1      -2.099   0.272   2.869  1.00  0.00    -0.257 NA  
ATOM     13  C6  UNL     1      -3.420   0.438   2.642  1.00  0.00     0.112 A   
ATOM     14  C4  UNL     1      -3.701   3.893   1.152  1.00  0.00     0.047 C   
BRANCH   9  15
ATOM     15  O1  UNL     1      -0.877   3.511   1.698  1.00  0.00    -0.347 OA  
ATOM     16  C1  UNL     1      -0.778   4.487   2.744  1.00  0.00     0.203 C   
ENDBRANCH   9  15
ENDBRANCH   7   8
ENDBRANCH   1   7
BRANCH   3  17
ATOM     17  C11 UNL     1       1.481  -0.636  -1.752  1.00  0.00     0.114 C   
BRANCH  17  18
ATOM     18  C12 UNL     1       2.701  -1.562  -1.909  1.00  0.00     0.064 C   
BRANCH  18  19
ATOM     19  C13 UNL     1       2.716  -2.784  -0.966  1.00  0.00    -0.012 C   
ATOM     20  C14 UNL     1       1.508  -3.699  -1.173  1.00  0.00     0.007 C   
ATOM     21  C15 UNL     1       4.008  -3.578  -1.175  1.00  0.00     0.007 C   
ENDBRANCH  18  19
ENDBRANCH  17  18
BRANCH  17  22
ATOM     22  N3  UNL     1       1.599   0.434  -2.822  1.00  0.00     0.249 N   
ATOM     23  H22 UNL     1       2.438   0.984  -2.590  1.00  0.00     0.199 HD  
ATOM     24  H23 UNL     1       1.759  -0.005  -3.733  1.00  0.00     0.199 HD  
BRANCH  22  25
ATOM     25  C16 UNL     1       0.459   1.401  -2.929  1.00  0.00     0.164 C   
BRANCH  25  26
ATOM     26  C17 UNL     1      -0.862   0.733  -3.206  1.00  0.00    -0.002 A   
ATOM     27  C18 UNL     1      -1.115   0.142  -4.468  1.00  0.00     0.012 A   
ATOM     28  C22 UNL     1      -1.836   0.650  -2.192  1.00  0.00     0.045 A   
ATOM     29  C19 UNL     1      -2.313  -0.539  -4.713  1.00  0.00     0.037 A   
ATOM     30  C21 UNL     1      -3.004  -0.032  -2.466  1.00  0.00     0.109 A   
ATOM     31  C20 UNL     1      -3.234  -0.615  -3.688  1.00  0.00     0.108 A   
ATOM     32  O2  UNL     1      -4.032  -0.227  -1.596  1.00  0.00    -0.316 OA  
ATOM     33  O3  UNL     1      -4.435  -1.249  -3.743  1.00  0.00    -0.316 OA  
ATOM     34  C23 UNL     1      -4.950  -0.980  -2.421  1.00  0.00     0.337 C   
ENDBRANCH  25  26
ENDBRANCH  22  25
ENDBRANCH  17  22
ENDBRANCH   3  17
TORSDOF 9
