REMARK SMILES Cc1cc([C@@H](CO)n2cc([C@@H]([NH2+]Cc3ccc4c(c3)OCO4)C(C)(C)C)nn2)c(C)s1
REMARK SMILES IDX 8 1 9 2 10 3 27 4 28 5 5 7 4 8 2 9 3 10 31 11 29 12 1 13
REMARK SMILES IDX 30 14 6 15 7 16 11 18 12 19 13 22 14 23 15 24 19 25 16 26
REMARK SMILES IDX 18 27 17 28 20 29 22 30 21 31 23 32 24 33 25 34 26 35
REMARK H PARENT 9 6 7 17 12 20 12 21
ROOT
ATOM     1   N1  UNL     1       0.419  -1.231   1.589  1.00  0.00    -0.202 N   
ATOM     2   C7  UNL     1       0.492  -1.507   0.248  1.00  0.00     0.046 A   
ATOM     3   C8  UNL     1       1.636  -0.869  -0.169  1.00  0.00     0.127 A   
ATOM     4   N3  UNL     1       2.199  -0.215   0.899  1.00  0.00    -0.132 NA  
ATOM     5   N4  UNL     1       1.441  -0.432   1.961  1.00  0.00    -0.075 NA  
ATOM     6   H9  UNL     1      -0.245  -2.113  -0.259  1.00  0.00     0.083 HD  
ENDROOT
BRANCH   1   7
ATOM     7   C5  UNL     1      -0.562  -1.670   2.583  1.00  0.00     0.156 C   
BRANCH   7   8
ATOM     8   C4  UNL     1      -1.964  -1.736   1.988  1.00  0.00    -0.013 A   
ATOM     9   C2  UNL     1      -3.840  -2.698   0.934  1.00  0.00    -0.013 A   
ATOM     10  C3  UNL     1      -2.563  -2.913   1.407  1.00  0.00     0.017 A   
ATOM     11  S1  UNL     1      -4.332  -1.080   1.172  1.00  0.00    -0.099 S   
ATOM     12  C22 UNL     1      -2.852  -0.661   1.925  1.00  0.00    -0.008 A   
ATOM     13  C1  UNL     1      -4.768  -3.672   0.286  1.00  0.00     0.052 C   
ATOM     14  C23 UNL     1      -2.667   0.741   2.422  1.00  0.00     0.053 C   
ENDBRANCH   7   8
BRANCH   7  15
ATOM     15  C6  UNL     1      -0.081  -2.943   3.305  1.00  0.00     0.185 C   
BRANCH  15  16
ATOM     16  O1  UNL     1       0.197  -4.024   2.409  1.00  0.00    -0.394 OA  
ATOM     17  H8  UNL     1       0.557  -4.753   2.955  1.00  0.00     0.210 HD  
ENDBRANCH  15  16
ENDBRANCH   7  15
ENDBRANCH   1   7
BRANCH   3  18
ATOM     18  C9  UNL     1       2.263  -0.732  -1.525  1.00  0.00     0.120 C   
BRANCH  18  19
ATOM     19  N2  UNL     1       2.991   0.604  -1.566  1.00  0.00     0.250 N   
ATOM     20  H11 UNL     1       3.059   0.910  -0.581  1.00  0.00     0.199 HD  
ATOM     21  H12 UNL     1       3.961   0.497  -1.871  1.00  0.00     0.199 HD  
BRANCH  19  22
ATOM     22  C10 UNL     1       2.336   1.694  -2.345  1.00  0.00     0.164 C   
BRANCH  22  23
ATOM     23  C11 UNL     1       0.938   2.012  -1.890  1.00  0.00    -0.002 A   
ATOM     24  C12 UNL     1       0.704   2.585  -0.616  1.00  0.00     0.012 A   
ATOM     25  C16 UNL     1      -0.158   1.695  -2.714  1.00  0.00     0.045 A   
ATOM     26  C13 UNL     1      -0.600   2.813  -0.159  1.00  0.00     0.037 A   
ATOM     27  C15 UNL     1      -1.429   1.932  -2.232  1.00  0.00     0.109 A   
ATOM     28  C14 UNL     1      -1.645   2.468  -0.989  1.00  0.00     0.108 A   
ATOM     29  O2  UNL     1      -2.589   1.661  -2.892  1.00  0.00    -0.316 OA  
ATOM     30  O3  UNL     1      -2.967   2.589  -0.703  1.00  0.00    -0.316 OA  
ATOM     31  C17 UNL     1      -3.568   2.090  -1.920  1.00  0.00     0.337 C   
ENDBRANCH  22  23
ENDBRANCH  19  22
ENDBRANCH  18  19
BRANCH  18  32
ATOM     32  C18 UNL     1       3.229  -1.901  -1.919  1.00  0.00     0.010 C   
ATOM     33  C19 UNL     1       3.775  -1.683  -3.350  1.00  0.00     0.017 C   
ATOM     34  C20 UNL     1       4.419  -2.042  -0.950  1.00  0.00     0.017 C   
ATOM     35  C21 UNL     1       2.457  -3.240  -1.940  1.00  0.00     0.017 C   
ENDBRANCH  18  32
ENDBRANCH   3  18
TORSDOF 9
