REMARK SMILES Cc1cc([C@H](CO)n2cc([C@@H]([NH2+]Cc3ccc4c(c3)OCO4)C(C)(C)C)nn2)c(C)s1
REMARK SMILES IDX 8 1 9 2 10 3 27 4 28 5 5 7 4 8 2 9 3 10 31 11 29 12 1 13
REMARK SMILES IDX 30 14 6 15 7 16 11 18 12 19 13 22 14 23 15 24 19 25 16 26
REMARK SMILES IDX 18 27 17 28 20 29 22 30 21 31 23 32 24 33 25 34 26 35
REMARK H PARENT 9 6 7 17 12 20 12 21
ROOT
ATOM     1   N1  UNL     1      -0.493   2.223  -0.890  1.00  0.00    -0.202 N   
ATOM     2   C7  UNL     1      -1.330   1.338  -0.263  1.00  0.00     0.046 A   
ATOM     3   C8  UNL     1      -0.522   0.266   0.037  1.00  0.00     0.127 A   
ATOM     4   N3  UNL     1       0.726   0.482  -0.488  1.00  0.00    -0.132 NA  
ATOM     5   N4  UNL     1       0.731   1.677  -1.056  1.00  0.00    -0.075 NA  
ATOM     6   H9  UNL     1      -2.367   1.570  -0.064  1.00  0.00     0.083 HD  
ENDROOT
BRANCH   1   7
ATOM     7   C5  UNL     1      -0.755   3.591  -1.340  1.00  0.00     0.156 C   
BRANCH   7   8
ATOM     8   C4  UNL     1      -1.614   4.337  -0.325  1.00  0.00    -0.013 A   
ATOM     9   C2  UNL     1      -3.550   5.287   0.620  1.00  0.00    -0.013 A   
ATOM     10  C3  UNL     1      -3.025   4.595  -0.449  1.00  0.00     0.017 A   
ATOM     11  S1  UNL     1      -2.358   5.632   1.785  1.00  0.00    -0.099 S   
ATOM     12  C22 UNL     1      -1.133   4.862   0.872  1.00  0.00    -0.008 A   
ATOM     13  C1  UNL     1      -4.954   5.743   0.834  1.00  0.00     0.052 C   
ATOM     14  C23 UNL     1       0.263   4.828   1.412  1.00  0.00     0.053 C   
ENDBRANCH   7   8
BRANCH   7  15
ATOM     15  C6  UNL     1      -1.260   3.612  -2.794  1.00  0.00     0.185 C   
BRANCH  15  16
ATOM     16  O1  UNL     1      -2.433   2.818  -2.990  1.00  0.00    -0.394 OA  
ATOM     17  H8  UNL     1      -2.712   2.954  -3.915  1.00  0.00     0.210 HD  
ENDBRANCH  15  16
ENDBRANCH   7  15
ENDBRANCH   1   7
BRANCH   3  18
ATOM     18  C9  UNL     1      -0.813  -1.022   0.742  1.00  0.00     0.120 C   
BRANCH  18  19
ATOM     19  N2  UNL     1      -0.084  -2.132   0.021  1.00  0.00     0.250 N   
ATOM     20  H11 UNL     1       0.110  -2.933   0.624  1.00  0.00     0.199 HD  
ATOM     21  H12 UNL     1       0.839  -1.751  -0.242  1.00  0.00     0.199 HD  
BRANCH  19  22
ATOM     22  C10 UNL     1      -0.737  -2.609  -1.230  1.00  0.00     0.164 C   
BRANCH  22  23
ATOM     23  C11 UNL     1       0.127  -3.625  -1.920  1.00  0.00    -0.002 A   
ATOM     24  C12 UNL     1       0.122  -4.976  -1.498  1.00  0.00     0.012 A   
ATOM     25  C16 UNL     1       0.988  -3.225  -2.958  1.00  0.00     0.045 A   
ATOM     26  C13 UNL     1       0.957  -5.920  -2.105  1.00  0.00     0.037 A   
ATOM     27  C15 UNL     1       1.793  -4.182  -3.538  1.00  0.00     0.109 A   
ATOM     28  C14 UNL     1       1.780  -5.491  -3.123  1.00  0.00     0.108 A   
ATOM     29  O2  UNL     1       2.672  -3.967  -4.553  1.00  0.00    -0.316 OA  
ATOM     30  O3  UNL     1       2.651  -6.265  -3.821  1.00  0.00    -0.316 OA  
ATOM     31  C17 UNL     1       3.202  -5.299  -4.743  1.00  0.00     0.337 C   
ENDBRANCH  22  23
ENDBRANCH  19  22
ENDBRANCH  18  19
BRANCH  18  32
ATOM     32  C18 UNL     1      -0.438  -1.014   2.266  1.00  0.00     0.010 C   
ATOM     33  C19 UNL     1       1.079  -0.871   2.508  1.00  0.00     0.017 C   
ATOM     34  C20 UNL     1      -0.917  -2.321   2.940  1.00  0.00     0.017 C   
ATOM     35  C21 UNL     1      -1.153   0.151   2.987  1.00  0.00     0.017 C   
ENDBRANCH  18  32
ENDBRANCH   3  18
TORSDOF 9
