REMARK SMILES Cc1nc2ccc(-n3cc([C@@H]([NH2+]Cc4ccc5c(c4)OCO5)C(C)(C)C)nn3)cc2[nH]1
REMARK SMILES IDX 11 1 10 2 8 3 9 4 28 5 27 6 7 7 2 8 3 9 31 10 4 11 30 12
REMARK SMILES IDX 5 13 29 14 6 15 1 16 12 18 13 21 14 22 15 23 19 24 16 25
REMARK SMILES IDX 18 26 17 27 20 28 22 29 21 30 23 31 24 32 25 33 26 34
REMARK H PARENT 31 17 12 19 12 20
ROOT
ATOM     1   C9  UNL     1       1.728  -0.246  -0.744  1.00  0.00     0.120 C   
ENDROOT
BRANCH   1   2
ATOM     2   C8  UNL     1       0.794   0.666  -0.001  1.00  0.00     0.128 A   
ATOM     3   N2  UNL     1      -0.234   2.074   1.328  1.00  0.00    -0.181 N   
ATOM     4   C7  UNL     1       1.017   1.582   1.004  1.00  0.00     0.135 A   
ATOM     5   N5  UNL     1      -1.161   1.438   0.564  1.00  0.00    -0.071 NA  
ATOM     6   N4  UNL     1      -0.548   0.591  -0.245  1.00  0.00    -0.131 NA  
BRANCH   3   7
ATOM     7   C6  UNL     1      -0.595   3.046   2.297  1.00  0.00     0.060 A   
ATOM     8   C2  UNL     1      -3.189   5.775   4.848  1.00  0.00     0.096 A   
ATOM     9   N1  UNL     1      -1.896   5.834   5.090  1.00  0.00    -0.236 NA  
ATOM     10  N6  UNL     1      -3.458   4.876   3.844  1.00  0.00    -0.302 N   
ATOM     11  C3  UNL     1      -1.314   4.949   4.222  1.00  0.00     0.086 A   
ATOM     12  C23 UNL     1      -2.270   4.328   3.429  1.00  0.00     0.059 A   
ATOM     13  C4  UNL     1       0.037   4.620   4.052  1.00  0.00     0.032 A   
ATOM     14  C22 UNL     1      -1.958   3.372   2.456  1.00  0.00     0.052 A   
ATOM     15  C5  UNL     1       0.389   3.666   3.085  1.00  0.00     0.028 A   
ATOM     16  C1  UNL     1      -4.257   6.548   5.525  1.00  0.00     0.085 C   
ATOM     17  H27 UNL     1      -4.375   4.660   3.480  1.00  0.00     0.154 HD  
ENDBRANCH   3   7
ENDBRANCH   1   2
BRANCH   1  18
ATOM     18  N3  UNL     1       1.002  -1.543  -1.025  1.00  0.00     0.250 N   
ATOM     19  H8  UNL     1       1.407  -2.065  -1.806  1.00  0.00     0.199 HD  
ATOM     20  H9  UNL     1       0.047  -1.285  -1.321  1.00  0.00     0.199 HD  
BRANCH  18  21
ATOM     21  C10 UNL     1       0.863  -2.459   0.141  1.00  0.00     0.164 C   
BRANCH  21  22
ATOM     22  C11 UNL     1       0.005  -3.639  -0.216  1.00  0.00    -0.002 A   
ATOM     23  C12 UNL     1       0.588  -4.833  -0.703  1.00  0.00     0.012 A   
ATOM     24  C16 UNL     1      -1.395  -3.540  -0.116  1.00  0.00     0.045 A   
ATOM     25  C13 UNL     1      -0.210  -5.920  -1.076  1.00  0.00     0.037 A   
ATOM     26  C15 UNL     1      -2.151  -4.631  -0.488  1.00  0.00     0.109 A   
ATOM     27  C14 UNL     1      -1.577  -5.788  -0.956  1.00  0.00     0.108 A   
ATOM     28  O1  UNL     1      -3.508  -4.704  -0.449  1.00  0.00    -0.316 OA  
ATOM     29  O2  UNL     1      -2.499  -6.734  -1.271  1.00  0.00    -0.316 OA  
ATOM     30  C17 UNL     1      -3.724  -6.055  -0.915  1.00  0.00     0.337 C   
ENDBRANCH  21  22
ENDBRANCH  18  21
ENDBRANCH   1  18
BRANCH   1  31
ATOM     31  C18 UNL     1       2.302   0.358  -2.071  1.00  0.00     0.010 C   
ATOM     32  C19 UNL     1       2.997   1.709  -1.788  1.00  0.00     0.017 C   
ATOM     33  C20 UNL     1       1.215   0.585  -3.140  1.00  0.00     0.017 C   
ATOM     34  C21 UNL     1       3.378  -0.582  -2.663  1.00  0.00     0.017 C   
ENDBRANCH   1  31
TORSDOF 6
