REMARK SMILES CC(C)C[C@H]([NH2+]Cc1ccc2c(c1)OCO2)c1cn(Cc2ccc(N(C)C)cc2)nn1
REMARK SMILES IDX 17 1 18 2 19 3 30 4 31 5 5 7 4 8 2 9 1 10 3 11 6 12 7 15
REMARK SMILES IDX 8 16 9 17 13 18 10 19 12 20 11 21 14 22 16 23 15 24 20 25
REMARK SMILES IDX 21 26 22 27 29 28 23 29 28 30 24 31 25 32 26 33 27 34
REMARK H PARENT 18 6 6 13 6 14
ROOT
ATOM     1   C14 UNL     1      -1.651  -1.973  -1.160  1.00  0.00     0.127 A   
ATOM     2   C15 UNL     1      -1.866  -0.615  -1.091  1.00  0.00     0.046 A   
ATOM     3   N2  UNL     1      -3.037  -0.502  -0.392  1.00  0.00    -0.208 N   
ATOM     4   N4  UNL     1      -3.525  -1.717  -0.072  1.00  0.00    -0.076 NA  
ATOM     5   N5  UNL     1      -2.686  -2.626  -0.541  1.00  0.00    -0.132 NA  
ATOM     6   H20 UNL     1      -1.305   0.247  -1.423  1.00  0.00     0.083 HD  
ENDROOT
BRANCH   1   7
ATOM     7   C5  UNL     1      -0.505  -2.764  -1.700  1.00  0.00     0.114 C   
BRANCH   7   8
ATOM     8   C4  UNL     1      -0.833  -3.312  -3.104  1.00  0.00     0.064 C   
BRANCH   8   9
ATOM     9   C2  UNL     1       0.286  -4.105  -3.812  1.00  0.00    -0.012 C   
ATOM     10  C1  UNL     1       1.579  -3.302  -3.951  1.00  0.00     0.007 C   
ATOM     11  C3  UNL     1      -0.198  -4.551  -5.196  1.00  0.00     0.007 C   
ENDBRANCH   8   9
ENDBRANCH   7   8
BRANCH   7  12
ATOM     12  N1  UNL     1      -0.199  -3.919  -0.776  1.00  0.00     0.249 N   
ATOM     13  H11 UNL     1       0.445  -4.578  -1.219  1.00  0.00     0.199 HD  
ATOM     14  H12 UNL     1      -1.092  -4.409  -0.626  1.00  0.00     0.199 HD  
BRANCH  12  15
ATOM     15  C6  UNL     1       0.342  -3.557   0.570  1.00  0.00     0.164 C   
BRANCH  15  16
ATOM     16  C7  UNL     1       1.729  -2.981   0.500  1.00  0.00    -0.002 A   
ATOM     17  C8  UNL     1       2.837  -3.815   0.214  1.00  0.00     0.012 A   
ATOM     18  C12 UNL     1       1.929  -1.601   0.679  1.00  0.00     0.045 A   
ATOM     19  C9  UNL     1       4.126  -3.283   0.098  1.00  0.00     0.037 A   
ATOM     20  C11 UNL     1       3.212  -1.109   0.556  1.00  0.00     0.109 A   
ATOM     21  C10 UNL     1       4.279  -1.925   0.272  1.00  0.00     0.108 A   
ATOM     22  O1  UNL     1       3.574   0.194   0.685  1.00  0.00    -0.316 OA  
ATOM     23  O2  UNL     1       5.449  -1.240   0.191  1.00  0.00    -0.316 OA  
ATOM     24  C13 UNL     1       5.005   0.100   0.494  1.00  0.00     0.337 C   
ENDBRANCH  15  16
ENDBRANCH  12  15
ENDBRANCH   7  12
ENDBRANCH   1   7
BRANCH   3  25
ATOM     25  C16 UNL     1      -3.713   0.710   0.041  1.00  0.00     0.169 C   
BRANCH  25  26
ATOM     26  C17 UNL     1      -2.970   1.352   1.184  1.00  0.00    -0.028 A   
ATOM     27  C18 UNL     1      -3.028   0.806   2.468  1.00  0.00     0.007 A   
ATOM     28  C24 UNL     1      -2.182   2.486   0.985  1.00  0.00     0.007 A   
ATOM     29  C19 UNL     1      -2.310   1.386   3.525  1.00  0.00     0.024 A   
ATOM     30  C23 UNL     1      -1.468   3.054   2.051  1.00  0.00     0.024 A   
ATOM     31  C20 UNL     1      -1.516   2.533   3.356  1.00  0.00     0.028 A   
BRANCH  31  32
ATOM     32  N3  UNL     1      -0.784   3.091   4.412  1.00  0.00    -0.337 N   
ATOM     33  C21 UNL     1      -1.176   2.765   5.786  1.00  0.00     0.129 C   
ATOM     34  C22 UNL     1      -0.196   4.421   4.242  1.00  0.00     0.129 C   
ENDBRANCH  31  32
ENDBRANCH  25  26
ENDBRANCH   3  25
TORSDOF 9
