REMARK SMILES O=C(Cn1cc([C@@H]([NH2+]Cc2ccc3c(c2)OCO3)C2CCCC2)nn1)c1ccc(Cl)cc1
REMARK SMILES IDX 4 1 5 2 6 3 24 4 25 5 3 7 2 8 1 9 26 10 27 11 32 12 28 13
REMARK SMILES IDX 31 14 29 15 30 16 7 17 8 18 9 21 10 22 11 23 15 24 12 25
REMARK SMILES IDX 14 26 13 27 16 28 18 29 17 30 19 31 20 32 23 33 21 34 22 35
REMARK H PARENT 5 6 8 19 8 20
ROOT
ATOM     1   N1  UNL     1       1.515   0.960   0.786  1.00  0.00    -0.204 N   
ATOM     2   C3  UNL     1       0.244   0.633   0.406  1.00  0.00     0.046 A   
ATOM     3   C4  UNL     1       0.112  -0.680   0.797  1.00  0.00     0.127 A   
ATOM     4   N3  UNL     1       1.250  -1.075   1.451  1.00  0.00    -0.132 NA  
ATOM     5   N4  UNL     1       2.099  -0.060   1.443  1.00  0.00    -0.076 NA  
ATOM     6   H3  UNL     1      -0.391   1.312  -0.147  1.00  0.00     0.083 HD  
ENDROOT
BRANCH   1   7
ATOM     7   C2  UNL     1       2.227   2.204   0.565  1.00  0.00     0.214 C   
BRANCH   7   8
ATOM     8   C1  UNL     1       2.578   2.396  -0.895  1.00  0.00     0.182 C   
ATOM     9   O1  UNL     1       2.228   1.602  -1.770  1.00  0.00    -0.292 OA  
BRANCH   8  10
ATOM     10  C19 UNL     1       3.350   3.617  -1.284  1.00  0.00     0.019 A   
ATOM     11  C20 UNL     1       3.716   4.601  -0.355  1.00  0.00     0.013 A   
ATOM     12  C24 UNL     1       3.691   3.791  -2.634  1.00  0.00     0.013 A   
ATOM     13  C21 UNL     1       4.399   5.753  -0.777  1.00  0.00     0.021 A   
ATOM     14  C23 UNL     1       4.375   4.939  -3.051  1.00  0.00     0.021 A   
ATOM     15  C22 UNL     1       4.726   5.920  -2.120  1.00  0.00     0.041 A   
ATOM     16  CL1 UNL     1       5.562   7.335  -2.630  1.00  0.00    -0.084 Cl  
ENDBRANCH   8  10
ENDBRANCH   7   8
ENDBRANCH   1   7
BRANCH   3  17
ATOM     17  C5  UNL     1      -0.970  -1.671   0.534  1.00  0.00     0.117 C   
BRANCH  17  18
ATOM     18  N2  UNL     1      -0.362  -2.983   0.080  1.00  0.00     0.249 N   
ATOM     19  H5  UNL     1       0.294  -3.271   0.819  1.00  0.00     0.199 HD  
ATOM     20  H6  UNL     1      -1.083  -3.708   0.009  1.00  0.00     0.199 HD  
BRANCH  18  21
ATOM     21  C6  UNL     1       0.411  -2.950  -1.204  1.00  0.00     0.164 C   
BRANCH  21  22
ATOM     22  C7  UNL     1      -0.402  -2.469  -2.374  1.00  0.00    -0.002 A   
ATOM     23  C8  UNL     1      -0.089  -1.234  -2.992  1.00  0.00     0.012 A   
ATOM     24  C12 UNL     1      -1.498  -3.220  -2.839  1.00  0.00     0.045 A   
ATOM     25  C9  UNL     1      -0.866  -0.741  -4.046  1.00  0.00     0.037 A   
ATOM     26  C11 UNL     1      -2.244  -2.701  -3.876  1.00  0.00     0.109 A   
ATOM     27  C10 UNL     1      -1.940  -1.495  -4.462  1.00  0.00     0.108 A   
ATOM     28  O2  UNL     1      -3.343  -3.283  -4.425  1.00  0.00    -0.316 OA  
ATOM     29  O3  UNL     1      -2.808  -1.169  -5.455  1.00  0.00    -0.316 OA  
ATOM     30  C13 UNL     1      -3.660  -2.334  -5.474  1.00  0.00     0.337 C   
ENDBRANCH  21  22
ENDBRANCH  18  21
ENDBRANCH  17  18
BRANCH  17  31
ATOM     31  C14 UNL     1      -1.828  -1.938   1.789  1.00  0.00     0.043 C   
ATOM     32  C15 UNL     1      -2.942  -2.978   1.585  1.00  0.00     0.010 C   
ATOM     33  C18 UNL     1      -2.612  -0.706   2.255  1.00  0.00     0.010 C   
ATOM     34  C16 UNL     1      -4.031  -2.632   2.599  1.00  0.00     0.001 C   
ATOM     35  C17 UNL     1      -3.640  -1.287   3.210  1.00  0.00     0.001 C   
ENDBRANCH  17  31
ENDBRANCH   3  17
TORSDOF 8
