REMARK SMILES CC(C)C[C@H]([NH2+]Cc1ccc2c(c1)OCO2)c1cn(CCn2cnc3ccccc32)nn1
REMARK SMILES IDX 17 1 18 2 19 3 31 4 32 5 5 7 4 8 2 9 1 10 3 11 6 12 7 15
REMARK SMILES IDX 8 16 9 17 13 18 10 19 12 20 11 21 14 22 16 23 15 24 20 25
REMARK SMILES IDX 21 26 22 27 23 28 30 29 24 30 25 31 29 32 26 33 28 34 27 35
REMARK H PARENT 18 6 6 13 6 14
ROOT
ATOM     1   C14 UNL     1      -0.997   1.385  -0.595  1.00  0.00     0.127 A   
ATOM     2   C15 UNL     1      -0.384   1.905  -1.715  1.00  0.00     0.045 A   
ATOM     3   N2  UNL     1      -0.194   3.221  -1.387  1.00  0.00    -0.211 N   
ATOM     4   N5  UNL     1      -0.848   3.534  -0.256  1.00  0.00    -0.076 NA  
ATOM     5   N6  UNL     1      -1.306   2.406   0.264  1.00  0.00    -0.132 NA  
ATOM     6   H20 UNL     1       0.067   1.448  -2.586  1.00  0.00     0.083 HD  
ENDROOT
BRANCH   1   7
ATOM     7   C5  UNL     1      -1.134  -0.041  -0.168  1.00  0.00     0.114 C   
BRANCH   7   8
ATOM     8   C4  UNL     1      -2.492  -0.357   0.480  1.00  0.00     0.064 C   
BRANCH   8   9
ATOM     9   C2  UNL     1      -3.711  -0.141  -0.444  1.00  0.00    -0.012 C   
ATOM     10  C1  UNL     1      -3.665  -1.035  -1.685  1.00  0.00     0.007 C   
ATOM     11  C3  UNL     1      -5.002  -0.405   0.336  1.00  0.00     0.007 C   
ENDBRANCH   8   9
ENDBRANCH   7   8
BRANCH   7  12
ATOM     12  N1  UNL     1      -0.024  -0.311   0.822  1.00  0.00     0.249 N   
ATOM     13  H11 UNL     1       0.859   0.068   0.430  1.00  0.00     0.199 HD  
ATOM     14  H12 UNL     1      -0.179   0.284   1.647  1.00  0.00     0.199 HD  
BRANCH  12  15
ATOM     15  C6  UNL     1       0.254  -1.709   1.228  1.00  0.00     0.164 C   
BRANCH  15  16
ATOM     16  C7  UNL     1       0.582  -2.611   0.070  1.00  0.00    -0.002 A   
ATOM     17  C8  UNL     1      -0.321  -3.630  -0.321  1.00  0.00     0.012 A   
ATOM     18  C12 UNL     1       1.774  -2.429  -0.653  1.00  0.00     0.045 A   
ATOM     19  C9  UNL     1      -0.046  -4.452  -1.418  1.00  0.00     0.037 A   
ATOM     20  C11 UNL     1       2.013  -3.254  -1.733  1.00  0.00     0.109 A   
ATOM     21  C10 UNL     1       1.129  -4.237  -2.104  1.00  0.00     0.108 A   
ATOM     22  O1  UNL     1       3.102  -3.202  -2.543  1.00  0.00    -0.316 OA  
ATOM     23  O2  UNL     1       1.555  -4.934  -3.190  1.00  0.00    -0.316 OA  
ATOM     24  C13 UNL     1       2.827  -4.300  -3.442  1.00  0.00     0.337 C   
ENDBRANCH  15  16
ENDBRANCH  12  15
ENDBRANCH   7  12
ENDBRANCH   1   7
BRANCH   3  25
ATOM     25  C16 UNL     1       0.877   4.071  -1.866  1.00  0.00     0.153 C   
BRANCH  25  26
ATOM     26  C17 UNL     1       1.994   4.275  -0.828  1.00  0.00     0.133 C   
BRANCH  26  27
ATOM     27  N3  UNL     1       2.330   3.098  -0.040  1.00  0.00    -0.288 N   
ATOM     28  C18 UNL     1       2.648   1.861  -0.540  1.00  0.00     0.189 A   
ATOM     29  C24 UNL     1       2.288   2.991   1.331  1.00  0.00     0.060 A   
ATOM     30  N4  UNL     1       2.621   0.936   0.398  1.00  0.00    -0.239 NA  
ATOM     31  C19 UNL     1       2.527   1.641   1.577  1.00  0.00     0.086 A   
ATOM     32  C23 UNL     1       2.060   3.909   2.364  1.00  0.00     0.026 A   
ATOM     33  C20 UNL     1       2.583   1.172   2.898  1.00  0.00     0.030 A   
ATOM     34  C22 UNL     1       2.107   3.422   3.675  1.00  0.00     0.002 A   
ATOM     35  C21 UNL     1       2.373   2.079   3.942  1.00  0.00     0.002 A   
ENDBRANCH  26  27
ENDBRANCH  25  26
ENDBRANCH   3  25
TORSDOF 9
