REMARK SMILES CC(C)[C@H]([NH2+]Cc1ccc2c(c1)OCO2)c1cn(CCc2cnc3ccccn23)nn1
REMARK SMILES IDX 16 1 17 2 18 3 30 4 31 5 4 7 2 8 1 9 3 10 5 11 6 14 7 15
REMARK SMILES IDX 8 16 12 17 9 18 11 19 10 20 13 21 15 22 14 23 19 24 20 25
REMARK SMILES IDX 21 26 22 27 29 28 23 29 24 30 28 31 25 32 27 33 26 34
REMARK H PARENT 17 6 5 12 5 13
ROOT
ATOM     1   C13 UNL     1      -1.233   0.407   1.063  1.00  0.00     0.127 A   
ATOM     2   C14 UNL     1      -0.428   1.382   1.614  1.00  0.00     0.045 A   
ATOM     3   N2  UNL     1      -0.601   1.214   2.964  1.00  0.00    -0.212 N   
ATOM     4   N5  UNL     1      -1.587   0.335   3.217  1.00  0.00    -0.076 NA  
ATOM     5   N6  UNL     1      -1.951  -0.198   2.063  1.00  0.00    -0.132 NA  
ATOM     6   H18 UNL     1       0.334   2.029   1.203  1.00  0.00     0.083 HD  
ENDROOT
BRANCH   1   7
ATOM     7   C4  UNL     1      -1.262  -0.158  -0.325  1.00  0.00     0.117 C   
BRANCH   7   8
ATOM     8   C2  UNL     1      -2.639  -0.015  -1.026  1.00  0.00     0.037 C   
ATOM     9   C1  UNL     1      -3.020   1.462  -1.196  1.00  0.00     0.014 C   
ATOM     10  C3  UNL     1      -3.795  -0.772  -0.364  1.00  0.00     0.014 C   
ENDBRANCH   7   8
BRANCH   7  11
ATOM     11  N1  UNL     1      -0.814  -1.597  -0.226  1.00  0.00     0.249 N   
ATOM     12  H9  UNL     1      -1.397  -2.049   0.490  1.00  0.00     0.199 HD  
ATOM     13  H10 UNL     1       0.133  -1.597   0.206  1.00  0.00     0.199 HD  
BRANCH  11  14
ATOM     14  C5  UNL     1      -0.756  -2.445  -1.440  1.00  0.00     0.164 C   
BRANCH  14  15
ATOM     15  C6  UNL     1       0.227  -1.968  -2.472  1.00  0.00    -0.002 A   
ATOM     16  C7  UNL     1      -0.213  -1.320  -3.651  1.00  0.00     0.012 A   
ATOM     17  C11 UNL     1       1.603  -2.159  -2.267  1.00  0.00     0.045 A   
ATOM     18  C8  UNL     1       0.701  -0.856  -4.604  1.00  0.00     0.037 A   
ATOM     19  C10 UNL     1       2.479  -1.692  -3.225  1.00  0.00     0.109 A   
ATOM     20  C9  UNL     1       2.041  -1.056  -4.360  1.00  0.00     0.108 A   
ATOM     21  O1  UNL     1       3.834  -1.791  -3.176  1.00  0.00    -0.316 OA  
ATOM     22  O2  UNL     1       3.063  -0.677  -5.170  1.00  0.00    -0.316 OA  
ATOM     23  C12 UNL     1       4.198  -1.180  -4.435  1.00  0.00     0.337 C   
ENDBRANCH  14  15
ENDBRANCH  11  14
ENDBRANCH   7  11
ENDBRANCH   1   7
BRANCH   3  24
ATOM     24  C15 UNL     1       0.364   1.539   4.001  1.00  0.00     0.140 C   
BRANCH  24  25
ATOM     25  C16 UNL     1       1.210   0.317   4.421  1.00  0.00     0.075 C   
BRANCH  25  26
ATOM     26  C17 UNL     1       1.722  -0.453   3.239  1.00  0.00     0.036 A   
ATOM     27  C18 UNL     1       1.176  -1.556   2.612  1.00  0.00     0.133 A   
ATOM     28  N4  UNL     1       2.815  -0.110   2.474  1.00  0.00    -0.263 N   
ATOM     29  N3  UNL     1       1.751  -1.771   1.383  1.00  0.00    -0.239 NA  
ATOM     30  C19 UNL     1       2.794  -0.958   1.361  1.00  0.00     0.128 A   
ATOM     31  C23 UNL     1       3.772   0.887   2.659  1.00  0.00     0.082 A   
ATOM     32  C20 UNL     1       3.846  -0.798   0.413  1.00  0.00     0.045 A   
ATOM     33  C22 UNL     1       4.741   1.047   1.744  1.00  0.00     0.016 A   
ATOM     34  C21 UNL     1       4.774   0.162   0.592  1.00  0.00     0.005 A   
ENDBRANCH  25  26
ENDBRANCH  24  25
ENDBRANCH   3  24
TORSDOF 8
