REMARK SMILES CC(C)[C@H]([NH2+]Cc1ccc2c(c1)OCO2)c1cn(Cc2ccc(O)c(F)c2)nn1
REMARK SMILES IDX 16 1 17 2 18 3 28 4 29 5 4 7 2 8 1 9 3 10 5 11 6 14 7 15
REMARK SMILES IDX 8 16 12 17 9 18 11 19 10 20 13 21 15 22 14 23 19 24 20 25
REMARK SMILES IDX 21 26 27 27 22 28 25 29 23 30 26 31 24 32
REMARK H PARENT 17 6 5 12 5 13 24 33
ROOT
ATOM     1   C13 UNL     1      -1.861   0.076  -0.337  1.00  0.00     0.127 A   
ATOM     2   C14 UNL     1      -2.746   0.643   0.554  1.00  0.00     0.046 A   
ATOM     3   N2  UNL     1      -2.678  -0.171   1.652  1.00  0.00    -0.208 N   
ATOM     4   N3  UNL     1      -1.803  -1.175   1.451  1.00  0.00    -0.076 NA  
ATOM     5   N4  UNL     1      -1.299  -1.036   0.236  1.00  0.00    -0.132 NA  
ATOM     6   H18 UNL     1      -3.379   1.519   0.523  1.00  0.00     0.083 HD  
ENDROOT
BRANCH   1   7
ATOM     7   C4  UNL     1      -1.412   0.504  -1.697  1.00  0.00     0.117 C   
BRANCH   7   8
ATOM     8   C2  UNL     1      -2.263  -0.070  -2.859  1.00  0.00     0.037 C   
ATOM     9   C1  UNL     1      -2.288  -1.602  -2.923  1.00  0.00     0.014 C   
ATOM     10  C3  UNL     1      -3.697   0.470  -2.831  1.00  0.00     0.014 C   
ENDBRANCH   7   8
BRANCH   7  11
ATOM     11  N1  UNL     1       0.025   0.096  -1.913  1.00  0.00     0.249 N   
ATOM     12  H9  UNL     1       0.270   0.082  -2.908  1.00  0.00     0.199 HD  
ATOM     13  H10 UNL     1       0.111  -0.876  -1.578  1.00  0.00     0.199 HD  
BRANCH  11  14
ATOM     14  C5  UNL     1       1.035   0.902  -1.171  1.00  0.00     0.164 C   
BRANCH  14  15
ATOM     15  C6  UNL     1       2.416   0.359  -1.407  1.00  0.00    -0.002 A   
ATOM     16  C7  UNL     1       3.237   0.902  -2.424  1.00  0.00     0.012 A   
ATOM     17  C11 UNL     1       2.879  -0.731  -0.649  1.00  0.00     0.045 A   
ATOM     18  C8  UNL     1       4.508   0.374  -2.676  1.00  0.00     0.037 A   
ATOM     19  C10 UNL     1       4.136  -1.226  -0.925  1.00  0.00     0.109 A   
ATOM     20  C9  UNL     1       4.928  -0.690  -1.910  1.00  0.00     0.108 A   
ATOM     21  O1  UNL     1       4.731  -2.270  -0.291  1.00  0.00    -0.316 OA  
ATOM     22  O2  UNL     1       6.123  -1.326  -2.017  1.00  0.00    -0.316 OA  
ATOM     23  C12 UNL     1       6.005  -2.315  -0.972  1.00  0.00     0.337 C   
ENDBRANCH  14  15
ENDBRANCH  11  14
ENDBRANCH   7  11
ENDBRANCH   1   7
BRANCH   3  24
ATOM     24  C15 UNL     1      -3.384  -0.043   2.916  1.00  0.00     0.169 C   
BRANCH  24  25
ATOM     25  C16 UNL     1      -2.755   1.025   3.776  1.00  0.00    -0.025 A   
ATOM     26  C17 UNL     1      -3.361   2.287   3.910  1.00  0.00     0.008 A   
ATOM     27  C21 UNL     1      -1.541   0.780   4.439  1.00  0.00     0.047 A   
ATOM     28  C18 UNL     1      -2.764   3.285   4.686  1.00  0.00     0.036 A   
ATOM     29  C20 UNL     1      -0.957   1.780   5.209  1.00  0.00     0.153 A   
ATOM     30  C19 UNL     1      -1.562   3.025   5.331  1.00  0.00     0.107 A   
ATOM     31  F1  UNL     1       0.207   1.546   5.832  1.00  0.00    -0.204 F   
BRANCH  30  32
ATOM     32  O3  UNL     1      -0.996   4.016   6.078  1.00  0.00    -0.358 OA  
ATOM     33  H23 UNL     1      -0.201   3.643   6.504  1.00  0.00     0.218 HD  
ENDBRANCH  30  32
ENDBRANCH  24  25
ENDBRANCH   3  24
TORSDOF 8
