REMARK SMILES Cc1ccc([C@@H](CO)n2cc([C@@H]([NH2+]Cc3ccc4c(c3)OCO4)C(C)(C)C)nn2)o1
REMARK SMILES IDX 9 1 10 2 11 3 28 4 29 5 6 7 5 8 2 9 3 10 30 11 4 12 1 13
REMARK SMILES IDX 7 14 8 15 12 17 13 18 14 21 15 22 16 23 20 24 17 25 19 26
REMARK SMILES IDX 18 27 21 28 23 29 22 30 24 31 25 32 26 33 27 34
REMARK H PARENT 10 6 8 16 13 19 13 20
ROOT
ATOM     1   N1  UNL     1       1.590   0.565   1.849  1.00  0.00    -0.200 N   
ATOM     2   C8  UNL     1       0.361   1.165   1.749  1.00  0.00     0.046 A   
ATOM     3   C9  UNL     1      -0.430   0.218   1.140  1.00  0.00     0.127 A   
ATOM     4   N3  UNL     1       0.323  -0.899   0.883  1.00  0.00    -0.132 NA  
ATOM     5   N4  UNL     1       1.550  -0.679   1.323  1.00  0.00    -0.075 NA  
ATOM     6   H10 UNL     1       0.180   2.167   2.112  1.00  0.00     0.083 HD  
ENDROOT
BRANCH   1   7
ATOM     7   C6  UNL     1       2.829   1.078   2.428  1.00  0.00     0.179 C   
BRANCH   7   8
ATOM     8   C5  UNL     1       3.086   2.482   1.974  1.00  0.00     0.084 A   
ATOM     9   C2  UNL     1       3.763   3.942   0.475  1.00  0.00     0.056 A   
ATOM     10  C3  UNL     1       3.374   4.671   1.577  1.00  0.00     0.031 A   
ATOM     11  O4  UNL     1       3.583   2.612   0.707  1.00  0.00    -0.317 OA  
ATOM     12  C4  UNL     1       2.938   3.732   2.542  1.00  0.00     0.034 A   
ATOM     13  C1  UNL     1       4.322   4.308  -0.842  1.00  0.00     0.073 C   
ENDBRANCH   7   8
BRANCH   7  14
ATOM     14  C7  UNL     1       2.849   0.899   3.954  1.00  0.00     0.188 C   
BRANCH  14  15
ATOM     15  O1  UNL     1       1.783   1.594   4.607  1.00  0.00    -0.394 OA  
ATOM     16  H9  UNL     1       1.895   1.447   5.566  1.00  0.00     0.210 HD  
ENDBRANCH  14  15
ENDBRANCH   7  14
ENDBRANCH   1   7
BRANCH   3  17
ATOM     17  C10 UNL     1      -1.855   0.269   0.684  1.00  0.00     0.120 C   
BRANCH  17  18
ATOM     18  N2  UNL     1      -1.969  -0.494  -0.616  1.00  0.00     0.250 N   
ATOM     19  H12 UNL     1      -1.452  -1.376  -0.482  1.00  0.00     0.199 HD  
ATOM     20  H13 UNL     1      -2.932  -0.757  -0.836  1.00  0.00     0.199 HD  
BRANCH  18  21
ATOM     21  C11 UNL     1      -1.374   0.183  -1.803  1.00  0.00     0.164 C   
BRANCH  21  22
ATOM     22  C12 UNL     1      -1.490  -0.694  -3.018  1.00  0.00    -0.002 A   
ATOM     23  C13 UNL     1      -2.583  -0.550  -3.905  1.00  0.00     0.012 A   
ATOM     24  C17 UNL     1      -0.536  -1.700  -3.250  1.00  0.00     0.045 A   
ATOM     25  C14 UNL     1      -2.720  -1.390  -5.016  1.00  0.00     0.037 A   
ATOM     26  C16 UNL     1      -0.701  -2.510  -4.354  1.00  0.00     0.109 A   
ATOM     27  C15 UNL     1      -1.762  -2.360  -5.212  1.00  0.00     0.108 A   
ATOM     28  O2  UNL     1       0.124  -3.524  -4.721  1.00  0.00    -0.316 OA  
ATOM     29  O3  UNL     1      -1.737  -3.260  -6.230  1.00  0.00    -0.316 OA  
ATOM     30  C18 UNL     1      -0.526  -3.985  -5.927  1.00  0.00     0.337 C   
ENDBRANCH  21  22
ENDBRANCH  18  21
ENDBRANCH  17  18
BRANCH  17  31
ATOM     31  C19 UNL     1      -2.887  -0.277   1.732  1.00  0.00     0.010 C   
ATOM     32  C20 UNL     1      -4.332  -0.048   1.232  1.00  0.00     0.017 C   
ATOM     33  C21 UNL     1      -2.748   0.491   3.067  1.00  0.00     0.017 C   
ATOM     34  C22 UNL     1      -2.707  -1.781   2.018  1.00  0.00     0.017 C   
ENDBRANCH  17  31
ENDBRANCH   3  17
TORSDOF 9
