REMARK SMILES Cc1ccc([C@H](CO)n2cc([C@@H]([NH2+]Cc3ccc4c(c3)OCO4)C(C)(C)C)nn2)o1
REMARK SMILES IDX 9 1 10 2 11 3 28 4 29 5 6 7 5 8 2 9 3 10 30 11 4 12 1 13
REMARK SMILES IDX 7 14 8 15 12 17 13 18 14 21 15 22 16 23 20 24 17 25 19 26
REMARK SMILES IDX 18 27 21 28 23 29 22 30 24 31 25 32 26 33 27 34
REMARK H PARENT 10 6 8 16 13 19 13 20
ROOT
ATOM     1   N1  UNL     1      -1.661   0.437  -0.894  1.00  0.00    -0.200 N   
ATOM     2   C8  UNL     1      -0.443   0.469  -0.267  1.00  0.00     0.046 A   
ATOM     3   C9  UNL     1       0.229  -0.617  -0.778  1.00  0.00     0.127 A   
ATOM     4   N3  UNL     1      -0.573  -1.253  -1.691  1.00  0.00    -0.132 NA  
ATOM     5   N4  UNL     1      -1.723  -0.604  -1.754  1.00  0.00    -0.075 NA  
ATOM     6   H10 UNL     1      -0.196   1.211   0.479  1.00  0.00     0.083 HD  
ENDROOT
BRANCH   1   7
ATOM     7   C6  UNL     1      -2.816   1.311  -0.723  1.00  0.00     0.179 C   
BRANCH   7   8
ATOM     8   C5  UNL     1      -2.524   2.677  -1.247  1.00  0.00     0.084 A   
ATOM     9   C2  UNL     1      -1.688   4.701  -1.111  1.00  0.00     0.056 A   
ATOM     10  C3  UNL     1      -2.316   4.622  -2.334  1.00  0.00     0.031 A   
ATOM     11  O4  UNL     1      -1.809   3.519  -0.444  1.00  0.00    -0.317 OA  
ATOM     12  C4  UNL     1      -2.851   3.315  -2.425  1.00  0.00     0.034 A   
ATOM     13  C1  UNL     1      -0.954   5.782  -0.418  1.00  0.00     0.073 C   
ENDBRANCH   7   8
BRANCH   7  14
ATOM     14  C7  UNL     1      -3.359   1.315   0.716  1.00  0.00     0.188 C   
BRANCH  14  15
ATOM     15  O1  UNL     1      -2.443   1.830   1.686  1.00  0.00    -0.394 OA  
ATOM     16  H9  UNL     1      -2.275   2.764   1.446  1.00  0.00     0.210 HD  
ENDBRANCH  14  15
ENDBRANCH   7  14
ENDBRANCH   1   7
BRANCH   3  17
ATOM     17  C10 UNL     1       1.565  -1.205  -0.438  1.00  0.00     0.120 C   
BRANCH  17  18
ATOM     18  N2  UNL     1       1.443  -2.719  -0.490  1.00  0.00     0.250 N   
ATOM     19  H12 UNL     1       0.673  -2.913  -1.151  1.00  0.00     0.199 HD  
ATOM     20  H13 UNL     1       2.274  -3.149  -0.902  1.00  0.00     0.199 HD  
BRANCH  18  21
ATOM     21  C11 UNL     1       1.140  -3.411   0.796  1.00  0.00     0.164 C   
BRANCH  21  22
ATOM     22  C12 UNL     1      -0.146  -2.984   1.441  1.00  0.00    -0.002 A   
ATOM     23  C13 UNL     1      -1.391  -3.356   0.875  1.00  0.00     0.012 A   
ATOM     24  C17 UNL     1      -0.121  -2.171   2.592  1.00  0.00     0.045 A   
ATOM     25  C14 UNL     1      -2.592  -2.914   1.431  1.00  0.00     0.037 A   
ATOM     26  C16 UNL     1      -1.323  -1.749   3.114  1.00  0.00     0.109 A   
ATOM     27  C15 UNL     1      -2.524  -2.103   2.547  1.00  0.00     0.108 A   
ATOM     28  O2  UNL     1      -1.471  -0.952   4.205  1.00  0.00    -0.316 OA  
ATOM     29  O3  UNL     1      -3.583  -1.556   3.200  1.00  0.00    -0.316 OA  
ATOM     30  C18 UNL     1      -2.909  -0.816   4.245  1.00  0.00     0.337 C   
ENDBRANCH  21  22
ENDBRANCH  18  21
ENDBRANCH  17  18
BRANCH  17  31
ATOM     31  C19 UNL     1       2.731  -0.718  -1.366  1.00  0.00     0.010 C   
ATOM     32  C20 UNL     1       2.551  -1.169  -2.831  1.00  0.00     0.017 C   
ATOM     33  C21 UNL     1       4.084  -1.257  -0.844  1.00  0.00     0.017 C   
ATOM     34  C22 UNL     1       2.827   0.822  -1.339  1.00  0.00     0.017 C   
ENDBRANCH  17  31
ENDBRANCH   3  17
TORSDOF 9
