REMARK SMILES CC(C)(C)[C@H]([NH2+]Cc1ccc2c(c1)OCO2)c1cn(C[C@H](O)c2ccc(F)c(F)c2)nn1
REMARK SMILES IDX 17 1 18 2 19 3 31 4 32 5 5 7 2 8 1 9 3 10 4 11 6 12 7 15
REMARK SMILES IDX 8 16 9 17 13 18 10 19 12 20 11 21 14 22 16 23 15 24 20 25
REMARK SMILES IDX 21 26 22 27 23 29 24 30 30 31 25 32 28 33 26 34 29 35 27 36
REMARK H PARENT 18 6 6 13 6 14 22 28
ROOT
ATOM     1   C14 UNL     1      -0.344  -1.469   0.479  1.00  0.00     0.127 A   
ATOM     2   C15 UNL     1      -0.162  -1.341   1.839  1.00  0.00     0.046 A   
ATOM     3   N2  UNL     1       1.134  -0.923   1.962  1.00  0.00    -0.209 N   
ATOM     4   N3  UNL     1       1.716  -0.800   0.755  1.00  0.00    -0.076 NA  
ATOM     5   N4  UNL     1       0.823  -1.133  -0.161  1.00  0.00    -0.132 NA  
ATOM     6   H20 UNL     1      -0.812  -1.473   2.693  1.00  0.00     0.083 HD  
ENDROOT
BRANCH   1   7
ATOM     7   C5  UNL     1      -1.565  -1.799  -0.330  1.00  0.00     0.120 C   
BRANCH   7   8
ATOM     8   C2  UNL     1      -1.705  -3.320  -0.687  1.00  0.00     0.010 C   
ATOM     9   C1  UNL     1      -1.692  -4.175   0.601  1.00  0.00     0.017 C   
ATOM     10  C3  UNL     1      -3.059  -3.586  -1.387  1.00  0.00     0.017 C   
ATOM     11  C4  UNL     1      -0.577  -3.821  -1.611  1.00  0.00     0.017 C   
ENDBRANCH   7   8
BRANCH   7  12
ATOM     12  N1  UNL     1      -1.562  -0.961  -1.588  1.00  0.00     0.250 N   
ATOM     13  H11 UNL     1      -2.220  -1.310  -2.290  1.00  0.00     0.199 HD  
ATOM     14  H12 UNL     1      -0.623  -1.050  -2.003  1.00  0.00     0.199 HD  
BRANCH  12  15
ATOM     15  C6  UNL     1      -1.817   0.496  -1.393  1.00  0.00     0.164 C   
BRANCH  15  16
ATOM     16  C7  UNL     1      -1.779   1.212  -2.714  1.00  0.00    -0.002 A   
ATOM     17  C8  UNL     1      -2.976   1.498  -3.411  1.00  0.00     0.012 A   
ATOM     18  C12 UNL     1      -0.543   1.557  -3.288  1.00  0.00     0.045 A   
ATOM     19  C9  UNL     1      -2.946   2.126  -4.661  1.00  0.00     0.037 A   
ATOM     20  C11 UNL     1      -0.549   2.173  -4.522  1.00  0.00     0.109 A   
ATOM     21  C10 UNL     1      -1.716   2.450  -5.190  1.00  0.00     0.108 A   
ATOM     22  O1  UNL     1       0.552   2.566  -5.216  1.00  0.00    -0.316 OA  
ATOM     23  O2  UNL     1      -1.498   3.054  -6.387  1.00  0.00    -0.316 OA  
ATOM     24  C13 UNL     1      -0.057   3.149  -6.390  1.00  0.00     0.337 C   
ENDBRANCH  15  16
ENDBRANCH  12  15
ENDBRANCH   7  12
ENDBRANCH   1   7
BRANCH   3  25
ATOM     25  C16 UNL     1       1.824  -0.499   3.160  1.00  0.00     0.170 C   
BRANCH  25  26
ATOM     26  C17 UNL     1       2.055   1.018   3.216  1.00  0.00     0.164 C   
BRANCH  26  27
ATOM     27  O3  UNL     1       2.701   1.338   4.448  1.00  0.00    -0.387 OA  
ATOM     28  H24 UNL     1       2.810   2.306   4.480  1.00  0.00     0.211 HD  
ENDBRANCH  26  27
BRANCH  26  29
ATOM     29  C18 UNL     1       0.760   1.805   3.105  1.00  0.00    -0.015 A   
ATOM     30  C19 UNL     1      -0.087   1.988   4.212  1.00  0.00     0.010 A   
ATOM     31  C23 UNL     1       0.350   2.291   1.851  1.00  0.00     0.049 A   
ATOM     32  C20 UNL     1      -1.319   2.632   4.066  1.00  0.00     0.043 A   
ATOM     33  C22 UNL     1      -0.889   2.907   1.712  1.00  0.00     0.159 A   
ATOM     34  C21 UNL     1      -1.718   3.079   2.812  1.00  0.00     0.158 A   
ATOM     35  F2  UNL     1      -1.298   3.278   0.490  1.00  0.00    -0.204 F   
ATOM     36  F1  UNL     1      -2.922   3.644   2.663  1.00  0.00    -0.204 F   
ENDBRANCH  26  29
ENDBRANCH  25  26
ENDBRANCH   3  25
TORSDOF 9
