REMARK SMILES CC(C)(C)[C@H]([NH2+]Cc1ccc2c(c1)OCO2)c1cn(C[C@@H](O)c2ccc(F)c(F)c2)nn1
REMARK SMILES IDX 17 1 18 2 19 3 31 4 32 5 5 7 2 8 1 9 3 10 4 11 6 12 7 15
REMARK SMILES IDX 8 16 9 17 13 18 10 19 12 20 11 21 14 22 16 23 15 24 20 25
REMARK SMILES IDX 21 26 22 27 23 29 24 30 30 31 25 32 28 33 26 34 29 35 27 36
REMARK H PARENT 18 6 6 13 6 14 22 28
ROOT
ATOM     1   C14 UNL     1      -0.526  -0.729   0.817  1.00  0.00     0.127 A   
ATOM     2   C15 UNL     1      -1.202  -1.583   1.664  1.00  0.00     0.046 A   
ATOM     3   N2  UNL     1      -0.229  -2.042   2.508  1.00  0.00    -0.209 N   
ATOM     4   N3  UNL     1       0.947  -1.433   2.269  1.00  0.00    -0.076 NA  
ATOM     5   N4  UNL     1       0.784  -0.640   1.223  1.00  0.00    -0.132 NA  
ATOM     6   H20 UNL     1      -2.222  -1.934   1.708  1.00  0.00     0.083 HD  
ENDROOT
BRANCH   1   7
ATOM     7   C5  UNL     1      -0.986   0.076  -0.364  1.00  0.00     0.120 C   
BRANCH   7   8
ATOM     8   C2  UNL     1      -0.952  -0.711  -1.723  1.00  0.00     0.010 C   
ATOM     9   C1  UNL     1      -1.548   0.151  -2.862  1.00  0.00     0.017 C   
ATOM     10  C3  UNL     1      -1.817  -1.989  -1.631  1.00  0.00     0.017 C   
ATOM     11  C4  UNL     1       0.479  -1.124  -2.129  1.00  0.00     0.017 C   
ENDBRANCH   7   8
BRANCH   7  12
ATOM     12  N1  UNL     1      -0.132   1.319  -0.458  1.00  0.00     0.250 N   
ATOM     13  H11 UNL     1      -0.114   1.717  -1.400  1.00  0.00     0.199 HD  
ATOM     14  H12 UNL     1       0.836   1.024  -0.257  1.00  0.00     0.199 HD  
BRANCH  12  15
ATOM     15  C6  UNL     1      -0.462   2.400   0.511  1.00  0.00     0.164 C   
BRANCH  15  16
ATOM     16  C7  UNL     1       0.524   3.525   0.384  1.00  0.00    -0.002 A   
ATOM     17  C8  UNL     1       1.646   3.590   1.245  1.00  0.00     0.012 A   
ATOM     18  C12 UNL     1       0.377   4.479  -0.636  1.00  0.00     0.045 A   
ATOM     19  C9  UNL     1       2.607   4.597   1.100  1.00  0.00     0.037 A   
ATOM     20  C11 UNL     1       1.348   5.452  -0.757  1.00  0.00     0.109 A   
ATOM     21  C10 UNL     1       2.431   5.511   0.086  1.00  0.00     0.108 A   
ATOM     22  O1  UNL     1       1.366   6.433  -1.696  1.00  0.00    -0.316 OA  
ATOM     23  O2  UNL     1       3.267   6.539  -0.214  1.00  0.00    -0.316 OA  
ATOM     24  C13 UNL     1       2.590   7.124  -1.349  1.00  0.00     0.337 C   
ENDBRANCH  15  16
ENDBRANCH  12  15
ENDBRANCH   7  12
ENDBRANCH   1   7
BRANCH   3  25
ATOM     25  C16 UNL     1      -0.337  -3.074   3.514  1.00  0.00     0.170 C   
BRANCH  25  26
ATOM     26  C17 UNL     1       0.437  -4.349   3.151  1.00  0.00     0.164 C   
BRANCH  26  27
ATOM     27  O3  UNL     1       0.220  -5.319   4.178  1.00  0.00    -0.387 OA  
ATOM     28  H24 UNL     1       0.630  -6.155   3.886  1.00  0.00     0.211 HD  
ENDBRANCH  26  27
BRANCH  26  29
ATOM     29  C18 UNL     1       0.019  -4.949   1.821  1.00  0.00    -0.015 A   
ATOM     30  C19 UNL     1       0.896  -4.907   0.720  1.00  0.00     0.010 A   
ATOM     31  C23 UNL     1      -1.253  -5.519   1.651  1.00  0.00     0.049 A   
ATOM     32  C20 UNL     1       0.505  -5.418  -0.521  1.00  0.00     0.043 A   
ATOM     33  C22 UNL     1      -1.636  -6.019   0.409  1.00  0.00     0.159 A   
ATOM     34  C21 UNL     1      -0.765  -5.967  -0.670  1.00  0.00     0.158 A   
ATOM     35  F2  UNL     1      -2.866  -6.530   0.261  1.00  0.00    -0.204 F   
ATOM     36  F1  UNL     1      -1.145  -6.426  -1.869  1.00  0.00    -0.204 F   
ENDBRANCH  26  29
ENDBRANCH  25  26
ENDBRANCH   3  25
TORSDOF 9
