REMARK SMILES COc1cccc(Cn2cc([C@@H]([NH2+]Cc3ccc4c(c3)OCO4)C3CCCC3)nn2)c1O
REMARK SMILES IDX 9 1 10 2 11 3 29 4 30 5 8 7 7 8 3 9 4 10 31 11 5 12 6 13
REMARK SMILES IDX 2 14 1 15 32 16 12 18 13 19 14 22 15 23 16 24 20 25 17 26
REMARK SMILES IDX 19 27 18 28 21 29 23 30 22 31 24 32 25 33 28 34 26 35 27 36
REMARK H PARENT 10 6 32 17 13 20 13 21
ROOT
ATOM     1   N1  UNL     1      -2.337   2.408   0.579  1.00  0.00    -0.208 N   
ATOM     2   C8  UNL     1      -1.180   2.395   1.309  1.00  0.00     0.046 A   
ATOM     3   C9  UNL     1      -0.189   2.294   0.360  1.00  0.00     0.127 A   
ATOM     4   N3  UNL     1      -0.759   2.261  -0.887  1.00  0.00    -0.132 NA  
ATOM     5   N4  UNL     1      -2.072   2.331  -0.741  1.00  0.00    -0.076 NA  
ATOM     6   H9  UNL     1      -1.183   2.436   2.389  1.00  0.00     0.083 HD  
ENDROOT
BRANCH   1   7
ATOM     7   C7  UNL     1      -3.704   2.503   1.061  1.00  0.00     0.172 C   
BRANCH   7   8
ATOM     8   C6  UNL     1      -4.289   1.138   1.303  1.00  0.00     0.004 A   
ATOM     9   C2  UNL     1      -4.629  -0.811   2.747  1.00  0.00     0.105 A   
ATOM     10  C3  UNL     1      -5.387  -1.421   1.750  1.00  0.00     0.036 A   
ATOM     11  C24 UNL     1      -4.083   0.459   2.507  1.00  0.00     0.106 A   
ATOM     12  C4  UNL     1      -5.592  -0.763   0.533  1.00  0.00     0.003 A   
ATOM     13  C5  UNL     1      -5.047   0.504   0.309  1.00  0.00     0.008 A   
BRANCH   9  14
ATOM     14  O1  UNL     1      -4.340  -1.337   3.981  1.00  0.00    -0.347 OA  
ATOM     15  C1  UNL     1      -4.976  -2.569   4.310  1.00  0.00     0.203 C   
ENDBRANCH   9  14
BRANCH  11  16
ATOM     16  O4  UNL     1      -3.327   1.051   3.487  1.00  0.00    -0.358 OA  
ATOM     17  H29 UNL     1      -3.404   0.446   4.255  1.00  0.00     0.218 HD  
ENDBRANCH  11  16
ENDBRANCH   7   8
ENDBRANCH   1   7
BRANCH   3  18
ATOM     18  C10 UNL     1       1.292   2.153   0.491  1.00  0.00     0.117 C   
BRANCH  18  19
ATOM     19  N2  UNL     1       1.791   1.187  -0.555  1.00  0.00     0.249 N   
ATOM     20  H11 UNL     1       2.805   1.248  -0.684  1.00  0.00     0.199 HD  
ATOM     21  H12 UNL     1       1.365   1.475  -1.448  1.00  0.00     0.199 HD  
BRANCH  19  22
ATOM     22  C11 UNL     1       1.421  -0.239  -0.328  1.00  0.00     0.164 C   
BRANCH  22  23
ATOM     23  C12 UNL     1       1.904  -1.091  -1.467  1.00  0.00    -0.002 A   
ATOM     24  C13 UNL     1       1.093  -1.267  -2.614  1.00  0.00     0.012 A   
ATOM     25  C17 UNL     1       3.184  -1.670  -1.428  1.00  0.00     0.045 A   
ATOM     26  C14 UNL     1       1.542  -2.021  -3.703  1.00  0.00     0.037 A   
ATOM     27  C16 UNL     1       3.596  -2.407  -2.519  1.00  0.00     0.109 A   
ATOM     28  C15 UNL     1       2.799  -2.578  -3.624  1.00  0.00     0.108 A   
ATOM     29  O2  UNL     1       4.797  -3.030  -2.643  1.00  0.00    -0.316 OA  
ATOM     30  O3  UNL     1       3.397  -3.333  -4.582  1.00  0.00    -0.316 OA  
ATOM     31  C18 UNL     1       4.658  -3.637  -3.947  1.00  0.00     0.337 C   
ENDBRANCH  22  23
ENDBRANCH  19  22
ENDBRANCH  18  19
BRANCH  18  32
ATOM     32  C19 UNL     1       2.020   3.498   0.303  1.00  0.00     0.043 C   
ATOM     33  C20 UNL     1       1.660   4.540   1.367  1.00  0.00     0.010 C   
ATOM     34  C23 UNL     1       3.546   3.415   0.441  1.00  0.00     0.010 C   
ATOM     35  C21 UNL     1       2.746   5.593   1.212  1.00  0.00     0.001 C   
ATOM     36  C22 UNL     1       4.004   4.821   0.828  1.00  0.00     0.001 C   
ENDBRANCH  18  32
ENDBRANCH   3  18
TORSDOF 9
