REMARK SMILES COc1cc(CCn2cc([C@H](CC(C)C)[NH2+]Cc3ccc4c(c3)OCO4)nn2)ccn1
REMARK SMILES IDX 8 1 9 2 10 3 27 4 28 5 7 7 6 8 5 9 3 10 4 11 31 12 30 13
REMARK SMILES IDX 29 14 2 15 1 16 11 17 12 18 13 19 14 20 15 21 16 22 17 25
REMARK SMILES IDX 18 26 19 27 23 28 20 29 22 30 21 31 24 32 26 33 25 34
REMARK H PARENT 9 6 16 23 16 24
ROOT
ATOM     1   N1  UNL     1      -2.600  -1.758   1.888  1.00  0.00    -0.212 N   
ATOM     2   C7  UNL     1      -1.606  -2.052   0.993  1.00  0.00     0.045 A   
ATOM     3   C8  UNL     1      -1.424  -0.873   0.301  1.00  0.00     0.127 A   
ATOM     4   N3  UNL     1      -2.360   0.036   0.720  1.00  0.00    -0.132 NA  
ATOM     5   N4  UNL     1      -3.088  -0.524   1.675  1.00  0.00    -0.076 NA  
ATOM     6   H9  UNL     1      -1.069  -2.989   1.016  1.00  0.00     0.083 HD  
ENDROOT
BRANCH   1   7
ATOM     7   C6  UNL     1      -2.892  -2.467   3.121  1.00  0.00     0.139 C   
BRANCH   7   8
ATOM     8   C5  UNL     1      -2.253  -1.810   4.360  1.00  0.00     0.057 C   
BRANCH   8   9
ATOM     9   C4  UNL     1      -0.822  -1.374   4.124  1.00  0.00    -0.041 A   
ATOM     10  C2  UNL     1       0.726   0.314   3.441  1.00  0.00     0.166 A   
ATOM     11  C3  UNL     1      -0.541  -0.026   3.874  1.00  0.00     0.058 A   
ATOM     12  N5  UNL     1       1.695  -0.585   3.166  1.00  0.00    -0.233 NA  
ATOM     13  C23 UNL     1       1.441  -1.864   3.531  1.00  0.00     0.114 A   
ATOM     14  C22 UNL     1       0.212  -2.304   4.002  1.00  0.00     0.024 A   
BRANCH  10  15
ATOM     15  O1  UNL     1       0.931   1.612   3.028  1.00  0.00    -0.333 OA  
ATOM     16  C1  UNL     1       2.176   2.092   3.541  1.00  0.00     0.205 C   
ENDBRANCH  10  15
ENDBRANCH   8   9
ENDBRANCH   7   8
ENDBRANCH   1   7
BRANCH   3  17
ATOM     17  C9  UNL     1      -0.327  -0.425  -0.617  1.00  0.00     0.114 C   
BRANCH  17  18
ATOM     18  C10 UNL     1       0.338  -1.563  -1.411  1.00  0.00     0.064 C   
BRANCH  18  19
ATOM     19  C11 UNL     1      -0.597  -2.289  -2.404  1.00  0.00    -0.012 C   
ATOM     20  C12 UNL     1       0.147  -3.463  -3.047  1.00  0.00     0.007 C   
ATOM     21  C13 UNL     1      -1.122  -1.353  -3.495  1.00  0.00     0.007 C   
ENDBRANCH  18  19
ENDBRANCH  17  18
BRANCH  17  22
ATOM     22  N2  UNL     1       0.710   0.268   0.238  1.00  0.00     0.249 N   
ATOM     23  H20 UNL     1       1.125  -0.394   0.913  1.00  0.00     0.199 HD  
ATOM     24  H21 UNL     1       0.189   0.921   0.843  1.00  0.00     0.199 HD  
BRANCH  22  25
ATOM     25  C14 UNL     1       1.787   1.050  -0.414  1.00  0.00     0.164 C   
BRANCH  25  26
ATOM     26  C15 UNL     1       1.272   2.185  -1.253  1.00  0.00    -0.002 A   
ATOM     27  C16 UNL     1       0.721   3.335  -0.637  1.00  0.00     0.012 A   
ATOM     28  C20 UNL     1       1.298   2.098  -2.656  1.00  0.00     0.045 A   
ATOM     29  C17 UNL     1       0.202   4.383  -1.405  1.00  0.00     0.037 A   
ATOM     30  C19 UNL     1       0.776   3.147  -3.382  1.00  0.00     0.109 A   
ATOM     31  C18 UNL     1       0.243   4.257  -2.776  1.00  0.00     0.108 A   
ATOM     32  O2  UNL     1       0.716   3.216  -4.738  1.00  0.00    -0.316 OA  
ATOM     33  O3  UNL     1      -0.217   5.167  -3.673  1.00  0.00    -0.316 OA  
ATOM     34  C21 UNL     1       0.099   4.511  -4.919  1.00  0.00     0.337 C   
ENDBRANCH  25  26
ENDBRANCH  22  25
ENDBRANCH  17  22
ENDBRANCH   3  17
TORSDOF 10
