REMARK SMILES O[C@@H](Cn1cc([C@@H]([NH2+]Cc2ccc3c(c2)OCO3)C2CCCC2)nn1)c1ccncc1
REMARK SMILES IDX 4 1 5 2 6 3 24 4 25 5 3 7 2 8 1 9 26 11 27 12 31 13 28 14
REMARK SMILES IDX 30 15 29 16 7 17 8 18 9 21 10 22 11 23 15 24 12 25 14 26
REMARK SMILES IDX 13 27 16 28 18 29 17 30 19 31 20 32 23 33 21 34 22 35
REMARK H PARENT 5 6 1 10 8 19 8 20
ROOT
ATOM     1   N1  UNL     1       0.897  -1.272   2.160  1.00  0.00    -0.209 N   
ATOM     2   C3  UNL     1       0.839   0.058   1.843  1.00  0.00     0.045 A   
ATOM     3   C4  UNL     1      -0.303   0.168   1.083  1.00  0.00     0.127 A   
ATOM     4   N3  UNL     1      -0.909  -1.061   1.005  1.00  0.00    -0.132 NA  
ATOM     5   N4  UNL     1      -0.176  -1.928   1.684  1.00  0.00    -0.076 NA  
ATOM     6   H5  UNL     1       1.622   0.752   2.113  1.00  0.00     0.083 HD  
ENDROOT
BRANCH   1   7
ATOM     7   C2  UNL     1       2.009  -1.990   2.740  1.00  0.00     0.170 C   
BRANCH   7   8
ATOM     8   C1  UNL     1       2.671  -2.984   1.771  1.00  0.00     0.164 C   
BRANCH   8   9
ATOM     9   O1  UNL     1       3.916  -3.404   2.329  1.00  0.00    -0.387 OA  
ATOM     10  H1  UNL     1       4.373  -3.943   1.657  1.00  0.00     0.211 HD  
ENDBRANCH   8   9
BRANCH   8  11
ATOM     11  C19 UNL     1       2.932  -2.418   0.390  1.00  0.00    -0.015 A   
ATOM     12  C20 UNL     1       3.793  -1.332   0.197  1.00  0.00     0.026 A   
ATOM     13  C23 UNL     1       2.277  -2.951  -0.725  1.00  0.00     0.026 A   
ATOM     14  C21 UNL     1       3.904  -0.789  -1.073  1.00  0.00     0.111 A   
ATOM     15  C22 UNL     1       2.461  -2.347  -1.958  1.00  0.00     0.111 A   
ATOM     16  N5  UNL     1       3.218  -1.245  -2.144  1.00  0.00    -0.265 NA  
ENDBRANCH   8  11
ENDBRANCH   7   8
ENDBRANCH   1   7
BRANCH   3  17
ATOM     17  C5  UNL     1      -0.829   1.306   0.265  1.00  0.00     0.117 C   
BRANCH  17  18
ATOM     18  N2  UNL     1      -1.259   0.790  -1.088  1.00  0.00     0.249 N   
ATOM     19  H7  UNL     1      -1.865  -0.023  -0.911  1.00  0.00     0.199 HD  
ATOM     20  H8  UNL     1      -1.829   1.475  -1.594  1.00  0.00     0.199 HD  
BRANCH  18  21
ATOM     21  C6  UNL     1      -0.140   0.338  -1.968  1.00  0.00     0.164 C   
BRANCH  21  22
ATOM     22  C7  UNL     1      -0.652  -0.421  -3.159  1.00  0.00    -0.002 A   
ATOM     23  C8  UNL     1      -0.504   0.105  -4.463  1.00  0.00     0.012 A   
ATOM     24  C12 UNL     1      -1.268  -1.674  -2.985  1.00  0.00     0.045 A   
ATOM     25  C9  UNL     1      -0.969  -0.599  -5.579  1.00  0.00     0.037 A   
ATOM     26  C11 UNL     1      -1.713  -2.342  -4.107  1.00  0.00     0.109 A   
ATOM     27  C10 UNL     1      -1.571  -1.820  -5.367  1.00  0.00     0.108 A   
ATOM     28  O2  UNL     1      -2.320  -3.559  -4.112  1.00  0.00    -0.316 OA  
ATOM     29  O3  UNL     1      -2.078  -2.639  -6.327  1.00  0.00    -0.316 OA  
ATOM     30  C13 UNL     1      -2.542  -3.749  -5.529  1.00  0.00     0.337 C   
ENDBRANCH  21  22
ENDBRANCH  18  21
ENDBRANCH  17  18
BRANCH  17  31
ATOM     31  C14 UNL     1      -2.011   2.063   0.895  1.00  0.00     0.043 C   
ATOM     32  C15 UNL     1      -3.283   1.246   1.161  1.00  0.00     0.010 C   
ATOM     33  C18 UNL     1      -1.687   2.752   2.235  1.00  0.00     0.010 C   
ATOM     34  C16 UNL     1      -4.002   2.065   2.221  1.00  0.00     0.001 C   
ATOM     35  C17 UNL     1      -2.873   2.467   3.154  1.00  0.00     0.001 C   
ENDBRANCH  17  31
ENDBRANCH   3  17
TORSDOF 9
