REMARK SMILES CC(C)C[C@H]([NH2+]Cc1ccc2c(c1)OCO2)c1cn(Cc2ccc(N([O-])[O-])cc2F)nn1
REMARK SMILES IDX 17 1 18 2 19 3 31 4 32 5 5 7 4 8 2 9 1 10 3 11 6 12 7 15
REMARK SMILES IDX 8 16 9 17 13 18 10 19 12 20 11 21 14 22 16 23 15 24 20 25
REMARK SMILES IDX 21 26 22 27 29 28 23 29 28 30 24 31 30 32 25 33 26 34 27 35
REMARK H PARENT 18 6 6 13 6 14
ROOT
ATOM     1   C14 UNL     1      -0.675  -1.987   0.952  1.00  0.00     0.127 A   
ATOM     2   C15 UNL     1      -0.937  -0.838   1.665  1.00  0.00     0.046 A   
ATOM     3   N2  UNL     1       0.096  -0.757   2.558  1.00  0.00    -0.208 N   
ATOM     4   N4  UNL     1       0.931  -1.805   2.418  1.00  0.00    -0.076 NA  
ATOM     5   N5  UNL     1       0.456  -2.576   1.452  1.00  0.00    -0.132 NA  
ATOM     6   H20 UNL     1      -1.706  -0.081   1.597  1.00  0.00     0.083 HD  
ENDROOT
BRANCH   1   7
ATOM     7   C5  UNL     1      -1.363  -2.564  -0.238  1.00  0.00     0.114 C   
BRANCH   7   8
ATOM     8   C4  UNL     1      -2.371  -3.670   0.138  1.00  0.00     0.064 C   
BRANCH   8   9
ATOM     9   C2  UNL     1      -3.565  -3.211   1.002  1.00  0.00    -0.012 C   
ATOM     10  C1  UNL     1      -4.416  -2.149   0.305  1.00  0.00     0.007 C   
ATOM     11  C3  UNL     1      -4.438  -4.419   1.356  1.00  0.00     0.007 C   
ENDBRANCH   8   9
ENDBRANCH   7   8
BRANCH   7  12
ATOM     12  N1  UNL     1      -0.377  -3.194  -1.208  1.00  0.00     0.249 N   
ATOM     13  H11 UNL     1      -0.888  -3.586  -2.003  1.00  0.00     0.199 HD  
ATOM     14  H12 UNL     1       0.065  -3.978  -0.710  1.00  0.00     0.199 HD  
BRANCH  12  15
ATOM     15  C6  UNL     1       0.735  -2.333  -1.719  1.00  0.00     0.164 C   
BRANCH  15  16
ATOM     16  C7  UNL     1       0.296  -1.008  -2.278  1.00  0.00    -0.002 A   
ATOM     17  C8  UNL     1      -0.459  -0.936  -3.472  1.00  0.00     0.012 A   
ATOM     18  C12 UNL     1       0.636   0.179  -1.602  1.00  0.00     0.045 A   
ATOM     19  C9  UNL     1      -0.877   0.298  -3.982  1.00  0.00     0.037 A   
ATOM     20  C11 UNL     1       0.212   1.378  -2.134  1.00  0.00     0.109 A   
ATOM     21  C10 UNL     1      -0.525   1.437  -3.290  1.00  0.00     0.108 A   
ATOM     22  O1  UNL     1       0.457   2.606  -1.610  1.00  0.00    -0.316 OA  
ATOM     23  O2  UNL     1      -0.838   2.711  -3.639  1.00  0.00    -0.316 OA  
ATOM     24  C13 UNL     1      -0.177   3.458  -2.594  1.00  0.00     0.337 C   
ENDBRANCH  15  16
ENDBRANCH  12  15
ENDBRANCH   7  12
ENDBRANCH   1   7
BRANCH   3  25
ATOM     25  C16 UNL     1       0.390   0.313   3.497  1.00  0.00     0.172 C   
BRANCH  25  26
ATOM     26  C17 UNL     1       0.881   1.534   2.763  1.00  0.00     0.007 A   
ATOM     27  C18 UNL     1       2.239   1.694   2.444  1.00  0.00     0.010 A   
ATOM     28  C22 UNL     1      -0.032   2.501   2.325  1.00  0.00     0.130 A   
ATOM     29  C19 UNL     1       2.661   2.795   1.693  1.00  0.00     0.032 A   
ATOM     30  C21 UNL     1       0.367   3.603   1.582  1.00  0.00     0.070 A   
ATOM     31  C20 UNL     1       1.720   3.739   1.257  1.00  0.00     0.121 A   
ATOM     32  F1  UNL     1      -1.335   2.344   2.597  1.00  0.00    -0.207 F   
BRANCH  31  33
ATOM     33  N3  UNL     1       2.149   4.858   0.412  1.00  0.00     0.092 N   
ATOM     34  O3  UNL     1       1.268   5.501  -0.177  1.00  0.00    -0.138 OA  
ATOM     35  O4  UNL     1       3.364   5.078   0.325  1.00  0.00    -0.138 OA  
ENDBRANCH  31  33
ENDBRANCH  25  26
ENDBRANCH   3  25
TORSDOF 9
