REMARK SMILES c1cc2c(cc1C[NH2+][C@H](c1cn(Cc3cnc(C4CCC4)o3)nn1)C1CCCC1)OCO2
REMARK SMILES IDX 10 1 11 2 12 3 23 4 24 5 9 7 8 8 7 11 6 12 1 13 2 14 3 15
REMARK SMILES IDX 5 16 4 17 32 18 30 19 31 20 25 21 26 22 29 23 27 24 28 25
REMARK SMILES IDX 13 26 14 27 15 28 22 29 16 30 17 31 18 32 19 33 21 34 20 35
REMARK H PARENT 11 6 8 9 8 10
ROOT
ATOM     1   C9  UNL     1      -0.293  -1.849  -0.128  1.00  0.00     0.127 A   
ATOM     2   C10 UNL     1      -1.310  -0.996  -0.492  1.00  0.00     0.046 A   
ATOM     3   N2  UNL     1      -2.414  -1.508   0.134  1.00  0.00    -0.206 N   
ATOM     4   N4  UNL     1      -2.097  -2.613   0.836  1.00  0.00    -0.076 NA  
ATOM     5   N5  UNL     1      -0.801  -2.832   0.683  1.00  0.00    -0.132 NA  
ATOM     6   H9  UNL     1      -1.350  -0.090  -1.083  1.00  0.00     0.083 HD  
ENDROOT
BRANCH   1   7
ATOM     7   C8  UNL     1       1.177  -1.793  -0.387  1.00  0.00     0.117 C   
BRANCH   7   8
ATOM     8   N1  UNL     1       1.938  -2.231   0.849  1.00  0.00     0.249 N   
ATOM     9   H6  UNL     1       1.547  -3.144   1.120  1.00  0.00     0.199 HD  
ATOM     10  H7  UNL     1       2.926  -2.375   0.623  1.00  0.00     0.199 HD  
BRANCH   8  11
ATOM     11  C7  UNL     1       1.832  -1.340   2.046  1.00  0.00     0.164 C   
BRANCH  11  12
ATOM     12  C6  UNL     1       2.439   0.017   1.824  1.00  0.00    -0.002 A   
ATOM     13  C1  UNL     1       3.845   0.174   1.760  1.00  0.00     0.012 A   
ATOM     14  C2  UNL     1       4.417   1.427   1.517  1.00  0.00     0.037 A   
ATOM     15  C3  UNL     1       3.570   2.499   1.344  1.00  0.00     0.108 A   
ATOM     16  C5  UNL     1       1.609   1.139   1.647  1.00  0.00     0.045 A   
ATOM     17  C4  UNL     1       2.206   2.359   1.409  1.00  0.00     0.109 A   
ATOM     18  O3  UNL     1       3.949   3.780   1.098  1.00  0.00    -0.316 OA  
ATOM     19  O2  UNL     1       1.554   3.534   1.208  1.00  0.00    -0.316 OA  
ATOM     20  C24 UNL     1       2.667   4.443   1.053  1.00  0.00     0.337 C   
ENDBRANCH  11  12
ENDBRANCH   8  11
ENDBRANCH   7   8
BRANCH   7  21
ATOM     21  C19 UNL     1       1.657  -2.664  -1.565  1.00  0.00     0.043 C   
ATOM     22  C20 UNL     1       1.353  -4.161  -1.481  1.00  0.00     0.010 C   
ATOM     23  C23 UNL     1       1.086  -2.265  -2.933  1.00  0.00     0.010 C   
ATOM     24  C21 UNL     1       1.669  -4.641  -2.889  1.00  0.00     0.001 C   
ATOM     25  C22 UNL     1       1.165  -3.525  -3.800  1.00  0.00     0.001 C   
ENDBRANCH   7  21
ENDBRANCH   1   7
BRANCH   3  26
ATOM     26  C11 UNL     1      -3.762  -0.967   0.164  1.00  0.00     0.197 C   
BRANCH  26  27
ATOM     27  C12 UNL     1      -3.827   0.126   1.151  1.00  0.00     0.099 A   
ATOM     28  C13 UNL     1      -4.169   0.211   2.478  1.00  0.00     0.145 A   
ATOM     29  O1  UNL     1      -3.449   1.374   0.737  1.00  0.00    -0.296 OA  
ATOM     30  N3  UNL     1      -3.999   1.497   2.917  1.00  0.00    -0.234 NA  
ATOM     31  C14 UNL     1      -3.587   2.159   1.854  1.00  0.00     0.150 A   
BRANCH  31  32
ATOM     32  C15 UNL     1      -3.262   3.681   1.880  1.00  0.00     0.063 C   
ATOM     33  C16 UNL     1      -3.735   4.481   0.641  1.00  0.00     0.012 C   
ATOM     34  C18 UNL     1      -1.817   4.035   1.455  1.00  0.00     0.012 C   
ATOM     35  C17 UNL     1      -2.409   5.266   0.738  1.00  0.00     0.002 C   
ENDBRANCH  31  32
ENDBRANCH  26  27
ENDBRANCH   3  26
TORSDOF 8
