REMARK SMILES COc1ccc(C(=O)Cn2cc([C@@H]([NH2+]Cc3ccc4c(c3)OCO4)C(C)C)nn2)cc1
REMARK SMILES IDX 10 1 11 2 12 3 28 4 29 5 9 7 7 8 8 9 6 10 3 11 4 12 31 13
REMARK SMILES IDX 5 14 30 15 2 16 1 17 13 18 14 19 15 22 16 23 17 24 21 25
REMARK SMILES IDX 18 26 20 27 19 28 22 29 24 30 23 31 25 32 26 33 27 34
REMARK H PARENT 11 6 14 20 14 21
ROOT
ATOM     1   N1  UNL     1       1.775  -1.518  -0.877  1.00  0.00    -0.204 N   
ATOM     2   C8  UNL     1       1.396  -1.639   0.432  1.00  0.00     0.046 A   
ATOM     3   C9  UNL     1       0.685  -0.487   0.682  1.00  0.00     0.127 A   
ATOM     4   N3  UNL     1       0.697   0.299  -0.444  1.00  0.00    -0.132 NA  
ATOM     5   N4  UNL     1       1.377  -0.336  -1.384  1.00  0.00    -0.076 NA  
ATOM     6   H8  UNL     1       1.627  -2.518   1.021  1.00  0.00     0.083 HD  
ENDROOT
BRANCH   1   7
ATOM     7   C7  UNL     1       2.498  -2.465  -1.694  1.00  0.00     0.214 C   
BRANCH   7   8
ATOM     8   C6  UNL     1       1.690  -3.721  -1.887  1.00  0.00     0.182 C   
ATOM     9   O2  UNL     1       1.694  -4.602  -1.023  1.00  0.00    -0.292 OA  
BRANCH   8  10
ATOM     10  C5  UNL     1       0.849  -3.893  -3.110  1.00  0.00     0.019 A   
ATOM     11  C2  UNL     1      -0.778  -4.329  -5.367  1.00  0.00     0.075 A   
ATOM     12  C3  UNL     1      -0.465  -5.381  -4.506  1.00  0.00     0.034 A   
ATOM     13  C23 UNL     1      -0.281  -3.055  -5.093  1.00  0.00     0.034 A   
ATOM     14  C4  UNL     1       0.341  -5.168  -3.384  1.00  0.00     0.014 A   
ATOM     15  C22 UNL     1       0.528  -2.834  -3.968  1.00  0.00     0.014 A   
BRANCH  11  16
ATOM     16  O1  UNL     1      -1.580  -4.671  -6.420  1.00  0.00    -0.349 OA  
ATOM     17  C1  UNL     1      -1.840  -3.664  -7.392  1.00  0.00     0.203 C   
ENDBRANCH  11  16
ENDBRANCH   8  10
ENDBRANCH   7   8
ENDBRANCH   1   7
BRANCH   3  18
ATOM     18  C10 UNL     1      -0.033  -0.019   1.909  1.00  0.00     0.117 C   
BRANCH  18  19
ATOM     19  N2  UNL     1      -0.183   1.478   1.890  1.00  0.00     0.249 N   
ATOM     20  H10 UNL     1      -0.450   1.739   0.927  1.00  0.00     0.199 HD  
ATOM     21  H11 UNL     1      -0.948   1.796   2.493  1.00  0.00     0.199 HD  
BRANCH  19  22
ATOM     22  C11 UNL     1       1.046   2.248   2.227  1.00  0.00     0.164 C   
BRANCH  22  23
ATOM     23  C12 UNL     1       0.771   3.723   2.144  1.00  0.00    -0.002 A   
ATOM     24  C13 UNL     1       1.004   4.424   0.936  1.00  0.00     0.012 A   
ATOM     25  C17 UNL     1       0.221   4.404   3.246  1.00  0.00     0.045 A   
ATOM     26  C14 UNL     1       0.707   5.787   0.827  1.00  0.00     0.037 A   
ATOM     27  C16 UNL     1      -0.065   5.746   3.102  1.00  0.00     0.109 A   
ATOM     28  C15 UNL     1       0.171   6.419   1.928  1.00  0.00     0.108 A   
ATOM     29  O3  UNL     1      -0.602   6.545   4.061  1.00  0.00    -0.316 OA  
ATOM     30  O4  UNL     1      -0.186   7.728   2.001  1.00  0.00    -0.316 OA  
ATOM     31  C18 UNL     1      -0.666   7.809   3.361  1.00  0.00     0.337 C   
ENDBRANCH  22  23
ENDBRANCH  19  22
ENDBRANCH  18  19
BRANCH  18  32
ATOM     32  C19 UNL     1      -1.422  -0.696   2.062  1.00  0.00     0.037 C   
ATOM     33  C20 UNL     1      -2.433  -0.291   0.981  1.00  0.00     0.014 C   
ATOM     34  C21 UNL     1      -2.026  -0.454   3.451  1.00  0.00     0.014 C   
ENDBRANCH  18  32
ENDBRANCH   3  18
TORSDOF 9
