REMARK SMILES Cc1nn2cc[nH]c2c1Cn1cc([C@@H]([NH2+]Cc2ccc3c(c2)OCO3)C2CCCC2)nn1
REMARK SMILES IDX 11 1 12 2 13 3 31 4 32 5 10 7 9 8 2 9 3 10 4 11 8 12 5 13
REMARK SMILES IDX 7 14 6 15 1 16 14 18 15 19 16 22 17 23 18 24 22 25 19 26
REMARK SMILES IDX 21 27 20 28 23 29 25 30 24 31 26 32 27 33 30 34 28 35 29 36
REMARK H PARENT 12 6 7 17 15 20 15 21
ROOT
ATOM     1   N4  UNL     1       2.702  -1.233   0.079  1.00  0.00    -0.208 N   
ATOM     2   C8  UNL     1       1.399  -1.524  -0.225  1.00  0.00     0.046 A   
ATOM     3   C9  UNL     1       1.067  -0.593  -1.183  1.00  0.00     0.127 A   
ATOM     4   N6  UNL     1       2.159   0.195  -1.446  1.00  0.00    -0.132 NA  
ATOM     5   N7  UNL     1       3.151  -0.205  -0.669  1.00  0.00    -0.076 NA  
ATOM     6   H9  UNL     1       0.848  -2.302   0.287  1.00  0.00     0.083 HD  
ENDROOT
BRANCH   1   7
ATOM     7   C7  UNL     1       3.528  -1.805   1.130  1.00  0.00     0.175 C   
BRANCH   7   8
ATOM     8   C6  UNL     1       3.106  -1.252   2.438  1.00  0.00     0.032 A   
ATOM     9   C2  UNL     1       3.367   0.050   2.990  1.00  0.00     0.064 A   
ATOM     10  N1  UNL     1       2.759   0.249   4.175  1.00  0.00    -0.180 NA  
ATOM     11  N2  UNL     1       2.160  -0.920   4.425  1.00  0.00    -0.185 N   
ATOM     12  C5  UNL     1       2.326  -1.826   3.399  1.00  0.00     0.120 A   
ATOM     13  C3  UNL     1       1.419  -1.510   5.433  1.00  0.00     0.118 A   
ATOM     14  N3  UNL     1       1.661  -2.959   3.738  1.00  0.00    -0.306 N   
ATOM     15  C4  UNL     1       1.141  -2.764   5.020  1.00  0.00     0.091 A   
ATOM     16  C1  UNL     1       4.169   1.151   2.392  1.00  0.00     0.069 C   
ATOM     17  H6  UNL     1       1.870  -3.907   3.435  1.00  0.00     0.154 HD  
ENDBRANCH   7   8
ENDBRANCH   1   7
BRANCH   3  18
ATOM     18  C10 UNL     1      -0.233  -0.285  -1.850  1.00  0.00     0.117 C   
BRANCH  18  19
ATOM     19  N5  UNL     1      -0.436   1.210  -1.872  1.00  0.00     0.249 N   
ATOM     20  H11 UNL     1      -1.177   1.485  -2.523  1.00  0.00     0.199 HD  
ATOM     21  H12 UNL     1       0.435   1.627  -2.232  1.00  0.00     0.199 HD  
BRANCH  19  22
ATOM     22  C11 UNL     1      -0.713   1.831  -0.545  1.00  0.00     0.164 C   
BRANCH  22  23
ATOM     23  C12 UNL     1      -0.898   3.314  -0.686  1.00  0.00    -0.002 A   
ATOM     24  C13 UNL     1       0.202   4.188  -0.511  1.00  0.00     0.012 A   
ATOM     25  C17 UNL     1      -2.151   3.840  -1.041  1.00  0.00     0.045 A   
ATOM     26  C14 UNL     1       0.055   5.569  -0.672  1.00  0.00     0.037 A   
ATOM     27  C16 UNL     1      -2.260   5.206  -1.196  1.00  0.00     0.109 A   
ATOM     28  C15 UNL     1      -1.190   6.046  -1.015  1.00  0.00     0.108 A   
ATOM     29  O1  UNL     1      -3.392   5.873  -1.539  1.00  0.00    -0.316 OA  
ATOM     30  O2  UNL     1      -1.515   7.349  -1.214  1.00  0.00    -0.316 OA  
ATOM     31  C18 UNL     1      -2.918   7.239  -1.534  1.00  0.00     0.337 C   
ENDBRANCH  22  23
ENDBRANCH  19  22
ENDBRANCH  18  19
BRANCH  18  32
ATOM     32  C19 UNL     1      -0.275  -0.815  -3.296  1.00  0.00     0.043 C   
ATOM     33  C20 UNL     1      -1.574  -0.506  -4.052  1.00  0.00     0.010 C   
ATOM     34  C23 UNL     1      -0.214  -2.344  -3.377  1.00  0.00     0.010 C   
ATOM     35  C21 UNL     1      -1.692  -1.579  -5.134  1.00  0.00     0.001 C   
ATOM     36  C22 UNL     1      -0.641  -2.636  -4.807  1.00  0.00     0.001 C   
ENDBRANCH  18  32
ENDBRANCH   3  18
TORSDOF 7
