REMARK SMILES Oc1ccc(F)c(-n2cc([C@@H]([NH2+]Cc3ccc4c(c3)OCO4)C3CCCC3)nn2)c1
REMARK SMILES IDX 8 1 9 2 10 3 28 4 29 5 7 6 2 7 3 8 30 9 4 10 5 11 6 12 1 13
REMARK SMILES IDX 11 15 12 16 13 19 14 20 15 21 19 22 16 23 18 24 17 25 20 26
REMARK SMILES IDX 22 27 21 28 23 29 24 30 27 31 25 32 26 33
REMARK H PARENT 1 14 12 17 12 18
ROOT
ATOM     1   N1  UNL     1       0.449  -2.744   1.852  1.00  0.00    -0.178 N   
ATOM     2   C6  UNL     1      -0.269  -1.612   2.190  1.00  0.00     0.135 A   
ATOM     3   C7  UNL     1      -0.367  -0.881   1.027  1.00  0.00     0.127 A   
ATOM     4   N3  UNL     1       0.294  -1.538   0.031  1.00  0.00    -0.131 NA  
ATOM     5   N4  UNL     1       0.793  -2.653   0.537  1.00  0.00    -0.071 NA  
ENDROOT
BRANCH   1   6
ATOM     6   C5  UNL     1       0.835  -3.853   2.640  1.00  0.00     0.096 A   
ATOM     7   C1  UNL     1       1.954  -5.990   2.824  1.00  0.00     0.073 A   
ATOM     8   C2  UNL     1       1.621  -6.068   4.171  1.00  0.00     0.036 A   
ATOM     9   C22 UNL     1       1.572  -4.896   2.050  1.00  0.00     0.062 A   
ATOM     10  C3  UNL     1       0.892  -5.037   4.759  1.00  0.00     0.044 A   
ATOM     11  C4  UNL     1       0.502  -3.938   3.996  1.00  0.00     0.146 A   
ATOM     12  F1  UNL     1      -0.195  -2.975   4.613  1.00  0.00    -0.205 F   
BRANCH   7  13
ATOM     13  O1  UNL     1       2.667  -7.022   2.294  1.00  0.00    -0.361 OA  
ATOM     14  H1  UNL     1       2.822  -6.868   1.347  1.00  0.00     0.218 HD  
ENDBRANCH   7  13
ENDBRANCH   1   6
BRANCH   3  15
ATOM     15  C8  UNL     1      -1.009   0.441   0.746  1.00  0.00     0.117 C   
BRANCH  15  16
ATOM     16  N2  UNL     1      -0.192   1.198  -0.273  1.00  0.00     0.249 N   
ATOM     17  H6  UNL     1      -0.714   1.982  -0.674  1.00  0.00     0.199 HD  
ATOM     18  H7  UNL     1      -0.003   0.549  -1.051  1.00  0.00     0.199 HD  
BRANCH  16  19
ATOM     19  C9  UNL     1       1.122   1.710   0.212  1.00  0.00     0.164 C   
BRANCH  19  20
ATOM     20  C10 UNL     1       1.842   2.430  -0.892  1.00  0.00    -0.002 A   
ATOM     21  C11 UNL     1       1.739   3.836  -1.020  1.00  0.00     0.012 A   
ATOM     22  C15 UNL     1       2.583   1.700  -1.839  1.00  0.00     0.045 A   
ATOM     23  C12 UNL     1       2.373   4.509  -2.070  1.00  0.00     0.037 A   
ATOM     24  C14 UNL     1       3.194   2.395  -2.861  1.00  0.00     0.109 A   
ATOM     25  C13 UNL     1       3.092   3.760  -2.974  1.00  0.00     0.108 A   
ATOM     26  O2  UNL     1       3.942   1.846  -3.854  1.00  0.00    -0.316 OA  
ATOM     27  O3  UNL     1       3.765   4.242  -4.051  1.00  0.00    -0.316 OA  
ATOM     28  C16 UNL     1       4.322   3.027  -4.596  1.00  0.00     0.337 C   
ENDBRANCH  19  20
ENDBRANCH  16  19
ENDBRANCH  15  16
BRANCH  15  29
ATOM     29  C17 UNL     1      -2.441   0.280   0.198  1.00  0.00     0.043 C   
ATOM     30  C18 UNL     1      -3.401  -0.391   1.186  1.00  0.00     0.010 C   
ATOM     31  C21 UNL     1      -3.161   1.604  -0.091  1.00  0.00     0.010 C   
ATOM     32  C19 UNL     1      -4.775  -0.096   0.603  1.00  0.00     0.001 C   
ATOM     33  C20 UNL     1      -4.654   1.282  -0.040  1.00  0.00     0.001 C   
ENDBRANCH  15  29
ENDBRANCH   3  15
TORSDOF 7
