REMARK SMILES COc1cccc(-n2cc([C@H](CC(C)C)[NH2+]Cc3ccc4c(c3)OCO4)nn2)c1
REMARK SMILES IDX 8 1 9 2 10 3 27 4 28 5 7 6 3 7 4 8 29 9 5 10 6 11 2 12 1 13
REMARK SMILES IDX 11 14 12 15 13 16 14 17 15 18 16 19 17 22 18 23 19 24 23 25
REMARK SMILES IDX 20 26 22 27 21 28 24 29 26 30 25 31
REMARK H PARENT 16 20 16 21
ROOT
ATOM     1   N1  UNL     1       1.080   2.471  -1.942  1.00  0.00    -0.181 N   
ATOM     2   C7  UNL     1       1.377   2.106  -0.641  1.00  0.00     0.135 A   
ATOM     3   C8  UNL     1       0.734   0.903  -0.449  1.00  0.00     0.127 A   
ATOM     4   N3  UNL     1       0.044   0.582  -1.586  1.00  0.00    -0.131 NA  
ATOM     5   N4  UNL     1       0.258   1.532  -2.479  1.00  0.00    -0.071 NA  
ENDROOT
BRANCH   1   6
ATOM     6   C6  UNL     1       1.528   3.592  -2.682  1.00  0.00     0.060 A   
ATOM     7   C2  UNL     1       2.868   5.614  -2.864  1.00  0.00     0.076 A   
ATOM     8   C3  UNL     1       2.436   5.778  -4.180  1.00  0.00     0.033 A   
ATOM     9   C22 UNL     1       2.410   4.524  -2.115  1.00  0.00     0.059 A   
ATOM     10  C4  UNL     1       1.549   4.859  -4.745  1.00  0.00     0.005 A   
ATOM     11  C5  UNL     1       1.095   3.768  -4.003  1.00  0.00     0.026 A   
BRANCH   7  12
ATOM     12  O1  UNL     1       3.724   6.440  -2.189  1.00  0.00    -0.349 OA  
ATOM     13  C1  UNL     1       4.316   7.501  -2.933  1.00  0.00     0.203 C   
ENDBRANCH   7  12
ENDBRANCH   1   6
BRANCH   3  14
ATOM     14  C9  UNL     1       0.677  -0.037   0.721  1.00  0.00     0.114 C   
BRANCH  14  15
ATOM     15  C10 UNL     1       2.068  -0.282   1.337  1.00  0.00     0.064 C   
BRANCH  15  16
ATOM     16  C11 UNL     1       2.106  -1.171   2.595  1.00  0.00    -0.012 C   
ATOM     17  C12 UNL     1       3.561  -1.423   3.007  1.00  0.00     0.007 C   
ATOM     18  C13 UNL     1       1.348  -0.545   3.768  1.00  0.00     0.007 C   
ENDBRANCH  15  16
ENDBRANCH  14  15
BRANCH  14  19
ATOM     19  N2  UNL     1       0.099  -1.350   0.254  1.00  0.00     0.249 N   
ATOM     20  H18 UNL     1       0.828  -2.060   0.126  1.00  0.00     0.199 HD  
ATOM     21  H19 UNL     1      -0.250  -1.183  -0.706  1.00  0.00     0.199 HD  
BRANCH  19  22
ATOM     22  C14 UNL     1      -1.043  -1.901   1.025  1.00  0.00     0.164 C   
BRANCH  22  23
ATOM     23  C15 UNL     1      -1.531  -3.172   0.388  1.00  0.00    -0.002 A   
ATOM     24  C16 UNL     1      -0.993  -4.422   0.777  1.00  0.00     0.012 A   
ATOM     25  C20 UNL     1      -2.475  -3.119  -0.651  1.00  0.00     0.045 A   
ATOM     26  C17 UNL     1      -1.388  -5.603   0.140  1.00  0.00     0.037 A   
ATOM     27  C19 UNL     1      -2.842  -4.301  -1.259  1.00  0.00     0.109 A   
ATOM     28  C18 UNL     1      -2.312  -5.508  -0.877  1.00  0.00     0.108 A   
ATOM     29  O2  UNL     1      -3.728  -4.422  -2.281  1.00  0.00    -0.316 OA  
ATOM     30  O3  UNL     1      -2.799  -6.542  -1.611  1.00  0.00    -0.316 OA  
ATOM     31  C21 UNL     1      -3.692  -5.849  -2.509  1.00  0.00     0.337 C   
ENDBRANCH  22  23
ENDBRANCH  19  22
ENDBRANCH  14  19
ENDBRANCH   3  14
TORSDOF 8
