REMARK SMILES O[C@H](Cn1cc([C@@H]([NH2+]Cc2ccc3c(c2)OCO3)C2CCCCC2)nn1)c1ccc(Cl)cc1
REMARK SMILES IDX 4 1 5 2 6 3 25 4 26 5 3 7 2 8 1 9 27 11 28 12 33 13 29 14
REMARK SMILES IDX 32 15 30 16 31 17 7 18 8 19 9 22 10 23 11 24 15 25 12 26
REMARK SMILES IDX 14 27 13 28 16 29 18 30 17 31 19 32 20 33 24 34 21 35 23 36
REMARK SMILES IDX 22 37
REMARK H PARENT 5 6 1 10 8 20 8 21
ROOT
ATOM     1   N1  UNL     1      -2.184   1.229   2.024  1.00  0.00    -0.209 N   
ATOM     2   C3  UNL     1      -1.460   0.243   1.420  1.00  0.00     0.045 A   
ATOM     3   C4  UNL     1      -1.263   0.712   0.139  1.00  0.00     0.127 A   
ATOM     4   N3  UNL     1      -1.919   1.909  -0.006  1.00  0.00    -0.132 NA  
ATOM     5   N4  UNL     1      -2.498   2.202   1.147  1.00  0.00    -0.076 NA  
ATOM     6   H5  UNL     1      -1.127  -0.639   1.948  1.00  0.00     0.083 HD  
ENDROOT
BRANCH   1   7
ATOM     7   C2  UNL     1      -2.592   1.305   3.408  1.00  0.00     0.170 C   
BRANCH   7   8
ATOM     8   C1  UNL     1      -1.970   2.485   4.164  1.00  0.00     0.164 C   
BRANCH   8   9
ATOM     9   O1  UNL     1      -2.411   2.425   5.523  1.00  0.00    -0.387 OA  
ATOM     10  H1  UNL     1      -2.417   3.340   5.865  1.00  0.00     0.211 HD  
ENDBRANCH   8   9
BRANCH   8  11
ATOM     11  C20 UNL     1      -0.454   2.450   4.151  1.00  0.00    -0.018 A   
ATOM     12  C21 UNL     1       0.258   3.327   3.316  1.00  0.00     0.008 A   
ATOM     13  C25 UNL     1       0.260   1.522   4.928  1.00  0.00     0.008 A   
ATOM     14  C22 UNL     1       1.653   3.274   3.257  1.00  0.00     0.021 A   
ATOM     15  C24 UNL     1       1.655   1.469   4.867  1.00  0.00     0.021 A   
ATOM     16  C23 UNL     1       2.344   2.342   4.029  1.00  0.00     0.041 A   
ATOM     17  CL1 UNL     1       4.057   2.260   3.939  1.00  0.00    -0.084 Cl  
ENDBRANCH   8  11
ENDBRANCH   7   8
ENDBRANCH   1   7
BRANCH   3  18
ATOM     18  C5  UNL     1      -0.531   0.114  -1.022  1.00  0.00     0.117 C   
BRANCH  18  19
ATOM     19  N2  UNL     1      -1.308   0.436  -2.288  1.00  0.00     0.249 N   
ATOM     20  H7  UNL     1      -1.560   1.434  -2.217  1.00  0.00     0.199 HD  
ATOM     21  H8  UNL     1      -0.728   0.340  -3.123  1.00  0.00     0.199 HD  
BRANCH  19  22
ATOM     22  C6  UNL     1      -2.570  -0.336  -2.502  1.00  0.00     0.164 C   
BRANCH  22  23
ATOM     23  C7  UNL     1      -2.331  -1.812  -2.667  1.00  0.00    -0.002 A   
ATOM     24  C8  UNL     1      -2.793  -2.721  -1.685  1.00  0.00     0.012 A   
ATOM     25  C12 UNL     1      -1.618  -2.299  -3.777  1.00  0.00     0.045 A   
ATOM     26  C9  UNL     1      -2.534  -4.091  -1.793  1.00  0.00     0.037 A   
ATOM     27  C11 UNL     1      -1.367  -3.654  -3.846  1.00  0.00     0.109 A   
ATOM     28  C10 UNL     1      -1.810  -4.525  -2.881  1.00  0.00     0.108 A   
ATOM     29  O2  UNL     1      -0.664  -4.278  -4.826  1.00  0.00    -0.316 OA  
ATOM     30  O3  UNL     1      -1.449  -5.809  -3.137  1.00  0.00    -0.316 OA  
ATOM     31  C13 UNL     1      -0.699  -5.647  -4.359  1.00  0.00     0.337 C   
ENDBRANCH  22  23
ENDBRANCH  19  22
ENDBRANCH  18  19
BRANCH  18  32
ATOM     32  C14 UNL     1       0.927   0.656  -1.172  1.00  0.00     0.043 C   
ATOM     33  C15 UNL     1       1.729  -0.034  -2.306  1.00  0.00     0.010 C   
ATOM     34  C19 UNL     1       1.761   0.532   0.122  1.00  0.00     0.010 C   
ATOM     35  C16 UNL     1       2.075  -1.489  -1.992  1.00  0.00     0.001 C   
ATOM     36  C18 UNL     1       2.089  -0.916   0.479  1.00  0.00     0.001 C   
ATOM     37  C17 UNL     1       2.812  -1.624  -0.663  1.00  0.00     0.000 C   
ENDBRANCH  18  32
ENDBRANCH   3  18
TORSDOF 9
