REMARK SMILES O[C@@H](Cn1cc([C@@H]([NH2+]Cc2ccc3c(c2)OCO3)C2CCCCC2)nn1)c1ccc(Cl)cc1
REMARK SMILES IDX 4 1 5 2 6 3 25 4 26 5 3 7 2 8 1 9 27 11 28 12 33 13 29 14
REMARK SMILES IDX 32 15 30 16 31 17 7 18 8 19 9 22 10 23 11 24 15 25 12 26
REMARK SMILES IDX 14 27 13 28 16 29 18 30 17 31 19 32 20 33 24 34 21 35 23 36
REMARK SMILES IDX 22 37
REMARK H PARENT 5 6 1 10 8 20 8 21
ROOT
ATOM     1   N1  UNL     1       0.169  -2.041   2.322  1.00  0.00    -0.209 N   
ATOM     2   C3  UNL     1       0.091  -0.698   2.085  1.00  0.00     0.045 A   
ATOM     3   C4  UNL     1       1.165  -0.437   1.263  1.00  0.00     0.127 A   
ATOM     4   N3  UNL     1       1.822  -1.617   1.009  1.00  0.00    -0.132 NA  
ATOM     5   N4  UNL     1       1.201  -2.588   1.657  1.00  0.00    -0.076 NA  
ATOM     6   H5  UNL     1      -0.704  -0.090   2.498  1.00  0.00     0.083 HD  
ENDROOT
BRANCH   1   7
ATOM     7   C2  UNL     1      -0.706  -2.862   3.135  1.00  0.00     0.170 C   
BRANCH   7   8
ATOM     8   C1  UNL     1      -1.756  -3.573   2.278  1.00  0.00     0.164 C   
BRANCH   8   9
ATOM     9   O1  UNL     1      -2.677  -2.612   1.743  1.00  0.00    -0.387 OA  
ATOM     10  H1  UNL     1      -3.498  -3.094   1.527  1.00  0.00     0.211 HD  
ENDBRANCH   8   9
BRANCH   8  11
ATOM     11  C20 UNL     1      -2.520  -4.607   3.080  1.00  0.00    -0.018 A   
ATOM     12  C21 UNL     1      -3.441  -4.223   4.069  1.00  0.00     0.008 A   
ATOM     13  C25 UNL     1      -2.302  -5.975   2.852  1.00  0.00     0.008 A   
ATOM     14  C22 UNL     1      -4.132  -5.185   4.809  1.00  0.00     0.021 A   
ATOM     15  C24 UNL     1      -2.994  -6.937   3.594  1.00  0.00     0.021 A   
ATOM     16  C23 UNL     1      -3.906  -6.538   4.569  1.00  0.00     0.041 A   
ATOM     17  CL1 UNL     1      -4.757  -7.723   5.479  1.00  0.00    -0.084 Cl  
ENDBRANCH   8  11
ENDBRANCH   7   8
ENDBRANCH   1   7
BRANCH   3  18
ATOM     18  C5  UNL     1       1.635   0.794   0.547  1.00  0.00     0.117 C   
BRANCH  18  19
ATOM     19  N2  UNL     1       1.664   0.495  -0.933  1.00  0.00     0.249 N   
ATOM     20  H7  UNL     1       2.237  -0.357  -1.030  1.00  0.00     0.199 HD  
ATOM     21  H8  UNL     1       2.175   1.219  -1.448  1.00  0.00     0.199 HD  
BRANCH  19  22
ATOM     22  C6  UNL     1       0.366   0.201  -1.604  1.00  0.00     0.164 C   
BRANCH  22  23
ATOM     23  C7  UNL     1       0.592  -0.108  -3.058  1.00  0.00    -0.002 A   
ATOM     24  C8  UNL     1       0.861  -1.435  -3.470  1.00  0.00     0.012 A   
ATOM     25  C12 UNL     1       0.596   0.928  -4.008  1.00  0.00     0.045 A   
ATOM     26  C9  UNL     1       1.117  -1.732  -4.813  1.00  0.00     0.037 A   
ATOM     27  C11 UNL     1       0.853   0.601  -5.323  1.00  0.00     0.109 A   
ATOM     28  C10 UNL     1       1.106  -0.691  -5.715  1.00  0.00     0.108 A   
ATOM     29  O2  UNL     1       0.893   1.476  -6.361  1.00  0.00    -0.316 OA  
ATOM     30  O3  UNL     1       1.335  -0.792  -7.050  1.00  0.00    -0.316 OA  
ATOM     31  C13 UNL     1       1.177   0.583  -7.463  1.00  0.00     0.337 C   
ENDBRANCH  22  23
ENDBRANCH  19  22
ENDBRANCH  18  19
BRANCH  18  32
ATOM     32  C14 UNL     1       0.873   2.110   0.862  1.00  0.00     0.043 C   
ATOM     33  C15 UNL     1       1.130   2.546   2.325  1.00  0.00     0.010 C   
ATOM     34  C19 UNL     1       1.268   3.273  -0.076  1.00  0.00     0.010 C   
ATOM     35  C16 UNL     1       0.405   3.843   2.678  1.00  0.00     0.001 C   
ATOM     36  C18 UNL     1       0.553   4.575   0.280  1.00  0.00     0.001 C   
ATOM     37  C17 UNL     1       0.785   4.972   1.731  1.00  0.00     0.000 C   
ENDBRANCH  18  32
ENDBRANCH   3  18
TORSDOF 9
