REMARK SMILES Cc1ccncc1CCn1cc([C@H](CC(C)C)[NH2+]Cc2ccc3c(c2)OCO3)nn1
REMARK SMILES IDX 10 1 11 2 12 3 29 4 30 5 9 7 8 8 7 9 2 10 3 11 4 12 6 13
REMARK SMILES IDX 5 14 1 15 13 16 14 17 15 18 16 19 17 20 18 21 19 24 20 25
REMARK SMILES IDX 21 26 25 27 22 28 24 29 23 30 26 31 28 32 27 33
REMARK H PARENT 11 6 18 22 18 23
ROOT
ATOM     1   N2  UNL     1       0.237   1.039   3.310  1.00  0.00    -0.212 N   
ATOM     2   C9  UNL     1       0.133   1.499   2.023  1.00  0.00     0.045 A   
ATOM     3   C10 UNL     1       0.926   0.628   1.302  1.00  0.00     0.127 A   
ATOM     4   N4  UNL     1       1.569  -0.212   2.170  1.00  0.00    -0.132 NA  
ATOM     5   N5  UNL     1       1.153   0.061   3.397  1.00  0.00    -0.076 NA  
ATOM     6   H11 UNL     1      -0.569   2.272   1.744  1.00  0.00     0.083 HD  
ENDROOT
BRANCH   1   7
ATOM     7   C8  UNL     1      -0.714   1.240   4.388  1.00  0.00     0.139 C   
BRANCH   7   8
ATOM     8   C7  UNL     1      -1.731   0.087   4.495  1.00  0.00     0.059 C   
BRANCH   8   9
ATOM     9   C6  UNL     1      -2.488  -0.153   3.203  1.00  0.00    -0.025 A   
ATOM     10  C2  UNL     1      -3.660   0.533   2.853  1.00  0.00    -0.045 A   
ATOM     11  C3  UNL     1      -4.217   0.299   1.590  1.00  0.00     0.024 A   
ATOM     12  C4  UNL     1      -3.564  -0.549   0.708  1.00  0.00     0.111 A   
ATOM     13  C5  UNL     1      -1.947  -1.031   2.257  1.00  0.00     0.115 A   
ATOM     14  N1  UNL     1      -2.398  -1.177   0.985  1.00  0.00    -0.264 NA  
ATOM     15  C1  UNL     1      -4.358   1.466   3.803  1.00  0.00     0.045 C   
ENDBRANCH   8   9
ENDBRANCH   7   8
ENDBRANCH   1   7
BRANCH   3  16
ATOM     16  C11 UNL     1       1.034   0.397  -0.171  1.00  0.00     0.114 C   
BRANCH  16  17
ATOM     17  C12 UNL     1       1.429   1.657  -0.960  1.00  0.00     0.064 C   
BRANCH  17  18
ATOM     18  C13 UNL     1       2.812   2.240  -0.593  1.00  0.00    -0.012 C   
ATOM     19  C14 UNL     1       3.050   3.535  -1.375  1.00  0.00     0.007 C   
ATOM     20  C15 UNL     1       3.950   1.256  -0.869  1.00  0.00     0.007 C   
ENDBRANCH  17  18
ENDBRANCH  16  17
BRANCH  16  21
ATOM     21  N3  UNL     1      -0.298  -0.105  -0.687  1.00  0.00     0.249 N   
ATOM     22  H22 UNL     1      -0.966   0.670  -0.730  1.00  0.00     0.199 HD  
ATOM     23  H23 UNL     1      -0.717  -0.727   0.031  1.00  0.00     0.199 HD  
BRANCH  21  24
ATOM     24  C16 UNL     1      -0.310  -0.870  -1.960  1.00  0.00     0.164 C   
BRANCH  24  25
ATOM     25  C17 UNL     1       0.439  -2.170  -1.887  1.00  0.00    -0.002 A   
ATOM     26  C18 UNL     1       1.658  -2.335  -2.587  1.00  0.00     0.012 A   
ATOM     27  C22 UNL     1      -0.056  -3.227  -1.101  1.00  0.00     0.045 A   
ATOM     28  C19 UNL     1       2.380  -3.530  -2.502  1.00  0.00     0.037 A   
ATOM     29  C21 UNL     1       0.681  -4.392  -1.039  1.00  0.00     0.109 A   
ATOM     30  C20 UNL     1       1.865  -4.539  -1.719  1.00  0.00     0.108 A   
ATOM     31  O1  UNL     1       0.349  -5.500  -0.328  1.00  0.00    -0.316 OA  
ATOM     32  O2  UNL     1       2.428  -5.759  -1.521  1.00  0.00    -0.316 OA  
ATOM     33  C23 UNL     1       1.458  -6.371  -0.644  1.00  0.00     0.337 C   
ENDBRANCH  24  25
ENDBRANCH  21  24
ENDBRANCH  16  21
ENDBRANCH   3  16
TORSDOF 9
