REMARK SMILES CC(C)C[C@H]([NH2+]Cc1ccc2c(c1)OCO2)c1cn([C@H](CO)Cc2ccccc2)nn1
REMARK SMILES IDX 17 1 18 2 19 3 30 4 31 5 5 7 4 8 2 9 1 10 3 11 6 12 7 15
REMARK SMILES IDX 8 16 9 17 13 18 10 19 12 20 11 21 14 22 16 23 15 24 20 25
REMARK SMILES IDX 21 26 22 27 23 29 24 30 25 31 29 32 26 33 28 34 27 35
REMARK H PARENT 18 6 6 13 6 14 22 28
ROOT
ATOM     1   C14 UNL     1      -0.336   0.752   0.756  1.00  0.00     0.127 A   
ATOM     2   C15 UNL     1      -1.155   0.801  -0.348  1.00  0.00     0.046 A   
ATOM     3   N2  UNL     1      -2.413   0.901   0.179  1.00  0.00    -0.206 N   
ATOM     4   N3  UNL     1      -2.366   0.955   1.527  1.00  0.00    -0.076 NA  
ATOM     5   N4  UNL     1      -1.099   0.852   1.892  1.00  0.00    -0.132 NA  
ATOM     6   H20 UNL     1      -0.975   0.762  -1.414  1.00  0.00     0.083 HD  
ENDROOT
BRANCH   1   7
ATOM     7   C5  UNL     1       1.147   0.671   0.871  1.00  0.00     0.114 C   
BRANCH   7   8
ATOM     8   C4  UNL     1       1.632  -0.754   1.207  1.00  0.00     0.064 C   
BRANCH   8   9
ATOM     9   C2  UNL     1       1.325  -1.817   0.131  1.00  0.00    -0.012 C   
ATOM     10  C1  UNL     1       1.749  -3.200   0.634  1.00  0.00     0.007 C   
ATOM     11  C3  UNL     1       2.024  -1.521  -1.194  1.00  0.00     0.007 C   
ENDBRANCH   8   9
ENDBRANCH   7   8
BRANCH   7  12
ATOM     12  N1  UNL     1       1.627   1.574   1.992  1.00  0.00     0.249 N   
ATOM     13  H11 UNL     1       2.617   1.399   2.185  1.00  0.00     0.199 HD  
ATOM     14  H12 UNL     1       1.094   1.296   2.828  1.00  0.00     0.199 HD  
BRANCH  12  15
ATOM     15  C6  UNL     1       1.410   3.039   1.801  1.00  0.00     0.164 C   
BRANCH  15  16
ATOM     16  C7  UNL     1       2.266   3.624   0.712  1.00  0.00    -0.002 A   
ATOM     17  C8  UNL     1       3.635   3.901   0.946  1.00  0.00     0.012 A   
ATOM     18  C12 UNL     1       1.712   3.876  -0.559  1.00  0.00     0.045 A   
ATOM     19  C9  UNL     1       4.445   4.424  -0.068  1.00  0.00     0.037 A   
ATOM     20  C11 UNL     1       2.541   4.386  -1.537  1.00  0.00     0.109 A   
ATOM     21  C10 UNL     1       3.867   4.655  -1.299  1.00  0.00     0.108 A   
ATOM     22  O1  UNL     1       2.172   4.675  -2.812  1.00  0.00    -0.316 OA  
ATOM     23  O2  UNL     1       4.495   5.154  -2.394  1.00  0.00    -0.316 OA  
ATOM     24  C13 UNL     1       3.404   5.214  -3.338  1.00  0.00     0.337 C   
ENDBRANCH  15  16
ENDBRANCH  12  15
ENDBRANCH   7  12
ENDBRANCH   1   7
BRANCH   3  25
ATOM     25  C16 UNL     1      -3.684   0.925  -0.538  1.00  0.00     0.129 C   
BRANCH  25  26
ATOM     26  C17 UNL     1      -4.395   2.266  -0.326  1.00  0.00     0.181 C   
BRANCH  26  27
ATOM     27  O3  UNL     1      -3.639   3.315  -0.932  1.00  0.00    -0.394 OA  
ATOM     28  H24 UNL     1      -4.176   4.126  -0.898  1.00  0.00     0.210 HD  
ENDBRANCH  26  27
ENDBRANCH  25  26
BRANCH  25  29
ATOM     29  C18 UNL     1      -4.585  -0.258  -0.141  1.00  0.00     0.063 C   
BRANCH  29  30
ATOM     30  C19 UNL     1      -3.994  -1.591  -0.541  1.00  0.00    -0.046 A   
ATOM     31  C20 UNL     1      -4.110  -2.057  -1.858  1.00  0.00     0.004 A   
ATOM     32  C24 UNL     1      -3.293  -2.364   0.395  1.00  0.00     0.004 A   
ATOM     33  C21 UNL     1      -3.536  -3.274  -2.229  1.00  0.00     0.000 A   
ATOM     34  C23 UNL     1      -2.719  -3.579   0.021  1.00  0.00     0.000 A   
ATOM     35  C22 UNL     1      -2.841  -4.034  -1.290  1.00  0.00     0.000 A   
ENDBRANCH  29  30
ENDBRANCH  25  29
ENDBRANCH   3  25
TORSDOF 11
