REMARK SMILES Cc1nc(C(C)C)oc1Cn1cc([C@@H]([NH2+]Cc2ccc3c(c2)OCO3)C(C)C)nn1
REMARK SMILES IDX 11 1 12 2 13 3 29 4 30 5 10 7 9 8 2 9 3 10 4 11 8 12 1 13
REMARK SMILES IDX 5 14 6 15 7 16 14 17 15 18 16 21 17 22 18 23 22 24 19 25
REMARK SMILES IDX 21 26 20 27 23 28 25 29 24 30 26 31 27 32 28 33
REMARK H PARENT 12 6 15 19 15 20
ROOT
ATOM     1   N2  UNL     1       1.955  -0.613  -1.766  1.00  0.00    -0.206 N   
ATOM     2   C9  UNL     1       0.962   0.330  -1.816  1.00  0.00     0.046 A   
ATOM     3   C10 UNL     1       1.566   1.472  -1.342  1.00  0.00     0.127 A   
ATOM     4   N4  UNL     1       2.878   1.199  -1.044  1.00  0.00    -0.132 NA  
ATOM     5   N5  UNL     1       3.107  -0.074  -1.317  1.00  0.00    -0.076 NA  
ATOM     6   H13 UNL     1      -0.040   0.096  -2.147  1.00  0.00     0.083 HD  
ENDROOT
BRANCH   1   7
ATOM     7   C8  UNL     1       1.887  -2.016  -2.138  1.00  0.00     0.197 C   
BRANCH   7   8
ATOM     8   C7  UNL     1       1.112  -2.770  -1.134  1.00  0.00     0.102 A   
ATOM     9   C2  UNL     1       1.366  -3.229   0.141  1.00  0.00     0.068 A   
ATOM     10  N1  UNL     1       0.252  -3.876   0.620  1.00  0.00    -0.231 NA  
ATOM     11  C3  UNL     1      -0.617  -3.809  -0.369  1.00  0.00     0.150 A   
ATOM     12  O1  UNL     1      -0.164  -3.134  -1.469  1.00  0.00    -0.296 OA  
ATOM     13  C1  UNL     1       2.595  -3.103   0.955  1.00  0.00     0.069 C   
BRANCH  11  14
ATOM     14  C4  UNL     1      -1.999  -4.364  -0.450  1.00  0.00     0.057 C   
ATOM     15  C5  UNL     1      -2.807  -3.983   0.790  1.00  0.00     0.016 C   
ATOM     16  C6  UNL     1      -1.954  -5.880  -0.625  1.00  0.00     0.016 C   
ENDBRANCH  11  14
ENDBRANCH   7   8
ENDBRANCH   1   7
BRANCH   3  17
ATOM     17  C11 UNL     1       1.032   2.847  -1.095  1.00  0.00     0.117 C   
BRANCH  17  18
ATOM     18  N3  UNL     1       1.872   3.546  -0.050  1.00  0.00     0.249 N   
ATOM     19  H15 UNL     1       2.761   3.018  -0.006  1.00  0.00     0.199 HD  
ATOM     20  H16 UNL     1       2.128   4.490  -0.350  1.00  0.00     0.199 HD  
BRANCH  18  21
ATOM     21  C12 UNL     1       1.302   3.599   1.327  1.00  0.00     0.164 C   
BRANCH  21  22
ATOM     22  C13 UNL     1       1.223   2.253   1.995  1.00  0.00    -0.002 A   
ATOM     23  C14 UNL     1       2.379   1.684   2.583  1.00  0.00     0.012 A   
ATOM     24  C18 UNL     1       0.017   1.528   2.002  1.00  0.00     0.045 A   
ATOM     25  C15 UNL     1       2.336   0.416   3.174  1.00  0.00     0.037 A   
ATOM     26  C17 UNL     1       0.014   0.277   2.583  1.00  0.00     0.109 A   
ATOM     27  C16 UNL     1       1.139  -0.263   3.156  1.00  0.00     0.108 A   
ATOM     28  O2  UNL     1      -1.058  -0.557   2.655  1.00  0.00    -0.316 OA  
ATOM     29  O3  UNL     1       0.919  -1.498   3.674  1.00  0.00    -0.316 OA  
ATOM     30  C19 UNL     1      -0.481  -1.678   3.368  1.00  0.00     0.337 C   
ENDBRANCH  21  22
ENDBRANCH  18  21
ENDBRANCH  17  18
BRANCH  17  31
ATOM     31  C20 UNL     1       0.954   3.696  -2.391  1.00  0.00     0.037 C   
ATOM     32  C21 UNL     1       0.207   5.014  -2.156  1.00  0.00     0.014 C   
ATOM     33  C22 UNL     1       2.315   3.976  -3.043  1.00  0.00     0.014 C   
ENDBRANCH  17  31
ENDBRANCH   3  17
TORSDOF 8
