REMARK SMILES OC[C@@H](Cc1ccccc1)n1cc([C@@H]([NH2+]Cc2ccc3c(c2)OCO3)C2CCCCC2)nn1
REMARK SMILES IDX 11 1 12 2 13 3 32 4 33 5 3 7 2 8 1 9 4 11 5 12 6 13 10 14
REMARK SMILES IDX 7 15 9 16 8 17 14 18 15 19 16 22 17 23 18 24 22 25 19 26
REMARK SMILES IDX 21 27 20 28 23 29 25 30 24 31 26 32 27 33 31 34 28 35 30 36
REMARK SMILES IDX 29 37
REMARK H PARENT 12 6 1 10 15 20 15 21
ROOT
ATOM     1   N1  UNL     1      -0.894  -1.783  -2.059  1.00  0.00    -0.206 N   
ATOM     2   C10 UNL     1      -1.262  -0.864  -1.115  1.00  0.00     0.046 A   
ATOM     3   C11 UNL     1      -0.612   0.288  -1.501  1.00  0.00     0.127 A   
ATOM     4   N3  UNL     1       0.120   0.033  -2.633  1.00  0.00    -0.132 NA  
ATOM     5   N4  UNL     1      -0.082  -1.226  -2.983  1.00  0.00    -0.076 NA  
ATOM     6   H12 UNL     1      -1.904  -1.113  -0.283  1.00  0.00     0.083 HD  
ENDROOT
BRANCH   1   7
ATOM     7   C2  UNL     1      -1.178  -3.215  -2.064  1.00  0.00     0.129 C   
BRANCH   7   8
ATOM     8   C1  UNL     1      -1.967  -3.598  -3.321  1.00  0.00     0.181 C   
BRANCH   8   9
ATOM     9   O1  UNL     1      -3.266  -3.013  -3.268  1.00  0.00    -0.394 OA  
ATOM     10  H1  UNL     1      -3.653  -3.086  -4.160  1.00  0.00     0.210 HD  
ENDBRANCH   8   9
ENDBRANCH   7   8
BRANCH   7  11
ATOM     11  C3  UNL     1       0.110  -4.053  -1.940  1.00  0.00     0.063 C   
BRANCH  11  12
ATOM     12  C4  UNL     1       0.932  -3.713  -0.713  1.00  0.00    -0.046 A   
ATOM     13  C5  UNL     1       0.519  -4.121   0.563  1.00  0.00     0.004 A   
ATOM     14  C9  UNL     1       2.112  -2.963  -0.838  1.00  0.00     0.004 A   
ATOM     15  C6  UNL     1       1.272  -3.781   1.689  1.00  0.00     0.000 A   
ATOM     16  C8  UNL     1       2.864  -2.628   0.290  1.00  0.00     0.000 A   
ATOM     17  C7  UNL     1       2.443  -3.036   1.554  1.00  0.00     0.000 A   
ENDBRANCH  11  12
ENDBRANCH   7  11
ENDBRANCH   1   7
BRANCH   3  18
ATOM     18  C12 UNL     1      -0.476   1.610  -0.823  1.00  0.00     0.117 C   
BRANCH  18  19
ATOM     19  N2  UNL     1       0.971   2.055  -0.903  1.00  0.00     0.249 N   
ATOM     20  H14 UNL     1       1.251   1.920  -1.886  1.00  0.00     0.199 HD  
ATOM     21  H15 UNL     1       1.060   3.054  -0.691  1.00  0.00     0.199 HD  
BRANCH  19  22
ATOM     22  C13 UNL     1       1.928   1.272  -0.064  1.00  0.00     0.164 C   
BRANCH  22  23
ATOM     23  C14 UNL     1       1.972   1.756   1.358  1.00  0.00    -0.002 A   
ATOM     24  C15 UNL     1       2.759   2.882   1.701  1.00  0.00     0.012 A   
ATOM     25  C19 UNL     1       1.206   1.118   2.349  1.00  0.00     0.045 A   
ATOM     26  C16 UNL     1       2.790   3.363   3.016  1.00  0.00     0.037 A   
ATOM     27  C18 UNL     1       1.258   1.618   3.635  1.00  0.00     0.109 A   
ATOM     28  C17 UNL     1       2.030   2.707   3.959  1.00  0.00     0.108 A   
ATOM     29  O2  UNL     1       0.574   1.129   4.704  1.00  0.00    -0.316 OA  
ATOM     30  O3  UNL     1       1.941   3.031   5.275  1.00  0.00    -0.316 OA  
ATOM     31  C20 UNL     1       1.049   2.001   5.756  1.00  0.00     0.337 C   
ENDBRANCH  22  23
ENDBRANCH  19  22
ENDBRANCH  18  19
BRANCH  18  32
ATOM     32  C21 UNL     1      -1.378   2.731  -1.401  1.00  0.00     0.043 C   
ATOM     33  C22 UNL     1      -1.122   3.061  -2.885  1.00  0.00     0.010 C   
ATOM     34  C26 UNL     1      -2.873   2.423  -1.179  1.00  0.00     0.010 C   
ATOM     35  C23 UNL     1      -2.012   4.208  -3.364  1.00  0.00     0.001 C   
ATOM     36  C25 UNL     1      -3.761   3.568  -1.665  1.00  0.00     0.001 C   
ATOM     37  C24 UNL     1      -3.489   3.915  -3.124  1.00  0.00     0.000 C   
ENDBRANCH  18  32
ENDBRANCH   3  18
TORSDOF 10
