REMARK SMILES OC[C@H](Cc1ccccc1)n1cc([C@@H]([NH2+]Cc2ccc3c(c2)OCO3)C2CCCCC2)nn1
REMARK SMILES IDX 11 1 12 2 13 3 32 4 33 5 3 7 2 8 1 9 4 11 5 12 6 13 10 14
REMARK SMILES IDX 7 15 9 16 8 17 14 18 15 19 16 22 17 23 18 24 22 25 19 26
REMARK SMILES IDX 21 27 20 28 23 29 25 30 24 31 26 32 27 33 31 34 28 35 30 36
REMARK SMILES IDX 29 37
REMARK H PARENT 12 6 1 10 15 20 15 21
ROOT
ATOM     1   N1  UNL     1      -0.283  -1.053  -2.641  1.00  0.00    -0.206 N   
ATOM     2   C10 UNL     1      -0.205  -0.118  -1.647  1.00  0.00     0.046 A   
ATOM     3   C11 UNL     1       0.284  -0.820  -0.569  1.00  0.00     0.127 A   
ATOM     4   N3  UNL     1       0.438  -2.137  -0.918  1.00  0.00    -0.132 NA  
ATOM     5   N4  UNL     1       0.077  -2.271  -2.184  1.00  0.00    -0.076 NA  
ATOM     6   H12 UNL     1      -0.470   0.919  -1.804  1.00  0.00     0.083 HD  
ENDROOT
BRANCH   1   7
ATOM     7   C2  UNL     1      -0.641  -0.836  -4.038  1.00  0.00     0.129 C   
BRANCH   7   8
ATOM     8   C1  UNL     1      -1.893  -1.640  -4.409  1.00  0.00     0.181 C   
BRANCH   8   9
ATOM     9   O1  UNL     1      -3.024  -1.133  -3.700  1.00  0.00    -0.394 OA  
ATOM     10  H1  UNL     1      -3.803  -1.629  -4.016  1.00  0.00     0.210 HD  
ENDBRANCH   8   9
ENDBRANCH   7   8
BRANCH   7  11
ATOM     11  C3  UNL     1       0.529  -1.166  -4.982  1.00  0.00     0.063 C   
BRANCH  11  12
ATOM     12  C4  UNL     1       1.749  -0.308  -4.728  1.00  0.00    -0.046 A   
ATOM     13  C5  UNL     1       2.856  -0.835  -4.048  1.00  0.00     0.004 A   
ATOM     14  C9  UNL     1       1.780   1.030  -5.145  1.00  0.00     0.004 A   
ATOM     15  C6  UNL     1       3.973  -0.039  -3.792  1.00  0.00     0.000 A   
ATOM     16  C8  UNL     1       2.898   1.824  -4.884  1.00  0.00     0.000 A   
ATOM     17  C7  UNL     1       3.992   1.290  -4.207  1.00  0.00     0.000 A   
ENDBRANCH  11  12
ENDBRANCH   7  11
ENDBRANCH   1   7
BRANCH   3  18
ATOM     18  C12 UNL     1       0.584  -0.384   0.828  1.00  0.00     0.117 C   
BRANCH  18  19
ATOM     19  N2  UNL     1       0.065  -1.442   1.785  1.00  0.00     0.249 N   
ATOM     20  H14 UNL     1       0.401  -1.276   2.734  1.00  0.00     0.199 HD  
ATOM     21  H15 UNL     1       0.467  -2.334   1.466  1.00  0.00     0.199 HD  
BRANCH  19  22
ATOM     22  C13 UNL     1      -1.419  -1.613   1.839  1.00  0.00     0.164 C   
BRANCH  22  23
ATOM     23  C14 UNL     1      -2.120  -0.409   2.404  1.00  0.00    -0.002 A   
ATOM     24  C15 UNL     1      -2.036  -0.112   3.786  1.00  0.00     0.012 A   
ATOM     25  C19 UNL     1      -2.831   0.456   1.553  1.00  0.00     0.045 A   
ATOM     26  C16 UNL     1      -2.643   1.033   4.313  1.00  0.00     0.037 A   
ATOM     27  C18 UNL     1      -3.416   1.576   2.105  1.00  0.00     0.109 A   
ATOM     28  C17 UNL     1      -3.323   1.858   3.445  1.00  0.00     0.108 A   
ATOM     29  O2  UNL     1      -4.126   2.514   1.425  1.00  0.00    -0.316 OA  
ATOM     30  O3  UNL     1      -3.962   3.010   3.778  1.00  0.00    -0.316 OA  
ATOM     31  C20 UNL     1      -4.497   3.409   2.498  1.00  0.00     0.337 C   
ENDBRANCH  22  23
ENDBRANCH  19  22
ENDBRANCH  18  19
BRANCH  18  32
ATOM     32  C21 UNL     1       2.114  -0.184   1.071  1.00  0.00     0.043 C   
ATOM     33  C22 UNL     1       2.465   0.283   2.503  1.00  0.00     0.010 C   
ATOM     34  C26 UNL     1       2.747   0.826   0.085  1.00  0.00     0.010 C   
ATOM     35  C23 UNL     1       1.997   1.709   2.791  1.00  0.00     0.001 C   
ATOM     36  C25 UNL     1       2.285   2.262   0.334  1.00  0.00     0.001 C   
ATOM     37  C24 UNL     1       2.554   2.698   1.771  1.00  0.00     0.000 C   
ENDBRANCH  18  32
ENDBRANCH   3  18
TORSDOF 10
