REMARK SMILES c1cc2n(n1)CC[C@@H](n1cc([C@@H]([NH2+]Cc3ccc4c(c3)OCO4)C3CCCCC3)nn1)C2
REMARK SMILES IDX 12 1 11 2 9 3 10 4 31 5 30 6 8 8 1 9 2 10 5 11 3 12 4 13
REMARK SMILES IDX 32 14 6 15 7 16 13 17 14 20 15 21 16 22 20 23 17 24 19 25
REMARK SMILES IDX 18 26 21 27 23 28 22 29 24 30 25 31 29 32 26 33 28 34 27 35
REMARK H PARENT 10 7 13 18 13 19
ROOT
ATOM     1   C9  UNL     1      -0.494  -0.596  -0.829  1.00  0.00     0.117 C   
ENDROOT
BRANCH   1   2
ATOM     2   C8  UNL     1      -0.469  -1.005   0.607  1.00  0.00     0.127 A   
ATOM     3   N3  UNL     1      -0.139  -1.292   2.730  1.00  0.00    -0.209 N   
ATOM     4   C7  UNL     1       0.218  -0.489   1.683  1.00  0.00     0.046 A   
ATOM     5   N6  UNL     1      -0.955  -2.278   2.306  1.00  0.00    -0.076 NA  
ATOM     6   N5  UNL     1      -1.163  -2.114   1.011  1.00  0.00    -0.132 NA  
ATOM     7   H8  UNL     1       0.896   0.348   1.776  1.00  0.00     0.083 HD  
BRANCH   3   8
ATOM     8   C6  UNL     1       0.247  -1.236   4.136  1.00  0.00     0.107 C   
ATOM     9   C1  UNL     1       3.821   1.627   3.814  1.00  0.00     0.133 A   
ATOM     10  C2  UNL     1       3.791   0.221   3.881  1.00  0.00     0.043 A   
ATOM     11  N2  UNL     1       2.617   2.169   4.020  1.00  0.00    -0.190 NA  
ATOM     12  C3  UNL     1       2.480  -0.087   4.167  1.00  0.00     0.032 A   
ATOM     13  N1  UNL     1       1.840   1.116   4.307  1.00  0.00    -0.230 N   
ATOM     14  C24 UNL     1       1.764  -1.379   4.346  1.00  0.00     0.078 C   
ATOM     15  C4  UNL     1       0.418   1.301   4.531  1.00  0.00     0.134 C   
ATOM     16  C5  UNL     1      -0.307  -0.002   4.874  1.00  0.00     0.046 C   
ENDBRANCH   3   8
ENDBRANCH   1   2
BRANCH   1  17
ATOM     17  N4  UNL     1      -0.528  -1.824  -1.714  1.00  0.00     0.249 N   
ATOM     18  H10 UNL     1      -1.249  -2.444  -1.316  1.00  0.00     0.199 HD  
ATOM     19  H11 UNL     1      -0.829  -1.574  -2.660  1.00  0.00     0.199 HD  
BRANCH  17  20
ATOM     20  C10 UNL     1       0.737  -2.612  -1.793  1.00  0.00     0.164 C   
BRANCH  20  21
ATOM     21  C11 UNL     1       1.825  -1.889  -2.538  1.00  0.00    -0.002 A   
ATOM     22  C12 UNL     1       1.780  -1.788  -3.950  1.00  0.00     0.012 A   
ATOM     23  C16 UNL     1       2.873  -1.271  -1.835  1.00  0.00     0.045 A   
ATOM     24  C13 UNL     1       2.760  -1.076  -4.652  1.00  0.00     0.037 A   
ATOM     25  C15 UNL     1       3.820  -0.574  -2.557  1.00  0.00     0.109 A   
ATOM     26  C14 UNL     1       3.764  -0.477  -3.925  1.00  0.00     0.108 A   
ATOM     27  O1  UNL     1       4.884   0.087  -2.031  1.00  0.00    -0.316 OA  
ATOM     28  O2  UNL     1       4.787   0.256  -4.434  1.00  0.00    -0.316 OA  
ATOM     29  C17 UNL     1       5.504   0.606  -3.230  1.00  0.00     0.337 C   
ENDBRANCH  20  21
ENDBRANCH  17  20
ENDBRANCH   1  17
BRANCH   1  30
ATOM     30  C18 UNL     1      -1.689   0.319  -1.212  1.00  0.00     0.043 C   
ATOM     31  C19 UNL     1      -1.606   1.683  -0.501  1.00  0.00     0.010 C   
ATOM     32  C23 UNL     1      -3.076  -0.313  -0.986  1.00  0.00     0.010 C   
ATOM     33  C20 UNL     1      -2.729   2.619  -0.943  1.00  0.00     0.001 C   
ATOM     34  C22 UNL     1      -4.198   0.626  -1.427  1.00  0.00     0.001 C   
ATOM     35  C21 UNL     1      -4.101   1.986  -0.743  1.00  0.00     0.000 C   
ENDBRANCH   1  30
TORSDOF 6
