REMARK SMILES c1cc2n(n1)CC[C@H](n1cc([C@@H]([NH2+]Cc3ccc4c(c3)OCO4)C3CCCCC3)nn1)C2
REMARK SMILES IDX 12 1 11 2 9 3 10 4 31 5 30 6 8 8 1 9 2 10 5 11 3 12 4 13
REMARK SMILES IDX 32 14 6 15 7 16 13 17 14 20 15 21 16 22 20 23 17 24 19 25
REMARK SMILES IDX 18 26 21 27 23 28 22 29 24 30 25 31 29 32 26 33 28 34 27 35
REMARK H PARENT 10 7 13 18 13 19
ROOT
ATOM     1   C9  UNL     1       0.009   0.374  -1.146  1.00  0.00     0.117 C   
ENDROOT
BRANCH   1   2
ATOM     2   C8  UNL     1       0.245  -0.553   0.008  1.00  0.00     0.127 A   
ATOM     3   N3  UNL     1       0.406  -1.617   1.885  1.00  0.00    -0.209 N   
ATOM     4   C7  UNL     1      -0.195  -0.529   1.314  1.00  0.00     0.046 A   
ATOM     5   N6  UNL     1       1.192  -2.250   0.996  1.00  0.00    -0.076 NA  
ATOM     6   N5  UNL     1       1.099  -1.612  -0.158  1.00  0.00    -0.132 NA  
ATOM     7   H8  UNL     1      -0.854   0.128   1.864  1.00  0.00     0.083 HD  
BRANCH   3   8
ATOM     8   C6  UNL     1       0.289  -2.097   3.254  1.00  0.00     0.107 C   
ATOM     9   C1  UNL     1       1.755  -3.587   7.340  1.00  0.00     0.133 A   
ATOM     10  C2  UNL     1       2.393  -2.743   6.408  1.00  0.00     0.043 A   
ATOM     11  N2  UNL     1       0.614  -4.094   6.866  1.00  0.00    -0.190 NA  
ATOM     12  C3  UNL     1       1.568  -2.751   5.307  1.00  0.00     0.032 A   
ATOM     13  N1  UNL     1       0.543  -3.604   5.622  1.00  0.00    -0.230 N   
ATOM     14  C24 UNL     1       1.650  -2.083   3.978  1.00  0.00     0.078 C   
ATOM     15  C4  UNL     1      -0.593  -3.907   4.774  1.00  0.00     0.134 C   
ATOM     16  C5  UNL     1      -0.346  -3.500   3.321  1.00  0.00     0.046 C   
ENDBRANCH   3   8
ENDBRANCH   1   2
BRANCH   1  17
ATOM     17  N4  UNL     1       1.328   0.526  -1.882  1.00  0.00     0.249 N   
ATOM     18  H10 UNL     1       1.757  -0.412  -1.879  1.00  0.00     0.199 HD  
ATOM     19  H11 UNL     1       1.196   0.772  -2.865  1.00  0.00     0.199 HD  
BRANCH  17  20
ATOM     20  C10 UNL     1       2.306   1.474  -1.278  1.00  0.00     0.164 C   
BRANCH  20  21
ATOM     21  C11 UNL     1       1.938   2.909  -1.539  1.00  0.00    -0.002 A   
ATOM     22  C12 UNL     1       1.377   3.708  -0.513  1.00  0.00     0.012 A   
ATOM     23  C16 UNL     1       2.114   3.458  -2.822  1.00  0.00     0.045 A   
ATOM     24  C13 UNL     1       0.989   5.030  -0.762  1.00  0.00     0.037 A   
ATOM     25  C15 UNL     1       1.727   4.765  -3.031  1.00  0.00     0.109 A   
ATOM     26  C14 UNL     1       1.177   5.529  -2.032  1.00  0.00     0.108 A   
ATOM     27  O1  UNL     1       1.834   5.442  -4.205  1.00  0.00    -0.316 OA  
ATOM     28  O2  UNL     1       0.862   6.781  -2.452  1.00  0.00    -0.316 OA  
ATOM     29  C17 UNL     1       1.339   6.744  -3.816  1.00  0.00     0.337 C   
ENDBRANCH  20  21
ENDBRANCH  17  20
ENDBRANCH   1  17
BRANCH   1  30
ATOM     30  C18 UNL     1      -1.073  -0.136  -2.143  1.00  0.00     0.043 C   
ATOM     31  C19 UNL     1      -1.354   0.901  -3.257  1.00  0.00     0.010 C   
ATOM     32  C23 UNL     1      -2.398  -0.470  -1.419  1.00  0.00     0.010 C   
ATOM     33  C20 UNL     1      -2.453   0.446  -4.215  1.00  0.00     0.001 C   
ATOM     34  C22 UNL     1      -3.503  -0.907  -2.380  1.00  0.00     0.001 C   
ATOM     35  C21 UNL     1      -3.743   0.120  -3.477  1.00  0.00     0.000 C   
ENDBRANCH   1  30
TORSDOF 6
