REMARK SMILES Cc1cc(C)cc([C@H](O)Cn2cc([C@@H]([NH2+]Cc3ccc4c(c3)OCO4)C3CCCC3)nn2)c1
REMARK SMILES IDX 11 1 12 2 13 3 31 4 32 5 10 7 8 8 7 9 2 10 3 11 33 12 4 13
REMARK SMILES IDX 6 14 1 15 5 16 9 17 14 19 15 20 16 23 17 24 18 25 22 26
REMARK SMILES IDX 19 27 21 28 20 29 23 30 25 31 24 32 26 33 27 34 30 35 28 36
REMARK SMILES IDX 29 37
REMARK H PARENT 12 6 9 18 15 21 15 22
ROOT
ATOM     1   N1  UNL     1       2.474  -0.504  -0.525  1.00  0.00    -0.209 N   
ATOM     2   C10 UNL     1       2.188  -0.907   0.750  1.00  0.00     0.045 A   
ATOM     3   C11 UNL     1       0.899  -0.467   0.954  1.00  0.00     0.127 A   
ATOM     4   N3  UNL     1       0.480   0.224  -0.156  1.00  0.00    -0.132 NA  
ATOM     5   N4  UNL     1       1.460   0.211  -1.045  1.00  0.00    -0.076 NA  
ATOM     6   H13 UNL     1       2.883  -1.485   1.345  1.00  0.00     0.083 HD  
ENDROOT
BRANCH   1   7
ATOM     7   C9  UNL     1       3.652  -0.803  -1.305  1.00  0.00     0.170 C   
BRANCH   7   8
ATOM     8   C8  UNL     1       3.381  -1.789  -2.445  1.00  0.00     0.164 C   
BRANCH   8   9
ATOM     9   C7  UNL     1       2.748  -3.089  -1.985  1.00  0.00    -0.017 A   
ATOM     10  C2  UNL     1       0.818  -4.580  -1.926  1.00  0.00    -0.051 A   
ATOM     11  C3  UNL     1       1.537  -5.466  -1.116  1.00  0.00     0.006 A   
ATOM     12  C26 UNL     1       1.435  -3.402  -2.365  1.00  0.00     0.010 A   
ATOM     13  C4  UNL     1       2.855  -5.183  -0.737  1.00  0.00    -0.051 A   
ATOM     14  C6  UNL     1       3.449  -3.989  -1.167  1.00  0.00     0.010 A   
ATOM     15  C1  UNL     1      -0.570  -4.923  -2.384  1.00  0.00     0.044 C   
ATOM     16  C5  UNL     1       3.609  -6.131   0.151  1.00  0.00     0.044 C   
ENDBRANCH   8   9
BRANCH   8  17
ATOM     17  O1  UNL     1       4.619  -2.079  -3.100  1.00  0.00    -0.387 OA  
ATOM     18  H10 UNL     1       4.474  -2.870  -3.654  1.00  0.00     0.211 HD  
ENDBRANCH   8  17
ENDBRANCH   7   8
ENDBRANCH   1   7
BRANCH   3  19
ATOM     19  C12 UNL     1      -0.011  -0.592   2.131  1.00  0.00     0.117 C   
BRANCH  19  20
ATOM     20  N2  UNL     1      -1.003   0.549   2.136  1.00  0.00     0.249 N   
ATOM     21  H15 UNL     1      -1.820   0.339   2.720  1.00  0.00     0.199 HD  
ATOM     22  H16 UNL     1      -1.351   0.639   1.169  1.00  0.00     0.199 HD  
BRANCH  20  23
ATOM     23  C13 UNL     1      -0.445   1.872   2.533  1.00  0.00     0.164 C   
BRANCH  23  24
ATOM     24  C14 UNL     1      -1.496   2.942   2.449  1.00  0.00    -0.002 A   
ATOM     25  C15 UNL     1      -2.143   3.410   3.617  1.00  0.00     0.012 A   
ATOM     26  C19 UNL     1      -1.865   3.464   1.195  1.00  0.00     0.045 A   
ATOM     27  C16 UNL     1      -3.138   4.392   3.542  1.00  0.00     0.037 A   
ATOM     28  C18 UNL     1      -2.852   4.428   1.157  1.00  0.00     0.109 A   
ATOM     29  C17 UNL     1      -3.470   4.880   2.297  1.00  0.00     0.108 A   
ATOM     30  O2  UNL     1      -3.327   5.030   0.035  1.00  0.00    -0.316 OA  
ATOM     31  O3  UNL     1      -4.408   5.828   2.037  1.00  0.00    -0.316 OA  
ATOM     32  C20 UNL     1      -4.299   5.938   0.601  1.00  0.00     0.337 C   
ENDBRANCH  23  24
ENDBRANCH  20  23
ENDBRANCH  19  20
BRANCH  19  33
ATOM     33  C21 UNL     1      -0.811  -1.907   2.192  1.00  0.00     0.043 C   
ATOM     34  C22 UNL     1       0.033  -3.180   2.314  1.00  0.00     0.010 C   
ATOM     35  C25 UNL     1      -1.696  -2.228   0.986  1.00  0.00     0.010 C   
ATOM     36  C23 UNL     1      -0.953  -4.310   2.025  1.00  0.00     0.001 C   
ATOM     37  C24 UNL     1      -2.086  -3.688   1.207  1.00  0.00     0.001 C   
ENDBRANCH  19  33
ENDBRANCH   3  19
TORSDOF 9
