REMARK SMILES Cc1cc(C)cc([C@@H](O)Cn2cc([C@@H]([NH2+]Cc3ccc4c(c3)OCO4)C3CCCC3)nn2)c1
REMARK SMILES IDX 11 1 12 2 13 3 31 4 32 5 10 7 8 8 7 9 2 10 3 11 33 12 4 13
REMARK SMILES IDX 6 14 1 15 5 16 9 17 14 19 15 20 16 23 17 24 18 25 22 26
REMARK SMILES IDX 19 27 21 28 20 29 23 30 25 31 24 32 26 33 27 34 30 35 28 36
REMARK SMILES IDX 29 37
REMARK H PARENT 12 6 9 18 15 21 15 22
ROOT
ATOM     1   N1  UNL     1      -1.661  -2.269  -2.563  1.00  0.00    -0.209 N   
ATOM     2   C10 UNL     1      -2.196  -2.256  -1.304  1.00  0.00     0.045 A   
ATOM     3   C11 UNL     1      -2.367  -0.917  -1.035  1.00  0.00     0.127 A   
ATOM     4   N3  UNL     1      -1.953  -0.181  -2.116  1.00  0.00    -0.132 NA  
ATOM     5   N4  UNL     1      -1.530  -1.020  -3.046  1.00  0.00    -0.076 NA  
ATOM     6   H13 UNL     1      -2.361  -3.160  -0.735  1.00  0.00     0.083 HD  
ENDROOT
BRANCH   1   7
ATOM     7   C9  UNL     1      -1.200  -3.409  -3.321  1.00  0.00     0.170 C   
BRANCH   7   8
ATOM     8   C8  UNL     1       0.305  -3.381  -3.609  1.00  0.00     0.164 C   
BRANCH   8   9
ATOM     9   C7  UNL     1       1.169  -3.266  -2.367  1.00  0.00    -0.017 A   
ATOM     10  C2  UNL     1       2.789  -2.015  -1.040  1.00  0.00    -0.051 A   
ATOM     11  C3  UNL     1       2.791  -3.045  -0.088  1.00  0.00     0.006 A   
ATOM     12  C26 UNL     1       1.977  -2.134  -2.175  1.00  0.00     0.010 A   
ATOM     13  C4  UNL     1       2.006  -4.191  -0.268  1.00  0.00    -0.051 A   
ATOM     14  C6  UNL     1       1.191  -4.288  -1.402  1.00  0.00     0.010 A   
ATOM     15  C1  UNL     1       3.700  -0.836  -0.861  1.00  0.00     0.044 C   
ATOM     16  C5  UNL     1       2.027  -5.295   0.750  1.00  0.00     0.044 C   
ENDBRANCH   8   9
BRANCH   8  17
ATOM     17  O1  UNL     1       0.654  -4.583  -4.301  1.00  0.00    -0.387 OA  
ATOM     18  H10 UNL     1       1.626  -4.668  -4.264  1.00  0.00     0.211 HD  
ENDBRANCH   8  17
ENDBRANCH   7   8
ENDBRANCH   1   7
BRANCH   3  19
ATOM     19  C12 UNL     1      -2.795  -0.206   0.207  1.00  0.00     0.117 C   
BRANCH  19  20
ATOM     20  N2  UNL     1      -1.803   0.895   0.490  1.00  0.00     0.249 N   
ATOM     21  H15 UNL     1      -1.645   1.378  -0.410  1.00  0.00     0.199 HD  
ATOM     22  H16 UNL     1      -2.175   1.604   1.130  1.00  0.00     0.199 HD  
BRANCH  20  23
ATOM     23  C13 UNL     1      -0.474   0.435   0.988  1.00  0.00     0.164 C   
BRANCH  23  24
ATOM     24  C14 UNL     1       0.520   1.559   0.936  1.00  0.00    -0.002 A   
ATOM     25  C15 UNL     1       0.690   2.433   2.036  1.00  0.00     0.012 A   
ATOM     26  C19 UNL     1       1.249   1.780  -0.246  1.00  0.00     0.045 A   
ATOM     27  C16 UNL     1       1.586   3.508   1.964  1.00  0.00     0.037 A   
ATOM     28  C18 UNL     1       2.133   2.837  -0.278  1.00  0.00     0.109 A   
ATOM     29  C17 UNL     1       2.289   3.685   0.792  1.00  0.00     0.108 A   
ATOM     30  O2  UNL     1       2.924   3.173  -1.330  1.00  0.00    -0.316 OA  
ATOM     31  O3  UNL     1       3.188   4.672   0.544  1.00  0.00    -0.316 OA  
ATOM     32  C20 UNL     1       3.630   4.310  -0.786  1.00  0.00     0.337 C   
ENDBRANCH  23  24
ENDBRANCH  20  23
ENDBRANCH  19  20
BRANCH  19  33
ATOM     33  C21 UNL     1      -4.194   0.420   0.072  1.00  0.00     0.043 C   
ATOM     34  C22 UNL     1      -4.687   1.129   1.343  1.00  0.00     0.010 C   
ATOM     35  C25 UNL     1      -5.300  -0.607  -0.186  1.00  0.00     0.010 C   
ATOM     36  C23 UNL     1      -6.214   1.049   1.311  1.00  0.00     0.001 C   
ATOM     37  C24 UNL     1      -6.572   0.167   0.123  1.00  0.00     0.001 C   
ENDBRANCH  19  33
ENDBRANCH   3  19
TORSDOF 9
