REMARK SMILES CC(C)(C)[C@H]([NH2+]Cc1ccc2c(c1)OCO2)c1cn([C@@H](CO)c2ccc(F)cc2)nn1
REMARK SMILES IDX 17 1 18 2 19 3 30 4 31 5 5 7 2 8 1 9 3 10 4 11 6 12 7 15
REMARK SMILES IDX 8 16 9 17 13 18 10 19 12 20 11 21 14 22 16 23 15 24 20 25
REMARK SMILES IDX 21 26 22 27 23 29 24 30 29 31 25 32 28 33 26 34 27 35
REMARK H PARENT 18 6 6 13 6 14 22 28
ROOT
ATOM     1   C14 UNL     1      -1.062  -0.198  -0.530  1.00  0.00     0.127 A   
ATOM     2   C15 UNL     1      -1.288   0.969   0.163  1.00  0.00     0.046 A   
ATOM     3   N2  UNL     1      -0.641   0.785   1.355  1.00  0.00    -0.202 N   
ATOM     4   N3  UNL     1       0.002  -0.402   1.366  1.00  0.00    -0.075 NA  
ATOM     5   N4  UNL     1      -0.258  -1.016   0.223  1.00  0.00    -0.132 NA  
ATOM     6   H20 UNL     1      -1.837   1.875  -0.059  1.00  0.00     0.083 HD  
ENDROOT
BRANCH   1   7
ATOM     7   C5  UNL     1      -1.478  -0.627  -1.904  1.00  0.00     0.120 C   
BRANCH   7   8
ATOM     8   C2  UNL     1      -2.849  -1.390  -1.951  1.00  0.00     0.010 C   
ATOM     9   C1  UNL     1      -3.261  -1.663  -3.417  1.00  0.00     0.017 C   
ATOM     10  C3  UNL     1      -2.805  -2.736  -1.201  1.00  0.00     0.017 C   
ATOM     11  C4  UNL     1      -3.967  -0.523  -1.327  1.00  0.00     0.017 C   
ENDBRANCH   7   8
BRANCH   7  12
ATOM     12  N1  UNL     1      -0.381  -1.483  -2.493  1.00  0.00     0.250 N   
ATOM     13  H11 UNL     1      -0.707  -2.064  -3.268  1.00  0.00     0.199 HD  
ATOM     14  H12 UNL     1      -0.088  -2.135  -1.749  1.00  0.00     0.199 HD  
BRANCH  12  15
ATOM     15  C6  UNL     1       0.837  -0.744  -2.929  1.00  0.00     0.164 C   
BRANCH  15  16
ATOM     16  C7  UNL     1       1.888  -1.707  -3.405  1.00  0.00    -0.002 A   
ATOM     17  C8  UNL     1       2.801  -2.273  -2.482  1.00  0.00     0.012 A   
ATOM     18  C12 UNL     1       1.932  -2.098  -4.753  1.00  0.00     0.045 A   
ATOM     19  C9  UNL     1       3.755  -3.207  -2.899  1.00  0.00     0.037 A   
ATOM     20  C11 UNL     1       2.884  -3.023  -5.129  1.00  0.00     0.109 A   
ATOM     21  C10 UNL     1       3.770  -3.561  -4.229  1.00  0.00     0.108 A   
ATOM     22  O1  UNL     1       3.060  -3.509  -6.386  1.00  0.00    -0.316 OA  
ATOM     23  O2  UNL     1       4.618  -4.452  -4.807  1.00  0.00    -0.316 OA  
ATOM     24  C13 UNL     1       4.180  -4.400  -6.181  1.00  0.00     0.337 C   
ENDBRANCH  15  16
ENDBRANCH  12  15
ENDBRANCH   7  12
ENDBRANCH   1   7
BRANCH   3  25
ATOM     25  C16 UNL     1      -0.589   1.665   2.523  1.00  0.00     0.155 C   
BRANCH  25  26
ATOM     26  C17 UNL     1       0.437   2.799   2.324  1.00  0.00     0.185 C   
BRANCH  26  27
ATOM     27  O3  UNL     1       0.186   3.585   1.157  1.00  0.00    -0.394 OA  
ATOM     28  H24 UNL     1       0.830   4.319   1.168  1.00  0.00     0.210 HD  
ENDBRANCH  26  27
ENDBRANCH  25  26
BRANCH  25  29
ATOM     29  C18 UNL     1      -1.997   2.060   2.959  1.00  0.00    -0.023 A   
ATOM     30  C19 UNL     1      -2.564   3.314   2.674  1.00  0.00     0.009 A   
ATOM     31  C23 UNL     1      -2.780   1.117   3.658  1.00  0.00     0.009 A   
ATOM     32  C20 UNL     1      -3.867   3.617   3.080  1.00  0.00     0.039 A   
ATOM     33  C22 UNL     1      -4.080   1.422   4.062  1.00  0.00     0.039 A   
ATOM     34  C21 UNL     1      -4.612   2.670   3.770  1.00  0.00     0.123 A   
ATOM     35  F1  UNL     1      -5.861   2.963   4.153  1.00  0.00    -0.207 F   
ENDBRANCH  25  29
ENDBRANCH   3  25
TORSDOF 9
