REMARK SMILES CC(C)(C)[C@H]([NH2+]Cc1ccc2c(c1)OCO2)c1cn([C@H](CO)c2ccc(F)cc2)nn1
REMARK SMILES IDX 17 1 18 2 19 3 30 4 31 5 5 7 2 8 1 9 3 10 4 11 6 12 7 15
REMARK SMILES IDX 8 16 9 17 13 18 10 19 12 20 11 21 14 22 16 23 15 24 20 25
REMARK SMILES IDX 21 26 22 27 23 29 24 30 29 31 25 32 28 33 26 34 27 35
REMARK H PARENT 18 6 6 13 6 14 22 28
ROOT
ATOM     1   C14 UNL     1       1.172   0.524  -1.261  1.00  0.00     0.127 A   
ATOM     2   C15 UNL     1       1.121   1.075  -0.002  1.00  0.00     0.046 A   
ATOM     3   N2  UNL     1       1.792   2.262  -0.125  1.00  0.00    -0.202 N   
ATOM     4   N3  UNL     1       2.215   2.436  -1.395  1.00  0.00    -0.075 NA  
ATOM     5   N4  UNL     1       1.848   1.375  -2.096  1.00  0.00    -0.132 NA  
ATOM     6   H20 UNL     1       0.677   0.759   0.932  1.00  0.00     0.083 HD  
ENDROOT
BRANCH   1   7
ATOM     7   C5  UNL     1       0.542  -0.719  -1.806  1.00  0.00     0.120 C   
BRANCH   7   8
ATOM     8   C2  UNL     1       1.508  -1.956  -1.867  1.00  0.00     0.010 C   
ATOM     9   C1  UNL     1       2.083  -2.247  -0.461  1.00  0.00     0.017 C   
ATOM     10  C3  UNL     1       2.688  -1.750  -2.838  1.00  0.00     0.017 C   
ATOM     11  C4  UNL     1       0.736  -3.220  -2.309  1.00  0.00     0.017 C   
ENDBRANCH   7   8
BRANCH   7  12
ATOM     12  N1  UNL     1      -0.035  -0.430  -3.179  1.00  0.00     0.250 N   
ATOM     13  H11 UNL     1      -0.359  -1.289  -3.626  1.00  0.00     0.199 HD  
ATOM     14  H12 UNL     1       0.737  -0.055  -3.746  1.00  0.00     0.199 HD  
BRANCH  12  15
ATOM     15  C6  UNL     1      -1.140   0.579  -3.238  1.00  0.00     0.164 C   
BRANCH  15  16
ATOM     16  C7  UNL     1      -2.352   0.184  -2.441  1.00  0.00    -0.002 A   
ATOM     17  C8  UNL     1      -2.677   0.878  -1.250  1.00  0.00     0.012 A   
ATOM     18  C12 UNL     1      -3.153  -0.895  -2.854  1.00  0.00     0.045 A   
ATOM     19  C9  UNL     1      -3.778   0.500  -0.475  1.00  0.00     0.037 A   
ATOM     20  C11 UNL     1      -4.230  -1.242  -2.065  1.00  0.00     0.109 A   
ATOM     21  C10 UNL     1      -4.534  -0.566  -0.909  1.00  0.00     0.108 A   
ATOM     22  O1  UNL     1      -5.094  -2.260  -2.315  1.00  0.00    -0.316 OA  
ATOM     23  O2  UNL     1      -5.629  -1.073  -0.286  1.00  0.00    -0.316 OA  
ATOM     24  C13 UNL     1      -6.002  -2.129  -1.196  1.00  0.00     0.337 C   
ENDBRANCH  15  16
ENDBRANCH  12  15
ENDBRANCH   7  12
ENDBRANCH   1   7
BRANCH   3  25
ATOM     25  C16 UNL     1       1.976   3.319   0.870  1.00  0.00     0.155 C   
BRANCH  25  26
ATOM     26  C17 UNL     1       2.997   2.910   1.952  1.00  0.00     0.185 C   
BRANCH  26  27
ATOM     27  O3  UNL     1       2.637   1.714   2.644  1.00  0.00    -0.394 OA  
ATOM     28  H24 UNL     1       3.328   1.557   3.316  1.00  0.00     0.210 HD  
ENDBRANCH  26  27
ENDBRANCH  25  26
BRANCH  25  29
ATOM     29  C18 UNL     1       0.615   3.832   1.337  1.00  0.00    -0.023 A   
ATOM     30  C19 UNL     1       0.020   3.431   2.546  1.00  0.00     0.009 A   
ATOM     31  C23 UNL     1      -0.100   4.715   0.501  1.00  0.00     0.009 A   
ATOM     32  C20 UNL     1      -1.246   3.900   2.907  1.00  0.00     0.039 A   
ATOM     33  C22 UNL     1      -1.365   5.181   0.865  1.00  0.00     0.039 A   
ATOM     34  C21 UNL     1      -1.927   4.768   2.064  1.00  0.00     0.123 A   
ATOM     35  F1  UNL     1      -3.144   5.205   2.409  1.00  0.00    -0.207 F   
ENDBRANCH  25  29
ENDBRANCH   3  25
TORSDOF 9
