REMARK SMILES COc1ccc(-n2cc([C@@H]([NH2+]Cc3ccc4c(c3)OCO4)C(C)(C)C)nn2)cc1OC
REMARK SMILES IDX 7 1 8 2 9 3 26 4 27 5 6 6 3 7 4 8 29 9 5 10 28 11 2 12 1 13
REMARK SMILES IDX 30 14 31 15 10 16 11 17 12 20 13 21 14 22 18 23 15 24 17 25
REMARK SMILES IDX 16 26 19 27 21 28 20 29 22 30 23 31 24 32 25 33
REMARK H PARENT 11 18 11 19
ROOT
ATOM     1   N1  UNL     1       0.839  -1.461  -0.888  1.00  0.00    -0.181 N   
ATOM     2   C6  UNL     1       0.500  -1.834   0.400  1.00  0.00     0.135 A   
ATOM     3   C7  UNL     1      -0.457  -0.926   0.797  1.00  0.00     0.128 A   
ATOM     4   N3  UNL     1      -0.647  -0.015  -0.203  1.00  0.00    -0.131 NA  
ATOM     5   N4  UNL     1       0.149  -0.336  -1.209  1.00  0.00    -0.071 NA  
ENDROOT
BRANCH   1   6
ATOM     6   C5  UNL     1       1.747  -2.071  -1.786  1.00  0.00     0.060 A   
ATOM     7   C2  UNL     1       3.508  -3.290  -3.625  1.00  0.00     0.105 A   
ATOM     8   C3  UNL     1       2.836  -2.112  -3.962  1.00  0.00     0.038 A   
ATOM     9   C22 UNL     1       3.318  -3.827  -2.342  1.00  0.00     0.107 A   
ATOM     10  C4  UNL     1       1.964  -1.503  -3.050  1.00  0.00     0.029 A   
ATOM     11  C21 UNL     1       2.428  -3.242  -1.435  1.00  0.00     0.062 A   
BRANCH   7  12
ATOM     12  O1  UNL     1       4.347  -3.973  -4.461  1.00  0.00    -0.347 OA  
ATOM     13  C1  UNL     1       4.360  -3.596  -5.830  1.00  0.00     0.203 C   
ENDBRANCH   7  12
BRANCH   9  14
ATOM     14  O4  UNL     1       3.901  -5.000  -1.934  1.00  0.00    -0.347 OA  
ATOM     15  C23 UNL     1       5.302  -4.837  -1.715  1.00  0.00     0.203 C   
ENDBRANCH   9  14
ENDBRANCH   1   6
BRANCH   3  16
ATOM     16  C8  UNL     1      -1.207  -0.772   2.088  1.00  0.00     0.120 C   
BRANCH  16  17
ATOM     17  N2  UNL     1      -1.494   0.694   2.315  1.00  0.00     0.250 N   
ATOM     18  H8  UNL     1      -1.824   1.076   1.415  1.00  0.00     0.199 HD  
ATOM     19  H9  UNL     1      -2.255   0.849   2.980  1.00  0.00     0.199 HD  
BRANCH  17  20
ATOM     20  C9  UNL     1      -0.328   1.520   2.738  1.00  0.00     0.164 C   
BRANCH  20  21
ATOM     21  C10 UNL     1      -0.735   2.957   2.900  1.00  0.00    -0.002 A   
ATOM     22  C11 UNL     1      -1.141   3.447   4.163  1.00  0.00     0.012 A   
ATOM     23  C15 UNL     1      -0.767   3.809   1.783  1.00  0.00     0.045 A   
ATOM     24  C12 UNL     1      -1.561   4.773   4.317  1.00  0.00     0.037 A   
ATOM     25  C14 UNL     1      -1.186   5.110   1.971  1.00  0.00     0.109 A   
ATOM     26  C13 UNL     1      -1.572   5.580   3.201  1.00  0.00     0.108 A   
ATOM     27  O2  UNL     1      -1.277   6.060   1.003  1.00  0.00    -0.316 OA  
ATOM     28  O3  UNL     1      -1.948   6.885   3.165  1.00  0.00    -0.316 OA  
ATOM     29  C16 UNL     1      -1.724   7.198   1.775  1.00  0.00     0.337 C   
ENDBRANCH  20  21
ENDBRANCH  17  20
ENDBRANCH  16  17
BRANCH  16  30
ATOM     30  C17 UNL     1      -2.537  -1.601   2.162  1.00  0.00     0.010 C   
ATOM     31  C18 UNL     1      -3.580  -1.140   1.125  1.00  0.00     0.017 C   
ATOM     32  C19 UNL     1      -2.250  -3.101   1.925  1.00  0.00     0.017 C   
ATOM     33  C20 UNL     1      -3.162  -1.486   3.572  1.00  0.00     0.017 C   
ENDBRANCH  16  30
ENDBRANCH   3  16
TORSDOF 8
