REMARK SMILES CC(C)(C)[C@H]([NH2+]Cc1ccc2c(c1)OCO2)c1cn(-c2cccc(CN)c2)nn1
REMARK SMILES IDX 17 1 18 2 19 3 28 4 29 5 5 6 2 7 1 8 3 9 4 10 6 11 7 14 8 15
REMARK SMILES IDX 9 16 13 17 10 18 12 19 11 20 14 21 16 22 15 23 20 24 21 25
REMARK SMILES IDX 27 26 22 27 24 28 23 29 25 30 26 31
REMARK H PARENT 6 12 6 13 26 32 26 33
ROOT
ATOM     1   C14 UNL     1      -0.734   0.039  -0.491  1.00  0.00     0.128 A   
ATOM     2   C15 UNL     1      -1.481  -0.972  -1.054  1.00  0.00     0.135 A   
ATOM     3   N2  UNL     1      -0.585  -1.709  -1.805  1.00  0.00    -0.181 N   
ATOM     4   N4  UNL     1       0.655  -1.175  -1.646  1.00  0.00    -0.071 NA  
ATOM     5   N5  UNL     1       0.572  -0.113  -0.863  1.00  0.00    -0.131 NA  
ENDROOT
BRANCH   1   6
ATOM     6   C5  UNL     1      -1.109   1.146   0.450  1.00  0.00     0.120 C   
BRANCH   6   7
ATOM     7   C2  UNL     1      -1.550   2.473  -0.264  1.00  0.00     0.010 C   
ATOM     8   C1  UNL     1      -2.736   2.199  -1.218  1.00  0.00     0.017 C   
ATOM     9   C3  UNL     1      -2.044   3.507   0.775  1.00  0.00     0.017 C   
ATOM     10  C4  UNL     1      -0.410   3.115  -1.081  1.00  0.00     0.017 C   
ENDBRANCH   6   7
BRANCH   6  11
ATOM     11  N1  UNL     1       0.054   1.412   1.378  1.00  0.00     0.250 N   
ATOM     12  H11 UNL     1       0.899   1.461   0.789  1.00  0.00     0.199 HD  
ATOM     13  H12 UNL     1      -0.018   2.319   1.847  1.00  0.00     0.199 HD  
BRANCH  11  14
ATOM     14  C6  UNL     1       0.303   0.367   2.412  1.00  0.00     0.164 C   
BRANCH  14  15
ATOM     15  C7  UNL     1       1.492   0.736   3.253  1.00  0.00    -0.002 A   
ATOM     16  C8  UNL     1       1.318   1.381   4.500  1.00  0.00     0.012 A   
ATOM     17  C12 UNL     1       2.792   0.485   2.777  1.00  0.00     0.045 A   
ATOM     18  C9  UNL     1       2.421   1.762   5.271  1.00  0.00     0.037 A   
ATOM     19  C11 UNL     1       3.857   0.877   3.561  1.00  0.00     0.109 A   
ATOM     20  C10 UNL     1       3.678   1.496   4.774  1.00  0.00     0.108 A   
ATOM     21  O1  UNL     1       5.170   0.713   3.251  1.00  0.00    -0.316 OA  
ATOM     22  O2  UNL     1       4.854   1.796   5.381  1.00  0.00    -0.316 OA  
ATOM     23  C13 UNL     1       5.801   1.282   4.420  1.00  0.00     0.337 C   
ENDBRANCH  14  15
ENDBRANCH  11  14
ENDBRANCH   6  11
ENDBRANCH   1   6
BRANCH   3  24
ATOM     24  C16 UNL     1      -0.819  -2.848  -2.612  1.00  0.00     0.058 A   
ATOM     25  C17 UNL     1       0.251  -3.450  -3.288  1.00  0.00     0.026 A   
ATOM     26  C22 UNL     1      -2.108  -3.380  -2.750  1.00  0.00     0.031 A   
ATOM     27  C18 UNL     1       0.029  -4.570  -4.091  1.00  0.00     0.002 A   
ATOM     28  C20 UNL     1      -2.339  -4.503  -3.564  1.00  0.00    -0.032 A   
ATOM     29  C19 UNL     1      -1.256  -5.094  -4.228  1.00  0.00     0.005 A   
BRANCH  28  30
ATOM     30  C21 UNL     1      -3.729  -5.073  -3.702  1.00  0.00     0.113 C   
BRANCH  30  31
ATOM     31  N3  UNL     1      -4.676  -4.058  -4.151  1.00  0.00    -0.327 NA  
ATOM     32  H26 UNL     1      -4.393  -3.740  -5.079  1.00  0.00     0.119 HD  
ATOM     33  H27 UNL     1      -5.587  -4.498  -4.282  1.00  0.00     0.119 HD  
ENDBRANCH  30  31
ENDBRANCH  28  30
ENDBRANCH   3  24
TORSDOF 8
