REMARK SMILES Cc1cc([C@@H](CO)n2cc([C@@H]([NH2+]Cc3ccc4c(c3)OCO4)C(C)(C)C)nn2)c(C)[nH]1
REMARK SMILES IDX 8 1 9 2 10 3 27 4 28 5 5 7 4 8 2 9 3 10 31 11 29 12 1 13
REMARK SMILES IDX 30 15 6 16 7 17 11 19 12 20 13 23 14 24 15 25 19 26 16 27
REMARK SMILES IDX 18 28 17 29 20 30 22 31 21 32 23 33 24 34 25 35 26 36
REMARK H PARENT 9 6 31 14 7 18 12 21 12 22
ROOT
ATOM     1   N1  UNL     1      -0.239  -0.973  -2.209  1.00  0.00    -0.202 N   
ATOM     2   C7  UNL     1      -0.171   0.098  -1.356  1.00  0.00     0.046 A   
ATOM     3   C8  UNL     1       1.162   0.429  -1.332  1.00  0.00     0.127 A   
ATOM     4   N3  UNL     1       1.857  -0.438  -2.139  1.00  0.00    -0.132 NA  
ATOM     5   N4  UNL     1       0.995  -1.293  -2.664  1.00  0.00    -0.075 NA  
ATOM     6   H9  UNL     1      -1.048   0.501  -0.871  1.00  0.00     0.083 HD  
ENDROOT
BRANCH   1   7
ATOM     7   C5  UNL     1      -1.407  -1.747  -2.625  1.00  0.00     0.157 C   
BRANCH   7   8
ATOM     8   C4  UNL     1      -2.197  -2.206  -1.417  1.00  0.00    -0.005 A   
ATOM     9   C2  UNL     1      -3.715  -2.290   0.277  1.00  0.00     0.004 A   
ATOM     10  C3  UNL     1      -3.275  -1.520  -0.776  1.00  0.00     0.026 A   
ATOM     11  N5  UNL     1      -2.948  -3.428   0.304  1.00  0.00    -0.322 N   
ATOM     12  C22 UNL     1      -2.015  -3.390  -0.708  1.00  0.00     0.009 A   
ATOM     13  C1  UNL     1      -4.805  -2.053   1.259  1.00  0.00     0.061 C   
ATOM     14  H32 UNL     1      -3.059  -4.188   0.962  1.00  0.00     0.152 HD  
ATOM     15  C23 UNL     1      -1.041  -4.503  -0.906  1.00  0.00     0.062 C   
ENDBRANCH   7   8
BRANCH   7  16
ATOM     16  C6  UNL     1      -2.224  -1.012  -3.704  1.00  0.00     0.186 C   
BRANCH  16  17
ATOM     17  O1  UNL     1      -2.669   0.284  -3.292  1.00  0.00    -0.394 OA  
ATOM     18  H8  UNL     1      -3.245   0.623  -4.002  1.00  0.00     0.210 HD  
ENDBRANCH  16  17
ENDBRANCH   7  16
ENDBRANCH   1   7
BRANCH   3  19
ATOM     19  C9  UNL     1       1.896   1.461  -0.536  1.00  0.00     0.120 C   
BRANCH  19  20
ATOM     20  N2  UNL     1       3.241   0.893  -0.117  1.00  0.00     0.250 N   
ATOM     21  H11 UNL     1       3.853   1.623   0.251  1.00  0.00     0.199 HD  
ATOM     22  H12 UNL     1       3.675   0.527  -0.976  1.00  0.00     0.199 HD  
BRANCH  20  23
ATOM     23  C10 UNL     1       3.201  -0.238   0.860  1.00  0.00     0.164 C   
BRANCH  23  24
ATOM     24  C11 UNL     1       2.709   0.177   2.219  1.00  0.00    -0.002 A   
ATOM     25  C12 UNL     1       3.529   0.953   3.074  1.00  0.00     0.012 A   
ATOM     26  C16 UNL     1       1.414  -0.178   2.637  1.00  0.00     0.045 A   
ATOM     27  C13 UNL     1       3.064   1.373   4.326  1.00  0.00     0.037 A   
ATOM     28  C15 UNL     1       0.988   0.254   3.876  1.00  0.00     0.109 A   
ATOM     29  C14 UNL     1       1.788   1.008   4.698  1.00  0.00     0.108 A   
ATOM     30  O2  UNL     1      -0.234   0.009   4.423  1.00  0.00    -0.316 OA  
ATOM     31  O3  UNL     1       1.175   1.328   5.868  1.00  0.00    -0.316 OA  
ATOM     32  C17 UNL     1      -0.105   0.683   5.696  1.00  0.00     0.337 C   
ENDBRANCH  23  24
ENDBRANCH  20  23
ENDBRANCH  19  20
BRANCH  19  33
ATOM     33  C18 UNL     1       2.089   2.833  -1.277  1.00  0.00     0.010 C   
ATOM     34  C19 UNL     1       2.729   3.871  -0.325  1.00  0.00     0.017 C   
ATOM     35  C20 UNL     1       2.980   2.718  -2.530  1.00  0.00     0.017 C   
ATOM     36  C21 UNL     1       0.715   3.402  -1.704  1.00  0.00     0.017 C   
ENDBRANCH  19  33
ENDBRANCH   3  19
TORSDOF 9
