REMARK SMILES Cc1cc([C@H](CO)n2cc([C@@H]([NH2+]Cc3ccc4c(c3)OCO4)C(C)(C)C)nn2)c(C)[nH]1
REMARK SMILES IDX 8 1 9 2 10 3 27 4 28 5 5 7 4 8 2 9 3 10 31 11 29 12 1 13
REMARK SMILES IDX 30 15 6 16 7 17 11 19 12 20 13 23 14 24 15 25 19 26 16 27
REMARK SMILES IDX 18 28 17 29 20 30 22 31 21 32 23 33 24 34 25 35 26 36
REMARK H PARENT 9 6 31 14 7 18 12 21 12 22
ROOT
ATOM     1   N1  UNL     1      -0.126  -1.461   2.789  1.00  0.00    -0.202 N   
ATOM     2   C7  UNL     1      -0.150  -0.533   1.782  1.00  0.00     0.046 A   
ATOM     3   C8  UNL     1      -0.341  -1.277   0.641  1.00  0.00     0.127 A   
ATOM     4   N3  UNL     1      -0.387  -2.607   0.972  1.00  0.00    -0.132 NA  
ATOM     5   N4  UNL     1      -0.245  -2.710   2.283  1.00  0.00    -0.075 NA  
ATOM     6   H9  UNL     1      -0.028   0.525   1.973  1.00  0.00     0.083 HD  
ENDROOT
BRANCH   1   7
ATOM     7   C5  UNL     1       0.053  -1.261   4.226  1.00  0.00     0.157 C   
BRANCH   7   8
ATOM     8   C4  UNL     1      -0.804  -0.113   4.724  1.00  0.00    -0.005 A   
ATOM     9   C2  UNL     1      -1.486   1.936   5.437  1.00  0.00     0.004 A   
ATOM     10  C3  UNL     1      -0.394   1.230   4.981  1.00  0.00     0.026 A   
ATOM     11  N5  UNL     1      -2.552   1.076   5.463  1.00  0.00    -0.322 N   
ATOM     12  C22 UNL     1      -2.161  -0.168   5.027  1.00  0.00     0.009 A   
ATOM     13  C1  UNL     1      -1.614   3.350   5.871  1.00  0.00     0.061 C   
ATOM     14  H32 UNL     1      -3.488   1.322   5.764  1.00  0.00     0.152 HD  
ATOM     15  C23 UNL     1      -3.130  -1.297   4.955  1.00  0.00     0.062 C   
ENDBRANCH   7   8
BRANCH   7  16
ATOM     16  C6  UNL     1       1.546  -1.175   4.596  1.00  0.00     0.186 C   
BRANCH  16  17
ATOM     17  O1  UNL     1       2.250  -0.161   3.869  1.00  0.00    -0.394 OA  
ATOM     18  H8  UNL     1       3.081   0.003   4.352  1.00  0.00     0.210 HD  
ENDBRANCH  16  17
ENDBRANCH   7  16
ENDBRANCH   1   7
BRANCH   3  19
ATOM     19  C9  UNL     1      -0.396  -0.866  -0.797  1.00  0.00     0.120 C   
BRANCH  19  20
ATOM     20  N2  UNL     1       0.357  -1.893  -1.620  1.00  0.00     0.250 N   
ATOM     21  H11 UNL     1       0.000  -2.811  -1.320  1.00  0.00     0.199 HD  
ATOM     22  H12 UNL     1       0.152  -1.796  -2.616  1.00  0.00     0.199 HD  
BRANCH  20  23
ATOM     23  C10 UNL     1       1.840  -1.923  -1.436  1.00  0.00     0.164 C   
BRANCH  23  24
ATOM     24  C11 UNL     1       2.522  -0.712  -2.008  1.00  0.00    -0.002 A   
ATOM     25  C12 UNL     1       3.040   0.288  -1.149  1.00  0.00     0.012 A   
ATOM     26  C16 UNL     1       2.624  -0.549  -3.401  1.00  0.00     0.045 A   
ATOM     27  C13 UNL     1       3.648   1.435  -1.668  1.00  0.00     0.037 A   
ATOM     28  C15 UNL     1       3.231   0.594  -3.879  1.00  0.00     0.109 A   
ATOM     29  C14 UNL     1       3.728   1.558  -3.037  1.00  0.00     0.108 A   
ATOM     30  O2  UNL     1       3.405   0.908  -5.190  1.00  0.00    -0.316 OA  
ATOM     31  O3  UNL     1       4.280   2.600  -3.712  1.00  0.00    -0.316 OA  
ATOM     32  C17 UNL     1       4.101   2.170  -5.080  1.00  0.00     0.337 C   
ENDBRANCH  23  24
ENDBRANCH  20  23
ENDBRANCH  19  20
BRANCH  19  33
ATOM     33  C18 UNL     1      -1.850  -0.677  -1.358  1.00  0.00     0.010 C   
ATOM     34  C19 UNL     1      -2.651  -1.993  -1.402  1.00  0.00     0.017 C   
ATOM     35  C20 UNL     1      -2.630   0.336  -0.489  1.00  0.00     0.017 C   
ATOM     36  C21 UNL     1      -1.798  -0.092  -2.789  1.00  0.00     0.017 C   
ENDBRANCH  19  33
ENDBRANCH   3  19
TORSDOF 9
