REMARK SMILES CC(C)C[C@H]([NH2+]Cc1ccc2c(c1)OCO2)c1cn(CCc2cn[nH]c2)nn1
REMARK SMILES IDX 17 1 18 2 19 3 27 4 28 5 5 7 4 8 2 9 1 10 3 11 6 12 7 15
REMARK SMILES IDX 8 16 9 17 13 18 10 19 12 20 11 21 14 22 16 23 15 24 20 25
REMARK SMILES IDX 21 26 22 27 23 28 26 29 24 30 25 31
REMARK H PARENT 18 6 6 13 6 14 25 32
ROOT
ATOM     1   C14 UNL     1       0.865  -1.775  -1.057  1.00  0.00     0.127 A   
ATOM     2   C15 UNL     1       1.918  -2.595  -0.711  1.00  0.00     0.045 A   
ATOM     3   N2  UNL     1       2.977  -2.064  -1.405  1.00  0.00    -0.212 N   
ATOM     4   N5  UNL     1       2.556  -1.133  -2.281  1.00  0.00    -0.076 NA  
ATOM     5   N6  UNL     1       1.269  -0.920  -2.050  1.00  0.00    -0.132 NA  
ATOM     6   H20 UNL     1       2.052  -3.341   0.060  1.00  0.00     0.083 HD  
ENDROOT
BRANCH   1   7
ATOM     7   C5  UNL     1      -0.458  -1.578  -0.391  1.00  0.00     0.114 C   
BRANCH   7   8
ATOM     8   C4  UNL     1      -1.650  -2.067  -1.236  1.00  0.00     0.064 C   
BRANCH   8   9
ATOM     9   C2  UNL     1      -1.820  -1.565  -2.688  1.00  0.00    -0.012 C   
ATOM     10  C1  UNL     1      -2.111  -0.071  -2.810  1.00  0.00     0.007 C   
ATOM     11  C3  UNL     1      -2.961  -2.348  -3.355  1.00  0.00     0.007 C   
ENDBRANCH   8   9
ENDBRANCH   7   8
BRANCH   7  12
ATOM     12  N1  UNL     1      -0.569  -0.153   0.061  1.00  0.00     0.249 N   
ATOM     13  H11 UNL     1      -0.415   0.470  -0.739  1.00  0.00     0.199 HD  
ATOM     14  H12 UNL     1       0.263   0.045   0.658  1.00  0.00     0.199 HD  
BRANCH  12  15
ATOM     15  C6  UNL     1      -1.754   0.260   0.841  1.00  0.00     0.164 C   
BRANCH  15  16
ATOM     16  C7  UNL     1      -1.684   1.716   1.210  1.00  0.00    -0.002 A   
ATOM     17  C8  UNL     1      -2.197   2.700   0.332  1.00  0.00     0.012 A   
ATOM     18  C12 UNL     1      -1.063   2.113   2.406  1.00  0.00     0.045 A   
ATOM     19  C9  UNL     1      -2.105   4.061   0.644  1.00  0.00     0.037 A   
ATOM     20  C11 UNL     1      -0.988   3.462   2.684  1.00  0.00     0.109 A   
ATOM     21  C10 UNL     1      -1.494   4.409   1.829  1.00  0.00     0.108 A   
ATOM     22  O1  UNL     1      -0.425   4.010   3.793  1.00  0.00    -0.316 OA  
ATOM     23  O2  UNL     1      -1.315   5.674   2.290  1.00  0.00    -0.316 OA  
ATOM     24  C13 UNL     1      -0.641   5.417   3.541  1.00  0.00     0.337 C   
ENDBRANCH  15  16
ENDBRANCH  12  15
ENDBRANCH   7  12
ENDBRANCH   1   7
BRANCH   3  25
ATOM     25  C16 UNL     1       4.372  -2.109  -1.001  1.00  0.00     0.139 C   
BRANCH  25  26
ATOM     26  C17 UNL     1       4.804  -0.846  -0.226  1.00  0.00     0.060 C   
BRANCH  26  27
ATOM     27  C18 UNL     1       3.817  -0.445   0.827  1.00  0.00    -0.011 A   
ATOM     28  C19 UNL     1       2.745   0.468   0.671  1.00  0.00     0.136 A   
ATOM     29  C20 UNL     1       3.668  -0.910   2.114  1.00  0.00     0.097 A   
ATOM     30  N3  UNL     1       1.864   0.397   1.679  1.00  0.00    -0.193 NA  
ATOM     31  N4  UNL     1       2.548  -0.307   2.614  1.00  0.00    -0.246 N   
ATOM     32  H26 UNL     1       2.173  -0.372   3.557  1.00  0.00     0.175 HD  
ENDBRANCH  26  27
ENDBRANCH  25  26
ENDBRANCH   3  25
TORSDOF 9
