REMARK SMILES CC(C)[C@H]([NH2+]Cc1ccc2c(c1)OCO2)c1cn(-c2cccc(CO)c2)nn1
REMARK SMILES IDX 16 1 17 2 18 3 27 4 28 5 4 6 2 7 1 8 3 9 5 10 6 13 7 14 8 15
REMARK SMILES IDX 12 16 9 17 11 18 10 19 13 20 15 21 14 22 19 23 20 24 26 25
REMARK SMILES IDX 21 26 23 27 22 28 24 29 25 30
REMARK H PARENT 5 11 5 12 25 31
ROOT
ATOM     1   C13 UNL     1       0.208  -0.866   0.163  1.00  0.00     0.127 A   
ATOM     2   C14 UNL     1       0.606  -0.555   1.444  1.00  0.00     0.135 A   
ATOM     3   N2  UNL     1       1.949  -0.879   1.494  1.00  0.00    -0.181 N   
ATOM     4   N3  UNL     1       2.329  -1.341   0.273  1.00  0.00    -0.071 NA  
ATOM     5   N4  UNL     1       1.280  -1.348  -0.533  1.00  0.00    -0.131 NA  
ENDROOT
BRANCH   1   6
ATOM     6   C4  UNL     1      -1.117  -0.729  -0.517  1.00  0.00     0.117 C   
BRANCH   6   7
ATOM     7   C2  UNL     1      -2.075  -1.901  -0.171  1.00  0.00     0.037 C   
ATOM     8   C1  UNL     1      -1.645  -3.252  -0.756  1.00  0.00     0.014 C   
ATOM     9   C3  UNL     1      -3.519  -1.593  -0.586  1.00  0.00     0.014 C   
ENDBRANCH   6   7
BRANCH   6  10
ATOM     10  N1  UNL     1      -0.938  -0.628  -2.014  1.00  0.00     0.249 N   
ATOM     11  H9  UNL     1      -0.262  -1.361  -2.273  1.00  0.00     0.199 HD  
ATOM     12  H10 UNL     1      -1.811  -0.838  -2.503  1.00  0.00     0.199 HD  
BRANCH  10  13
ATOM     13  C5  UNL     1      -0.396   0.666  -2.526  1.00  0.00     0.164 C   
BRANCH  13  14
ATOM     14  C6  UNL     1      -1.362   1.807  -2.364  1.00  0.00    -0.002 A   
ATOM     15  C7  UNL     1      -1.097   2.839  -1.431  1.00  0.00     0.012 A   
ATOM     16  C11 UNL     1      -2.548   1.845  -3.118  1.00  0.00     0.045 A   
ATOM     17  C8  UNL     1      -2.003   3.888  -1.243  1.00  0.00     0.037 A   
ATOM     18  C10 UNL     1      -3.420   2.893  -2.906  1.00  0.00     0.109 A   
ATOM     19  C9  UNL     1      -3.156   3.885  -1.995  1.00  0.00     0.108 A   
ATOM     20  O1  UNL     1      -4.607   3.072  -3.542  1.00  0.00    -0.316 OA  
ATOM     21  O2  UNL     1      -4.144   4.816  -1.943  1.00  0.00    -0.316 OA  
ATOM     22  C12 UNL     1      -5.050   4.315  -2.949  1.00  0.00     0.337 C   
ENDBRANCH  13  14
ENDBRANCH  10  13
ENDBRANCH   6  10
ENDBRANCH   1   6
BRANCH   3  23
ATOM     23  C15 UNL     1       2.857  -0.766   2.575  1.00  0.00     0.058 A   
ATOM     24  C16 UNL     1       4.196  -1.139   2.396  1.00  0.00     0.026 A   
ATOM     25  C21 UNL     1       2.433  -0.285   3.823  1.00  0.00     0.032 A   
ATOM     26  C17 UNL     1       5.098  -1.029   3.454  1.00  0.00     0.002 A   
ATOM     27  C19 UNL     1       3.338  -0.162   4.889  1.00  0.00    -0.021 A   
ATOM     28  C18 UNL     1       4.673  -0.545   4.691  1.00  0.00     0.006 A   
BRANCH  27  29
ATOM     29  C20 UNL     1       2.913   0.337   6.249  1.00  0.00     0.191 C   
BRANCH  29  30
ATOM     30  O3  UNL     1       1.616   0.920   6.208  1.00  0.00    -0.392 OA  
ATOM     31  H24 UNL     1       1.439   1.250   7.106  1.00  0.00     0.211 HD  
ENDBRANCH  29  30
ENDBRANCH  27  29
ENDBRANCH   3  23
TORSDOF 8
