REMARK SMILES COc1cc(C)ccc1Cn1cc([C@@H]([NH2+]Cc2ccc3c(c2)OCO3)C(C)C)nn1
REMARK SMILES IDX 11 1 12 2 13 3 29 4 30 5 10 7 9 8 3 9 4 10 5 11 8 12 7 13
REMARK SMILES IDX 6 14 2 15 1 16 14 17 15 18 16 21 17 22 18 23 22 24 19 25
REMARK SMILES IDX 21 26 20 27 23 28 25 29 24 30 26 31 27 32 28 33
REMARK H PARENT 12 6 15 19 15 20
ROOT
ATOM     1   N1  UNL     1      -0.455   0.164   2.247  1.00  0.00    -0.208 N   
ATOM     2   C10 UNL     1       0.448   0.597   1.316  1.00  0.00     0.046 A   
ATOM     3   C11 UNL     1      -0.116   1.749   0.817  1.00  0.00     0.127 A   
ATOM     4   N3  UNL     1      -1.278   2.012   1.493  1.00  0.00    -0.132 NA  
ATOM     5   N4  UNL     1      -1.478   1.035   2.364  1.00  0.00    -0.076 NA  
ATOM     6   H12 UNL     1       1.329   0.026   1.057  1.00  0.00     0.083 HD  
ENDROOT
BRANCH   1   7
ATOM     7   C9  UNL     1      -0.457  -1.093   2.975  1.00  0.00     0.172 C   
BRANCH   7   8
ATOM     8   C8  UNL     1      -1.038  -2.195   2.119  1.00  0.00     0.002 A   
ATOM     9   C2  UNL     1      -0.227  -2.974   1.273  1.00  0.00     0.080 A   
ATOM     10  C3  UNL     1      -0.811  -3.959   0.468  1.00  0.00     0.037 A   
ATOM     11  C4  UNL     1      -2.193  -4.191   0.505  1.00  0.00    -0.049 A   
ATOM     12  C7  UNL     1      -2.425  -2.419   2.138  1.00  0.00     0.008 A   
ATOM     13  C6  UNL     1      -2.996  -3.407   1.337  1.00  0.00     0.004 A   
ATOM     14  C5  UNL     1      -2.816  -5.233  -0.380  1.00  0.00     0.044 C   
BRANCH   9  15
ATOM     15  O1  UNL     1       1.110  -2.672   1.277  1.00  0.00    -0.349 OA  
ATOM     16  C1  UNL     1       1.988  -3.635   0.701  1.00  0.00     0.203 C   
ENDBRANCH   9  15
ENDBRANCH   7   8
ENDBRANCH   1   7
BRANCH   3  17
ATOM     17  C12 UNL     1       0.284   2.593  -0.347  1.00  0.00     0.117 C   
BRANCH  17  18
ATOM     18  N2  UNL     1      -0.922   3.042  -1.141  1.00  0.00     0.249 N   
ATOM     19  H14 UNL     1      -1.510   3.592  -0.502  1.00  0.00     0.199 HD  
ATOM     20  H15 UNL     1      -0.633   3.657  -1.905  1.00  0.00     0.199 HD  
BRANCH  18  21
ATOM     21  C13 UNL     1      -1.804   1.963  -1.693  1.00  0.00     0.164 C   
BRANCH  21  22
ATOM     22  C14 UNL     1      -1.079   0.940  -2.522  1.00  0.00    -0.002 A   
ATOM     23  C15 UNL     1      -0.946  -0.388  -2.046  1.00  0.00     0.012 A   
ATOM     24  C19 UNL     1      -0.507   1.293  -3.756  1.00  0.00     0.045 A   
ATOM     25  C16 UNL     1      -0.243  -1.349  -2.779  1.00  0.00     0.037 A   
ATOM     26  C18 UNL     1       0.179   0.321  -4.454  1.00  0.00     0.109 A   
ATOM     27  C17 UNL     1       0.310  -0.962  -3.979  1.00  0.00     0.108 A   
ATOM     28  O2  UNL     1       0.797   0.497  -5.651  1.00  0.00    -0.316 OA  
ATOM     29  O3  UNL     1       1.025  -1.754  -4.819  1.00  0.00    -0.316 OA  
ATOM     30  C20 UNL     1       1.298  -0.837  -5.900  1.00  0.00     0.337 C   
ENDBRANCH  21  22
ENDBRANCH  18  21
ENDBRANCH  17  18
BRANCH  17  31
ATOM     31  C21 UNL     1       1.146   3.814   0.071  1.00  0.00     0.037 C   
ATOM     32  C22 UNL     1       1.825   4.466  -1.141  1.00  0.00     0.014 C   
ATOM     33  C23 UNL     1       0.388   4.882   0.868  1.00  0.00     0.014 C   
ENDBRANCH  17  31
ENDBRANCH   3  17
TORSDOF 8
