REMARK SMILES C/C(=C/c1ccco1)Cn1cc([C@@H]([NH2+]Cc2ccc3c(c2)OCO3)C(C)C)nn1
REMARK SMILES IDX 10 1 11 2 12 3 28 4 29 5 9 7 2 8 1 9 3 10 4 11 5 12 8 13
REMARK SMILES IDX 6 14 7 15 13 16 14 17 15 20 16 21 17 22 21 23 18 24 20 25
REMARK SMILES IDX 19 26 22 27 24 28 23 29 25 30 26 31 27 32
REMARK H PARENT 11 6 14 18 14 19
ROOT
ATOM     1   N1  UNL     1      -2.360  -1.543  -0.194  1.00  0.00    -0.208 N   
ATOM     2   C9  UNL     1      -2.169  -0.243   0.189  1.00  0.00     0.046 A   
ATOM     3   C10 UNL     1      -1.220   0.229  -0.689  1.00  0.00     0.127 A   
ATOM     4   N3  UNL     1      -0.867  -0.777  -1.553  1.00  0.00    -0.132 NA  
ATOM     5   N4  UNL     1      -1.564  -1.855  -1.237  1.00  0.00    -0.076 NA  
ATOM     6   H10 UNL     1      -2.709   0.199   1.014  1.00  0.00     0.083 HD  
ENDROOT
BRANCH   1   7
ATOM     7   C8  UNL     1      -3.280  -2.524   0.363  1.00  0.00     0.164 C   
BRANCH   7   8
ATOM     8   C2  UNL     1      -2.721  -3.205   1.595  1.00  0.00    -0.051 C   
ATOM     9   C1  UNL     1      -1.703  -4.280   1.294  1.00  0.00     0.041 C   
BRANCH   8  10
ATOM     10  C3  UNL     1      -3.083  -2.981   2.875  1.00  0.00     0.034 C   
BRANCH  10  11
ATOM     11  C4  UNL     1      -4.023  -2.006   3.314  1.00  0.00     0.081 A   
ATOM     12  C5  UNL     1      -4.643  -1.926   4.558  1.00  0.00     0.036 A   
ATOM     13  O1  UNL     1      -4.466  -0.932   2.573  1.00  0.00    -0.318 OA  
ATOM     14  C6  UNL     1      -5.494  -0.796   4.555  1.00  0.00     0.028 A   
ATOM     15  C7  UNL     1      -5.351  -0.227   3.318  1.00  0.00     0.136 A   
ENDBRANCH  10  11
ENDBRANCH   8  10
ENDBRANCH   7   8
ENDBRANCH   1   7
BRANCH   3  16
ATOM     16  C11 UNL     1      -0.561   1.567  -0.805  1.00  0.00     0.117 C   
BRANCH  16  17
ATOM     17  N2  UNL     1       0.742   1.440  -1.547  1.00  0.00     0.249 N   
ATOM     18  H12 UNL     1       0.567   0.798  -2.335  1.00  0.00     0.199 HD  
ATOM     19  H13 UNL     1       1.045   2.325  -1.960  1.00  0.00     0.199 HD  
BRANCH  17  20
ATOM     20  C12 UNL     1       1.867   0.861  -0.760  1.00  0.00     0.164 C   
BRANCH  20  21
ATOM     21  C13 UNL     1       3.059   0.637  -1.645  1.00  0.00    -0.002 A   
ATOM     22  C14 UNL     1       3.190  -0.578  -2.362  1.00  0.00     0.012 A   
ATOM     23  C18 UNL     1       4.016   1.651  -1.819  1.00  0.00     0.045 A   
ATOM     24  C15 UNL     1       4.266  -0.787  -3.230  1.00  0.00     0.037 A   
ATOM     25  C17 UNL     1       5.064   1.412  -2.685  1.00  0.00     0.109 A   
ATOM     26  C16 UNL     1       5.186   0.228  -3.369  1.00  0.00     0.108 A   
ATOM     27  O2  UNL     1       6.067   2.283  -2.971  1.00  0.00    -0.316 OA  
ATOM     28  O3  UNL     1       6.284   0.202  -4.169  1.00  0.00    -0.316 OA  
ATOM     29  C19 UNL     1       6.853   1.501  -3.899  1.00  0.00     0.337 C   
ENDBRANCH  20  21
ENDBRANCH  17  20
ENDBRANCH  16  17
BRANCH  16  30
ATOM     30  C20 UNL     1      -1.475   2.610  -1.500  1.00  0.00     0.037 C   
ATOM     31  C21 UNL     1      -1.726   2.325  -2.986  1.00  0.00     0.014 C   
ATOM     32  C22 UNL     1      -0.937   4.036  -1.331  1.00  0.00     0.014 C   
ENDBRANCH  16  30
ENDBRANCH   3  16
TORSDOF 9
