REMARK SMILES C/C(=C\c1ccco1)Cn1cc([C@@H]([NH2+]Cc2ccc3c(c2)OCO3)C(C)C)nn1
REMARK SMILES IDX 10 1 11 2 12 3 28 4 29 5 9 7 2 8 1 9 3 10 4 11 5 12 8 13
REMARK SMILES IDX 6 14 7 15 13 16 14 17 15 20 16 21 17 22 21 23 18 24 20 25
REMARK SMILES IDX 19 26 22 27 24 28 23 29 25 30 26 31 27 32
REMARK H PARENT 11 6 14 18 14 19
ROOT
ATOM     1   N1  UNL     1      -0.896  -0.414  -2.966  1.00  0.00    -0.208 N   
ATOM     2   C9  UNL     1      -1.541  -1.330  -2.180  1.00  0.00     0.046 A   
ATOM     3   C10 UNL     1      -1.781  -0.650  -1.006  1.00  0.00     0.127 A   
ATOM     4   N3  UNL     1      -1.291   0.627  -1.119  1.00  0.00    -0.132 NA  
ATOM     5   N4  UNL     1      -0.753   0.758  -2.319  1.00  0.00    -0.076 NA  
ATOM     6   H10 UNL     1      -1.741  -2.338  -2.513  1.00  0.00     0.083 HD  
ENDROOT
BRANCH   1   7
ATOM     7   C8  UNL     1      -0.373  -0.585  -4.312  1.00  0.00     0.164 C   
BRANCH   7   8
ATOM     8   C2  UNL     1       1.011  -1.203  -4.306  1.00  0.00    -0.051 C   
ATOM     9   C1  UNL     1       1.040  -2.702  -4.147  1.00  0.00     0.041 C   
BRANCH   8  10
ATOM     10  C3  UNL     1       2.093  -0.416  -4.475  1.00  0.00     0.034 C   
BRANCH  10  11
ATOM     11  C4  UNL     1       3.442  -0.868  -4.413  1.00  0.00     0.081 A   
ATOM     12  C5  UNL     1       4.578  -0.251  -4.926  1.00  0.00     0.036 A   
ATOM     13  O1  UNL     1       3.858  -2.010  -3.765  1.00  0.00    -0.318 OA  
ATOM     14  C6  UNL     1       5.699  -1.047  -4.596  1.00  0.00     0.028 A   
ATOM     15  C7  UNL     1       5.203  -2.113  -3.892  1.00  0.00     0.136 A   
ENDBRANCH  10  11
ENDBRANCH   8  10
ENDBRANCH   7   8
ENDBRANCH   1   7
BRANCH   3  16
ATOM     16  C11 UNL     1      -2.377  -1.088   0.293  1.00  0.00     0.117 C   
BRANCH  16  17
ATOM     17  N2  UNL     1      -1.724  -0.333   1.426  1.00  0.00     0.249 N   
ATOM     18  H12 UNL     1      -1.660   0.651   1.124  1.00  0.00     0.199 HD  
ATOM     19  H13 UNL     1      -2.301  -0.339   2.273  1.00  0.00     0.199 HD  
BRANCH  17  20
ATOM     20  C12 UNL     1      -0.342  -0.772   1.768  1.00  0.00     0.164 C   
BRANCH  20  21
ATOM     21  C13 UNL     1       0.267   0.156   2.782  1.00  0.00    -0.002 A   
ATOM     22  C14 UNL     1       0.930   1.333   2.357  1.00  0.00     0.012 A   
ATOM     23  C18 UNL     1       0.132  -0.105   4.156  1.00  0.00     0.045 A   
ATOM     24  C15 UNL     1       1.463   2.233   3.285  1.00  0.00     0.037 A   
ATOM     25  C17 UNL     1       0.668   0.804   5.045  1.00  0.00     0.109 A   
ATOM     26  C16 UNL     1       1.315   1.940   4.623  1.00  0.00     0.108 A   
ATOM     27  O2  UNL     1       0.624   0.704   6.400  1.00  0.00    -0.316 OA  
ATOM     28  O3  UNL     1       1.755   2.699   5.658  1.00  0.00    -0.316 OA  
ATOM     29  C19 UNL     1       1.345   1.896   6.786  1.00  0.00     0.337 C   
ENDBRANCH  20  21
ENDBRANCH  17  20
ENDBRANCH  16  17
BRANCH  16  30
ATOM     30  C20 UNL     1      -3.911  -0.891   0.391  1.00  0.00     0.037 C   
ATOM     31  C21 UNL     1      -4.371   0.562   0.220  1.00  0.00     0.014 C   
ATOM     32  C22 UNL     1      -4.660  -1.792  -0.598  1.00  0.00     0.014 C   
ENDBRANCH  16  30
ENDBRANCH   3  16
TORSDOF 9
