REMARK SMILES CC(C)[C@H]([NH2+]Cc1ccc2c(c1)OCO2)c1cn(-c2ccc(F)c(CO)c2)nn1
REMARK SMILES IDX 16 1 17 2 18 3 28 4 29 5 4 6 2 7 1 8 3 9 5 10 6 13 7 14 8 15
REMARK SMILES IDX 12 16 9 17 11 18 10 19 13 20 15 21 14 22 19 23 20 24 27 25
REMARK SMILES IDX 21 26 24 27 22 28 23 29 25 30 26 31
REMARK H PARENT 5 11 5 12 26 32
ROOT
ATOM     1   C13 UNL     1      -0.504  -0.510  -0.245  1.00  0.00     0.127 A   
ATOM     2   C14 UNL     1      -1.382  -0.680  -1.292  1.00  0.00     0.135 A   
ATOM     3   N2  UNL     1      -2.546  -0.049  -0.894  1.00  0.00    -0.181 N   
ATOM     4   N3  UNL     1      -2.345   0.498   0.334  1.00  0.00    -0.071 NA  
ATOM     5   N4  UNL     1      -1.119   0.213   0.739  1.00  0.00    -0.131 NA  
ENDROOT
BRANCH   1   6
ATOM     6   C4  UNL     1       0.914  -0.955  -0.062  1.00  0.00     0.117 C   
BRANCH   6   7
ATOM     7   C2  UNL     1       1.013  -2.466   0.279  1.00  0.00     0.037 C   
ATOM     8   C1  UNL     1       0.459  -2.826   1.663  1.00  0.00     0.014 C   
ATOM     9   C3  UNL     1       2.449  -2.985   0.145  1.00  0.00     0.014 C   
ENDBRANCH   6   7
BRANCH   6  10
ATOM     10  N1  UNL     1       1.592  -0.136   1.002  1.00  0.00     0.249 N   
ATOM     11  H9  UNL     1       0.917  -0.032   1.776  1.00  0.00     0.199 HD  
ATOM     12  H10 UNL     1       2.407  -0.612   1.399  1.00  0.00     0.199 HD  
BRANCH  10  13
ATOM     13  C5  UNL     1       1.996   1.238   0.589  1.00  0.00     0.164 C   
BRANCH  13  14
ATOM     14  C6  UNL     1       2.564   1.988   1.760  1.00  0.00    -0.002 A   
ATOM     15  C7  UNL     1       1.707   2.710   2.625  1.00  0.00     0.012 A   
ATOM     16  C11 UNL     1       3.940   1.929   2.038  1.00  0.00     0.045 A   
ATOM     17  C8  UNL     1       2.213   3.375   3.746  1.00  0.00     0.037 A   
ATOM     18  C10 UNL     1       4.405   2.595   3.153  1.00  0.00     0.109 A   
ATOM     19  C9  UNL     1       3.568   3.298   3.983  1.00  0.00     0.108 A   
ATOM     20  O1  UNL     1       5.700   2.638   3.564  1.00  0.00    -0.316 OA  
ATOM     21  O2  UNL     1       4.229   3.874   5.019  1.00  0.00    -0.316 OA  
ATOM     22  C12 UNL     1       5.587   3.471   4.740  1.00  0.00     0.337 C   
ENDBRANCH  13  14
ENDBRANCH  10  13
ENDBRANCH   6  10
ENDBRANCH   1   6
BRANCH   3  23
ATOM     23  C15 UNL     1      -3.780   0.072  -1.580  1.00  0.00     0.058 A   
ATOM     24  C16 UNL     1      -4.839   0.773  -0.983  1.00  0.00     0.029 A   
ATOM     25  C21 UNL     1      -3.957  -0.503  -2.849  1.00  0.00     0.035 A   
ATOM     26  C17 UNL     1      -6.059   0.895  -1.650  1.00  0.00     0.041 A   
ATOM     27  C19 UNL     1      -5.183  -0.382  -3.526  1.00  0.00     0.015 A   
ATOM     28  C18 UNL     1      -6.219   0.322  -2.907  1.00  0.00     0.128 A   
ATOM     29  F1  UNL     1      -7.399   0.448  -3.531  1.00  0.00    -0.207 F   
BRANCH  27  30
ATOM     30  C20 UNL     1      -5.430  -0.982  -4.883  1.00  0.00     0.194 C   
BRANCH  30  31
ATOM     31  O3  UNL     1      -4.265  -1.631  -5.386  1.00  0.00    -0.392 OA  
ATOM     32  H23 UNL     1      -4.519  -2.007  -6.247  1.00  0.00     0.211 HD  
ENDBRANCH  30  31
ENDBRANCH  27  30
ENDBRANCH   3  23
TORSDOF 8
