REMARK SMILES Cc1nn(C(C)C)c(C)c1Cn1cc([C@@H]([NH2+]Cc2ccc3c(c2)OCO3)C(C)C)nn1
REMARK SMILES IDX 12 1 13 2 14 3 30 4 31 5 11 7 10 8 2 9 3 10 4 11 8 12 1 13
REMARK SMILES IDX 9 14 5 15 6 16 7 17 15 18 16 19 17 22 18 23 19 24 23 25
REMARK SMILES IDX 20 26 22 27 21 28 24 29 26 30 25 31 27 32 28 33 29 34
REMARK H PARENT 13 6 16 20 16 21
ROOT
ATOM     1   N3  UNL     1       0.454  -2.269  -1.099  1.00  0.00    -0.208 N   
ATOM     2   C10 UNL     1       0.765  -0.989  -1.471  1.00  0.00     0.046 A   
ATOM     3   C11 UNL     1       1.778  -0.632  -0.610  1.00  0.00     0.127 A   
ATOM     4   N5  UNL     1       2.052  -1.684   0.227  1.00  0.00    -0.132 NA  
ATOM     5   N6  UNL     1       1.248  -2.684  -0.092  1.00  0.00    -0.076 NA  
ATOM     6   H16 UNL     1       0.236  -0.471  -2.259  1.00  0.00     0.083 HD  
ENDROOT
BRANCH   1   7
ATOM     7   C9  UNL     1      -0.560  -3.149  -1.659  1.00  0.00     0.173 C   
BRANCH   7   8
ATOM     8   C8  UNL     1      -1.919  -2.730  -1.216  1.00  0.00     0.013 A   
ATOM     9   C2  UNL     1      -2.502  -2.963   0.059  1.00  0.00     0.062 A   
ATOM     10  N1  UNL     1      -3.731  -2.451   0.140  1.00  0.00    -0.186 NA  
ATOM     11  N2  UNL     1      -3.967  -1.922  -1.074  1.00  0.00    -0.227 N   
ATOM     12  C6  UNL     1      -2.895  -2.046  -1.929  1.00  0.00     0.032 A   
ATOM     13  C1  UNL     1      -1.914  -3.663   1.231  1.00  0.00     0.069 C   
ATOM     14  C7  UNL     1      -2.906  -1.527  -3.322  1.00  0.00     0.064 C   
BRANCH  11  15
ATOM     15  C3  UNL     1      -5.267  -1.307  -1.339  1.00  0.00     0.092 C   
ATOM     16  C4  UNL     1      -5.490  -0.077  -0.460  1.00  0.00     0.030 C   
ATOM     17  C5  UNL     1      -6.406  -2.316  -1.184  1.00  0.00     0.030 C   
ENDBRANCH  11  15
ENDBRANCH   7   8
ENDBRANCH   1   7
BRANCH   3  18
ATOM     18  C12 UNL     1       2.524   0.650  -0.428  1.00  0.00     0.117 C   
BRANCH  18  19
ATOM     19  N4  UNL     1       2.917   0.798   1.025  1.00  0.00     0.249 N   
ATOM     20  H18 UNL     1       2.764  -0.130   1.452  1.00  0.00     0.199 HD  
ATOM     21  H19 UNL     1       3.921   0.971   1.123  1.00  0.00     0.199 HD  
BRANCH  19  22
ATOM     22  C13 UNL     1       2.164   1.808   1.816  1.00  0.00     0.164 C   
BRANCH  22  23
ATOM     23  C14 UNL     1       0.684   1.558   1.891  1.00  0.00    -0.002 A   
ATOM     24  C15 UNL     1      -0.221   2.437   1.248  1.00  0.00     0.012 A   
ATOM     25  C19 UNL     1       0.183   0.452   2.602  1.00  0.00     0.045 A   
ATOM     26  C16 UNL     1      -1.602   2.222   1.310  1.00  0.00     0.037 A   
ATOM     27  C18 UNL     1      -1.185   0.273   2.648  1.00  0.00     0.109 A   
ATOM     28  C17 UNL     1      -2.052   1.133   2.021  1.00  0.00     0.108 A   
ATOM     29  O1  UNL     1      -1.829  -0.725   3.307  1.00  0.00    -0.316 OA  
ATOM     30  O2  UNL     1      -3.352   0.787   2.206  1.00  0.00    -0.316 OA  
ATOM     31  C20 UNL     1      -3.209  -0.384   3.039  1.00  0.00     0.337 C   
ENDBRANCH  22  23
ENDBRANCH  19  22
ENDBRANCH  18  19
BRANCH  18  32
ATOM     32  C21 UNL     1       3.766   0.756  -1.351  1.00  0.00     0.037 C   
ATOM     33  C22 UNL     1       4.382   2.159  -1.302  1.00  0.00     0.014 C   
ATOM     34  C23 UNL     1       4.848  -0.296  -1.078  1.00  0.00     0.014 C   
ENDBRANCH  18  32
ENDBRANCH   3  18
TORSDOF 8
