REMARK SMILES CC(C)[C@H]([NH2+]Cc1ccc2c(c1)OCO2)c1cn(Cc2cccc3ccn(C)c23)nn1
REMARK SMILES IDX 16 1 17 2 18 3 30 4 31 5 4 7 2 8 1 9 3 10 5 11 6 14 7 15
REMARK SMILES IDX 8 16 12 17 9 18 11 19 10 20 13 21 15 22 14 23 19 24 20 25
REMARK SMILES IDX 21 26 29 27 22 28 24 29 27 30 23 31 25 32 26 33 28 34
REMARK H PARENT 17 6 5 12 5 13
ROOT
ATOM     1   C13 UNL     1      -0.873  -1.736   0.335  1.00  0.00     0.127 A   
ATOM     2   C14 UNL     1       0.388  -1.638   0.878  1.00  0.00     0.046 A   
ATOM     3   N2  UNL     1       1.073  -2.682   0.317  1.00  0.00    -0.208 N   
ATOM     4   N4  UNL     1       0.258  -3.421  -0.462  1.00  0.00    -0.076 NA  
ATOM     5   N5  UNL     1      -0.933  -2.842  -0.471  1.00  0.00    -0.132 NA  
ATOM     6   H18 UNL     1       0.859  -0.917   1.532  1.00  0.00     0.083 HD  
ENDROOT
BRANCH   1   7
ATOM     7   C4  UNL     1      -2.041  -0.808   0.424  1.00  0.00     0.117 C   
BRANCH   7   8
ATOM     8   C2  UNL     1      -3.204  -1.404   1.266  1.00  0.00     0.037 C   
ATOM     9   C1  UNL     1      -2.756  -1.692   2.707  1.00  0.00     0.014 C   
ATOM     10  C3  UNL     1      -4.432  -0.484   1.317  1.00  0.00     0.014 C   
ENDBRANCH   7   8
BRANCH   7  11
ATOM     11  N1  UNL     1      -2.549  -0.491  -0.971  1.00  0.00     0.249 N   
ATOM     12  H9  UNL     1      -2.864  -1.382  -1.378  1.00  0.00     0.199 HD  
ATOM     13  H10 UNL     1      -3.359   0.129  -0.918  1.00  0.00     0.199 HD  
BRANCH  11  14
ATOM     14  C5  UNL     1      -1.565   0.110  -1.928  1.00  0.00     0.164 C   
BRANCH  14  15
ATOM     15  C6  UNL     1      -0.960   1.398  -1.445  1.00  0.00    -0.002 A   
ATOM     16  C7  UNL     1       0.427   1.469  -1.171  1.00  0.00     0.012 A   
ATOM     17  C11 UNL     1      -1.760   2.537  -1.250  1.00  0.00     0.045 A   
ATOM     18  C8  UNL     1       1.010   2.647  -0.694  1.00  0.00     0.037 A   
ATOM     19  C10 UNL     1      -1.154   3.683  -0.777  1.00  0.00     0.109 A   
ATOM     20  C9  UNL     1       0.191   3.737  -0.506  1.00  0.00     0.108 A   
ATOM     21  O1  UNL     1      -1.782   4.861  -0.525  1.00  0.00    -0.316 OA  
ATOM     22  O2  UNL     1       0.579   4.956  -0.051  1.00  0.00    -0.316 OA  
ATOM     23  C12 UNL     1      -0.669   5.679  -0.097  1.00  0.00     0.337 C   
ENDBRANCH  14  15
ENDBRANCH  11  14
ENDBRANCH   7  11
ENDBRANCH   1   7
BRANCH   3  24
ATOM     24  C15 UNL     1       2.492  -2.992   0.420  1.00  0.00     0.171 C   
BRANCH  24  25
ATOM     25  C16 UNL     1       3.327  -1.788   0.040  1.00  0.00    -0.006 A   
ATOM     26  C17 UNL     1       3.856  -1.000   1.092  1.00  0.00     0.007 A   
ATOM     27  C24 UNL     1       3.566  -1.322  -1.283  1.00  0.00     0.044 A   
ATOM     28  C18 UNL     1       4.539   0.187   0.864  1.00  0.00     0.001 A   
ATOM     29  C20 UNL     1       4.225  -0.101  -1.517  1.00  0.00    -0.002 A   
ATOM     30  N3  UNL     1       3.283  -1.839  -2.541  1.00  0.00    -0.310 N   
ATOM     31  C19 UNL     1       4.715   0.652  -0.434  1.00  0.00     0.010 A   
ATOM     32  C21 UNL     1       4.243   0.128  -2.918  1.00  0.00     0.025 A   
ATOM     33  C22 UNL     1       3.640  -0.946  -3.520  1.00  0.00     0.075 A   
ATOM     34  C23 UNL     1       2.774  -3.156  -2.856  1.00  0.00     0.136 C   
ENDBRANCH  24  25
ENDBRANCH   3  24
TORSDOF 7
