REMARK SMILES O[C@@H](Cn1cc([C@@H]([NH2+]Cc2ccc3c(c2)OCO3)C2CCCC2)nn1)c1ccsc1
REMARK SMILES IDX 4 1 5 2 6 3 24 4 25 5 3 7 2 8 1 9 26 11 27 12 30 13 28 14
REMARK SMILES IDX 29 15 7 16 8 17 9 20 10 21 11 22 15 23 12 24 14 25 13 26
REMARK SMILES IDX 16 27 18 28 17 29 19 30 20 31 23 32 21 33 22 34
REMARK H PARENT 5 6 1 10 8 18 8 19
ROOT
ATOM     1   N1  UNL     1      -2.975  -1.269   1.357  1.00  0.00    -0.209 N   
ATOM     2   C3  UNL     1      -2.077  -0.299   1.700  1.00  0.00     0.045 A   
ATOM     3   C4  UNL     1      -1.917   0.428   0.542  1.00  0.00     0.127 A   
ATOM     4   N3  UNL     1      -2.721  -0.100  -0.436  1.00  0.00    -0.132 NA  
ATOM     5   N4  UNL     1      -3.375  -1.127   0.080  1.00  0.00    -0.076 NA  
ATOM     6   H5  UNL     1      -1.627  -0.245   2.681  1.00  0.00     0.083 HD  
ENDROOT
BRANCH   1   7
ATOM     7   C2  UNL     1      -3.403  -2.405   2.144  1.00  0.00     0.170 C   
BRANCH   7   8
ATOM     8   C1  UNL     1      -2.982  -3.751   1.538  1.00  0.00     0.164 C   
BRANCH   8   9
ATOM     9   O1  UNL     1      -3.417  -4.790   2.421  1.00  0.00    -0.387 OA  
ATOM     10  H1  UNL     1      -3.132  -5.635   2.026  1.00  0.00     0.211 HD  
ENDBRANCH   8   9
BRANCH   8  11
ATOM     11  C19 UNL     1      -1.493  -3.849   1.305  1.00  0.00    -0.011 A   
ATOM     12  C20 UNL     1      -0.512  -4.124   2.317  1.00  0.00     0.014 A   
ATOM     13  C22 UNL     1      -0.885  -3.675   0.071  1.00  0.00     0.052 A   
ATOM     14  C21 UNL     1       0.773  -4.140   1.820  1.00  0.00     0.046 A   
ATOM     15  S1  UNL     1       0.816  -3.810   0.144  1.00  0.00    -0.106 S   
ENDBRANCH   8  11
ENDBRANCH   7   8
ENDBRANCH   1   7
BRANCH   3  16
ATOM     16  C5  UNL     1      -1.016   1.574   0.216  1.00  0.00     0.117 C   
BRANCH  16  17
ATOM     17  N2  UNL     1      -0.594   1.494  -1.231  1.00  0.00     0.249 N   
ATOM     18  H7  UNL     1      -0.282   2.406  -1.577  1.00  0.00     0.199 HD  
ATOM     19  H8  UNL     1      -1.443   1.247  -1.760  1.00  0.00     0.199 HD  
BRANCH  17  20
ATOM     20  C6  UNL     1       0.441   0.466  -1.551  1.00  0.00     0.164 C   
BRANCH  20  21
ATOM     21  C7  UNL     1       1.802   0.846  -1.035  1.00  0.00    -0.002 A   
ATOM     22  C8  UNL     1       2.351   0.187   0.092  1.00  0.00     0.012 A   
ATOM     23  C12 UNL     1       2.521   1.891  -1.642  1.00  0.00     0.045 A   
ATOM     24  C9  UNL     1       3.590   0.570   0.616  1.00  0.00     0.037 A   
ATOM     25  C11 UNL     1       3.740   2.242  -1.101  1.00  0.00     0.109 A   
ATOM     26  C10 UNL     1       4.258   1.603  -0.002  1.00  0.00     0.108 A   
ATOM     27  O2  UNL     1       4.550   3.233  -1.556  1.00  0.00    -0.316 OA  
ATOM     28  O3  UNL     1       5.460   2.112   0.373  1.00  0.00    -0.316 OA  
ATOM     29  C13 UNL     1       5.655   3.133  -0.629  1.00  0.00     0.337 C   
ENDBRANCH  20  21
ENDBRANCH  17  20
ENDBRANCH  16  17
BRANCH  16  30
ATOM     30  C14 UNL     1      -1.681   2.932   0.511  1.00  0.00     0.043 C   
ATOM     31  C15 UNL     1      -2.847   3.330  -0.398  1.00  0.00     0.010 C   
ATOM     32  C18 UNL     1      -0.719   4.134   0.451  1.00  0.00     0.010 C   
ATOM     33  C16 UNL     1      -2.969   4.826  -0.149  1.00  0.00     0.001 C   
ATOM     34  C17 UNL     1      -1.524   5.299  -0.125  1.00  0.00     0.001 C   
ENDBRANCH  16  30
ENDBRANCH   3  16
TORSDOF 9
