REMARK SMILES O[C@H](Cn1cc([C@@H]([NH2+]Cc2ccc3c(c2)OCO3)C2CCCC2)nn1)c1ccsc1
REMARK SMILES IDX 4 1 5 2 6 3 24 4 25 5 3 7 2 8 1 9 26 11 27 12 30 13 28 14
REMARK SMILES IDX 29 15 7 16 8 17 9 20 10 21 11 22 15 23 12 24 14 25 13 26
REMARK SMILES IDX 16 27 18 28 17 29 19 30 20 31 23 32 21 33 22 34
REMARK H PARENT 5 6 1 10 8 18 8 19
ROOT
ATOM     1   N1  UNL     1      -2.041   1.881   0.172  1.00  0.00    -0.209 N   
ATOM     2   C3  UNL     1      -0.858   1.268   0.475  1.00  0.00     0.045 A   
ATOM     3   C4  UNL     1      -1.104  -0.065   0.232  1.00  0.00     0.127 A   
ATOM     4   N3  UNL     1      -2.408  -0.218  -0.163  1.00  0.00    -0.132 NA  
ATOM     5   N4  UNL     1      -2.974   0.978  -0.182  1.00  0.00    -0.076 NA  
ATOM     6   H5  UNL     1       0.016   1.818   0.800  1.00  0.00     0.083 HD  
ENDROOT
BRANCH   1   7
ATOM     7   C2  UNL     1      -2.355   3.290   0.210  1.00  0.00     0.170 C   
BRANCH   7   8
ATOM     8   C1  UNL     1      -2.435   3.925  -1.182  1.00  0.00     0.164 C   
BRANCH   8   9
ATOM     9   O1  UNL     1      -2.849   5.285  -1.023  1.00  0.00    -0.387 OA  
ATOM     10  H1  UNL     1      -2.850   5.686  -1.913  1.00  0.00     0.211 HD  
ENDBRANCH   8   9
BRANCH   8  11
ATOM     11  C19 UNL     1      -1.123   3.860  -1.924  1.00  0.00    -0.011 A   
ATOM     12  C20 UNL     1       0.018   4.689  -1.648  1.00  0.00     0.014 A   
ATOM     13  C22 UNL     1      -0.851   2.987  -2.963  1.00  0.00     0.052 A   
ATOM     14  C21 UNL     1       1.092   4.403  -2.461  1.00  0.00     0.046 A   
ATOM     15  S1  UNL     1       0.745   3.140  -3.558  1.00  0.00    -0.106 S   
ENDBRANCH   8  11
ENDBRANCH   7   8
ENDBRANCH   1   7
BRANCH   3  16
ATOM     16  C5  UNL     1      -0.230  -1.269   0.376  1.00  0.00     0.117 C   
BRANCH  16  17
ATOM     17  N2  UNL     1      -1.027  -2.416   0.964  1.00  0.00     0.249 N   
ATOM     18  H7  UNL     1      -0.496  -3.288   0.909  1.00  0.00     0.199 HD  
ATOM     19  H8  UNL     1      -1.858  -2.524   0.365  1.00  0.00     0.199 HD  
BRANCH  17  20
ATOM     20  C6  UNL     1      -1.510  -2.239   2.367  1.00  0.00     0.164 C   
BRANCH  20  21
ATOM     21  C7  UNL     1      -0.391  -2.161   3.366  1.00  0.00    -0.002 A   
ATOM     22  C8  UNL     1       0.357  -3.317   3.700  1.00  0.00     0.012 A   
ATOM     23  C12 UNL     1      -0.059  -0.929   3.956  1.00  0.00     0.045 A   
ATOM     24  C9  UNL     1       1.423  -3.247   4.603  1.00  0.00     0.037 A   
ATOM     25  C11 UNL     1       0.997  -0.895   4.843  1.00  0.00     0.109 A   
ATOM     26  C10 UNL     1       1.718  -2.021   5.156  1.00  0.00     0.108 A   
ATOM     27  O2  UNL     1       1.446   0.209   5.497  1.00  0.00    -0.316 OA  
ATOM     28  O3  UNL     1       2.711  -1.768   6.048  1.00  0.00    -0.316 OA  
ATOM     29  C13 UNL     1       2.505  -0.361   6.300  1.00  0.00     0.337 C   
ENDBRANCH  20  21
ENDBRANCH  17  20
ENDBRANCH  16  17
BRANCH  16  30
ATOM     30  C14 UNL     1       0.343  -1.728  -0.981  1.00  0.00     0.043 C   
ATOM     31  C15 UNL     1       1.296  -2.922  -0.893  1.00  0.00     0.010 C   
ATOM     32  C18 UNL     1       1.229  -0.671  -1.654  1.00  0.00     0.010 C   
ATOM     33  C16 UNL     1       2.021  -2.908  -2.232  1.00  0.00     0.001 C   
ATOM     34  C17 UNL     1       2.101  -1.440  -2.642  1.00  0.00     0.001 C   
ENDBRANCH  16  30
ENDBRANCH   3  16
TORSDOF 9
