REMARK SMILES CC(C)[C@H]([NH2+]Cc1ccc2c(c1)OCO2)c1cn(CCc2cncnc2)nn1
REMARK SMILES IDX 16 1 17 2 18 3 27 4 28 5 4 7 2 8 1 9 3 10 5 11 6 14 7 15
REMARK SMILES IDX 8 16 12 17 9 18 11 19 10 20 13 21 15 22 14 23 19 24 20 25
REMARK SMILES IDX 21 26 22 27 26 28 23 29 25 30 24 31
REMARK H PARENT 17 6 5 12 5 13
ROOT
ATOM     1   C13 UNL     1       0.348   0.419   1.800  1.00  0.00     0.127 A   
ATOM     2   C14 UNL     1       1.348   1.143   2.410  1.00  0.00     0.045 A   
ATOM     3   N2  UNL     1       2.141   0.188   2.983  1.00  0.00    -0.212 N   
ATOM     4   N5  UNL     1       1.634  -1.042   2.788  1.00  0.00    -0.076 NA  
ATOM     5   N6  UNL     1       0.535  -0.915   2.062  1.00  0.00    -0.132 NA  
ATOM     6   H18 UNL     1       1.598   2.195   2.428  1.00  0.00     0.083 HD  
ENDROOT
BRANCH   1   7
ATOM     7   C4  UNL     1      -0.756   0.851   0.888  1.00  0.00     0.117 C   
BRANCH   7   8
ATOM     8   C2  UNL     1      -2.059   1.186   1.658  1.00  0.00     0.037 C   
ATOM     9   C1  UNL     1      -3.059   1.942   0.775  1.00  0.00     0.014 C   
ATOM     10  C3  UNL     1      -2.747  -0.033   2.285  1.00  0.00     0.014 C   
ENDBRANCH   7   8
BRANCH   7  11
ATOM     11  N1  UNL     1      -1.016  -0.196  -0.161  1.00  0.00     0.249 N   
ATOM     12  H9  UNL     1      -1.084  -1.101   0.326  1.00  0.00     0.199 HD  
ATOM     13  H10 UNL     1      -1.913  -0.051  -0.631  1.00  0.00     0.199 HD  
BRANCH  11  14
ATOM     14  C5  UNL     1       0.051  -0.339  -1.196  1.00  0.00     0.164 C   
BRANCH  14  15
ATOM     15  C6  UNL     1      -0.340  -1.385  -2.201  1.00  0.00    -0.002 A   
ATOM     16  C7  UNL     1      -1.017  -1.022  -3.389  1.00  0.00     0.012 A   
ATOM     17  C11 UNL     1      -0.081  -2.742  -1.937  1.00  0.00     0.045 A   
ATOM     18  C8  UNL     1      -1.423  -1.994  -4.310  1.00  0.00     0.037 A   
ATOM     19  C10 UNL     1      -0.495  -3.675  -2.865  1.00  0.00     0.109 A   
ATOM     20  C9  UNL     1      -1.147  -3.312  -4.018  1.00  0.00     0.108 A   
ATOM     21  O1  UNL     1      -0.326  -5.019  -2.765  1.00  0.00    -0.316 OA  
ATOM     22  O2  UNL     1      -1.467  -4.382  -4.791  1.00  0.00    -0.316 OA  
ATOM     23  C12 UNL     1      -0.922  -5.464  -4.004  1.00  0.00     0.337 C   
ENDBRANCH  14  15
ENDBRANCH  11  14
ENDBRANCH   7  11
ENDBRANCH   1   7
BRANCH   3  24
ATOM     24  C15 UNL     1       3.474   0.358   3.530  1.00  0.00     0.139 C   
BRANCH  24  25
ATOM     25  C16 UNL     1       4.574  -0.161   2.591  1.00  0.00     0.060 C   
BRANCH  25  26
ATOM     26  C17 UNL     1       4.496   0.440   1.217  1.00  0.00    -0.010 A   
ATOM     27  C18 UNL     1       4.976   1.698   0.919  1.00  0.00     0.118 A   
ATOM     28  C20 UNL     1       3.842  -0.198   0.177  1.00  0.00     0.118 A   
ATOM     29  N3  UNL     1       4.819   2.287  -0.281  1.00  0.00    -0.245 NA  
ATOM     30  N4  UNL     1       3.629   0.355  -1.034  1.00  0.00    -0.245 NA  
ATOM     31  C19 UNL     1       4.168   1.572  -1.211  1.00  0.00     0.221 A   
ENDBRANCH  25  26
ENDBRANCH  24  25
ENDBRANCH   3  24
TORSDOF 8
