REMARK SMILES COc1cccc(-n2cc([C@@H]([NH2+]Cc3ccc4c(c3)OCO4)C(C)C)nn2)c1
REMARK SMILES IDX 8 1 9 2 10 3 26 4 27 5 7 6 3 7 4 8 28 9 5 10 6 11 2 12 1 13
REMARK SMILES IDX 11 14 12 15 13 18 14 19 15 20 19 21 16 22 18 23 17 24 20 25
REMARK SMILES IDX 22 26 21 27 23 28 24 29 25 30
REMARK H PARENT 12 16 12 17
ROOT
ATOM     1   N1  UNL     1      -1.883  -1.764  -0.919  1.00  0.00    -0.181 N   
ATOM     2   C7  UNL     1      -1.675  -1.880   0.444  1.00  0.00     0.135 A   
ATOM     3   C8  UNL     1      -0.985  -0.744   0.800  1.00  0.00     0.127 A   
ATOM     4   N3  UNL     1      -0.770   0.016  -0.315  1.00  0.00    -0.131 NA  
ATOM     5   N4  UNL     1      -1.301  -0.613  -1.349  1.00  0.00    -0.071 NA  
ENDROOT
BRANCH   1   6
ATOM     6   C6  UNL     1      -2.560  -2.641  -1.802  1.00  0.00     0.060 A   
ATOM     7   C2  UNL     1      -3.835  -4.671  -2.208  1.00  0.00     0.076 A   
ATOM     8   C3  UNL     1      -3.906  -4.353  -3.562  1.00  0.00     0.033 A   
ATOM     9   C21 UNL     1      -3.159  -3.815  -1.330  1.00  0.00     0.059 A   
ATOM     10  C4  UNL     1      -3.308  -3.183  -4.038  1.00  0.00     0.005 A   
ATOM     11  C5  UNL     1      -2.639  -2.327  -3.165  1.00  0.00     0.026 A   
BRANCH   7  12
ATOM     12  O1  UNL     1      -4.375  -5.777  -1.612  1.00  0.00    -0.349 OA  
ATOM     13  C1  UNL     1      -5.130  -6.653  -2.442  1.00  0.00     0.203 C   
ENDBRANCH   7  12
ENDBRANCH   1   6
BRANCH   3  14
ATOM     14  C9  UNL     1      -0.458  -0.275   2.122  1.00  0.00     0.117 C   
BRANCH  14  15
ATOM     15  N2  UNL     1       0.660   0.711   1.912  1.00  0.00     0.249 N   
ATOM     16  H9  UNL     1       0.792   1.332   2.715  1.00  0.00     0.199 HD  
ATOM     17  H10 UNL     1       0.376   1.317   1.126  1.00  0.00     0.199 HD  
BRANCH  15  18
ATOM     18  C10 UNL     1       1.974   0.112   1.543  1.00  0.00     0.164 C   
BRANCH  18  19
ATOM     19  C11 UNL     1       2.944   1.184   1.137  1.00  0.00    -0.002 A   
ATOM     20  C12 UNL     1       3.791   1.792   2.095  1.00  0.00     0.012 A   
ATOM     21  C16 UNL     1       2.976   1.625  -0.199  1.00  0.00     0.045 A   
ATOM     22  C13 UNL     1       4.660   2.826   1.729  1.00  0.00     0.037 A   
ATOM     23  C15 UNL     1       3.849   2.641  -0.527  1.00  0.00     0.109 A   
ATOM     24  C14 UNL     1       4.664   3.229   0.411  1.00  0.00     0.108 A   
ATOM     25  O2  UNL     1       4.007   3.179  -1.764  1.00  0.00    -0.316 OA  
ATOM     26  O3  UNL     1       5.430   4.218  -0.118  1.00  0.00    -0.316 OA  
ATOM     27  C17 UNL     1       5.041   4.155  -1.509  1.00  0.00     0.337 C   
ENDBRANCH  18  19
ENDBRANCH  15  18
ENDBRANCH  14  15
BRANCH  14  28
ATOM     28  C18 UNL     1      -1.566   0.349   3.008  1.00  0.00     0.037 C   
ATOM     29  C19 UNL     1      -2.110   1.681   2.475  1.00  0.00     0.014 C   
ATOM     30  C20 UNL     1      -1.101   0.523   4.459  1.00  0.00     0.014 C   
ENDBRANCH  14  28
ENDBRANCH   3  14
TORSDOF 7
