REMARK SMILES c1cc2c(cc1C[NH2+][C@H](c1cn(Cc3cn[nH]c3C3CCC3)nn1)C1CCCC1)OCO2
REMARK SMILES IDX 10 1 11 2 12 3 23 4 24 5 9 7 8 8 7 11 6 12 1 13 2 14 3 15
REMARK SMILES IDX 5 16 4 17 32 18 30 19 31 20 25 21 26 22 29 23 27 24 28 25
REMARK SMILES IDX 13 26 14 27 15 28 18 29 16 30 17 31 19 33 20 34 22 35 21 36
REMARK H PARENT 11 6 8 9 8 10 17 32
ROOT
ATOM     1   C9  UNL     1      -1.391  -1.361  -0.929  1.00  0.00     0.127 A   
ATOM     2   C10 UNL     1      -0.842  -1.224   0.327  1.00  0.00     0.046 A   
ATOM     3   N2  UNL     1      -0.329  -2.464   0.598  1.00  0.00    -0.208 N   
ATOM     4   N5  UNL     1      -0.587  -3.321  -0.410  1.00  0.00    -0.076 NA  
ATOM     5   N6  UNL     1      -1.240  -2.657  -1.350  1.00  0.00    -0.132 NA  
ATOM     6   H9  UNL     1      -0.712  -0.385   0.996  1.00  0.00     0.083 HD  
ENDROOT
BRANCH   1   7
ATOM     7   C8  UNL     1      -1.970  -0.350  -1.861  1.00  0.00     0.117 C   
BRANCH   7   8
ATOM     8   N1  UNL     1      -1.364  -0.515  -3.242  1.00  0.00     0.249 N   
ATOM     9   H6  UNL     1      -1.572  -1.480  -3.535  1.00  0.00     0.199 HD  
ATOM     10  H7  UNL     1      -1.822   0.112  -3.908  1.00  0.00     0.199 HD  
BRANCH   8  11
ATOM     11  C7  UNL     1       0.118  -0.334  -3.352  1.00  0.00     0.164 C   
BRANCH  11  12
ATOM     12  C6  UNL     1       0.587   1.029  -2.923  1.00  0.00    -0.002 A   
ATOM     13  C1  UNL     1       0.277   2.174  -3.696  1.00  0.00     0.012 A   
ATOM     14  C2  UNL     1       0.682   3.447  -3.284  1.00  0.00     0.037 A   
ATOM     15  C3  UNL     1       1.387   3.549  -2.106  1.00  0.00     0.108 A   
ATOM     16  C5  UNL     1       1.318   1.175  -1.730  1.00  0.00     0.045 A   
ATOM     17  C4  UNL     1       1.696   2.445  -1.350  1.00  0.00     0.109 A   
ATOM     18  O2  UNL     1       1.849   4.701  -1.553  1.00  0.00    -0.316 OA  
ATOM     19  O1  UNL     1       2.383   2.765  -0.221  1.00  0.00    -0.316 OA  
ATOM     20  C24 UNL     1       2.497   4.199  -0.364  1.00  0.00     0.337 C   
ENDBRANCH  11  12
ENDBRANCH   8  11
ENDBRANCH   7   8
BRANCH   7  21
ATOM     21  C19 UNL     1      -3.499  -0.492  -1.986  1.00  0.00     0.043 C   
ATOM     22  C20 UNL     1      -4.155   0.519  -2.937  1.00  0.00     0.010 C   
ATOM     23  C23 UNL     1      -4.246  -0.233  -0.673  1.00  0.00     0.010 C   
ATOM     24  C21 UNL     1      -5.598   0.675  -2.452  1.00  0.00     0.001 C   
ATOM     25  C22 UNL     1      -5.688  -0.079  -1.129  1.00  0.00     0.001 C   
ENDBRANCH   7  21
ENDBRANCH   1   7
BRANCH   3  26
ATOM     26  C11 UNL     1       0.534  -2.852   1.703  1.00  0.00     0.172 C   
BRANCH  26  27
ATOM     27  C12 UNL     1       1.907  -2.327   1.458  1.00  0.00     0.010 A   
ATOM     28  C13 UNL     1       2.823  -2.811   0.490  1.00  0.00     0.138 A   
ATOM     29  C14 UNL     1       2.590  -1.286   2.058  1.00  0.00     0.034 A   
ATOM     30  N3  UNL     1       3.951  -2.103   0.449  1.00  0.00    -0.192 NA  
ATOM     31  N4  UNL     1       3.806  -1.205   1.436  1.00  0.00    -0.242 N   
ATOM     32  H13 UNL     1       4.575  -0.568   1.625  1.00  0.00     0.175 HD  
BRANCH  29  33
ATOM     33  C15 UNL     1       2.101  -0.375   3.216  1.00  0.00     0.035 C   
ATOM     34  C16 UNL     1       3.148  -0.035   4.306  1.00  0.00     0.010 C   
ATOM     35  C18 UNL     1       2.078   1.138   2.887  1.00  0.00     0.010 C   
ATOM     36  C17 UNL     1       2.544   1.385   4.337  1.00  0.00     0.001 C   
ENDBRANCH  29  33
ENDBRANCH  26  27
ENDBRANCH   3  26
TORSDOF 8
