REMARK SMILES CC(C)(C)[C@H]([NH2+]Cc1ccc2c(c1)OCO2)c1cn(CCc2cncc(F)c2)nn1
REMARK SMILES IDX 17 1 18 2 19 3 29 4 30 5 5 7 2 8 1 9 3 10 4 11 6 12 7 15
REMARK SMILES IDX 8 16 9 17 13 18 10 19 12 20 11 21 14 22 16 23 15 24 20 25
REMARK SMILES IDX 21 26 22 27 23 28 28 29 24 30 26 31 25 32 27 33
REMARK H PARENT 18 6 6 13 6 14
ROOT
ATOM     1   C14 UNL     1      -2.056   0.642  -1.526  1.00  0.00     0.127 A   
ATOM     2   C15 UNL     1      -2.895   1.030  -0.503  1.00  0.00     0.045 A   
ATOM     3   N2  UNL     1      -4.136   0.652  -0.934  1.00  0.00    -0.212 N   
ATOM     4   N4  UNL     1      -4.071   0.079  -2.148  1.00  0.00    -0.076 NA  
ATOM     5   N5  UNL     1      -2.801   0.058  -2.519  1.00  0.00    -0.132 NA  
ATOM     6   H20 UNL     1      -2.728   1.481   0.466  1.00  0.00     0.083 HD  
ENDROOT
BRANCH   1   7
ATOM     7   C5  UNL     1      -0.561   0.651  -1.631  1.00  0.00     0.120 C   
BRANCH   7   8
ATOM     8   C2  UNL     1       0.024   1.842  -2.464  1.00  0.00     0.010 C   
ATOM     9   C1  UNL     1      -0.469   3.186  -1.886  1.00  0.00     0.017 C   
ATOM     10  C3  UNL     1      -0.364   1.777  -3.951  1.00  0.00     0.017 C   
ATOM     11  C4  UNL     1       1.568   1.854  -2.365  1.00  0.00     0.017 C   
ENDBRANCH   7   8
BRANCH   7  12
ATOM     12  N1  UNL     1      -0.120  -0.678  -2.215  1.00  0.00     0.250 N   
ATOM     13  H11 UNL     1       0.809  -0.618  -2.638  1.00  0.00     0.199 HD  
ATOM     14  H12 UNL     1      -0.782  -0.886  -2.978  1.00  0.00     0.199 HD  
BRANCH  12  15
ATOM     15  C6  UNL     1      -0.143  -1.843  -1.276  1.00  0.00     0.164 C   
BRANCH  15  16
ATOM     16  C7  UNL     1       0.972  -1.782  -0.269  1.00  0.00    -0.002 A   
ATOM     17  C8  UNL     1       0.701  -1.428   1.075  1.00  0.00     0.012 A   
ATOM     18  C12 UNL     1       2.297  -2.040  -0.663  1.00  0.00     0.045 A   
ATOM     19  C9  UNL     1       1.733  -1.324   2.016  1.00  0.00     0.037 A   
ATOM     20  C11 UNL     1       3.291  -1.926   0.288  1.00  0.00     0.109 A   
ATOM     21  C10 UNL     1       3.018  -1.576   1.589  1.00  0.00     0.108 A   
ATOM     22  O1  UNL     1       4.616  -2.136   0.073  1.00  0.00    -0.316 OA  
ATOM     23  O2  UNL     1       4.137  -1.524   2.358  1.00  0.00    -0.316 OA  
ATOM     24  C13 UNL     1       5.150  -1.899   1.398  1.00  0.00     0.337 C   
ENDBRANCH  15  16
ENDBRANCH  12  15
ENDBRANCH   7  12
ENDBRANCH   1   7
BRANCH   3  25
ATOM     25  C16 UNL     1      -5.377   0.650  -0.184  1.00  0.00     0.139 C   
BRANCH  25  26
ATOM     26  C17 UNL     1      -5.840  -0.759   0.203  1.00  0.00     0.058 C   
BRANCH  26  27
ATOM     27  C18 UNL     1      -4.812  -1.508   1.017  1.00  0.00    -0.025 A   
ATOM     28  C19 UNL     1      -3.902  -2.367   0.398  1.00  0.00     0.115 A   
ATOM     29  C22 UNL     1      -4.685  -1.315   2.395  1.00  0.00     0.046 A   
ATOM     30  N3  UNL     1      -2.883  -2.988   1.037  1.00  0.00    -0.261 NA  
ATOM     31  C21 UNL     1      -3.683  -1.987   3.082  1.00  0.00     0.141 A   
ATOM     32  C20 UNL     1      -2.820  -2.809   2.380  1.00  0.00     0.150 A   
ATOM     33  F1  UNL     1      -3.536  -1.814   4.399  1.00  0.00    -0.205 F   
ENDBRANCH  26  27
ENDBRANCH  25  26
ENDBRANCH   3  25
TORSDOF 8
