REMARK SMILES CC(C)[C@H]([NH2+]Cc1ccc2c(c1)OCO2)c1cn(CCc2cc(O)ccc2O)nn1
REMARK SMILES IDX 16 1 17 2 18 3 29 4 30 5 4 7 2 8 1 9 3 10 5 11 6 14 7 15
REMARK SMILES IDX 8 16 12 17 9 18 11 19 10 20 13 21 15 22 14 23 19 24 20 25
REMARK SMILES IDX 21 26 22 27 27 28 23 29 26 30 25 31 28 32 24 34
REMARK H PARENT 17 6 5 12 5 13 28 33 24 35
ROOT
ATOM     1   C13 UNL     1       0.375  -1.536  -0.179  1.00  0.00     0.127 A   
ATOM     2   C14 UNL     1      -0.514  -2.568   0.019  1.00  0.00     0.045 A   
ATOM     3   N2  UNL     1      -0.533  -2.727   1.377  1.00  0.00    -0.212 N   
ATOM     4   N3  UNL     1       0.333  -1.888   1.974  1.00  0.00    -0.076 NA  
ATOM     5   N4  UNL     1       0.895  -1.150   1.031  1.00  0.00    -0.132 NA  
ATOM     6   H18 UNL     1      -1.166  -3.128  -0.637  1.00  0.00     0.083 HD  
ENDROOT
BRANCH   1   7
ATOM     7   C4  UNL     1       0.720  -0.764  -1.408  1.00  0.00     0.117 C   
BRANCH   7   8
ATOM     8   C2  UNL     1       2.016  -1.232  -2.116  1.00  0.00     0.037 C   
ATOM     9   C1  UNL     1       1.873  -2.657  -2.663  1.00  0.00     0.014 C   
ATOM     10  C3  UNL     1       3.280  -1.135  -1.254  1.00  0.00     0.014 C   
ENDBRANCH   7   8
BRANCH   7  11
ATOM     11  N1  UNL     1       0.856   0.701  -1.072  1.00  0.00     0.249 N   
ATOM     12  H9  UNL     1       1.333   1.215  -1.818  1.00  0.00     0.199 HD  
ATOM     13  H10 UNL     1       1.457   0.762  -0.237  1.00  0.00     0.199 HD  
BRANCH  11  14
ATOM     14  C5  UNL     1      -0.421   1.396  -0.733  1.00  0.00     0.164 C   
BRANCH  14  15
ATOM     15  C6  UNL     1      -0.163   2.849  -0.449  1.00  0.00    -0.002 A   
ATOM     16  C7  UNL     1      -0.258   3.811  -1.483  1.00  0.00     0.012 A   
ATOM     17  C11 UNL     1       0.229   3.252   0.839  1.00  0.00     0.045 A   
ATOM     18  C8  UNL     1       0.024   5.159  -1.237  1.00  0.00     0.037 A   
ATOM     19  C10 UNL     1       0.500   4.588   1.047  1.00  0.00     0.109 A   
ATOM     20  C9  UNL     1       0.401   5.515   0.039  1.00  0.00     0.108 A   
ATOM     21  O1  UNL     1       0.889   5.142   2.225  1.00  0.00    -0.316 OA  
ATOM     22  O2  UNL     1       0.712   6.769   0.456  1.00  0.00    -0.316 OA  
ATOM     23  C12 UNL     1       1.007   6.532   1.849  1.00  0.00     0.337 C   
ENDBRANCH  14  15
ENDBRANCH  11  14
ENDBRANCH   7  11
ENDBRANCH   1   7
BRANCH   3  24
ATOM     24  C15 UNL     1      -1.456  -3.522   2.164  1.00  0.00     0.139 C   
BRANCH  24  25
ATOM     25  C16 UNL     1      -2.592  -2.679   2.748  1.00  0.00     0.060 C   
BRANCH  25  26
ATOM     26  C17 UNL     1      -3.439  -2.018   1.682  1.00  0.00    -0.014 A   
ATOM     27  C18 UNL     1      -3.211  -0.677   1.340  1.00  0.00     0.039 A   
ATOM     28  C22 UNL     1      -4.421  -2.728   0.983  1.00  0.00     0.075 A   
ATOM     29  C19 UNL     1      -3.946  -0.080   0.322  1.00  0.00     0.072 A   
ATOM     30  C21 UNL     1      -5.174  -2.120  -0.021  1.00  0.00     0.036 A   
ATOM     31  C20 UNL     1      -4.934  -0.786  -0.355  1.00  0.00     0.036 A   
BRANCH  28  32
ATOM     32  O4  UNL     1      -4.614  -4.044   1.290  1.00  0.00    -0.361 OA  
ATOM     33  H27 UNL     1      -5.440  -4.349   0.876  1.00  0.00     0.218 HD  
ENDBRANCH  28  32
BRANCH  29  34
ATOM     34  O3  UNL     1      -3.654   1.212  -0.009  1.00  0.00    -0.361 OA  
ATOM     35  H24 UNL     1      -4.471   1.610  -0.365  1.00  0.00     0.218 HD  
ENDBRANCH  29  34
ENDBRANCH  25  26
ENDBRANCH  24  25
ENDBRANCH   3  24
TORSDOF 10
