REMARK SMILES Cc1nc2ccc(-n3cc([C@@H]([NH2+]Cc4ccc5c(c4)OCO5)C4CCCCC4)nn3)cc2[nH]1
REMARK SMILES IDX 11 1 10 2 8 3 9 4 30 5 29 6 7 7 2 8 3 9 33 10 4 11 32 12
REMARK SMILES IDX 5 13 31 14 6 15 1 16 12 18 13 21 14 22 15 23 19 24 16 25
REMARK SMILES IDX 18 26 17 27 20 28 22 29 21 30 23 31 24 32 28 33 25 34 27 35
REMARK SMILES IDX 26 36
REMARK H PARENT 33 17 12 19 12 20
ROOT
ATOM     1   C9  UNL     1      -2.421  -0.489  -0.650  1.00  0.00     0.117 C   
ENDROOT
BRANCH   1   2
ATOM     2   C8  UNL     1      -0.973  -0.116  -0.730  1.00  0.00     0.127 A   
ATOM     3   N2  UNL     1       1.201   0.102  -0.589  1.00  0.00    -0.181 N   
ATOM     4   C7  UNL     1       0.151  -0.709  -0.200  1.00  0.00     0.135 A   
ATOM     5   N5  UNL     1       0.705   1.141  -1.312  1.00  0.00    -0.071 NA  
ATOM     6   N4  UNL     1      -0.606   1.009  -1.414  1.00  0.00    -0.131 NA  
BRANCH   3   7
ATOM     7   C6  UNL     1       2.589  -0.043  -0.328  1.00  0.00     0.060 A   
ATOM     8   C2  UNL     1       7.035   0.898  -0.203  1.00  0.00     0.096 A   
ATOM     9   N1  UNL     1       6.685  -0.246   0.342  1.00  0.00    -0.236 NA  
ATOM     10  N6  UNL     1       5.940   1.558  -0.705  1.00  0.00    -0.302 N   
ATOM     11  C3  UNL     1       5.326  -0.325   0.196  1.00  0.00     0.086 A   
ATOM     12  C25 UNL     1       4.828   0.791  -0.463  1.00  0.00     0.059 A   
ATOM     13  C4  UNL     1       4.442  -1.330   0.604  1.00  0.00     0.032 A   
ATOM     14  C24 UNL     1       3.471   0.974  -0.752  1.00  0.00     0.052 A   
ATOM     15  C5  UNL     1       3.071  -1.180   0.342  1.00  0.00     0.028 A   
ATOM     16  C1  UNL     1       8.404   1.458  -0.285  1.00  0.00     0.085 C   
ATOM     17  H29 UNL     1       5.957   2.457  -1.165  1.00  0.00     0.154 HD  
ENDBRANCH   3   7
ENDBRANCH   1   2
BRANCH   1  18
ATOM     18  N3  UNL     1      -3.282   0.723  -0.929  1.00  0.00     0.249 N   
ATOM     19  H8  UNL     1      -2.667   1.408  -1.397  1.00  0.00     0.199 HD  
ATOM     20  H9  UNL     1      -4.017   0.507  -1.610  1.00  0.00     0.199 HD  
BRANCH  18  21
ATOM     21  C10 UNL     1      -3.906   1.381   0.254  1.00  0.00     0.164 C   
BRANCH  21  22
ATOM     22  C11 UNL     1      -2.925   1.918   1.254  1.00  0.00    -0.002 A   
ATOM     23  C12 UNL     1      -2.070   2.993   0.917  1.00  0.00     0.012 A   
ATOM     24  C16 UNL     1      -2.846   1.353   2.539  1.00  0.00     0.045 A   
ATOM     25  C13 UNL     1      -1.143   3.492   1.836  1.00  0.00     0.037 A   
ATOM     26  C15 UNL     1      -1.924   1.870   3.423  1.00  0.00     0.109 A   
ATOM     27  C14 UNL     1      -1.096   2.909   3.082  1.00  0.00     0.108 A   
ATOM     28  O1  UNL     1      -1.720   1.440   4.695  1.00  0.00    -0.316 OA  
ATOM     29  O2  UNL     1      -0.269   3.266   4.095  1.00  0.00    -0.316 OA  
ATOM     30  C17 UNL     1      -0.687   2.352   5.129  1.00  0.00     0.337 C   
ENDBRANCH  21  22
ENDBRANCH  18  21
ENDBRANCH   1  18
BRANCH   1  31
ATOM     31  C18 UNL     1      -2.784  -1.651  -1.613  1.00  0.00     0.043 C   
ATOM     32  C19 UNL     1      -4.199  -2.192  -1.335  1.00  0.00     0.010 C   
ATOM     33  C23 UNL     1      -2.622  -1.305  -3.106  1.00  0.00     0.010 C   
ATOM     34  C20 UNL     1      -4.538  -3.376  -2.235  1.00  0.00     0.001 C   
ATOM     35  C22 UNL     1      -2.972  -2.495  -4.000  1.00  0.00     0.001 C   
ATOM     36  C21 UNL     1      -4.370  -3.026  -3.708  1.00  0.00     0.000 C   
ENDBRANCH   1  31
TORSDOF 6
