REMARK SMILES CC(C)(C)[C@H]([NH2+]Cc1ccc2c(c1)OCO2)c1cn(Cc2ccc3[nH]cnc3c2)nn1
REMARK SMILES IDX 17 1 18 2 19 3 30 4 31 5 5 7 2 8 1 9 3 10 4 11 6 12 7 15
REMARK SMILES IDX 8 16 9 17 13 18 10 19 12 20 11 21 14 22 16 23 15 24 20 25
REMARK SMILES IDX 21 26 22 27 29 28 23 29 28 30 24 31 27 32 25 33 26 34
REMARK H PARENT 18 6 6 13 6 14 25 35
ROOT
ATOM     1   C14 UNL     1      -0.489   0.195   2.245  1.00  0.00     0.127 A   
ATOM     2   C15 UNL     1      -1.615   0.194   1.452  1.00  0.00     0.046 A   
ATOM     3   N2  UNL     1      -2.337   1.266   1.907  1.00  0.00    -0.208 N   
ATOM     4   N5  UNL     1      -1.739   1.826   2.978  1.00  0.00    -0.076 NA  
ATOM     5   N6  UNL     1      -0.600   1.187   3.185  1.00  0.00    -0.132 NA  
ATOM     6   H20 UNL     1      -1.908  -0.370   0.577  1.00  0.00     0.083 HD  
ENDROOT
BRANCH   1   7
ATOM     7   C5  UNL     1       0.796  -0.560   2.112  1.00  0.00     0.120 C   
BRANCH   7   8
ATOM     8   C2  UNL     1       0.980  -1.718   3.153  1.00  0.00     0.010 C   
ATOM     9   C1  UNL     1       1.102  -1.215   4.605  1.00  0.00     0.017 C   
ATOM     10  C3  UNL     1      -0.221  -2.690   3.075  1.00  0.00     0.017 C   
ATOM     11  C4  UNL     1       2.247  -2.539   2.819  1.00  0.00     0.017 C   
ENDBRANCH   7   8
BRANCH   7  12
ATOM     12  N1  UNL     1       1.947   0.426   2.200  1.00  0.00     0.250 N   
ATOM     13  H11 UNL     1       2.840  -0.057   2.312  1.00  0.00     0.199 HD  
ATOM     14  H12 UNL     1       1.787   0.978   3.054  1.00  0.00     0.199 HD  
BRANCH  12  15
ATOM     15  C6  UNL     1       2.070   1.408   1.073  1.00  0.00     0.164 C   
BRANCH  15  16
ATOM     16  C7  UNL     1       2.368   0.754  -0.248  1.00  0.00    -0.002 A   
ATOM     17  C8  UNL     1       3.614   0.122  -0.475  1.00  0.00     0.012 A   
ATOM     18  C12 UNL     1       1.394   0.747  -1.262  1.00  0.00     0.045 A   
ATOM     19  C9  UNL     1       3.882  -0.520  -1.689  1.00  0.00     0.037 A   
ATOM     20  C11 UNL     1       1.690   0.105  -2.446  1.00  0.00     0.109 A   
ATOM     21  C10 UNL     1       2.897  -0.514  -2.652  1.00  0.00     0.108 A   
ATOM     22  O1  UNL     1       0.861  -0.002  -3.517  1.00  0.00    -0.316 OA  
ATOM     23  O2  UNL     1       2.982  -1.090  -3.879  1.00  0.00    -0.316 OA  
ATOM     24  C13 UNL     1       1.697  -0.742  -4.436  1.00  0.00     0.337 C   
ENDBRANCH  15  16
ENDBRANCH  12  15
ENDBRANCH   7  12
ENDBRANCH   1   7
BRANCH   3  25
ATOM     25  C16 UNL     1      -3.431   1.950   1.228  1.00  0.00     0.169 C   
BRANCH  25  26
ATOM     26  C17 UNL     1      -2.951   2.499  -0.100  1.00  0.00    -0.026 A   
ATOM     27  C18 UNL     1      -3.597   2.146  -1.296  1.00  0.00     0.007 A   
ATOM     28  C23 UNL     1      -1.819   3.342  -0.143  1.00  0.00     0.035 A   
ATOM     29  C19 UNL     1      -3.124   2.575  -2.545  1.00  0.00     0.026 A   
ATOM     30  C22 UNL     1      -1.306   3.737  -1.384  1.00  0.00     0.086 A   
ATOM     31  C20 UNL     1      -1.965   3.355  -2.545  1.00  0.00     0.057 A   
ATOM     32  N4  UNL     1      -0.173   4.454  -1.669  1.00  0.00    -0.239 NA  
ATOM     33  N3  UNL     1      -1.221   3.916  -3.551  1.00  0.00    -0.304 N   
ATOM     34  C21 UNL     1      -0.157   4.557  -2.979  1.00  0.00     0.186 A   
ATOM     35  H25 UNL     1      -1.418   3.861  -4.541  1.00  0.00     0.154 HD  
ENDBRANCH  25  26
ENDBRANCH   3  25
TORSDOF 7
