REMARK SMILES Cc1cc(CCn2cc([C@@H]([NH2+]Cc3ccc4c(c3)OCO4)C(C)(C)C)nn2)cc(C)c1O
REMARK SMILES IDX 7 1 8 2 9 3 26 4 27 5 6 7 5 8 4 9 2 10 3 11 31 12 29 13
REMARK SMILES IDX 28 14 1 15 30 16 32 17 10 19 11 20 12 23 13 24 14 25 18 26
REMARK SMILES IDX 15 27 17 28 16 29 19 30 21 31 20 32 22 33 23 34 24 35 25 36
REMARK H PARENT 8 6 32 18 11 21 11 22
ROOT
ATOM     1   N1  UNL     1       1.237   3.553  -0.066  1.00  0.00    -0.212 N   
ATOM     2   C7  UNL     1       0.207   3.241   0.776  1.00  0.00     0.045 A   
ATOM     3   C8  UNL     1       0.617   2.074   1.381  1.00  0.00     0.127 A   
ATOM     4   N3  UNL     1       1.871   1.749   0.927  1.00  0.00    -0.132 NA  
ATOM     5   N4  UNL     1       2.241   2.666   0.048  1.00  0.00    -0.076 NA  
ATOM     6   H9  UNL     1      -0.709   3.814   0.811  1.00  0.00     0.083 HD  
ENDROOT
BRANCH   1   7
ATOM     7   C6  UNL     1       1.264   4.582  -1.085  1.00  0.00     0.139 C   
BRANCH   7   8
ATOM     8   C5  UNL     1       1.087   4.025  -2.502  1.00  0.00     0.057 C   
BRANCH   8   9
ATOM     9   C4  UNL     1      -0.138   3.148  -2.656  1.00  0.00    -0.046 A   
ATOM     10  C2  UNL     1      -1.106   0.938  -3.013  1.00  0.00    -0.021 A   
ATOM     11  C3  UNL     1       0.010   1.780  -2.922  1.00  0.00     0.010 A   
ATOM     12  C25 UNL     1      -2.382   1.489  -2.839  1.00  0.00     0.077 A   
ATOM     13  C23 UNL     1      -2.561   2.854  -2.580  1.00  0.00    -0.021 A   
ATOM     14  C22 UNL     1      -1.427   3.678  -2.507  1.00  0.00     0.010 A   
ATOM     15  C1  UNL     1      -0.930  -0.512  -3.367  1.00  0.00     0.047 C   
ATOM     16  C24 UNL     1      -3.925   3.460  -2.405  1.00  0.00     0.047 C   
BRANCH  12  17
ATOM     17  O3  UNL     1      -3.449   0.638  -2.924  1.00  0.00    -0.360 OA  
ATOM     18  H33 UNL     1      -4.216   1.136  -3.255  1.00  0.00     0.218 HD  
ENDBRANCH  12  17
ENDBRANCH   8   9
ENDBRANCH   7   8
ENDBRANCH   1   7
BRANCH   3  19
ATOM     19  C9  UNL     1      -0.120   1.124   2.274  1.00  0.00     0.120 C   
BRANCH  19  20
ATOM     20  N2  UNL     1       0.146  -0.284   1.799  1.00  0.00     0.250 N   
ATOM     21  H11 UNL     1       1.166  -0.368   1.681  1.00  0.00     0.199 HD  
ATOM     22  H12 UNL     1      -0.127  -0.989   2.487  1.00  0.00     0.199 HD  
BRANCH  20  23
ATOM     23  C10 UNL     1      -0.472  -0.635   0.486  1.00  0.00     0.164 C   
BRANCH  23  24
ATOM     24  C11 UNL     1      -0.085  -2.030   0.086  1.00  0.00    -0.002 A   
ATOM     25  C12 UNL     1       1.157  -2.264  -0.553  1.00  0.00     0.012 A   
ATOM     26  C16 UNL     1      -0.925  -3.114   0.386  1.00  0.00     0.045 A   
ATOM     27  C13 UNL     1       1.553  -3.560  -0.900  1.00  0.00     0.037 A   
ATOM     28  C15 UNL     1      -0.503  -4.378   0.033  1.00  0.00     0.109 A   
ATOM     29  C14 UNL     1       0.700  -4.596  -0.591  1.00  0.00     0.108 A   
ATOM     30  O1  UNL     1      -1.190  -5.530   0.252  1.00  0.00    -0.316 OA  
ATOM     31  O2  UNL     1       0.921  -5.911  -0.847  1.00  0.00    -0.316 OA  
ATOM     32  C17 UNL     1      -0.288  -6.502  -0.324  1.00  0.00     0.337 C   
ENDBRANCH  23  24
ENDBRANCH  20  23
ENDBRANCH  19  20
BRANCH  19  33
ATOM     33  C18 UNL     1       0.222   1.269   3.796  1.00  0.00     0.010 C   
ATOM     34  C19 UNL     1      -0.032   2.722   4.259  1.00  0.00     0.017 C   
ATOM     35  C20 UNL     1       1.685   0.906   4.120  1.00  0.00     0.017 C   
ATOM     36  C21 UNL     1      -0.699   0.360   4.642  1.00  0.00     0.017 C   
ENDBRANCH  19  33
ENDBRANCH   3  19
TORSDOF 9
