REMARK SMILES CS(=O)(=O)c1ccccc1-n1cc([C@@H]([NH2+]Cc2ccc3c(c2)OCO3)C2CCCCC2)nn1
REMARK SMILES IDX 11 1 12 2 13 3 32 4 33 5 10 6 5 7 6 8 7 9 9 10 8 11 2 12
REMARK SMILES IDX 1 13 3 14 4 15 14 16 15 17 16 20 17 21 18 22 22 23 19 24
REMARK SMILES IDX 21 25 20 26 23 27 25 28 24 29 26 30 27 31 31 32 28 33 30 34
REMARK SMILES IDX 29 35
REMARK H PARENT 15 18 15 19
ROOT
ATOM     1   N1  UNL     1       0.756  -0.034  -3.183  1.00  0.00    -0.169 N   
ATOM     2   C8  UNL     1       1.386   0.499  -2.081  1.00  0.00     0.135 A   
ATOM     3   C9  UNL     1       1.194  -0.431  -1.086  1.00  0.00     0.127 A   
ATOM     4   N3  UNL     1       0.607  -1.542  -1.624  1.00  0.00    -0.131 NA  
ATOM     5   N4  UNL     1       0.441  -1.328  -2.920  1.00  0.00    -0.071 NA  
ENDROOT
BRANCH   1   6
ATOM     6   C7  UNL     1       0.441   0.570  -4.422  1.00  0.00     0.178 A   
ATOM     7   C2  UNL     1       0.089   1.928  -4.559  1.00  0.00     0.330 A   
ATOM     8   C3  UNL     1      -0.075   2.472  -5.843  1.00  0.00     0.136 A   
ATOM     9   C4  UNL     1       0.050   1.663  -6.974  1.00  0.00     0.013 A   
ATOM     10  C6  UNL     1       0.507  -0.244  -5.566  1.00  0.00     0.039 A   
ATOM     11  C5  UNL     1       0.318   0.304  -6.835  1.00  0.00     0.003 A   
BRANCH   7  12
ATOM     12  S1  UNL     1      -0.392   2.928  -3.157  1.00  0.00    -0.237 S   
ATOM     13  C1  UNL     1      -1.600   4.096  -3.717  1.00  0.00     0.674 C   
ATOM     14  O1  UNL     1       0.795   3.650  -2.746  1.00  0.00    -0.517 OA  
ATOM     15  O2  UNL     1      -1.069   2.050  -2.214  1.00  0.00    -0.517 OA  
ENDBRANCH   7  12
ENDBRANCH   1   6
BRANCH   3  16
ATOM     16  C10 UNL     1       1.350  -0.291   0.387  1.00  0.00     0.117 C   
BRANCH  16  17
ATOM     17  N2  UNL     1       0.069  -0.714   1.072  1.00  0.00     0.249 N   
ATOM     18  H10 UNL     1      -0.130  -1.688   0.806  1.00  0.00     0.199 HD  
ATOM     19  H11 UNL     1       0.180  -0.698   2.091  1.00  0.00     0.199 HD  
BRANCH  17  20
ATOM     20  C11 UNL     1      -1.140   0.095   0.707  1.00  0.00     0.164 C   
BRANCH  20  21
ATOM     21  C12 UNL     1      -2.230  -0.109   1.723  1.00  0.00    -0.002 A   
ATOM     22  C13 UNL     1      -2.467   0.872   2.717  1.00  0.00     0.012 A   
ATOM     23  C17 UNL     1      -2.986  -1.295   1.725  1.00  0.00     0.045 A   
ATOM     24  C14 UNL     1      -3.441   0.677   3.702  1.00  0.00     0.037 A   
ATOM     25  C16 UNL     1      -3.939  -1.456   2.710  1.00  0.00     0.109 A   
ATOM     26  C15 UNL     1      -4.156  -0.501   3.672  1.00  0.00     0.108 A   
ATOM     27  O3  UNL     1      -4.749  -2.537   2.860  1.00  0.00    -0.316 OA  
ATOM     28  O4  UNL     1      -5.126  -0.861   4.551  1.00  0.00    -0.316 OA  
ATOM     29  C18 UNL     1      -5.523  -2.142   4.014  1.00  0.00     0.337 C   
ENDBRANCH  20  21
ENDBRANCH  17  20
ENDBRANCH  16  17
BRANCH  16  30
ATOM     30  C19 UNL     1       2.540  -1.039   1.046  1.00  0.00     0.043 C   
ATOM     31  C20 UNL     1       3.897  -0.369   0.756  1.00  0.00     0.010 C   
ATOM     32  C24 UNL     1       2.601  -2.566   0.834  1.00  0.00     0.010 C   
ATOM     33  C21 UNL     1       4.582  -0.838  -0.522  1.00  0.00     0.001 C   
ATOM     34  C23 UNL     1       3.341  -3.022  -0.423  1.00  0.00     0.001 C   
ATOM     35  C22 UNL     1       4.700  -2.355  -0.566  1.00  0.00     0.000 C   
ENDBRANCH  16  30
ENDBRANCH   3  16
TORSDOF 7
