REMARK SMILES CC(C)C[C@H]([NH2+]Cc1ccc2c(c1)OCO2)c1cn(Cc2cnc(C(C)C)nc2)nn1
REMARK SMILES IDX 17 1 18 2 19 3 30 4 31 5 5 7 4 8 2 9 1 10 3 11 6 12 7 15
REMARK SMILES IDX 8 16 9 17 13 18 10 19 12 20 11 21 14 22 16 23 15 24 20 25
REMARK SMILES IDX 21 26 22 27 29 28 23 29 28 30 24 31 25 32 26 33 27 34
REMARK H PARENT 18 6 6 13 6 14
ROOT
ATOM     1   C14 UNL     1       0.264  -1.218   0.480  1.00  0.00     0.127 A   
ATOM     2   C15 UNL     1       1.435  -1.511  -0.186  1.00  0.00     0.046 A   
ATOM     3   N2  UNL     1       1.241  -0.998  -1.439  1.00  0.00    -0.208 N   
ATOM     4   N5  UNL     1       0.023  -0.434  -1.545  1.00  0.00    -0.076 NA  
ATOM     5   N6  UNL     1      -0.584  -0.562  -0.377  1.00  0.00    -0.132 NA  
ATOM     6   H20 UNL     1       2.356  -1.997   0.107  1.00  0.00     0.083 HD  
ENDROOT
BRANCH   1   7
ATOM     7   C5  UNL     1      -0.151  -1.458   1.895  1.00  0.00     0.114 C   
BRANCH   7   8
ATOM     8   C4  UNL     1      -0.362  -2.945   2.245  1.00  0.00     0.064 C   
BRANCH   8   9
ATOM     9   C2  UNL     1      -1.656  -3.642   1.763  1.00  0.00    -0.012 C   
ATOM     10  C1  UNL     1      -1.717  -5.054   2.358  1.00  0.00     0.007 C   
ATOM     11  C3  UNL     1      -1.775  -3.734   0.243  1.00  0.00     0.007 C   
ENDBRANCH   8   9
ENDBRANCH   7   8
BRANCH   7  12
ATOM     12  N1  UNL     1      -1.381  -0.678   2.261  1.00  0.00     0.249 N   
ATOM     13  H11 UNL     1      -1.846  -1.071   3.086  1.00  0.00     0.199 HD  
ATOM     14  H12 UNL     1      -2.044  -0.772   1.478  1.00  0.00     0.199 HD  
BRANCH  12  15
ATOM     15  C6  UNL     1      -1.168   0.781   2.482  1.00  0.00     0.164 C   
BRANCH  15  16
ATOM     16  C7  UNL     1      -2.478   1.465   2.753  1.00  0.00    -0.002 A   
ATOM     17  C8  UNL     1      -3.291   1.893   1.676  1.00  0.00     0.012 A   
ATOM     18  C12 UNL     1      -2.930   1.635   4.073  1.00  0.00     0.045 A   
ATOM     19  C9  UNL     1      -4.533   2.493   1.908  1.00  0.00     0.037 A   
ATOM     20  C11 UNL     1      -4.159   2.232   4.266  1.00  0.00     0.109 A   
ATOM     21  C10 UNL     1      -4.939   2.648   3.215  1.00  0.00     0.108 A   
ATOM     22  O1  UNL     1      -4.740   2.471   5.470  1.00  0.00    -0.316 OA  
ATOM     23  O2  UNL     1      -6.109   3.202   3.626  1.00  0.00    -0.316 OA  
ATOM     24  C13 UNL     1      -5.967   3.116   5.060  1.00  0.00     0.337 C   
ENDBRANCH  15  16
ENDBRANCH  12  15
ENDBRANCH   7  12
ENDBRANCH   1   7
BRANCH   3  25
ATOM     25  C16 UNL     1       2.171  -0.965  -2.556  1.00  0.00     0.172 C   
BRANCH  25  26
ATOM     26  C17 UNL     1       3.153   0.146  -2.389  1.00  0.00     0.008 A   
ATOM     27  C18 UNL     1       4.467  -0.069  -2.034  1.00  0.00     0.120 A   
ATOM     28  C23 UNL     1       2.802   1.472  -2.541  1.00  0.00     0.120 A   
ATOM     29  N3  UNL     1       5.358   0.919  -1.832  1.00  0.00    -0.241 NA  
ATOM     30  N4  UNL     1       3.655   2.495  -2.352  1.00  0.00    -0.241 NA  
ATOM     31  C19 UNL     1       4.919   2.180  -2.008  1.00  0.00     0.130 A   
BRANCH  31  32
ATOM     32  C20 UNL     1       5.913   3.302  -1.806  1.00  0.00     0.051 C   
ATOM     33  C21 UNL     1       6.156   4.050  -3.116  1.00  0.00     0.016 C   
ATOM     34  C22 UNL     1       5.448   4.254  -0.705  1.00  0.00     0.016 C   
ENDBRANCH  31  32
ENDBRANCH  25  26
ENDBRANCH   3  25
TORSDOF 9
