REMARK SMILES CC(C)C[C@H]([NH2+]Cc1ccc2c(c1)OCO2)c1cn([C@H](CO)c2cccc(Cl)c2)nn1
REMARK SMILES IDX 17 1 18 2 19 3 30 4 31 5 5 7 4 8 2 9 1 10 3 11 6 12 7 15
REMARK SMILES IDX 8 16 9 17 13 18 10 19 12 20 11 21 14 22 16 23 15 24 20 25
REMARK SMILES IDX 21 26 22 27 23 29 24 30 29 31 25 32 27 33 26 34 28 35
REMARK H PARENT 18 6 6 13 6 14 22 28
ROOT
ATOM     1   C14 UNL     1       0.271  -2.280  -0.705  1.00  0.00     0.127 A   
ATOM     2   C15 UNL     1      -0.826  -1.622  -0.200  1.00  0.00     0.046 A   
ATOM     3   N2  UNL     1      -1.493  -2.582   0.514  1.00  0.00    -0.202 N   
ATOM     4   N3  UNL     1      -0.815  -3.749   0.488  1.00  0.00    -0.075 NA  
ATOM     5   N4  UNL     1       0.261  -3.578  -0.264  1.00  0.00    -0.132 NA  
ATOM     6   H20 UNL     1      -1.194  -0.608  -0.285  1.00  0.00     0.083 HD  
ENDROOT
BRANCH   1   7
ATOM     7   C5  UNL     1       1.422  -1.785  -1.510  1.00  0.00     0.114 C   
BRANCH   7   8
ATOM     8   C4  UNL     1       1.404  -2.256  -2.978  1.00  0.00     0.064 C   
BRANCH   8   9
ATOM     9   C2  UNL     1       0.300  -1.698  -3.905  1.00  0.00    -0.012 C   
ATOM     10  C1  UNL     1      -1.036  -2.430  -3.766  1.00  0.00     0.007 C   
ATOM     11  C3  UNL     1       0.109  -0.187  -3.774  1.00  0.00     0.007 C   
ENDBRANCH   8   9
ENDBRANCH   7   8
BRANCH   7  12
ATOM     12  N1  UNL     1       2.712  -2.316  -0.902  1.00  0.00     0.249 N   
ATOM     13  H11 UNL     1       2.585  -3.333  -0.810  1.00  0.00     0.199 HD  
ATOM     14  H12 UNL     1       3.495  -2.163  -1.545  1.00  0.00     0.199 HD  
BRANCH  12  15
ATOM     15  C6  UNL     1       3.074  -1.787   0.447  1.00  0.00     0.164 C   
BRANCH  15  16
ATOM     16  C7  UNL     1       3.474  -0.338   0.415  1.00  0.00    -0.002 A   
ATOM     17  C8  UNL     1       2.596   0.659   0.907  1.00  0.00     0.012 A   
ATOM     18  C12 UNL     1       4.712   0.041  -0.135  1.00  0.00     0.045 A   
ATOM     19  C9  UNL     1       2.940   2.015   0.847  1.00  0.00     0.037 A   
ATOM     20  C11 UNL     1       5.021   1.385  -0.173  1.00  0.00     0.109 A   
ATOM     21  C10 UNL     1       4.159   2.346   0.299  1.00  0.00     0.108 A   
ATOM     22  O1  UNL     1       6.166   1.916  -0.677  1.00  0.00    -0.316 OA  
ATOM     23  O2  UNL     1       4.654   3.602   0.150  1.00  0.00    -0.316 OA  
ATOM     24  C13 UNL     1       5.947   3.324  -0.427  1.00  0.00     0.337 C   
ENDBRANCH  15  16
ENDBRANCH  12  15
ENDBRANCH   7  12
ENDBRANCH   1   7
BRANCH   3  25
ATOM     25  C16 UNL     1      -2.729  -2.461   1.291  1.00  0.00     0.155 C   
BRANCH  25  26
ATOM     26  C17 UNL     1      -3.959  -2.574   0.369  1.00  0.00     0.185 C   
BRANCH  26  27
ATOM     27  O3  UNL     1      -3.981  -1.579  -0.656  1.00  0.00    -0.394 OA  
ATOM     28  H24 UNL     1      -4.775  -1.750  -1.201  1.00  0.00     0.210 HD  
ENDBRANCH  26  27
ENDBRANCH  25  26
BRANCH  25  29
ATOM     29  C18 UNL     1      -2.649  -1.264   2.234  1.00  0.00    -0.022 A   
ATOM     30  C19 UNL     1      -3.423  -0.105   2.076  1.00  0.00     0.006 A   
ATOM     31  C23 UNL     1      -1.738  -1.310   3.309  1.00  0.00     0.026 A   
ATOM     32  C20 UNL     1      -3.292   0.972   2.960  1.00  0.00     0.002 A   
ATOM     33  C22 UNL     1      -1.604  -0.228   4.181  1.00  0.00     0.041 A   
ATOM     34  C21 UNL     1      -2.380   0.912   4.012  1.00  0.00     0.020 A   
ATOM     35  CL1 UNL     1      -0.456  -0.304   5.460  1.00  0.00    -0.084 Cl  
ENDBRANCH  25  29
ENDBRANCH   3  25
TORSDOF 10
