REMARK SMILES CC(C)C[C@H]([NH2+]Cc1ccc2c(c1)OCO2)c1cn([C@@H](CO)c2cccc(Cl)c2)nn1
REMARK SMILES IDX 17 1 18 2 19 3 30 4 31 5 5 7 4 8 2 9 1 10 3 11 6 12 7 15
REMARK SMILES IDX 8 16 9 17 13 18 10 19 12 20 11 21 14 22 16 23 15 24 20 25
REMARK SMILES IDX 21 26 22 27 23 29 24 30 29 31 25 32 27 33 26 34 28 35
REMARK H PARENT 18 6 6 13 6 14 22 28
ROOT
ATOM     1   C14 UNL     1      -0.312  -0.124  -0.957  1.00  0.00     0.127 A   
ATOM     2   C15 UNL     1      -1.199  -0.403   0.056  1.00  0.00     0.046 A   
ATOM     3   N2  UNL     1      -2.120  -1.237  -0.520  1.00  0.00    -0.202 N   
ATOM     4   N3  UNL     1      -1.784  -1.498  -1.802  1.00  0.00    -0.075 NA  
ATOM     5   N4  UNL     1      -0.684  -0.818  -2.081  1.00  0.00    -0.132 NA  
ATOM     6   H20 UNL     1      -1.274  -0.089   1.088  1.00  0.00     0.083 HD  
ENDROOT
BRANCH   1   7
ATOM     7   C5  UNL     1       0.922   0.722  -0.980  1.00  0.00     0.114 C   
BRANCH   7   8
ATOM     8   C4  UNL     1       0.625   2.188  -1.348  1.00  0.00     0.064 C   
BRANCH   8   9
ATOM     9   C2  UNL     1      -0.237   2.961  -0.325  1.00  0.00    -0.012 C   
ATOM     10  C1  UNL     1       0.426   3.039   1.052  1.00  0.00     0.007 C   
ATOM     11  C3  UNL     1      -0.508   4.376  -0.845  1.00  0.00     0.007 C   
ENDBRANCH   8   9
ENDBRANCH   7   8
BRANCH   7  12
ATOM     12  N1  UNL     1       1.858   0.132  -2.016  1.00  0.00     0.249 N   
ATOM     13  H11 UNL     1       1.877  -0.881  -1.839  1.00  0.00     0.199 HD  
ATOM     14  H12 UNL     1       1.390   0.209  -2.929  1.00  0.00     0.199 HD  
BRANCH  12  15
ATOM     15  C6  UNL     1       3.255   0.627  -2.096  1.00  0.00     0.164 C   
BRANCH  15  16
ATOM     16  C7  UNL     1       4.024   0.443  -0.818  1.00  0.00    -0.002 A   
ATOM     17  C8  UNL     1       4.457  -0.846  -0.422  1.00  0.00     0.012 A   
ATOM     18  C12 UNL     1       4.290   1.546   0.011  1.00  0.00     0.045 A   
ATOM     19  C9  UNL     1       5.140  -1.036   0.784  1.00  0.00     0.037 A   
ATOM     20  C11 UNL     1       4.965   1.324   1.193  1.00  0.00     0.109 A   
ATOM     21  C10 UNL     1       5.378   0.070   1.569  1.00  0.00     0.108 A   
ATOM     22  O1  UNL     1       5.299   2.276   2.104  1.00  0.00    -0.316 OA  
ATOM     23  O2  UNL     1       6.025   0.074   2.763  1.00  0.00    -0.316 OA  
ATOM     24  C13 UNL     1       5.997   1.480   3.090  1.00  0.00     0.337 C   
ENDBRANCH  15  16
ENDBRANCH  12  15
ENDBRANCH   7  12
ENDBRANCH   1   7
BRANCH   3  25
ATOM     25  C16 UNL     1      -3.341  -1.800   0.055  1.00  0.00     0.155 C   
BRANCH  25  26
ATOM     26  C17 UNL     1      -3.034  -2.938   1.051  1.00  0.00     0.185 C   
BRANCH  26  27
ATOM     27  O3  UNL     1      -2.170  -2.539   2.116  1.00  0.00    -0.394 OA  
ATOM     28  H24 UNL     1      -2.103  -3.298   2.726  1.00  0.00     0.210 HD  
ENDBRANCH  26  27
ENDBRANCH  25  26
BRANCH  25  29
ATOM     29  C18 UNL     1      -4.263  -0.685   0.537  1.00  0.00    -0.022 A   
ATOM     30  C19 UNL     1      -5.109  -0.049  -0.393  1.00  0.00     0.006 A   
ATOM     31  C23 UNL     1      -4.281  -0.230   1.866  1.00  0.00     0.026 A   
ATOM     32  C20 UNL     1      -5.951   0.996  -0.006  1.00  0.00     0.002 A   
ATOM     33  C22 UNL     1      -5.121   0.819   2.246  1.00  0.00     0.041 A   
ATOM     34  C21 UNL     1      -5.957   1.432   1.317  1.00  0.00     0.020 A   
ATOM     35  CL1 UNL     1      -5.109   1.369   3.876  1.00  0.00    -0.084 Cl  
ENDBRANCH  25  29
ENDBRANCH   3  25
TORSDOF 10
