REMARK SMILES Cc1cccc(Cn2cc([C@H](CC(C)C)[NH2+]Cc3ccc4c(c3)OCO4)nn2)c1
REMARK SMILES IDX 8 1 9 2 10 3 27 4 28 5 7 7 6 8 2 9 3 10 29 11 4 12 5 13 1 14
REMARK SMILES IDX 11 15 12 16 13 17 14 18 15 19 16 20 17 23 18 24 19 25 23 26
REMARK SMILES IDX 20 27 22 28 21 29 24 30 26 31 25 32
REMARK H PARENT 9 6 16 21 16 22
ROOT
ATOM     1   N1  UNL     1      -1.504   1.574   1.437  1.00  0.00    -0.208 N   
ATOM     2   C8  UNL     1      -0.951   1.177   0.251  1.00  0.00     0.046 A   
ATOM     3   C9  UNL     1      -1.702   0.082  -0.114  1.00  0.00     0.127 A   
ATOM     4   N3  UNL     1      -2.697  -0.111   0.807  1.00  0.00    -0.132 NA  
ATOM     5   N4  UNL     1      -2.562   0.803   1.755  1.00  0.00    -0.076 NA  
ATOM     6   H9  UNL     1      -0.073   1.649  -0.168  1.00  0.00     0.083 HD  
ENDROOT
BRANCH   1   7
ATOM     7   C7  UNL     1      -1.011   2.585   2.357  1.00  0.00     0.169 C   
BRANCH   7   8
ATOM     8   C6  UNL     1       0.241   2.095   3.043  1.00  0.00    -0.028 A   
ATOM     9   C2  UNL     1       2.675   1.992   3.187  1.00  0.00    -0.051 A   
ATOM     10  C3  UNL     1       2.563   1.112   4.269  1.00  0.00     0.003 A   
ATOM     11  C23 UNL     1       1.510   2.489   2.587  1.00  0.00     0.008 A   
ATOM     12  C4  UNL     1       1.308   0.716   4.731  1.00  0.00     0.001 A   
ATOM     13  C5  UNL     1       0.153   1.201   4.120  1.00  0.00     0.005 A   
ATOM     14  C1  UNL     1       4.026   2.452   2.722  1.00  0.00     0.044 C   
ENDBRANCH   7   8
ENDBRANCH   1   7
BRANCH   3  15
ATOM     15  C10 UNL     1      -1.512  -0.897  -1.220  1.00  0.00     0.114 C   
BRANCH  15  16
ATOM     16  C11 UNL     1      -2.546  -0.728  -2.350  1.00  0.00     0.064 C   
BRANCH  16  17
ATOM     17  C12 UNL     1      -2.493   0.626  -3.089  1.00  0.00    -0.012 C   
ATOM     18  C13 UNL     1      -1.146   0.866  -3.772  1.00  0.00     0.007 C   
ATOM     19  C14 UNL     1      -3.616   0.690  -4.129  1.00  0.00     0.007 C   
ENDBRANCH  16  17
ENDBRANCH  15  16
BRANCH  15  20
ATOM     20  N2  UNL     1      -1.652  -2.320  -0.707  1.00  0.00     0.249 N   
ATOM     21  H20 UNL     1      -1.557  -2.976  -1.487  1.00  0.00     0.199 HD  
ATOM     22  H21 UNL     1      -2.611  -2.407  -0.345  1.00  0.00     0.199 HD  
BRANCH  20  23
ATOM     23  C15 UNL     1      -0.734  -2.732   0.401  1.00  0.00     0.164 C   
BRANCH  23  24
ATOM     24  C16 UNL     1       0.724  -2.521   0.101  1.00  0.00    -0.002 A   
ATOM     25  C17 UNL     1       1.468  -1.569   0.841  1.00  0.00     0.012 A   
ATOM     26  C21 UNL     1       1.358  -3.248  -0.921  1.00  0.00     0.045 A   
ATOM     27  C18 UNL     1       2.817  -1.330   0.561  1.00  0.00     0.037 A   
ATOM     28  C20 UNL     1       2.689  -2.988  -1.172  1.00  0.00     0.109 A   
ATOM     29  C19 UNL     1       3.398  -2.055  -0.455  1.00  0.00     0.108 A   
ATOM     30  O1  UNL     1       3.444  -3.592  -2.126  1.00  0.00    -0.316 OA  
ATOM     31  O2  UNL     1       4.689  -1.957  -0.866  1.00  0.00    -0.316 OA  
ATOM     32  C22 UNL     1       4.726  -2.961  -1.903  1.00  0.00     0.337 C   
ENDBRANCH  23  24
ENDBRANCH  20  23
ENDBRANCH  15  20
ENDBRANCH   3  15
TORSDOF 8
