REMARK SMILES OCc1ccc(-n2cc([C@@H]([NH2+]Cc3ccc4c(c3)OCO4)C3CCCC3)nn2)cc1
REMARK SMILES IDX 7 1 8 2 9 3 27 4 28 5 6 6 3 7 4 8 30 9 5 10 29 11 2 12 1 13
REMARK SMILES IDX 10 15 11 16 12 19 13 20 14 21 18 22 15 23 17 24 16 25 19 26
REMARK SMILES IDX 21 27 20 28 22 29 23 30 26 31 24 32 25 33
REMARK H PARENT 1 14 11 17 11 18
ROOT
ATOM     1   N1  UNL     1       0.099   0.351   2.308  1.00  0.00    -0.181 N   
ATOM     2   C6  UNL     1       1.103  -0.230   1.556  1.00  0.00     0.135 A   
ATOM     3   C7  UNL     1       0.738  -0.019   0.245  1.00  0.00     0.127 A   
ATOM     4   N3  UNL     1      -0.451   0.652   0.216  1.00  0.00    -0.131 NA  
ATOM     5   N4  UNL     1      -0.836   0.861   1.463  1.00  0.00    -0.071 NA  
ENDROOT
BRANCH   1   6
ATOM     6   C5  UNL     1      -0.029   0.439   3.716  1.00  0.00     0.058 A   
ATOM     7   C2  UNL     1      -0.322   0.641   6.510  1.00  0.00    -0.023 A   
ATOM     8   C3  UNL     1      -1.289   1.182   5.657  1.00  0.00     0.008 A   
ATOM     9   C23 UNL     1       0.790  -0.006   5.953  1.00  0.00     0.008 A   
ATOM     10  C4  UNL     1      -1.145   1.084   4.269  1.00  0.00     0.026 A   
ATOM     11  C22 UNL     1       0.941  -0.107   4.566  1.00  0.00     0.026 A   
BRANCH   7  12
ATOM     12  C1  UNL     1      -0.469   0.732   8.006  1.00  0.00     0.191 C   
BRANCH  12  13
ATOM     13  O1  UNL     1      -0.681  -0.563   8.554  1.00  0.00    -0.392 OA  
ATOM     14  H1  UNL     1      -1.212  -1.067   7.914  1.00  0.00     0.211 HD  
ENDBRANCH  12  13
ENDBRANCH   7  12
ENDBRANCH   1   6
BRANCH   3  15
ATOM     15  C8  UNL     1       1.398  -0.405  -1.041  1.00  0.00     0.117 C   
BRANCH  15  16
ATOM     16  N2  UNL     1       0.385  -0.452  -2.155  1.00  0.00     0.249 N   
ATOM     17  H8  UNL     1       0.815  -0.333  -3.077  1.00  0.00     0.199 HD  
ATOM     18  H9  UNL     1      -0.238   0.360  -2.026  1.00  0.00     0.199 HD  
BRANCH  16  19
ATOM     19  C9  UNL     1      -0.482  -1.663  -2.176  1.00  0.00     0.164 C   
BRANCH  19  20
ATOM     20  C10 UNL     1      -1.499  -1.559  -3.276  1.00  0.00    -0.002 A   
ATOM     21  C11 UNL     1      -1.240  -2.120  -4.550  1.00  0.00     0.012 A   
ATOM     22  C15 UNL     1      -2.696  -0.853  -3.061  1.00  0.00     0.045 A   
ATOM     23  C12 UNL     1      -2.165  -1.994  -5.591  1.00  0.00     0.037 A   
ATOM     24  C14 UNL     1      -3.586  -0.747  -4.110  1.00  0.00     0.109 A   
ATOM     25  C13 UNL     1      -3.329  -1.303  -5.338  1.00  0.00     0.108 A   
ATOM     26  O2  UNL     1      -4.781  -0.102  -4.071  1.00  0.00    -0.316 OA  
ATOM     27  O3  UNL     1      -4.332  -1.081  -6.227  1.00  0.00    -0.316 OA  
ATOM     28  C16 UNL     1      -5.264  -0.336  -5.413  1.00  0.00     0.337 C   
ENDBRANCH  19  20
ENDBRANCH  16  19
ENDBRANCH  15  16
BRANCH  15  29
ATOM     29  C17 UNL     1       2.547   0.557  -1.403  1.00  0.00     0.043 C   
ATOM     30  C18 UNL     1       3.409   0.097  -2.595  1.00  0.00     0.010 C   
ATOM     31  C21 UNL     1       2.136   1.996  -1.745  1.00  0.00     0.010 C   
ATOM     32  C19 UNL     1       3.671   1.343  -3.440  1.00  0.00     0.001 C   
ATOM     33  C20 UNL     1       3.324   2.516  -2.538  1.00  0.00     0.001 C   
ENDBRANCH  15  29
ENDBRANCH   3  15
TORSDOF 8
