REMARK SMILES CCOc1cccc(Cn2cc([C@@H]([NH2+]Cc3ccc4c(c3)OCO4)C3CCCC3)nn2)c1
REMARK SMILES IDX 10 1 11 2 12 3 30 4 31 5 9 7 8 8 4 9 5 10 32 11 6 12 7 13
REMARK SMILES IDX 3 14 2 15 1 16 13 17 14 18 15 21 16 22 17 23 21 24 18 25
REMARK SMILES IDX 20 26 19 27 22 28 24 29 23 30 25 31 26 32 29 33 27 34 28 35
REMARK H PARENT 11 6 14 19 14 20
ROOT
ATOM     1   N1  UNL     1      -0.572  -3.209  -0.611  1.00  0.00    -0.208 N   
ATOM     2   C9  UNL     1       0.170  -2.278  -1.286  1.00  0.00     0.046 A   
ATOM     3   C10 UNL     1       0.888  -1.645  -0.296  1.00  0.00     0.127 A   
ATOM     4   N3  UNL     1       0.601  -2.226   0.912  1.00  0.00    -0.132 NA  
ATOM     5   N4  UNL     1      -0.289  -3.181   0.706  1.00  0.00    -0.076 NA  
ATOM     6   H11 UNL     1       0.087  -2.137  -2.355  1.00  0.00     0.083 HD  
ENDROOT
BRANCH   1   7
ATOM     7   C8  UNL     1      -1.562  -4.130  -1.146  1.00  0.00     0.169 C   
BRANCH   7   8
ATOM     8   C7  UNL     1      -2.949  -3.779  -0.670  1.00  0.00    -0.026 A   
ATOM     9   C3  UNL     1      -4.884  -2.288  -0.694  1.00  0.00     0.075 A   
ATOM     10  C4  UNL     1      -5.504  -3.082   0.270  1.00  0.00     0.033 A   
ATOM     11  C25 UNL     1      -3.613  -2.643  -1.162  1.00  0.00     0.038 A   
ATOM     12  C5  UNL     1      -4.858  -4.222   0.758  1.00  0.00     0.003 A   
ATOM     13  C6  UNL     1      -3.588  -4.568   0.294  1.00  0.00     0.005 A   
BRANCH   9  14
ATOM     14  O1  UNL     1      -5.394  -1.147  -1.249  1.00  0.00    -0.346 OA  
BRANCH  14  15
ATOM     15  C2  UNL     1      -6.724  -0.784  -0.881  1.00  0.00     0.164 C   
ATOM     16  C1  UNL     1      -7.123   0.419  -1.717  1.00  0.00     0.035 C   
ENDBRANCH  14  15
ENDBRANCH   9  14
ENDBRANCH   7   8
ENDBRANCH   1   7
BRANCH   3  17
ATOM     17  C11 UNL     1       1.816  -0.475  -0.331  1.00  0.00     0.117 C   
BRANCH  17  18
ATOM     18  N2  UNL     1       1.744   0.260   0.987  1.00  0.00     0.249 N   
ATOM     19  H13 UNL     1       1.694  -0.473   1.712  1.00  0.00     0.199 HD  
ATOM     20  H14 UNL     1       2.597   0.799   1.166  1.00  0.00     0.199 HD  
BRANCH  18  21
ATOM     21  C12 UNL     1       0.550   1.131   1.188  1.00  0.00     0.164 C   
BRANCH  21  22
ATOM     22  C13 UNL     1       0.667   2.440   0.459  1.00  0.00    -0.002 A   
ATOM     23  C14 UNL     1      -0.078   2.674  -0.722  1.00  0.00     0.012 A   
ATOM     24  C18 UNL     1       1.534   3.438   0.940  1.00  0.00     0.045 A   
ATOM     25  C15 UNL     1       0.042   3.881  -1.421  1.00  0.00     0.037 A   
ATOM     26  C17 UNL     1       1.621   4.618   0.233  1.00  0.00     0.109 A   
ATOM     27  C16 UNL     1       0.901   4.832  -0.917  1.00  0.00     0.108 A   
ATOM     28  O2  UNL     1       2.403   5.680   0.563  1.00  0.00    -0.316 OA  
ATOM     29  O3  UNL     1       1.137   6.056  -1.457  1.00  0.00    -0.316 OA  
ATOM     30  C19 UNL     1       2.081   6.599  -0.507  1.00  0.00     0.337 C   
ENDBRANCH  21  22
ENDBRANCH  18  21
ENDBRANCH  17  18
BRANCH  17  31
ATOM     31  C20 UNL     1       3.270  -0.895  -0.631  1.00  0.00     0.043 C   
ATOM     32  C21 UNL     1       3.948  -1.764   0.444  1.00  0.00     0.010 C   
ATOM     33  C24 UNL     1       4.224   0.296  -0.855  1.00  0.00     0.010 C   
ATOM     34  C22 UNL     1       5.420  -1.398   0.347  1.00  0.00     0.001 C   
ATOM     35  C23 UNL     1       5.379   0.102   0.122  1.00  0.00     0.001 C   
ENDBRANCH  17  31
ENDBRANCH   3  17
TORSDOF 9
