REMARK SMILES CC(C)(C)[C@H]([NH2+]Cc1ccc2c(c1)OCO2)c1cn(-c2nc(Cl)ccc2O)nn1
REMARK SMILES IDX 17 1 18 2 19 3 28 4 29 5 5 6 2 7 1 8 3 9 4 10 6 11 7 14 8 15
REMARK SMILES IDX 9 16 13 17 10 18 12 19 11 20 14 21 16 22 15 23 20 24 21 25
REMARK SMILES IDX 26 26 22 27 25 28 24 29 23 30 27 31
REMARK H PARENT 6 12 6 13 27 32
ROOT
ATOM     1   C14 UNL     1       0.442  -0.411  -0.723  1.00  0.00     0.128 A   
ATOM     2   C15 UNL     1       1.603  -0.179  -0.022  1.00  0.00     0.137 A   
ATOM     3   N2  UNL     1       2.621  -0.395  -0.930  1.00  0.00    -0.160 N   
ATOM     4   N4  UNL     1       2.078  -0.701  -2.140  1.00  0.00    -0.069 NA  
ATOM     5   N5  UNL     1       0.759  -0.712  -2.022  1.00  0.00    -0.131 NA  
ENDROOT
BRANCH   1   6
ATOM     6   C5  UNL     1      -0.996  -0.317  -0.302  1.00  0.00     0.120 C   
BRANCH   6   7
ATOM     7   C2  UNL     1      -1.616  -1.680   0.172  1.00  0.00     0.010 C   
ATOM     8   C1  UNL     1      -1.704  -2.722  -0.960  1.00  0.00     0.017 C   
ATOM     9   C3  UNL     1      -0.771  -2.280   1.319  1.00  0.00     0.017 C   
ATOM     10  C4  UNL     1      -3.039  -1.455   0.736  1.00  0.00     0.017 C   
ENDBRANCH   6   7
BRANCH   6  11
ATOM     11  N1  UNL     1      -1.810   0.261  -1.444  1.00  0.00     0.250 N   
ATOM     12  H11 UNL     1      -1.547  -0.266  -2.289  1.00  0.00     0.199 HD  
ATOM     13  H12 UNL     1      -2.810   0.107  -1.298  1.00  0.00     0.199 HD  
BRANCH  11  14
ATOM     14  C6  UNL     1      -1.600   1.711  -1.740  1.00  0.00     0.164 C   
BRANCH  14  15
ATOM     15  C7  UNL     1      -2.108   2.607  -0.646  1.00  0.00    -0.002 A   
ATOM     16  C8  UNL     1      -1.199   3.317   0.175  1.00  0.00     0.012 A   
ATOM     17  C12 UNL     1      -3.489   2.726  -0.410  1.00  0.00     0.045 A   
ATOM     18  C9  UNL     1      -1.655   4.126   1.222  1.00  0.00     0.037 A   
ATOM     19  C11 UNL     1      -3.905   3.531   0.630  1.00  0.00     0.109 A   
ATOM     20  C10 UNL     1      -3.015   4.210   1.424  1.00  0.00     0.108 A   
ATOM     21  O1  UNL     1      -5.196   3.746   0.994  1.00  0.00    -0.316 OA  
ATOM     22  O2  UNL     1      -3.633   4.940   2.388  1.00  0.00    -0.316 OA  
ATOM     23  C13 UNL     1      -5.020   4.668   2.095  1.00  0.00     0.337 C   
ENDBRANCH  14  15
ENDBRANCH  11  14
ENDBRANCH   6  11
ENDBRANCH   1   6
BRANCH   3  24
ATOM     24  C16 UNL     1       4.016  -0.303  -0.694  1.00  0.00     0.177 A   
ATOM     25  N3  UNL     1       4.390   0.050   0.567  1.00  0.00    -0.216 NA  
ATOM     26  C20 UNL     1       4.936  -0.560  -1.715  1.00  0.00     0.114 A   
ATOM     27  C17 UNL     1       5.716   0.141   0.804  1.00  0.00     0.131 A   
ATOM     28  C19 UNL     1       6.294  -0.451  -1.423  1.00  0.00     0.040 A   
ATOM     29  C18 UNL     1       6.698  -0.095  -0.140  1.00  0.00     0.044 A   
ATOM     30  CL1 UNL     1       6.115   0.589   2.408  1.00  0.00    -0.062 Cl  
BRANCH  26  31
ATOM     31  O3  UNL     1       4.635  -0.916  -2.997  1.00  0.00    -0.357 OA  
ATOM     32  H23 UNL     1       3.667  -0.994  -3.114  1.00  0.00     0.218 HD  
ENDBRANCH  26  31
ENDBRANCH   3  24
TORSDOF 7
