REMARK SMILES CC(C)(C)[C@H]([NH2+]Cc1ccc2c(c1)OCO2)c1cn(Cc2cc(C(F)(F)F)on2)nn1
REMARK SMILES IDX 17 1 18 2 19 3 30 4 31 5 5 7 2 8 1 9 3 10 4 11 6 12 7 15
REMARK SMILES IDX 8 16 9 17 13 18 10 19 12 20 11 21 14 22 16 23 15 24 20 25
REMARK SMILES IDX 21 26 22 27 29 28 23 29 28 30 24 31 25 32 26 33 27 34
REMARK H PARENT 18 6 6 13 6 14
ROOT
ATOM     1   C14 UNL     1       0.407  -0.102   1.120  1.00  0.00     0.127 A   
ATOM     2   C15 UNL     1       1.611  -0.700   0.822  1.00  0.00     0.046 A   
ATOM     3   N2  UNL     1       1.433  -2.004   1.198  1.00  0.00    -0.206 N   
ATOM     4   N4  UNL     1       0.194  -2.199   1.691  1.00  0.00    -0.076 NA  
ATOM     5   N5  UNL     1      -0.448  -1.043   1.639  1.00  0.00    -0.132 NA  
ATOM     6   H20 UNL     1       2.531  -0.346   0.379  1.00  0.00     0.083 HD  
ENDROOT
BRANCH   1   7
ATOM     7   C5  UNL     1      -0.093   1.294   0.895  1.00  0.00     0.120 C   
BRANCH   7   8
ATOM     8   C2  UNL     1       0.055   2.240   2.137  1.00  0.00     0.010 C   
ATOM     9   C1  UNL     1       1.535   2.309   2.578  1.00  0.00     0.017 C   
ATOM     10  C3  UNL     1      -0.786   1.782   3.345  1.00  0.00     0.017 C   
ATOM     11  C4  UNL     1      -0.369   3.679   1.760  1.00  0.00     0.017 C   
ENDBRANCH   7   8
BRANCH   7  12
ATOM     12  N1  UNL     1      -1.546   1.210   0.458  1.00  0.00     0.250 N   
ATOM     13  H11 UNL     1      -1.884   0.291   0.791  1.00  0.00     0.199 HD  
ATOM     14  H12 UNL     1      -2.126   1.898   0.944  1.00  0.00     0.199 HD  
BRANCH  12  15
ATOM     15  C6  UNL     1      -1.806   1.302  -1.006  1.00  0.00     0.164 C   
BRANCH  15  16
ATOM     16  C7  UNL     1      -1.169   0.205  -1.812  1.00  0.00    -0.002 A   
ATOM     17  C8  UNL     1      -1.670  -1.119  -1.749  1.00  0.00     0.012 A   
ATOM     18  C12 UNL     1      -0.050   0.481  -2.616  1.00  0.00     0.045 A   
ATOM     19  C9  UNL     1      -1.065  -2.153  -2.473  1.00  0.00     0.037 A   
ATOM     20  C11 UNL     1       0.526  -0.561  -3.313  1.00  0.00     0.109 A   
ATOM     21  C10 UNL     1       0.031  -1.839  -3.247  1.00  0.00     0.108 A   
ATOM     22  O1  UNL     1       1.612  -0.464  -4.122  1.00  0.00    -0.316 OA  
ATOM     23  O2  UNL     1       0.738  -2.708  -4.014  1.00  0.00    -0.316 OA  
ATOM     24  C13 UNL     1       1.739  -1.831  -4.574  1.00  0.00     0.337 C   
ENDBRANCH  15  16
ENDBRANCH  12  15
ENDBRANCH   7  12
ENDBRANCH   1   7
BRANCH   3  25
ATOM     25  C16 UNL     1       2.389  -3.094   1.144  1.00  0.00     0.192 C   
BRANCH  25  26
ATOM     26  C17 UNL     1       2.285  -3.801  -0.156  1.00  0.00     0.090 A   
ATOM     27  C18 UNL     1       1.483  -4.918  -0.489  1.00  0.00     0.069 A   
ATOM     28  N3  UNL     1       3.018  -3.404  -1.205  1.00  0.00    -0.132 NA  
ATOM     29  C19 UNL     1       1.782  -5.176  -1.808  1.00  0.00     0.190 A   
ATOM     30  O3  UNL     1       2.703  -4.272  -2.237  1.00  0.00    -0.208 OA  
BRANCH  29  31
ATOM     31  C20 UNL     1       1.329  -6.177  -2.792  1.00  0.00     0.440 C   
ATOM     32  F1  UNL     1       2.325  -6.591  -3.614  1.00  0.00    -0.164 F   
ATOM     33  F2  UNL     1       0.842  -7.288  -2.173  1.00  0.00    -0.164 F   
ATOM     34  F3  UNL     1       0.329  -5.704  -3.577  1.00  0.00    -0.164 F   
ENDBRANCH  29  31
ENDBRANCH  25  26
ENDBRANCH   3  25
TORSDOF 8
