REMARK SMILES Cc1ccc([C@H](CO)n2cc([C@H](CC(C)C)[NH2+]Cc3ccc4c(c3)OCO4)nn2)c(F)c1
REMARK SMILES IDX 9 1 10 2 11 3 28 4 29 5 6 7 5 8 2 9 3 10 32 11 4 12 30 13
REMARK SMILES IDX 1 14 31 15 7 16 8 17 12 19 13 20 14 21 15 22 16 23 17 24
REMARK SMILES IDX 18 27 19 28 20 29 24 30 21 31 23 32 22 33 25 34 27 35 26 36
REMARK H PARENT 10 6 8 18 17 25 17 26
ROOT
ATOM     1   N1  UNL     1      -2.158   1.755   0.430  1.00  0.00    -0.202 N   
ATOM     2   C8  UNL     1      -1.070   1.183   1.040  1.00  0.00     0.046 A   
ATOM     3   C9  UNL     1      -0.031   2.036   0.740  1.00  0.00     0.127 A   
ATOM     4   N3  UNL     1      -0.512   3.097   0.022  1.00  0.00    -0.132 NA  
ATOM     5   N4  UNL     1      -1.808   2.910  -0.170  1.00  0.00    -0.075 NA  
ATOM     6   H10 UNL     1      -1.131   0.241   1.567  1.00  0.00     0.083 HD  
ENDROOT
BRANCH   1   7
ATOM     7   C6  UNL     1      -3.519   1.222   0.363  1.00  0.00     0.158 C   
BRANCH   7   8
ATOM     8   C5  UNL     1      -3.529  -0.111  -0.374  1.00  0.00     0.013 A   
ATOM     9   C2  UNL     1      -3.544  -2.594  -1.725  1.00  0.00    -0.048 A   
ATOM     10  C3  UNL     1      -4.021  -2.494  -0.413  1.00  0.00     0.004 A   
ATOM     11  C24 UNL     1      -3.082  -1.442  -2.367  1.00  0.00     0.043 A   
ATOM     12  C4  UNL     1      -4.014  -1.266   0.258  1.00  0.00     0.009 A   
ATOM     13  C23 UNL     1      -3.075  -0.224  -1.692  1.00  0.00     0.128 A   
ATOM     14  C1  UNL     1      -3.591  -3.909  -2.450  1.00  0.00     0.044 C   
ATOM     15  F1  UNL     1      -2.603   0.856  -2.331  1.00  0.00    -0.207 F   
ENDBRANCH   7   8
BRANCH   7  16
ATOM     16  C7  UNL     1      -4.550   2.207  -0.215  1.00  0.00     0.186 C   
BRANCH  16  17
ATOM     17  O1  UNL     1      -5.883   1.749   0.032  1.00  0.00    -0.394 OA  
ATOM     18  H9  UNL     1      -6.120   1.124  -0.678  1.00  0.00     0.210 HD  
ENDBRANCH  16  17
ENDBRANCH   7  16
ENDBRANCH   1   7
BRANCH   3  19
ATOM     19  C10 UNL     1       1.432   1.921   1.010  1.00  0.00     0.114 C   
BRANCH  19  20
ATOM     20  C11 UNL     1       1.822   2.745   2.256  1.00  0.00     0.064 C   
BRANCH  20  21
ATOM     21  C12 UNL     1       3.301   2.678   2.688  1.00  0.00    -0.012 C   
ATOM     22  C13 UNL     1       3.772   1.248   2.952  1.00  0.00     0.007 C   
ATOM     23  C14 UNL     1       3.507   3.530   3.945  1.00  0.00     0.007 C   
ENDBRANCH  20  21
ENDBRANCH  19  20
BRANCH  19  24
ATOM     24  N2  UNL     1       2.249   2.399  -0.169  1.00  0.00     0.249 N   
ATOM     25  H21 UNL     1       3.246   2.344   0.050  1.00  0.00     0.199 HD  
ATOM     26  H22 UNL     1       2.015   3.391  -0.308  1.00  0.00     0.199 HD  
BRANCH  24  27
ATOM     27  C15 UNL     1       2.014   1.709  -1.477  1.00  0.00     0.164 C   
BRANCH  27  28
ATOM     28  C16 UNL     1       2.193   0.217  -1.414  1.00  0.00    -0.002 A   
ATOM     29  C17 UNL     1       1.069  -0.634  -1.547  1.00  0.00     0.012 A   
ATOM     30  C21 UNL     1       3.462  -0.343  -1.194  1.00  0.00     0.045 A   
ATOM     31  C18 UNL     1       1.200  -2.023  -1.448  1.00  0.00     0.037 A   
ATOM     32  C20 UNL     1       3.557  -1.717  -1.101  1.00  0.00     0.109 A   
ATOM     33  C19 UNL     1       2.459  -2.534  -1.223  1.00  0.00     0.108 A   
ATOM     34  O2  UNL     1       4.702  -2.415  -0.880  1.00  0.00    -0.316 OA  
ATOM     35  O3  UNL     1       2.775  -3.849  -1.096  1.00  0.00    -0.316 OA  
ATOM     36  C22 UNL     1       4.205  -3.774  -0.908  1.00  0.00     0.337 C   
ENDBRANCH  27  28
ENDBRANCH  24  27
ENDBRANCH  19  24
ENDBRANCH   3  19
TORSDOF 10
