REMARK SMILES Cc1ccc([C@@H](CO)n2cc([C@H](CC(C)C)[NH2+]Cc3ccc4c(c3)OCO4)nn2)c(F)c1
REMARK SMILES IDX 9 1 10 2 11 3 28 4 29 5 6 7 5 8 2 9 3 10 32 11 4 12 30 13
REMARK SMILES IDX 1 14 31 15 7 16 8 17 12 19 13 20 14 21 15 22 16 23 17 24
REMARK SMILES IDX 18 27 19 28 20 29 24 30 21 31 23 32 22 33 25 34 27 35 26 36
REMARK H PARENT 10 6 8 18 17 25 17 26
ROOT
ATOM     1   N1  UNL     1       0.767  -1.527   0.465  1.00  0.00    -0.202 N   
ATOM     2   C8  UNL     1      -0.129  -0.584   0.895  1.00  0.00     0.046 A   
ATOM     3   C9  UNL     1      -1.303  -0.925   0.264  1.00  0.00     0.127 A   
ATOM     4   N3  UNL     1      -1.097  -2.043  -0.503  1.00  0.00    -0.132 NA  
ATOM     5   N4  UNL     1       0.167  -2.407  -0.368  1.00  0.00    -0.075 NA  
ATOM     6   H10 UNL     1       0.148   0.206   1.579  1.00  0.00     0.083 HD  
ENDROOT
BRANCH   1   7
ATOM     7   C6  UNL     1       2.182  -1.682   0.807  1.00  0.00     0.158 C   
BRANCH   7   8
ATOM     8   C5  UNL     1       2.905  -0.344   0.760  1.00  0.00     0.013 A   
ATOM     9   C2  UNL     1       4.198   2.166   0.518  1.00  0.00    -0.048 A   
ATOM     10  C3  UNL     1       3.925   1.620   1.777  1.00  0.00     0.004 A   
ATOM     11  C24 UNL     1       3.837   1.443  -0.622  1.00  0.00     0.043 A   
ATOM     12  C4  UNL     1       3.279   0.383   1.899  1.00  0.00     0.009 A   
ATOM     13  C23 UNL     1       3.199   0.212  -0.492  1.00  0.00     0.128 A   
ATOM     14  C1  UNL     1       4.925   3.472   0.392  1.00  0.00     0.044 C   
ATOM     15  F1  UNL     1       2.861  -0.455  -1.605  1.00  0.00    -0.207 F   
ENDBRANCH   7   8
BRANCH   7  16
ATOM     16  C7  UNL     1       2.339  -2.523   2.090  1.00  0.00     0.186 C   
BRANCH  16  17
ATOM     17  O1  UNL     1       1.669  -1.953   3.216  1.00  0.00    -0.394 OA  
ATOM     18  H9  UNL     1       1.813  -2.559   3.967  1.00  0.00     0.210 HD  
ENDBRANCH  16  17
ENDBRANCH   7  16
ENDBRANCH   1   7
BRANCH   3  19
ATOM     19  C10 UNL     1      -2.647  -0.276   0.266  1.00  0.00     0.114 C   
BRANCH  19  20
ATOM     20  C11 UNL     1      -3.552  -0.876   1.359  1.00  0.00     0.064 C   
BRANCH  20  21
ATOM     21  C12 UNL     1      -4.909  -0.168   1.563  1.00  0.00    -0.012 C   
ATOM     22  C13 UNL     1      -4.746   1.287   2.005  1.00  0.00     0.007 C   
ATOM     23  C14 UNL     1      -5.736  -0.931   2.603  1.00  0.00     0.007 C   
ENDBRANCH  20  21
ENDBRANCH  19  20
BRANCH  19  24
ATOM     24  N2  UNL     1      -3.298  -0.477  -1.083  1.00  0.00     0.249 N   
ATOM     25  H21 UNL     1      -2.793  -1.267  -1.519  1.00  0.00     0.199 HD  
ATOM     26  H22 UNL     1      -4.263  -0.802  -0.986  1.00  0.00     0.199 HD  
BRANCH  24  27
ATOM     27  C15 UNL     1      -3.246   0.679  -2.017  1.00  0.00     0.164 C   
BRANCH  27  28
ATOM     28  C16 UNL     1      -1.856   1.048  -2.453  1.00  0.00    -0.002 A   
ATOM     29  C17 UNL     1      -1.232   2.219  -1.959  1.00  0.00     0.012 A   
ATOM     30  C21 UNL     1      -1.153   0.216  -3.342  1.00  0.00     0.045 A   
ATOM     31  C18 UNL     1       0.072   2.557  -2.340  1.00  0.00     0.037 A   
ATOM     32  C20 UNL     1       0.128   0.580  -3.702  1.00  0.00     0.109 A   
ATOM     33  C19 UNL     1       0.725   1.716  -3.214  1.00  0.00     0.108 A   
ATOM     34  O2  UNL     1       0.934  -0.108  -4.552  1.00  0.00    -0.316 OA  
ATOM     35  O3  UNL     1       1.984   1.887  -3.695  1.00  0.00    -0.316 OA  
ATOM     36  C22 UNL     1       2.119   0.719  -4.535  1.00  0.00     0.337 C   
ENDBRANCH  27  28
ENDBRANCH  24  27
ENDBRANCH  19  24
ENDBRANCH   3  19
TORSDOF 10
