REMARK SMILES COc1ccc([C@@H](CO)n2cc([C@@H]([NH2+]Cc3ccc4c(c3)OCO4)C(C)C)nn2)cc1
REMARK SMILES IDX 10 1 11 2 12 3 28 4 29 5 7 7 6 8 3 9 4 10 31 11 5 12 30 13
REMARK SMILES IDX 2 14 1 15 8 16 9 17 13 19 14 20 15 23 16 24 17 25 21 26
REMARK SMILES IDX 18 27 20 28 19 29 22 30 24 31 23 32 25 33 26 34 27 35
REMARK H PARENT 11 6 9 18 14 21 14 22
ROOT
ATOM     1   N1  UNL     1      -1.550   1.582   0.515  1.00  0.00    -0.202 N   
ATOM     2   C8  UNL     1      -0.367   1.950  -0.069  1.00  0.00     0.046 A   
ATOM     3   C9  UNL     1      -0.535   1.634  -1.396  1.00  0.00     0.127 A   
ATOM     4   N3  UNL     1      -1.787   1.104  -1.580  1.00  0.00    -0.132 NA  
ATOM     5   N4  UNL     1      -2.399   1.078  -0.407  1.00  0.00    -0.075 NA  
ATOM     6   H10 UNL     1       0.446   2.378   0.501  1.00  0.00     0.083 HD  
ENDROOT
BRANCH   1   7
ATOM     7   C6  UNL     1      -1.946   1.657   1.922  1.00  0.00     0.155 C   
BRANCH   7   8
ATOM     8   C5  UNL     1      -0.886   1.017   2.814  1.00  0.00    -0.023 A   
ATOM     9   C2  UNL     1       1.076  -0.272   4.396  1.00  0.00     0.075 A   
ATOM     10  C3  UNL     1       0.962   1.116   4.406  1.00  0.00     0.034 A   
ATOM     11  C23 UNL     1       0.212  -1.015   3.593  1.00  0.00     0.034 A   
ATOM     12  C4  UNL     1      -0.009   1.754   3.622  1.00  0.00     0.008 A   
ATOM     13  C22 UNL     1      -0.759  -0.383   2.813  1.00  0.00     0.008 A   
BRANCH   9  14
ATOM     14  O1  UNL     1       1.981  -1.012   5.102  1.00  0.00    -0.349 OA  
ATOM     15  C1  UNL     1       2.780  -0.317   6.052  1.00  0.00     0.203 C   
ENDBRANCH   9  14
ENDBRANCH   7   8
BRANCH   7  16
ATOM     16  C7  UNL     1      -2.422   3.078   2.285  1.00  0.00     0.185 C   
BRANCH  16  17
ATOM     17  O2  UNL     1      -1.430   4.080   2.051  1.00  0.00    -0.394 OA  
ATOM     18  H9  UNL     1      -1.821   4.932   2.321  1.00  0.00     0.210 HD  
ENDBRANCH  16  17
ENDBRANCH   7  16
ENDBRANCH   1   7
BRANCH   3  19
ATOM     19  C10 UNL     1       0.396   1.746  -2.558  1.00  0.00     0.117 C   
BRANCH  19  20
ATOM     20  N2  UNL     1       0.091   0.668  -3.573  1.00  0.00     0.249 N   
ATOM     21  H12 UNL     1       0.141   1.034  -4.526  1.00  0.00     0.199 HD  
ATOM     22  H13 UNL     1      -0.898   0.412  -3.420  1.00  0.00     0.199 HD  
BRANCH  20  23
ATOM     23  C11 UNL     1       0.914  -0.571  -3.484  1.00  0.00     0.164 C   
BRANCH  23  24
ATOM     24  C12 UNL     1       0.659  -1.388  -2.251  1.00  0.00    -0.002 A   
ATOM     25  C13 UNL     1       1.575  -1.371  -1.172  1.00  0.00     0.012 A   
ATOM     26  C17 UNL     1      -0.511  -2.161  -2.149  1.00  0.00     0.045 A   
ATOM     27  C14 UNL     1       1.333  -2.110  -0.009  1.00  0.00     0.037 A   
ATOM     28  C16 UNL     1      -0.717  -2.882  -0.991  1.00  0.00     0.109 A   
ATOM     29  C15 UNL     1       0.178  -2.858   0.049  1.00  0.00     0.108 A   
ATOM     30  O3  UNL     1      -1.788  -3.679  -0.737  1.00  0.00    -0.316 OA  
ATOM     31  O4  UNL     1      -0.217  -3.634   1.091  1.00  0.00    -0.316 OA  
ATOM     32  C18 UNL     1      -1.455  -4.173   0.580  1.00  0.00     0.337 C   
ENDBRANCH  23  24
ENDBRANCH  20  23
ENDBRANCH  19  20
BRANCH  19  33
ATOM     33  C19 UNL     1       0.343   3.148  -3.219  1.00  0.00     0.037 C   
ATOM     34  C20 UNL     1       1.494   3.346  -4.213  1.00  0.00     0.014 C   
ATOM     35  C21 UNL     1      -0.993   3.472  -3.899  1.00  0.00     0.014 C   
ENDBRANCH  19  33
ENDBRANCH   3  19
TORSDOF 10
