REMARK SMILES COc1ccc([C@H](CO)n2cc([C@@H]([NH2+]Cc3ccc4c(c3)OCO4)C(C)C)nn2)cc1
REMARK SMILES IDX 10 1 11 2 12 3 28 4 29 5 7 7 6 8 3 9 4 10 31 11 5 12 30 13
REMARK SMILES IDX 2 14 1 15 8 16 9 17 13 19 14 20 15 23 16 24 17 25 21 26
REMARK SMILES IDX 18 27 20 28 19 29 22 30 24 31 23 32 25 33 26 34 27 35
REMARK H PARENT 11 6 9 18 14 21 14 22
ROOT
ATOM     1   N1  UNL     1      -1.864   1.116  -0.277  1.00  0.00    -0.202 N   
ATOM     2   C8  UNL     1      -1.498   0.403   0.835  1.00  0.00     0.046 A   
ATOM     3   C9  UNL     1      -0.346  -0.246   0.456  1.00  0.00     0.127 A   
ATOM     4   N3  UNL     1      -0.064   0.063  -0.851  1.00  0.00    -0.132 NA  
ATOM     5   N4  UNL     1      -1.002   0.886  -1.291  1.00  0.00    -0.075 NA  
ATOM     6   H10 UNL     1      -2.073   0.429   1.750  1.00  0.00     0.083 HD  
ENDROOT
BRANCH   1   7
ATOM     7   C6  UNL     1      -3.006   2.011  -0.467  1.00  0.00     0.155 C   
BRANCH   7   8
ATOM     8   C5  UNL     1      -3.119   3.000   0.687  1.00  0.00    -0.023 A   
ATOM     9   C2  UNL     1      -3.223   4.875   2.804  1.00  0.00     0.075 A   
ATOM     10  C3  UNL     1      -4.069   3.765   2.791  1.00  0.00     0.034 A   
ATOM     11  C23 UNL     1      -2.318   5.047   1.761  1.00  0.00     0.034 A   
ATOM     12  C4  UNL     1      -4.021   2.837   1.747  1.00  0.00     0.008 A   
ATOM     13  C22 UNL     1      -2.265   4.118   0.715  1.00  0.00     0.008 A   
BRANCH   9  14
ATOM     14  O1  UNL     1      -3.376   5.698   3.884  1.00  0.00    -0.349 OA  
ATOM     15  C1  UNL     1      -2.613   6.898   3.895  1.00  0.00     0.203 C   
ENDBRANCH   9  14
ENDBRANCH   7   8
BRANCH   7  16
ATOM     16  C7  UNL     1      -4.275   1.218  -0.843  1.00  0.00     0.185 C   
BRANCH  16  17
ATOM     17  O2  UNL     1      -4.610   0.208   0.112  1.00  0.00    -0.394 OA  
ATOM     18  H9  UNL     1      -5.456  -0.182  -0.179  1.00  0.00     0.210 HD  
ENDBRANCH  16  17
ENDBRANCH   7  16
ENDBRANCH   1   7
BRANCH   3  19
ATOM     19  C10 UNL     1       0.538  -1.189   1.205  1.00  0.00     0.117 C   
BRANCH  19  20
ATOM     20  N2  UNL     1       1.233  -2.124   0.252  1.00  0.00     0.249 N   
ATOM     21  H12 UNL     1       1.569  -1.548  -0.534  1.00  0.00     0.199 HD  
ATOM     22  H13 UNL     1       2.062  -2.555   0.669  1.00  0.00     0.199 HD  
BRANCH  20  23
ATOM     23  C11 UNL     1       0.370  -3.191  -0.327  1.00  0.00     0.164 C   
BRANCH  23  24
ATOM     24  C12 UNL     1       1.162  -4.050  -1.273  1.00  0.00    -0.002 A   
ATOM     25  C13 UNL     1       1.768  -5.245  -0.819  1.00  0.00     0.012 A   
ATOM     26  C17 UNL     1       1.348  -3.639  -2.604  1.00  0.00     0.045 A   
ATOM     27  C14 UNL     1       2.541  -6.029  -1.682  1.00  0.00     0.037 A   
ATOM     28  C16 UNL     1       2.115  -4.436  -3.428  1.00  0.00     0.109 A   
ATOM     29  C15 UNL     1       2.695  -5.597  -2.981  1.00  0.00     0.108 A   
ATOM     30  O3  UNL     1       2.393  -4.187  -4.735  1.00  0.00    -0.316 OA  
ATOM     31  O4  UNL     1       3.408  -6.227  -3.950  1.00  0.00    -0.316 OA  
ATOM     32  C18 UNL     1       3.197  -5.340  -5.069  1.00  0.00     0.337 C   
ENDBRANCH  23  24
ENDBRANCH  20  23
ENDBRANCH  19  20
BRANCH  19  33
ATOM     33  C19 UNL     1       1.577  -0.445   2.084  1.00  0.00     0.037 C   
ATOM     34  C20 UNL     1       2.645   0.310   1.284  1.00  0.00     0.014 C   
ATOM     35  C21 UNL     1       2.252  -1.390   3.085  1.00  0.00     0.014 C   
ENDBRANCH  19  33
ENDBRANCH   3  19
TORSDOF 10
