REMARK SMILES CC(C)C[C@H]([NH2+]Cc1ccc2c(c1)OCO2)c1cn(CCc2ccc(O)cc2Cl)nn1
REMARK SMILES IDX 17 1 18 2 19 3 30 4 31 5 5 7 4 8 2 9 1 10 3 11 6 12 7 15
REMARK SMILES IDX 8 16 9 17 13 18 10 19 12 20 11 21 14 22 16 23 15 24 20 25
REMARK SMILES IDX 21 26 22 27 23 28 28 29 24 30 27 31 25 32 29 33 26 34
REMARK H PARENT 18 6 6 13 6 14 26 35
ROOT
ATOM     1   C14 UNL     1       1.288  -0.412  -0.815  1.00  0.00     0.127 A   
ATOM     2   C15 UNL     1       0.659  -0.966  -1.907  1.00  0.00     0.045 A   
ATOM     3   N2  UNL     1       1.635  -1.717  -2.499  1.00  0.00    -0.212 N   
ATOM     4   N3  UNL     1       2.802  -1.600  -1.841  1.00  0.00    -0.076 NA  
ATOM     5   N4  UNL     1       2.603  -0.803  -0.805  1.00  0.00    -0.132 NA  
ATOM     6   H20 UNL     1      -0.356  -0.931  -2.279  1.00  0.00     0.083 HD  
ENDROOT
BRANCH   1   7
ATOM     7   C5  UNL     1       0.773   0.439   0.295  1.00  0.00     0.114 C   
BRANCH   7   8
ATOM     8   C4  UNL     1       0.667   1.930  -0.080  1.00  0.00     0.064 C   
BRANCH   8   9
ATOM     9   C2  UNL     1       1.916   2.641  -0.651  1.00  0.00    -0.012 C   
ATOM     10  C1  UNL     1       1.490   3.978  -1.273  1.00  0.00     0.007 C   
ATOM     11  C3  UNL     1       3.002   2.906   0.392  1.00  0.00     0.007 C   
ENDBRANCH   8   9
ENDBRANCH   7   8
BRANCH   7  12
ATOM     12  N1  UNL     1       1.612   0.268   1.532  1.00  0.00     0.249 N   
ATOM     13  H11 UNL     1       2.587   0.219   1.208  1.00  0.00     0.199 HD  
ATOM     14  H12 UNL     1       1.530   1.080   2.149  1.00  0.00     0.199 HD  
BRANCH  12  15
ATOM     15  C6  UNL     1       1.369  -0.982   2.312  1.00  0.00     0.164 C   
BRANCH  15  16
ATOM     16  C7  UNL     1       0.061  -0.959   3.053  1.00  0.00    -0.002 A   
ATOM     17  C8  UNL     1      -1.020  -1.764   2.622  1.00  0.00     0.012 A   
ATOM     18  C12 UNL     1      -0.106  -0.115   4.166  1.00  0.00     0.045 A   
ATOM     19  C9  UNL     1      -2.253  -1.728   3.282  1.00  0.00     0.037 A   
ATOM     20  C11 UNL     1      -1.335  -0.104   4.794  1.00  0.00     0.109 A   
ATOM     21  C10 UNL     1      -2.378  -0.886   4.365  1.00  0.00     0.108 A   
ATOM     22  O1  UNL     1      -1.663   0.655   5.872  1.00  0.00    -0.316 OA  
ATOM     23  O2  UNL     1      -3.495  -0.720   5.119  1.00  0.00    -0.316 OA  
ATOM     24  C13 UNL     1      -3.027   0.231   6.100  1.00  0.00     0.337 C   
ENDBRANCH  15  16
ENDBRANCH  12  15
ENDBRANCH   7  12
ENDBRANCH   1   7
BRANCH   3  25
ATOM     25  C16 UNL     1       1.527  -2.577  -3.659  1.00  0.00     0.139 C   
BRANCH  25  26
ATOM     26  C17 UNL     1       1.267  -4.043  -3.301  1.00  0.00     0.058 C   
BRANCH  26  27
ATOM     27  C18 UNL     1      -0.132  -4.288  -2.774  1.00  0.00    -0.028 A   
ATOM     28  C19 UNL     1      -1.188  -4.378  -3.701  1.00  0.00     0.008 A   
ATOM     29  C23 UNL     1      -0.435  -4.406  -1.405  1.00  0.00     0.046 A   
ATOM     30  C20 UNL     1      -2.504  -4.572  -3.276  1.00  0.00     0.033 A   
ATOM     31  C22 UNL     1      -1.752  -4.601  -0.982  1.00  0.00     0.054 A   
ATOM     32  C21 UNL     1      -2.773  -4.680  -1.919  1.00  0.00     0.073 A   
ATOM     33  CL1 UNL     1       0.777  -4.293  -0.180  1.00  0.00    -0.084 Cl  
BRANCH  32  34
ATOM     34  O3  UNL     1      -4.042  -4.860  -1.457  1.00  0.00    -0.361 OA  
ATOM     35  H27 UNL     1      -4.634  -5.040  -2.208  1.00  0.00     0.218 HD  
ENDBRANCH  32  34
ENDBRANCH  26  27
ENDBRANCH  25  26
ENDBRANCH   3  25
TORSDOF 10
