REMARK SMILES CC(C)(C)[C@H]([NH2+]Cc1ccc2c(c1)OCO2)c1cn(-c2nccc3[nH]cnc23)nn1
REMARK SMILES IDX 5 1 2 2 1 3 3 4 4 5 6 6 7 9 8 10 9 11 13 12 10 13 12 14
REMARK SMILES IDX 11 15 14 16 16 17 15 18 17 19 18 20 30 21 19 22 29 23 20 24
REMARK SMILES IDX 21 25 28 26 22 27 24 28 27 29 23 30 25 31 26 32
REMARK H PARENT 6 7 6 8 25 33
ROOT
ATOM     1   C5  UNL     1       1.631   0.110  -0.595  1.00  0.00     0.120 C   
ENDROOT
BRANCH   1   2
ATOM     2   C2  UNL     1       2.801   1.003  -0.052  1.00  0.00     0.010 C   
ATOM     3   C1  UNL     1       4.138   0.231  -0.112  1.00  0.00     0.017 C   
ATOM     4   C3  UNL     1       2.971   2.262  -0.935  1.00  0.00     0.017 C   
ATOM     5   C4  UNL     1       2.573   1.460   1.403  1.00  0.00     0.017 C   
ENDBRANCH   1   2
BRANCH   1   6
ATOM     6   N1  UNL     1       0.322   0.863  -0.518  1.00  0.00     0.250 N   
ATOM     7   H11 UNL     1       0.429   1.868  -0.675  1.00  0.00     0.199 HD  
ATOM     8   H12 UNL     1      -0.013   0.762   0.453  1.00  0.00     0.199 HD  
BRANCH   6   9
ATOM     9   C6  UNL     1      -0.764   0.355  -1.403  1.00  0.00     0.164 C   
BRANCH   9  10
ATOM     10  C7  UNL     1      -2.055   1.060  -1.096  1.00  0.00    -0.002 A   
ATOM     11  C8  UNL     1      -2.902   0.569  -0.073  1.00  0.00     0.012 A   
ATOM     12  C12 UNL     1      -2.400   2.240  -1.775  1.00  0.00     0.045 A   
ATOM     13  C9  UNL     1      -4.084   1.238   0.264  1.00  0.00     0.037 A   
ATOM     14  C11 UNL     1      -3.571   2.876  -1.416  1.00  0.00     0.109 A   
ATOM     15  C10 UNL     1      -4.390   2.389  -0.426  1.00  0.00     0.108 A   
ATOM     16  O1  UNL     1      -4.046   4.025  -1.965  1.00  0.00    -0.316 OA  
ATOM     17  O2  UNL     1      -5.486   3.167  -0.232  1.00  0.00    -0.316 OA  
ATOM     18  C13 UNL     1      -5.276   4.195  -1.224  1.00  0.00     0.337 C   
ENDBRANCH   9  10
ENDBRANCH   6   9
ENDBRANCH   1   6
BRANCH   1  19
ATOM     19  C14 UNL     1       1.463  -1.192   0.130  1.00  0.00     0.128 A   
ATOM     20  C15 UNL     1       1.999  -2.439  -0.087  1.00  0.00     0.137 A   
ATOM     21  N7  UNL     1       0.580  -1.265   1.173  1.00  0.00    -0.131 NA  
ATOM     22  N2  UNL     1       1.433  -3.251   0.884  1.00  0.00    -0.160 N   
ATOM     23  N6  UNL     1       0.560  -2.512   1.613  1.00  0.00    -0.069 NA  
BRANCH  22  24
ATOM     24  C16 UNL     1       1.694  -4.624   1.083  1.00  0.00     0.173 A   
ATOM     25  N3  UNL     1       2.602  -5.241   0.253  1.00  0.00    -0.237 NA  
ATOM     26  C21 UNL     1       1.059  -5.368   2.093  1.00  0.00     0.128 A   
ATOM     27  C17 UNL     1       2.874  -6.555   0.430  1.00  0.00     0.115 A   
ATOM     28  C19 UNL     1       1.386  -6.718   2.224  1.00  0.00     0.062 A   
ATOM     29  N5  UNL     1       0.120  -5.022   3.043  1.00  0.00    -0.236 NA  
ATOM     30  C18 UNL     1       2.304  -7.363   1.401  1.00  0.00     0.046 A   
ATOM     31  N4  UNL     1       0.629  -7.162   3.279  1.00  0.00    -0.304 N   
ATOM     32  C20 UNL     1      -0.114  -6.112   3.735  1.00  0.00     0.187 A   
ATOM     33  H23 UNL     1       0.615  -8.102   3.653  1.00  0.00     0.154 HD  
ENDBRANCH  22  24
ENDBRANCH   1  19
TORSDOF 6
