REMARK SMILES CC(C)(C)[C@H]([NH2+]Cc1ccc2c(c1)OCO2)c1cn(C[C@@H]2Cc3cccc(F)c3O2)nn1
REMARK SMILES IDX 17 1 18 2 19 3 31 4 32 5 5 7 2 8 1 9 3 10 4 11 6 12 7 15
REMARK SMILES IDX 8 16 9 17 13 18 10 19 12 20 11 21 14 22 16 23 15 24 20 25
REMARK SMILES IDX 21 26 22 27 30 28 23 29 29 30 24 31 27 32 25 33 26 34 28 35
REMARK H PARENT 18 6 6 13 6 14
ROOT
ATOM     1   C14 UNL     1       0.049   0.056   2.133  1.00  0.00     0.127 A   
ATOM     2   C15 UNL     1      -1.151   0.236   1.484  1.00  0.00     0.045 A   
ATOM     3   N2  UNL     1      -1.389   1.576   1.601  1.00  0.00    -0.210 N   
ATOM     4   N3  UNL     1      -0.407   2.185   2.287  1.00  0.00    -0.076 NA  
ATOM     5   N4  UNL     1       0.484   1.264   2.618  1.00  0.00    -0.132 NA  
ATOM     6   H20 UNL     1      -1.808  -0.424   0.932  1.00  0.00     0.083 HD  
ENDROOT
BRANCH   1   7
ATOM     7   C5  UNL     1       0.925  -1.152   2.259  1.00  0.00     0.120 C   
BRANCH   7   8
ATOM     8   C2  UNL     1       0.783  -1.913   3.624  1.00  0.00     0.010 C   
ATOM     9   C1  UNL     1      -0.693  -2.316   3.853  1.00  0.00     0.017 C   
ATOM     10  C3  UNL     1       1.250  -1.077   4.832  1.00  0.00     0.017 C   
ATOM     11  C4  UNL     1       1.606  -3.223   3.593  1.00  0.00     0.017 C   
ENDBRANCH   7   8
BRANCH   7  12
ATOM     12  N1  UNL     1       2.364  -0.725   2.038  1.00  0.00     0.250 N   
ATOM     13  H11 UNL     1       3.019  -1.436   2.365  1.00  0.00     0.199 HD  
ATOM     14  H12 UNL     1       2.503   0.112   2.623  1.00  0.00     0.199 HD  
BRANCH  12  15
ATOM     15  C6  UNL     1       2.726  -0.344   0.638  1.00  0.00     0.164 C   
BRANCH  15  16
ATOM     16  C7  UNL     1       2.743  -1.522  -0.297  1.00  0.00    -0.002 A   
ATOM     17  C8  UNL     1       3.772  -2.491  -0.212  1.00  0.00     0.012 A   
ATOM     18  C12 UNL     1       1.716  -1.684  -1.245  1.00  0.00     0.045 A   
ATOM     19  C9  UNL     1       3.775  -3.611  -1.050  1.00  0.00     0.037 A   
ATOM     20  C11 UNL     1       1.750  -2.800  -2.055  1.00  0.00     0.109 A   
ATOM     21  C10 UNL     1       2.749  -3.737  -1.960  1.00  0.00     0.108 A   
ATOM     22  O1  UNL     1       0.835  -3.112  -3.011  1.00  0.00    -0.316 OA  
ATOM     23  O2  UNL     1       2.591  -4.755  -2.846  1.00  0.00    -0.316 OA  
ATOM     24  C13 UNL     1       1.393  -4.336  -3.537  1.00  0.00     0.337 C   
ENDBRANCH  15  16
ENDBRANCH  12  15
ENDBRANCH   7  12
ENDBRANCH   1   7
BRANCH   3  25
ATOM     25  C16 UNL     1      -2.469   2.344   1.012  1.00  0.00     0.166 C   
BRANCH  25  26
ATOM     26  C17 UNL     1      -2.033   2.974  -0.317  1.00  0.00     0.149 C   
ATOM     27  C18 UNL     1      -3.147   3.826  -0.948  1.00  0.00     0.072 C   
ATOM     28  O3  UNL     1      -1.681   1.909  -1.247  1.00  0.00    -0.337 OA  
ATOM     29  C19 UNL     1      -3.652   2.868  -1.958  1.00  0.00    -0.012 A   
ATOM     30  C24 UNL     1      -2.755   1.821  -2.092  1.00  0.00     0.114 A   
ATOM     31  C20 UNL     1      -4.786   2.935  -2.749  1.00  0.00     0.007 A   
ATOM     32  C23 UNL     1      -2.963   0.810  -3.007  1.00  0.00     0.153 A   
ATOM     33  C21 UNL     1      -5.010   1.912  -3.678  1.00  0.00     0.004 A   
ATOM     34  C22 UNL     1      -4.100   0.850  -3.807  1.00  0.00     0.042 A   
ATOM     35  F1  UNL     1      -2.095  -0.204  -3.117  1.00  0.00    -0.204 F   
ENDBRANCH  25  26
ENDBRANCH   3  25
TORSDOF 7
