REMARK SMILES CC(C)(C)[C@H]([NH2+]Cc1ccc2c(c1)OCO2)c1cn(C[C@H]2Cc3cccc(F)c3O2)nn1
REMARK SMILES IDX 17 1 18 2 19 3 31 4 32 5 5 7 2 8 1 9 3 10 4 11 6 12 7 15
REMARK SMILES IDX 8 16 9 17 13 18 10 19 12 20 11 21 14 22 16 23 15 24 20 25
REMARK SMILES IDX 21 26 22 27 30 28 23 29 29 30 24 31 27 32 25 33 26 34 28 35
REMARK H PARENT 18 6 6 13 6 14
ROOT
ATOM     1   C14 UNL     1       1.208   1.037   0.790  1.00  0.00     0.127 A   
ATOM     2   C15 UNL     1       0.919   2.346   0.476  1.00  0.00     0.045 A   
ATOM     3   N2  UNL     1       1.314   2.465  -0.827  1.00  0.00    -0.210 N   
ATOM     4   N3  UNL     1       1.847   1.316  -1.278  1.00  0.00    -0.076 NA  
ATOM     5   N4  UNL     1       1.774   0.427  -0.301  1.00  0.00    -0.132 NA  
ATOM     6   H20 UNL     1       0.440   3.154   1.012  1.00  0.00     0.083 HD  
ENDROOT
BRANCH   1   7
ATOM     7   C5  UNL     1       0.882   0.226   2.007  1.00  0.00     0.120 C   
BRANCH   7   8
ATOM     8   C2  UNL     1       2.083   0.034   2.996  1.00  0.00     0.010 C   
ATOM     9   C1  UNL     1       2.638   1.411   3.427  1.00  0.00     0.017 C   
ATOM     10  C3  UNL     1       3.238  -0.785   2.388  1.00  0.00     0.017 C   
ATOM     11  C4  UNL     1       1.608  -0.683   4.281  1.00  0.00     0.017 C   
ENDBRANCH   7   8
BRANCH   7  12
ATOM     12  N1  UNL     1       0.343  -1.111   1.556  1.00  0.00     0.250 N   
ATOM     13  H11 UNL     1       0.999  -1.469   0.847  1.00  0.00     0.199 HD  
ATOM     14  H12 UNL     1       0.323  -1.802   2.309  1.00  0.00     0.199 HD  
BRANCH  12  15
ATOM     15  C6  UNL     1      -1.004  -1.059   0.917  1.00  0.00     0.164 C   
BRANCH  15  16
ATOM     16  C7  UNL     1      -1.393  -2.410   0.390  1.00  0.00    -0.002 A   
ATOM     17  C8  UNL     1      -0.929  -2.833  -0.880  1.00  0.00     0.012 A   
ATOM     18  C12 UNL     1      -2.180  -3.277   1.165  1.00  0.00     0.045 A   
ATOM     19  C9  UNL     1      -1.255  -4.098  -1.379  1.00  0.00     0.037 A   
ATOM     20  C11 UNL     1      -2.482  -4.518   0.644  1.00  0.00     0.109 A   
ATOM     21  C10 UNL     1      -2.034  -4.918  -0.591  1.00  0.00     0.108 A   
ATOM     22  O1  UNL     1      -3.233  -5.471   1.257  1.00  0.00    -0.316 OA  
ATOM     23  O2  UNL     1      -2.448  -6.171  -0.912  1.00  0.00    -0.316 OA  
ATOM     24  C13 UNL     1      -3.216  -6.518   0.260  1.00  0.00     0.337 C   
ENDBRANCH  15  16
ENDBRANCH  12  15
ENDBRANCH   7  12
ENDBRANCH   1   7
BRANCH   3  25
ATOM     25  C16 UNL     1       1.159   3.608  -1.702  1.00  0.00     0.166 C   
BRANCH  25  26
ATOM     26  C17 UNL     1      -0.153   3.603  -2.496  1.00  0.00     0.149 C   
ATOM     27  C18 UNL     1      -0.276   2.479  -3.541  1.00  0.00     0.072 C   
ATOM     28  O3  UNL     1      -1.278   3.538  -1.573  1.00  0.00    -0.337 OA  
ATOM     29  C19 UNL     1      -1.357   1.673  -2.932  1.00  0.00    -0.012 A   
ATOM     30  C24 UNL     1      -1.892   2.344  -1.846  1.00  0.00     0.114 A   
ATOM     31  C20 UNL     1      -1.871   0.451  -3.338  1.00  0.00     0.007 A   
ATOM     32  C23 UNL     1      -2.944   1.811  -1.128  1.00  0.00     0.153 A   
ATOM     33  C21 UNL     1      -2.944  -0.093  -2.623  1.00  0.00     0.004 A   
ATOM     34  C22 UNL     1      -3.481   0.586  -1.518  1.00  0.00     0.042 A   
ATOM     35  F1  UNL     1      -3.426   2.434  -0.045  1.00  0.00    -0.204 F   
ENDBRANCH  25  26
ENDBRANCH   3  25
TORSDOF 7
