REMARK SMILES CC(C)C[C@H]([NH2+]Cc1ccc2c(c1)OCO2)c1cn(CC(=O)c2ccccc2Cl)nn1
REMARK SMILES IDX 17 1 18 2 19 3 30 4 31 5 5 7 4 8 2 9 1 10 3 11 6 12 7 15
REMARK SMILES IDX 8 16 9 17 13 18 10 19 12 20 11 21 14 22 16 23 15 24 20 25
REMARK SMILES IDX 21 26 22 27 23 28 24 29 28 30 25 31 27 32 26 33 29 34
REMARK H PARENT 18 6 6 13 6 14
ROOT
ATOM     1   C14 UNL     1       0.009  -0.459  -0.453  1.00  0.00     0.127 A   
ATOM     2   C15 UNL     1       0.206   0.756  -1.075  1.00  0.00     0.046 A   
ATOM     3   N2  UNL     1       1.490   0.687  -1.538  1.00  0.00    -0.204 N   
ATOM     4   N3  UNL     1       2.042  -0.502  -1.246  1.00  0.00    -0.076 NA  
ATOM     5   N4  UNL     1       1.141  -1.216  -0.589  1.00  0.00    -0.132 NA  
ATOM     6   H20 UNL     1      -0.396   1.649  -1.181  1.00  0.00     0.083 HD  
ENDROOT
BRANCH   1   7
ATOM     7   C5  UNL     1      -1.119  -0.959   0.388  1.00  0.00     0.114 C   
BRANCH   7   8
ATOM     8   C4  UNL     1      -2.514  -0.535  -0.115  1.00  0.00     0.064 C   
BRANCH   8   9
ATOM     9   C2  UNL     1      -2.891  -1.060  -1.518  1.00  0.00    -0.012 C   
ATOM     10  C1  UNL     1      -2.906  -2.588  -1.584  1.00  0.00     0.007 C   
ATOM     11  C3  UNL     1      -4.264  -0.513  -1.920  1.00  0.00     0.007 C   
ENDBRANCH   8   9
ENDBRANCH   7   8
BRANCH   7  12
ATOM     12  N1  UNL     1      -0.984  -0.440   1.808  1.00  0.00     0.249 N   
ATOM     13  H11 UNL     1      -0.904   0.583   1.769  1.00  0.00     0.199 HD  
ATOM     14  H12 UNL     1      -1.838  -0.657   2.331  1.00  0.00     0.199 HD  
BRANCH  12  15
ATOM     15  C6  UNL     1       0.182  -0.965   2.587  1.00  0.00     0.164 C   
BRANCH  15  16
ATOM     16  C7  UNL     1       0.037  -2.417   2.947  1.00  0.00    -0.002 A   
ATOM     17  C8  UNL     1       0.788  -3.401   2.260  1.00  0.00     0.012 A   
ATOM     18  C12 UNL     1      -0.867  -2.812   3.949  1.00  0.00     0.045 A   
ATOM     19  C9  UNL     1       0.641  -4.760   2.560  1.00  0.00     0.037 A   
ATOM     20  C11 UNL     1      -0.987  -4.160   4.220  1.00  0.00     0.109 A   
ATOM     21  C10 UNL     1      -0.257  -5.107   3.545  1.00  0.00     0.108 A   
ATOM     22  O1  UNL     1      -1.811  -4.706   5.154  1.00  0.00    -0.316 OA  
ATOM     23  O2  UNL     1      -0.530  -6.369   3.966  1.00  0.00    -0.316 OA  
ATOM     24  C13 UNL     1      -1.499  -6.111   5.005  1.00  0.00     0.337 C   
ENDBRANCH  15  16
ENDBRANCH  12  15
ENDBRANCH   7  12
ENDBRANCH   1   7
BRANCH   3  25
ATOM     25  C16 UNL     1       2.283   1.736  -2.140  1.00  0.00     0.214 C   
BRANCH  25  26
ATOM     26  C17 UNL     1       2.495   2.845  -1.143  1.00  0.00     0.183 C   
ATOM     27  O3  UNL     1       1.595   3.590  -0.766  1.00  0.00    -0.292 OA  
BRANCH  26  28
ATOM     28  C18 UNL     1       3.839   2.978  -0.556  1.00  0.00     0.038 A   
ATOM     29  C19 UNL     1       4.854   3.550  -1.332  1.00  0.00     0.013 A   
ATOM     30  C23 UNL     1       4.090   2.554   0.754  1.00  0.00     0.051 A   
ATOM     31  C20 UNL     1       6.131   3.692  -0.791  1.00  0.00     0.001 A   
ATOM     32  C22 UNL     1       5.372   2.699   1.286  1.00  0.00     0.021 A   
ATOM     33  C21 UNL     1       6.390   3.267   0.514  1.00  0.00     0.002 A   
ATOM     34  CL1 UNL     1       2.871   1.823   1.738  1.00  0.00    -0.084 Cl  
ENDBRANCH  26  28
ENDBRANCH  25  26
ENDBRANCH   3  25
TORSDOF 9
