REMARK SMILES CN(C)c1cc(F)ccc1Cn1cc([C@@H]([NH2+]Cc2ccc3c(c2)OCO3)C2CCCC2)nn1
REMARK SMILES IDX 12 1 13 2 14 3 32 4 33 5 11 7 10 8 4 9 5 10 6 11 9 12 8 13
REMARK SMILES IDX 7 14 2 15 1 16 3 17 15 18 16 19 17 22 18 23 19 24 23 25
REMARK SMILES IDX 20 26 22 27 21 28 24 29 26 30 25 31 27 32 28 33 31 34 29 35
REMARK SMILES IDX 30 36
REMARK H PARENT 13 6 16 20 16 21
ROOT
ATOM     1   N2  UNL     1       0.753   0.433   2.651  1.00  0.00    -0.208 N   
ATOM     2   C10 UNL     1      -0.246   0.000   1.825  1.00  0.00     0.046 A   
ATOM     3   C11 UNL     1       0.119  -1.288   1.507  1.00  0.00     0.127 A   
ATOM     4   N4  UNL     1       1.275  -1.607   2.171  1.00  0.00    -0.132 NA  
ATOM     5   N5  UNL     1       1.661  -0.543   2.858  1.00  0.00    -0.076 NA  
ATOM     6   H12 UNL     1      -1.060   0.644   1.520  1.00  0.00     0.083 HD  
ENDROOT
BRANCH   1   7
ATOM     7   C9  UNL     1       0.940   1.759   3.217  1.00  0.00     0.171 C   
BRANCH   7   8
ATOM     8   C8  UNL     1       1.473   2.709   2.166  1.00  0.00    -0.007 A   
ATOM     9   C3  UNL     1       0.607   3.523   1.396  1.00  0.00     0.036 A   
ATOM     10  C4  UNL     1       1.165   4.330   0.392  1.00  0.00     0.063 A   
ATOM     11  C5  UNL     1       2.537   4.321   0.155  1.00  0.00     0.125 A   
ATOM     12  C7  UNL     1       2.860   2.720   1.908  1.00  0.00     0.010 A   
ATOM     13  C6  UNL     1       3.389   3.526   0.903  1.00  0.00     0.040 A   
ATOM     14  F1  UNL     1       3.038   5.091  -0.819  1.00  0.00    -0.207 F   
BRANCH   9  15
ATOM     15  N1  UNL     1      -0.780   3.520   1.680  1.00  0.00    -0.337 N   
ATOM     16  C1  UNL     1      -1.656   3.560   0.499  1.00  0.00     0.129 C   
ATOM     17  C2  UNL     1      -1.099   4.586   2.652  1.00  0.00     0.129 C   
ENDBRANCH   9  15
ENDBRANCH   7   8
ENDBRANCH   1   7
BRANCH   3  18
ATOM     18  C12 UNL     1      -0.479  -2.258   0.545  1.00  0.00     0.117 C   
BRANCH  18  19
ATOM     19  N3  UNL     1       0.608  -2.958  -0.246  1.00  0.00     0.249 N   
ATOM     20  H14 UNL     1       0.194  -3.651  -0.874  1.00  0.00     0.199 HD  
ATOM     21  H15 UNL     1       1.188  -3.462   0.437  1.00  0.00     0.199 HD  
BRANCH  19  22
ATOM     22  C13 UNL     1       1.532  -2.086  -1.039  1.00  0.00     0.164 C   
BRANCH  22  23
ATOM     23  C14 UNL     1       0.830  -1.202  -2.031  1.00  0.00    -0.002 A   
ATOM     24  C15 UNL     1       0.787   0.200  -1.826  1.00  0.00     0.012 A   
ATOM     25  C19 UNL     1       0.194  -1.756  -3.155  1.00  0.00     0.045 A   
ATOM     26  C16 UNL     1       0.114   1.038  -2.721  1.00  0.00     0.037 A   
ATOM     27  C18 UNL     1      -0.461  -0.901  -4.017  1.00  0.00     0.109 A   
ATOM     28  C17 UNL     1      -0.503   0.456  -3.806  1.00  0.00     0.108 A   
ATOM     29  O1  UNL     1      -1.128  -1.273  -5.141  1.00  0.00    -0.316 OA  
ATOM     30  O2  UNL     1      -1.203   1.108  -4.770  1.00  0.00    -0.316 OA  
ATOM     31  C20 UNL     1      -1.553   0.014  -5.645  1.00  0.00     0.337 C   
ENDBRANCH  22  23
ENDBRANCH  19  22
ENDBRANCH  18  19
BRANCH  18  32
ATOM     32  C21 UNL     1      -1.325  -3.329   1.260  1.00  0.00     0.043 C   
ATOM     33  C22 UNL     1      -2.543  -2.752   1.989  1.00  0.00     0.010 C   
ATOM     34  C25 UNL     1      -1.978  -4.351   0.323  1.00  0.00     0.010 C   
ATOM     35  C23 UNL     1      -3.415  -3.969   2.264  1.00  0.00     0.001 C   
ATOM     36  C24 UNL     1      -3.134  -4.945   1.125  1.00  0.00     0.001 C   
ENDBRANCH  18  32
ENDBRANCH   3  18
TORSDOF 8
