REMARK SMILES CC(C)(C)c1cc(Cn2cc([C@@H]([NH2+]Cc3ccc4c(c3)OCO4)C3CCCCC3)nn2)on1
REMARK SMILES IDX 9 1 10 2 11 3 30 4 31 5 8 7 7 8 5 9 6 10 33 11 32 12 2 13
REMARK SMILES IDX 1 14 3 15 4 16 12 17 13 18 14 21 15 22 16 23 20 24 17 25
REMARK SMILES IDX 19 26 18 27 21 28 23 29 22 30 24 31 25 32 29 33 26 34 28 35
REMARK SMILES IDX 27 36
REMARK H PARENT 10 6 13 19 13 20
ROOT
ATOM     1   N1  UNL     1      -1.312   1.548  -2.485  1.00  0.00    -0.206 N   
ATOM     2   C9  UNL     1      -0.354   1.143  -1.594  1.00  0.00     0.046 A   
ATOM     3   C10 UNL     1      -0.877   1.466  -0.361  1.00  0.00     0.127 A   
ATOM     4   N3  UNL     1      -2.078   2.098  -0.537  1.00  0.00    -0.132 NA  
ATOM     5   N4  UNL     1      -2.328   2.153  -1.834  1.00  0.00    -0.076 NA  
ATOM     6   H13 UNL     1       0.566   0.664  -1.897  1.00  0.00     0.083 HD  
ENDROOT
BRANCH   1   7
ATOM     7   C8  UNL     1      -1.329   1.485  -3.942  1.00  0.00     0.198 C   
BRANCH   7   8
ATOM     8   C7  UNL     1      -0.564   0.334  -4.462  1.00  0.00     0.106 A   
ATOM     9   C5  UNL     1       0.357  -1.524  -5.232  1.00  0.00     0.076 A   
ATOM     10  C6  UNL     1      -0.889  -0.916  -4.927  1.00  0.00     0.060 A   
ATOM     11  N5  UNL     1       1.361  -0.667  -4.987  1.00  0.00    -0.133 NA  
ATOM     12  O3  UNL     1       0.783   0.496  -4.534  1.00  0.00    -0.216 OA  
BRANCH   9  13
ATOM     13  C2  UNL     1       0.651  -2.908  -5.783  1.00  0.00     0.007 C   
ATOM     14  C1  UNL     1       1.740  -3.607  -4.940  1.00  0.00     0.017 C   
ATOM     15  C3  UNL     1      -0.604  -3.807  -5.764  1.00  0.00     0.017 C   
ATOM     16  C4  UNL     1       1.140  -2.798  -7.241  1.00  0.00     0.017 C   
ENDBRANCH   9  13
ENDBRANCH   7   8
ENDBRANCH   1   7
BRANCH   3  17
ATOM     17  C11 UNL     1      -0.322   1.293   1.017  1.00  0.00     0.117 C   
BRANCH  17  18
ATOM     18  N2  UNL     1      -0.513   2.580   1.795  1.00  0.00     0.249 N   
ATOM     19  H15 UNL     1      -0.254   2.453   2.774  1.00  0.00     0.199 HD  
ATOM     20  H16 UNL     1      -1.520   2.794   1.769  1.00  0.00     0.199 HD  
BRANCH  18  21
ATOM     21  C12 UNL     1       0.219   3.783   1.288  1.00  0.00     0.164 C   
BRANCH  21  22
ATOM     22  C13 UNL     1       1.711   3.594   1.258  1.00  0.00    -0.002 A   
ATOM     23  C14 UNL     1       2.404   3.632   0.024  1.00  0.00     0.012 A   
ATOM     24  C18 UNL     1       2.426   3.356   2.445  1.00  0.00     0.045 A   
ATOM     25  C15 UNL     1       3.784   3.411  -0.033  1.00  0.00     0.037 A   
ATOM     26  C17 UNL     1       3.783   3.125   2.351  1.00  0.00     0.109 A   
ATOM     27  C16 UNL     1       4.442   3.150   1.147  1.00  0.00     0.108 A   
ATOM     28  O1  UNL     1       4.609   2.840   3.392  1.00  0.00    -0.316 OA  
ATOM     29  O2  UNL     1       5.769   2.897   1.280  1.00  0.00    -0.316 OA  
ATOM     30  C19 UNL     1       5.868   2.663   2.702  1.00  0.00     0.337 C   
ENDBRANCH  21  22
ENDBRANCH  18  21
ENDBRANCH  17  18
BRANCH  17  31
ATOM     31  C20 UNL     1      -1.005   0.117   1.788  1.00  0.00     0.043 C   
ATOM     32  C21 UNL     1      -0.474  -0.023   3.233  1.00  0.00     0.010 C   
ATOM     33  C25 UNL     1      -0.808  -1.218   1.031  1.00  0.00     0.010 C   
ATOM     34  C22 UNL     1      -1.037  -1.238   3.965  1.00  0.00     0.001 C   
ATOM     35  C24 UNL     1      -1.382  -2.417   1.781  1.00  0.00     0.001 C   
ATOM     36  C23 UNL     1      -0.809  -2.525   3.187  1.00  0.00     0.000 C   
ENDBRANCH  17  31
ENDBRANCH   3  17
TORSDOF 8
