REMARK SMILES COc1c(C)cccc1CCn1cc([C@@H]([NH2+]Cc2ccc3c(c2)OCO3)C2CCCC2)nn1
REMARK SMILES IDX 12 1 13 2 14 3 32 4 33 5 11 7 10 8 9 9 3 10 4 11 6 12 8 13
REMARK SMILES IDX 7 14 5 15 2 16 1 17 15 18 16 19 17 22 18 23 19 24 23 25
REMARK SMILES IDX 20 26 22 27 21 28 24 29 26 30 25 31 27 32 28 33 31 34 29 35
REMARK SMILES IDX 30 36
REMARK H PARENT 13 6 16 20 16 21
ROOT
ATOM     1   N1  UNL     1      -0.212   1.019   3.031  1.00  0.00    -0.212 N   
ATOM     2   C11 UNL     1      -0.759   0.102   2.181  1.00  0.00     0.045 A   
ATOM     3   C12 UNL     1       0.221  -0.857   2.063  1.00  0.00     0.127 A   
ATOM     4   N3  UNL     1       1.291  -0.513   2.848  1.00  0.00    -0.132 NA  
ATOM     5   N4  UNL     1       1.010   0.635   3.441  1.00  0.00    -0.076 NA  
ATOM     6   H14 UNL     1      -1.728   0.240   1.722  1.00  0.00     0.083 HD  
ENDROOT
BRANCH   1   7
ATOM     7   C10 UNL     1      -0.765   2.287   3.454  1.00  0.00     0.139 C   
BRANCH   7   8
ATOM     8   C9  UNL     1      -0.230   3.462   2.634  1.00  0.00     0.059 C   
BRANCH   8   9
ATOM     9   C8  UNL     1      -0.715   3.472   1.199  1.00  0.00    -0.016 A   
ATOM     10  C2  UNL     1       0.133   3.219   0.105  1.00  0.00     0.081 A   
ATOM     11  C3  UNL     1      -0.362   3.189  -1.212  1.00  0.00    -0.021 A   
ATOM     12  C5  UNL     1      -1.718   3.467  -1.429  1.00  0.00     0.006 A   
ATOM     13  C7  UNL     1      -2.069   3.745   0.945  1.00  0.00     0.006 A   
ATOM     14  C6  UNL     1      -2.565   3.742  -0.358  1.00  0.00     0.001 A   
ATOM     15  C4  UNL     1       0.531   2.938  -2.395  1.00  0.00     0.047 C   
BRANCH  10  16
ATOM     16  O1  UNL     1       1.457   2.919   0.318  1.00  0.00    -0.349 OA  
ATOM     17  C1  UNL     1       2.245   4.115   0.268  1.00  0.00     0.203 C   
ENDBRANCH  10  16
ENDBRANCH   8   9
ENDBRANCH   7   8
ENDBRANCH   1   7
BRANCH   3  18
ATOM     18  C13 UNL     1       0.322  -2.055   1.181  1.00  0.00     0.117 C   
BRANCH  18  19
ATOM     19  N2  UNL     1       1.647  -2.006   0.452  1.00  0.00     0.249 N   
ATOM     20  H16 UNL     1       1.859  -2.906   0.014  1.00  0.00     0.199 HD  
ATOM     21  H17 UNL     1       2.360  -1.839   1.176  1.00  0.00     0.199 HD  
BRANCH  19  22
ATOM     22  C14 UNL     1       1.789  -0.925  -0.570  1.00  0.00     0.164 C   
BRANCH  22  23
ATOM     23  C15 UNL     1       0.963  -1.190  -1.798  1.00  0.00    -0.002 A   
ATOM     24  C16 UNL     1       1.403  -2.120  -2.771  1.00  0.00     0.012 A   
ATOM     25  C20 UNL     1      -0.273  -0.543  -1.969  1.00  0.00     0.045 A   
ATOM     26  C17 UNL     1       0.625  -2.399  -3.900  1.00  0.00     0.037 A   
ATOM     27  C19 UNL     1      -1.014  -0.838  -3.094  1.00  0.00     0.109 A   
ATOM     28  C18 UNL     1      -0.578  -1.741  -4.032  1.00  0.00     0.108 A   
ATOM     29  O2  UNL     1      -2.221  -0.301  -3.409  1.00  0.00    -0.316 OA  
ATOM     30  O3  UNL     1      -1.457  -1.887  -5.058  1.00  0.00    -0.316 OA  
ATOM     31  C21 UNL     1      -2.482  -0.944  -4.678  1.00  0.00     0.337 C   
ENDBRANCH  22  23
ENDBRANCH  19  22
ENDBRANCH  18  19
BRANCH  18  32
ATOM     32  C22 UNL     1       0.242  -3.372   1.976  1.00  0.00     0.043 C   
ATOM     33  C23 UNL     1       0.299  -4.634   1.108  1.00  0.00     0.010 C   
ATOM     34  C26 UNL     1      -1.098  -3.556   2.698  1.00  0.00     0.010 C   
ATOM     35  C24 UNL     1      -0.246  -5.736   2.010  1.00  0.00     0.001 C   
ATOM     36  C25 UNL     1      -1.171  -5.047   3.010  1.00  0.00     0.001 C   
ENDBRANCH  18  32
ENDBRANCH   3  18
TORSDOF 9
