REMARK SMILES OC[C@H](c1cccc(O)c1)n1cc([C@@H]([NH2+]Cc2ccc3c(c2)OCO3)C2CCCC2)nn1
REMARK SMILES IDX 11 1 12 2 13 3 31 4 32 5 3 7 2 8 1 9 4 11 5 12 10 13 6 14
REMARK SMILES IDX 8 15 7 16 9 17 14 19 15 20 16 23 17 24 18 25 22 26 19 27
REMARK SMILES IDX 21 28 20 29 23 30 25 31 24 32 26 33 27 34 30 35 28 36 29 37
REMARK H PARENT 12 6 1 10 9 18 15 21 15 22
ROOT
ATOM     1   N1  UNL     1       0.069   1.761   1.360  1.00  0.00    -0.202 N   
ATOM     2   C9  UNL     1      -0.382   0.474   1.511  1.00  0.00     0.046 A   
ATOM     3   C10 UNL     1      -0.568   0.031   0.221  1.00  0.00     0.127 A   
ATOM     4   N3  UNL     1      -0.242   1.035  -0.653  1.00  0.00    -0.132 NA  
ATOM     5   N4  UNL     1       0.135   2.087   0.051  1.00  0.00    -0.075 NA  
ATOM     6   H10 UNL     1      -0.514   0.019   2.483  1.00  0.00     0.083 HD  
ENDROOT
BRANCH   1   7
ATOM     7   C2  UNL     1       0.438   2.705   2.416  1.00  0.00     0.155 C   
BRANCH   7   8
ATOM     8   C1  UNL     1      -0.122   4.118   2.174  1.00  0.00     0.185 C   
BRANCH   8   9
ATOM     9   O1  UNL     1      -1.542   4.121   2.352  1.00  0.00    -0.394 OA  
ATOM     10  H1  UNL     1      -1.835   5.045   2.250  1.00  0.00     0.210 HD  
ENDBRANCH   8   9
ENDBRANCH   7   8
BRANCH   7  11
ATOM     11  C3  UNL     1       1.941   2.691   2.640  1.00  0.00    -0.021 A   
ATOM     12  C4  UNL     1       2.466   2.206   3.850  1.00  0.00     0.006 A   
ATOM     13  C8  UNL     1       2.835   3.164   1.665  1.00  0.00     0.039 A   
ATOM     14  C5  UNL     1       3.845   2.194   4.076  1.00  0.00     0.003 A   
ATOM     15  C7  UNL     1       4.207   3.147   1.901  1.00  0.00     0.072 A   
ATOM     16  C6  UNL     1       4.721   2.667   3.099  1.00  0.00     0.033 A   
BRANCH  15  17
ATOM     17  O2  UNL     1       5.021   3.620   0.916  1.00  0.00    -0.361 OA  
ATOM     18  H8  UNL     1       5.941   3.591   1.227  1.00  0.00     0.218 HD  
ENDBRANCH  15  17
ENDBRANCH   7  11
ENDBRANCH   1   7
BRANCH   3  19
ATOM     19  C11 UNL     1      -1.067  -1.270  -0.313  1.00  0.00     0.117 C   
BRANCH  19  20
ATOM     20  N2  UNL     1      -1.774  -1.051  -1.631  1.00  0.00     0.249 N   
ATOM     21  H12 UNL     1      -1.861  -1.925  -2.155  1.00  0.00     0.199 HD  
ATOM     22  H13 UNL     1      -1.162  -0.428  -2.178  1.00  0.00     0.199 HD  
BRANCH  20  23
ATOM     23  C12 UNL     1      -3.106  -0.380  -1.557  1.00  0.00     0.164 C   
BRANCH  23  24
ATOM     24  C13 UNL     1      -4.151  -1.222  -0.880  1.00  0.00    -0.002 A   
ATOM     25  C14 UNL     1      -4.642  -0.857   0.397  1.00  0.00     0.012 A   
ATOM     26  C18 UNL     1      -4.632  -2.389  -1.497  1.00  0.00     0.045 A   
ATOM     27  C15 UNL     1      -5.591  -1.646   1.056  1.00  0.00     0.037 A   
ATOM     28  C17 UNL     1      -5.568  -3.144  -0.820  1.00  0.00     0.109 A   
ATOM     29  C16 UNL     1      -6.032  -2.785   0.420  1.00  0.00     0.108 A   
ATOM     30  O3  UNL     1      -6.127  -4.297  -1.271  1.00  0.00    -0.316 OA  
ATOM     31  O4  UNL     1      -6.943  -3.666   0.907  1.00  0.00    -0.316 OA  
ATOM     32  C19 UNL     1      -7.025  -4.610  -0.182  1.00  0.00     0.337 C   
ENDBRANCH  23  24
ENDBRANCH  20  23
ENDBRANCH  19  20
BRANCH  19  33
ATOM     33  C20 UNL     1       0.075  -2.293  -0.481  1.00  0.00     0.043 C   
ATOM     34  C21 UNL     1      -0.394  -3.726  -0.796  1.00  0.00     0.010 C   
ATOM     35  C24 UNL     1       1.116  -1.979  -1.563  1.00  0.00     0.010 C   
ATOM     36  C22 UNL     1       0.611  -4.296  -1.797  1.00  0.00     0.001 C   
ATOM     37  C23 UNL     1       1.782  -3.326  -1.796  1.00  0.00     0.001 C   
ENDBRANCH  19  33
ENDBRANCH   3  19
TORSDOF 10
