REMARK SMILES OC[C@@H](c1cccc(O)c1)n1cc([C@@H]([NH2+]Cc2ccc3c(c2)OCO3)C2CCCC2)nn1
REMARK SMILES IDX 11 1 12 2 13 3 31 4 32 5 3 7 2 8 1 9 4 11 5 12 10 13 6 14
REMARK SMILES IDX 8 15 7 16 9 17 14 19 15 20 16 23 17 24 18 25 22 26 19 27
REMARK SMILES IDX 21 28 20 29 23 30 25 31 24 32 26 33 27 34 30 35 28 36 29 37
REMARK H PARENT 12 6 1 10 9 18 15 21 15 22
ROOT
ATOM     1   N1  UNL     1      -0.477  -0.199   2.349  1.00  0.00    -0.202 N   
ATOM     2   C9  UNL     1       0.038   0.149   1.128  1.00  0.00     0.046 A   
ATOM     3   C10 UNL     1      -0.752  -0.520   0.225  1.00  0.00     0.127 A   
ATOM     4   N3  UNL     1      -1.693  -1.253   0.904  1.00  0.00    -0.132 NA  
ATOM     5   N4  UNL     1      -1.510  -1.058   2.200  1.00  0.00    -0.075 NA  
ATOM     6   H10 UNL     1       0.886   0.814   1.031  1.00  0.00     0.083 HD  
ENDROOT
BRANCH   1   7
ATOM     7   C2  UNL     1      -0.062   0.234   3.684  1.00  0.00     0.155 C   
BRANCH   7   8
ATOM     8   C1  UNL     1       1.205  -0.512   4.152  1.00  0.00     0.185 C   
BRANCH   8   9
ATOM     9   O1  UNL     1       2.299  -0.395   3.240  1.00  0.00    -0.394 OA  
ATOM     10  H1  UNL     1       3.077  -0.785   3.680  1.00  0.00     0.210 HD  
ENDBRANCH   8   9
ENDBRANCH   7   8
BRANCH   7  11
ATOM     11  C3  UNL     1      -0.045   1.755   3.774  1.00  0.00    -0.021 A   
ATOM     12  C4  UNL     1      -1.257   2.440   3.994  1.00  0.00     0.006 A   
ATOM     13  C8  UNL     1       1.124   2.515   3.620  1.00  0.00     0.039 A   
ATOM     14  C5  UNL     1      -1.291   3.835   4.072  1.00  0.00     0.003 A   
ATOM     15  C7  UNL     1       1.078   3.905   3.698  1.00  0.00     0.072 A   
ATOM     16  C6  UNL     1      -0.118   4.572   3.926  1.00  0.00     0.033 A   
BRANCH  15  17
ATOM     17  O2  UNL     1       2.250   4.583   3.538  1.00  0.00    -0.361 OA  
ATOM     18  H8  UNL     1       2.089   5.530   3.685  1.00  0.00     0.218 HD  
ENDBRANCH  15  17
ENDBRANCH   7  11
ENDBRANCH   1   7
BRANCH   3  19
ATOM     19  C11 UNL     1      -0.712  -0.571  -1.267  1.00  0.00     0.117 C   
BRANCH  19  20
ATOM     20  N2  UNL     1      -1.385  -1.833  -1.753  1.00  0.00     0.249 N   
ATOM     21  H12 UNL     1      -2.201  -1.966  -1.137  1.00  0.00     0.199 HD  
ATOM     22  H13 UNL     1      -1.743  -1.724  -2.705  1.00  0.00     0.199 HD  
BRANCH  20  23
ATOM     23  C12 UNL     1      -0.568  -3.078  -1.668  1.00  0.00     0.164 C   
BRANCH  23  24
ATOM     24  C13 UNL     1       0.445  -3.171  -2.775  1.00  0.00    -0.002 A   
ATOM     25  C14 UNL     1       0.036  -3.496  -4.091  1.00  0.00     0.012 A   
ATOM     26  C18 UNL     1       1.801  -2.903  -2.519  1.00  0.00     0.045 A   
ATOM     27  C15 UNL     1       0.961  -3.548  -5.140  1.00  0.00     0.037 A   
ATOM     28  C17 UNL     1       2.686  -2.961  -3.575  1.00  0.00     0.109 A   
ATOM     29  C16 UNL     1       2.279  -3.272  -4.849  1.00  0.00     0.108 A   
ATOM     30  O3  UNL     1       4.022  -2.722  -3.501  1.00  0.00    -0.316 OA  
ATOM     31  O4  UNL     1       3.306  -3.270  -5.737  1.00  0.00    -0.316 OA  
ATOM     32  C19 UNL     1       4.417  -2.949  -4.873  1.00  0.00     0.337 C   
ENDBRANCH  23  24
ENDBRANCH  20  23
ENDBRANCH  19  20
BRANCH  19  33
ATOM     33  C20 UNL     1      -1.376   0.667  -1.901  1.00  0.00     0.043 C   
ATOM     34  C21 UNL     1      -2.892   0.797  -1.702  1.00  0.00     0.010 C   
ATOM     35  C24 UNL     1      -1.167   0.790  -3.423  1.00  0.00     0.010 C   
ATOM     36  C22 UNL     1      -3.298   1.766  -2.801  1.00  0.00     0.001 C   
ATOM     37  C23 UNL     1      -2.493   1.287  -3.998  1.00  0.00     0.001 C   
ENDBRANCH  19  33
ENDBRANCH   3  19
TORSDOF 10
