REMARK SMILES CC(C)[C@H]([NH2+]Cc1ccc2c(c1)OCO2)c1cn(CCc2scnc2C2CC2)nn1
REMARK SMILES IDX 16 1 17 2 18 3 29 4 30 5 4 7 2 8 1 9 3 10 5 11 6 14 7 15
REMARK SMILES IDX 8 16 12 17 9 18 11 19 10 20 13 21 15 22 14 23 19 24 20 25
REMARK SMILES IDX 21 26 22 27 25 28 23 29 24 30 26 31 27 32 28 33
REMARK H PARENT 17 6 5 12 5 13
ROOT
ATOM     1   C13 UNL     1       0.275   0.796   1.351  1.00  0.00     0.127 A   
ATOM     2   C14 UNL     1      -0.261   0.283   2.514  1.00  0.00     0.045 A   
ATOM     3   N2  UNL     1       0.833  -0.118   3.233  1.00  0.00    -0.212 N   
ATOM     4   N4  UNL     1       1.969   0.268   2.628  1.00  0.00    -0.076 NA  
ATOM     5   N5  UNL     1       1.640   0.819   1.468  1.00  0.00    -0.132 NA  
ATOM     6   H18 UNL     1      -1.270   0.053   2.827  1.00  0.00     0.083 HD  
ENDROOT
BRANCH   1   7
ATOM     7   C4  UNL     1      -0.370   1.130   0.039  1.00  0.00     0.117 C   
BRANCH   7   8
ATOM     8   C2  UNL     1      -1.818   1.684   0.154  1.00  0.00     0.037 C   
ATOM     9   C1  UNL     1      -1.856   2.962   1.011  1.00  0.00     0.014 C   
ATOM     10  C3  UNL     1      -2.431   2.026  -1.214  1.00  0.00     0.014 C   
ENDBRANCH   7   8
BRANCH   7  11
ATOM     11  N1  UNL     1      -0.361  -0.118  -0.827  1.00  0.00     0.249 N   
ATOM     12  H9  UNL     1      -1.168  -0.163  -1.449  1.00  0.00     0.199 HD  
ATOM     13  H10 UNL     1      -0.441  -0.958  -0.226  1.00  0.00     0.199 HD  
BRANCH  11  14
ATOM     14  C5  UNL     1       0.865  -0.317  -1.654  1.00  0.00     0.164 C   
BRANCH  14  15
ATOM     15  C6  UNL     1       0.934   0.627  -2.823  1.00  0.00    -0.002 A   
ATOM     16  C7  UNL     1       1.859   1.698  -2.825  1.00  0.00     0.012 A   
ATOM     17  C11 UNL     1       0.059   0.469  -3.913  1.00  0.00     0.045 A   
ATOM     18  C8  UNL     1       1.909   2.605  -3.889  1.00  0.00     0.037 A   
ATOM     19  C10 UNL     1       0.133   1.382  -4.944  1.00  0.00     0.109 A   
ATOM     20  C9  UNL     1       1.031   2.420  -4.933  1.00  0.00     0.108 A   
ATOM     21  O1  UNL     1      -0.643   1.377  -6.060  1.00  0.00    -0.316 OA  
ATOM     22  O2  UNL     1       0.935   3.199  -6.041  1.00  0.00    -0.316 OA  
ATOM     23  C12 UNL     1      -0.110   2.519  -6.769  1.00  0.00     0.337 C   
ENDBRANCH  14  15
ENDBRANCH  11  14
ENDBRANCH   7  11
ENDBRANCH   1   7
BRANCH   3  24
ATOM     24  C15 UNL     1       0.855  -1.113   4.290  1.00  0.00     0.139 C   
BRANCH  24  25
ATOM     25  C16 UNL     1       1.130  -2.537   3.764  1.00  0.00     0.066 C   
BRANCH  25  26
ATOM     26  C17 UNL     1       0.286  -2.872   2.564  1.00  0.00     0.014 A   
ATOM     27  S1  UNL     1      -1.373  -3.287   2.717  1.00  0.00    -0.080 S   
ATOM     28  C19 UNL     1       0.619  -2.855   1.221  1.00  0.00     0.054 A   
ATOM     29  C18 UNL     1      -1.528  -3.223   1.008  1.00  0.00     0.157 A   
ATOM     30  N3  UNL     1      -0.450  -2.862   0.340  1.00  0.00    -0.253 NA  
BRANCH  28  31
ATOM     31  C20 UNL     1       2.084  -2.711   0.708  1.00  0.00     0.039 C   
ATOM     32  C21 UNL     1       2.482  -3.400  -0.573  1.00  0.00     0.011 C   
ATOM     33  C22 UNL     1       2.969  -3.931   0.743  1.00  0.00     0.011 C   
ENDBRANCH  28  31
ENDBRANCH  25  26
ENDBRANCH  24  25
ENDBRANCH   3  24
TORSDOF 9
