REMARK SMILES CC(C)C[C@H]([NH2+]Cc1ccc2c(c1)OCO2)c1cn(CCCc2ccsc2)nn1
REMARK SMILES IDX 17 1 18 2 19 3 28 4 29 5 5 7 4 8 2 9 1 10 3 11 6 12 7 15
REMARK SMILES IDX 8 16 9 17 13 18 10 19 12 20 11 21 14 22 16 23 15 24 20 25
REMARK SMILES IDX 21 26 22 27 23 28 24 29 27 30 25 31 26 32
REMARK H PARENT 18 6 6 13 6 14
ROOT
ATOM     1   C14 UNL     1       1.414   0.591  -0.920  1.00  0.00     0.127 A   
ATOM     2   C15 UNL     1       2.572  -0.050  -0.538  1.00  0.00     0.045 A   
ATOM     3   N2  UNL     1       3.567   0.740  -1.036  1.00  0.00    -0.212 N   
ATOM     4   N3  UNL     1       3.060   1.774  -1.731  1.00  0.00    -0.076 NA  
ATOM     5   N4  UNL     1       1.741   1.700  -1.662  1.00  0.00    -0.132 NA  
ATOM     6   H20 UNL     1       2.772  -0.933   0.051  1.00  0.00     0.083 HD  
ENDROOT
BRANCH   1   7
ATOM     7   C5  UNL     1      -0.022   0.320  -0.610  1.00  0.00     0.114 C   
BRANCH   7   8
ATOM     8   C4  UNL     1      -0.621  -0.854  -1.405  1.00  0.00     0.064 C   
BRANCH   8   9
ATOM     9   C2  UNL     1      -0.074  -2.253  -1.050  1.00  0.00    -0.012 C   
ATOM     10  C1  UNL     1      -0.746  -3.307  -1.937  1.00  0.00     0.007 C   
ATOM     11  C3  UNL     1      -0.288  -2.608   0.422  1.00  0.00     0.007 C   
ENDBRANCH   8   9
ENDBRANCH   7   8
BRANCH   7  12
ATOM     12  N1  UNL     1      -0.840   1.558  -0.950  1.00  0.00     0.249 N   
ATOM     13  H11 UNL     1      -0.194   2.192  -1.450  1.00  0.00     0.199 HD  
ATOM     14  H12 UNL     1      -1.575   1.335  -1.628  1.00  0.00     0.199 HD  
BRANCH  12  15
ATOM     15  C6  UNL     1      -1.415   2.301   0.202  1.00  0.00     0.164 C   
BRANCH  15  16
ATOM     16  C7  UNL     1      -2.472   1.515   0.930  1.00  0.00    -0.002 A   
ATOM     17  C8  UNL     1      -2.240   1.057   2.250  1.00  0.00     0.012 A   
ATOM     18  C12 UNL     1      -3.689   1.205   0.298  1.00  0.00     0.045 A   
ATOM     19  C9  UNL     1      -3.194   0.290   2.925  1.00  0.00     0.037 A   
ATOM     20  C11 UNL     1      -4.607   0.444   0.991  1.00  0.00     0.109 A   
ATOM     21  C10 UNL     1      -4.367  -0.002   2.267  1.00  0.00     0.108 A   
ATOM     22  O1  UNL     1      -5.820   0.048   0.522  1.00  0.00    -0.316 OA  
ATOM     23  O2  UNL     1      -5.399  -0.733   2.763  1.00  0.00    -0.316 OA  
ATOM     24  C13 UNL     1      -6.331  -0.679   1.662  1.00  0.00     0.337 C   
ENDBRANCH  15  16
ENDBRANCH  12  15
ENDBRANCH   7  12
ENDBRANCH   1   7
BRANCH   3  25
ATOM     25  C16 UNL     1       4.999   0.566  -0.914  1.00  0.00     0.134 C   
BRANCH  25  26
ATOM     26  C17 UNL     1       5.680   1.605  -0.018  1.00  0.00     0.026 C   
BRANCH  26  27
ATOM     27  C18 UNL     1       5.610   1.292   1.482  1.00  0.00     0.038 C   
BRANCH  27  28
ATOM     28  C19 UNL     1       4.236   1.353   2.087  1.00  0.00    -0.041 A   
ATOM     29  C20 UNL     1       3.629   0.279   2.821  1.00  0.00     0.011 A   
ATOM     30  C22 UNL     1       3.402   2.457   2.062  1.00  0.00     0.049 A   
ATOM     31  C21 UNL     1       2.372   0.595   3.287  1.00  0.00     0.046 A   
ATOM     32  S1  UNL     1       1.910   2.178   2.847  1.00  0.00    -0.106 S   
ENDBRANCH  27  28
ENDBRANCH  26  27
ENDBRANCH  25  26
ENDBRANCH   3  25
TORSDOF 10
