REMARK SMILES COc1nccc(Cl)c1Cn1cc([C@H](CC(C)C)[NH2+]Cc2ccc3c(c2)OCO3)nn1
REMARK SMILES IDX 11 1 12 2 13 3 30 4 31 5 10 7 9 8 3 9 4 10 5 11 7 12 6 13
REMARK SMILES IDX 8 14 2 15 1 16 14 17 15 18 16 19 17 20 18 21 19 22 20 25
REMARK SMILES IDX 21 26 22 27 26 28 23 29 25 30 24 31 27 32 29 33 28 34
REMARK H PARENT 12 6 19 23 19 24
ROOT
ATOM     1   N2  UNL     1      -0.136   2.139   2.865  1.00  0.00    -0.208 N   
ATOM     2   C8  UNL     1       0.018   1.829   1.541  1.00  0.00     0.046 A   
ATOM     3   C9  UNL     1      -0.546   0.579   1.423  1.00  0.00     0.127 A   
ATOM     4   N4  UNL     1      -0.970   0.159   2.658  1.00  0.00    -0.132 NA  
ATOM     5   N5  UNL     1      -0.691   1.109   3.534  1.00  0.00    -0.076 NA  
ATOM     6   H8  UNL     1       0.465   2.515   0.835  1.00  0.00     0.083 HD  
ENDROOT
BRANCH   1   7
ATOM     7   C7  UNL     1       0.246   3.360   3.558  1.00  0.00     0.175 C   
BRANCH   7   8
ATOM     8   C6  UNL     1      -0.903   4.324   3.632  1.00  0.00     0.040 A   
ATOM     9   C2  UNL     1      -1.188   5.168   2.562  1.00  0.00     0.173 A   
ATOM     10  N1  UNL     1      -2.221   6.037   2.535  1.00  0.00    -0.232 NA  
ATOM     11  C3  UNL     1      -3.016   6.093   3.621  1.00  0.00     0.115 A   
ATOM     12  C5  UNL     1      -1.763   4.410   4.733  1.00  0.00     0.051 A   
ATOM     13  C4  UNL     1      -2.830   5.305   4.737  1.00  0.00     0.041 A   
ATOM     14  CL1 UNL     1      -1.554   3.428   6.138  1.00  0.00    -0.084 Cl  
BRANCH   9  15
ATOM     15  O1  UNL     1      -0.363   5.086   1.456  1.00  0.00    -0.332 OA  
ATOM     16  C1  UNL     1      -0.652   6.071   0.463  1.00  0.00     0.205 C   
ENDBRANCH   9  15
ENDBRANCH   7   8
ENDBRANCH   1   7
BRANCH   3  17
ATOM     17  C10 UNL     1      -0.733  -0.313   0.237  1.00  0.00     0.114 C   
BRANCH  17  18
ATOM     18  C11 UNL     1      -2.007   0.076  -0.541  1.00  0.00     0.064 C   
BRANCH  18  19
ATOM     19  C12 UNL     1      -2.243  -0.666  -1.875  1.00  0.00    -0.012 C   
ATOM     20  C13 UNL     1      -3.556  -0.185  -2.501  1.00  0.00     0.007 C   
ATOM     21  C14 UNL     1      -1.098  -0.465  -2.869  1.00  0.00     0.007 C   
ENDBRANCH  18  19
ENDBRANCH  17  18
BRANCH  17  22
ATOM     22  N3  UNL     1      -0.854  -1.750   0.687  1.00  0.00     0.249 N   
ATOM     23  H19 UNL     1      -1.303  -2.327  -0.026  1.00  0.00     0.199 HD  
ATOM     24  H20 UNL     1      -1.481  -1.738   1.504  1.00  0.00     0.199 HD  
BRANCH  22  25
ATOM     25  C15 UNL     1       0.416  -2.410   1.112  1.00  0.00     0.164 C   
BRANCH  25  26
ATOM     26  C16 UNL     1       1.331  -2.692  -0.048  1.00  0.00    -0.002 A   
ATOM     27  C17 UNL     1       2.522  -1.945  -0.216  1.00  0.00     0.012 A   
ATOM     28  C21 UNL     1       0.993  -3.676  -0.993  1.00  0.00     0.045 A   
ATOM     29  C18 UNL     1       3.359  -2.165  -1.315  1.00  0.00     0.037 A   
ATOM     30  C20 UNL     1       1.839  -3.865  -2.067  1.00  0.00     0.109 A   
ATOM     31  C19 UNL     1       2.987  -3.129  -2.225  1.00  0.00     0.108 A   
ATOM     32  O2  UNL     1       1.653  -4.761  -3.071  1.00  0.00    -0.316 OA  
ATOM     33  O3  UNL     1       3.670  -3.470  -3.348  1.00  0.00    -0.316 OA  
ATOM     34  C22 UNL     1       2.837  -4.528  -3.868  1.00  0.00     0.337 C   
ENDBRANCH  25  26
ENDBRANCH  22  25
ENDBRANCH  17  22
ENDBRANCH   3  17
TORSDOF 9
