REMARK SMILES COc1ccc(C(=O)n2cc([C@@H]([NH2+]Cc3ccc4c(c3)OCO4)C3CCCCC3)nn2)cn1
REMARK SMILES IDX 9 1 10 2 11 3 30 4 31 5 7 6 8 7 6 8 3 9 4 10 33 11 5 12
REMARK SMILES IDX 32 13 2 14 1 15 12 16 13 17 14 20 15 21 16 22 20 23 17 24
REMARK SMILES IDX 19 25 18 26 21 27 23 28 22 29 24 30 25 31 29 32 26 33 28 34
REMARK SMILES IDX 27 35
REMARK H PARENT 13 18 13 19
ROOT
ATOM     1   N1  UNL     1       2.505   0.459   1.636  1.00  0.00    -0.143 N   
ATOM     2   C7  UNL     1       1.298   1.105   1.845  1.00  0.00     0.139 A   
ATOM     3   C8  UNL     1       0.376   0.387   1.121  1.00  0.00     0.128 A   
ATOM     4   N3  UNL     1       1.022  -0.627   0.466  1.00  0.00    -0.131 NA  
ATOM     5   N4  UNL     1       2.307  -0.574   0.783  1.00  0.00    -0.068 NA  
ENDROOT
BRANCH   1   6
ATOM     6   C6  UNL     1       3.758   0.752   2.198  1.00  0.00     0.272 C   
ATOM     7   O2  UNL     1       3.770   1.680   3.006  1.00  0.00    -0.269 OA  
BRANCH   6   8
ATOM     8   C5  UNL     1       5.030   0.042   1.920  1.00  0.00     0.058 A   
ATOM     9   C2  UNL     1       7.410  -1.232   1.414  1.00  0.00     0.166 A   
ATOM     10  C3  UNL     1       7.246  -0.598   2.634  1.00  0.00     0.055 A   
ATOM     11  N5  UNL     1       6.463  -1.248   0.451  1.00  0.00    -0.232 NA  
ATOM     12  C4  UNL     1       6.040   0.052   2.888  1.00  0.00     0.020 A   
ATOM     13  C24 UNL     1       5.299  -0.608   0.722  1.00  0.00     0.127 A   
BRANCH   9  14
ATOM     14  O1  UNL     1       8.617  -1.864   1.210  1.00  0.00    -0.333 OA  
ATOM     15  C1  UNL     1       8.723  -2.479  -0.070  1.00  0.00     0.205 C   
ENDBRANCH   9  14
ENDBRANCH   6   8
ENDBRANCH   1   6
BRANCH   3  16
ATOM     16  C9  UNL     1      -1.101   0.576   0.931  1.00  0.00     0.117 C   
BRANCH  16  17
ATOM     17  N2  UNL     1      -1.441   0.303  -0.517  1.00  0.00     0.249 N   
ATOM     18  H8  UNL     1      -2.447   0.194  -0.665  1.00  0.00     0.199 HD  
ATOM     19  H9  UNL     1      -1.018  -0.604  -0.763  1.00  0.00     0.199 HD  
BRANCH  17  20
ATOM     20  C10 UNL     1      -0.949   1.314  -1.496  1.00  0.00     0.164 C   
BRANCH  20  21
ATOM     21  C11 UNL     1      -1.332   0.917  -2.893  1.00  0.00    -0.002 A   
ATOM     22  C12 UNL     1      -2.513   1.422  -3.486  1.00  0.00     0.012 A   
ATOM     23  C16 UNL     1      -0.542  -0.007  -3.600  1.00  0.00     0.045 A   
ATOM     24  C13 UNL     1      -2.900   1.022  -4.769  1.00  0.00     0.037 A   
ATOM     25  C15 UNL     1      -0.953  -0.381  -4.863  1.00  0.00     0.109 A   
ATOM     26  C14 UNL     1      -2.098   0.119  -5.432  1.00  0.00     0.108 A   
ATOM     27  O3  UNL     1      -0.309  -1.259  -5.676  1.00  0.00    -0.316 OA  
ATOM     28  O4  UNL     1      -2.319  -0.380  -6.675  1.00  0.00    -0.316 OA  
ATOM     29  C17 UNL     1      -1.170  -1.240  -6.837  1.00  0.00     0.337 C   
ENDBRANCH  20  21
ENDBRANCH  17  20
ENDBRANCH  16  17
BRANCH  16  30
ATOM     30  C18 UNL     1      -1.941  -0.378   1.839  1.00  0.00     0.043 C   
ATOM     31  C19 UNL     1      -1.616  -0.213   3.343  1.00  0.00     0.010 C   
ATOM     32  C23 UNL     1      -3.470  -0.219   1.678  1.00  0.00     0.010 C   
ATOM     33  C20 UNL     1      -2.100   1.123   3.907  1.00  0.00     0.001 C   
ATOM     34  C22 UNL     1      -3.986   1.116   2.214  1.00  0.00     0.001 C   
ATOM     35  C21 UNL     1      -3.595   1.322   3.675  1.00  0.00     0.000 C   
ENDBRANCH  16  30
ENDBRANCH   3  16
TORSDOF 8
