REMARK SMILES Cc1cccc(F)c1CCn1cc([C@H](CC(C)C)[NH2+]Cc2ccc3c(c2)OCO3)nn1
REMARK SMILES IDX 11 1 12 2 13 3 30 4 31 5 10 7 9 8 8 9 2 10 3 11 4 12 6 13
REMARK SMILES IDX 5 14 1 15 7 16 14 17 15 18 16 19 17 20 18 21 19 22 20 25
REMARK SMILES IDX 21 26 22 27 26 28 23 29 25 30 24 31 27 32 29 33 28 34
REMARK H PARENT 12 6 19 23 19 24
ROOT
ATOM     1   N1  UNL     1       0.965   2.690   1.138  1.00  0.00    -0.212 N   
ATOM     2   C10 UNL     1       0.294   2.158   0.074  1.00  0.00     0.045 A   
ATOM     3   C11 UNL     1       0.822   0.893  -0.050  1.00  0.00     0.127 A   
ATOM     4   N3  UNL     1       1.819   0.729   0.878  1.00  0.00    -0.132 NA  
ATOM     5   N4  UNL     1       1.908   1.842   1.587  1.00  0.00    -0.076 NA  
ATOM     6   H11 UNL     1      -0.494   2.692  -0.439  1.00  0.00     0.083 HD  
ENDROOT
BRANCH   1   7
ATOM     7   C9  UNL     1       0.752   3.971   1.778  1.00  0.00     0.139 C   
BRANCH   7   8
ATOM     8   C8  UNL     1      -0.128   3.871   3.027  1.00  0.00     0.060 C   
BRANCH   8   9
ATOM     9   C7  UNL     1      -1.533   3.375   2.749  1.00  0.00    -0.008 A   
ATOM     10  C2  UNL     1      -2.014   2.131   3.209  1.00  0.00    -0.045 A   
ATOM     11  C3  UNL     1      -3.334   1.750   2.901  1.00  0.00     0.004 A   
ATOM     12  C4  UNL     1      -4.167   2.578   2.148  1.00  0.00     0.003 A   
ATOM     13  C6  UNL     1      -2.395   4.189   1.998  1.00  0.00     0.126 A   
ATOM     14  C5  UNL     1      -3.695   3.804   1.694  1.00  0.00     0.039 A   
ATOM     15  C1  UNL     1      -1.170   1.198   4.036  1.00  0.00     0.045 C   
ATOM     16  F1  UNL     1      -1.954   5.370   1.539  1.00  0.00    -0.207 F   
ENDBRANCH   8   9
ENDBRANCH   7   8
ENDBRANCH   1   7
BRANCH   3  17
ATOM     17  C12 UNL     1       0.505  -0.218  -0.994  1.00  0.00     0.114 C   
BRANCH  17  18
ATOM     18  C13 UNL     1      -0.493  -1.230  -0.398  1.00  0.00     0.064 C   
BRANCH  18  19
ATOM     19  C14 UNL     1      -1.886  -0.660  -0.054  1.00  0.00    -0.012 C   
ATOM     20  C15 UNL     1      -2.743  -1.746   0.603  1.00  0.00     0.007 C   
ATOM     21  C16 UNL     1      -2.610  -0.104  -1.281  1.00  0.00     0.007 C   
ENDBRANCH  18  19
ENDBRANCH  17  18
BRANCH  17  22
ATOM     22  N2  UNL     1       1.765  -0.986  -1.318  1.00  0.00     0.249 N   
ATOM     23  H22 UNL     1       2.239  -1.168  -0.420  1.00  0.00     0.199 HD  
ATOM     24  H23 UNL     1       1.552  -1.902  -1.724  1.00  0.00     0.199 HD  
BRANCH  22  25
ATOM     25  C17 UNL     1       2.737  -0.277  -2.195  1.00  0.00     0.164 C   
BRANCH  25  26
ATOM     26  C18 UNL     1       3.975  -1.107  -2.380  1.00  0.00    -0.002 A   
ATOM     27  C19 UNL     1       5.029  -1.028  -1.437  1.00  0.00     0.012 A   
ATOM     28  C23 UNL     1       4.073  -2.006  -3.455  1.00  0.00     0.045 A   
ATOM     29  C20 UNL     1       6.170  -1.826  -1.567  1.00  0.00     0.037 A   
ATOM     30  C22 UNL     1       5.212  -2.778  -3.554  1.00  0.00     0.109 A   
ATOM     31  C21 UNL     1       6.231  -2.691  -2.637  1.00  0.00     0.108 A   
ATOM     32  O1  UNL     1       5.464  -3.693  -4.526  1.00  0.00    -0.316 OA  
ATOM     33  O2  UNL     1       7.255  -3.539  -2.919  1.00  0.00    -0.316 OA  
ATOM     34  C24 UNL     1       6.776  -4.158  -4.132  1.00  0.00     0.337 C   
ENDBRANCH  25  26
ENDBRANCH  22  25
ENDBRANCH  17  22
ENDBRANCH   3  17
TORSDOF 9
