REMARK SMILES CC(F)(F)c1cncc(Cn2cc([C@@H]([NH2+]Cc3ccc4c(c3)OCO4)C3CCCC3)nn2)c1
REMARK SMILES IDX 11 1 12 2 13 3 31 4 32 5 10 7 9 8 5 9 6 10 33 11 7 12 8 13
REMARK SMILES IDX 2 14 1 15 3 16 4 17 14 18 15 19 16 22 17 23 18 24 22 25
REMARK SMILES IDX 19 26 21 27 20 28 23 29 25 30 24 31 26 32 27 33 30 34 28 35
REMARK SMILES IDX 29 36
REMARK H PARENT 12 6 15 20 15 21
ROOT
ATOM     1   N2  UNL     1      -1.129   0.661  -2.942  1.00  0.00    -0.208 N   
ATOM     2   C8  UNL     1      -0.603  -0.035  -1.888  1.00  0.00     0.046 A   
ATOM     3   C9  UNL     1      -0.246   0.945  -0.987  1.00  0.00     0.127 A   
ATOM     4   N4  UNL     1      -0.516   2.175  -1.533  1.00  0.00    -0.132 NA  
ATOM     5   N5  UNL     1      -1.028   1.988  -2.738  1.00  0.00    -0.076 NA  
ATOM     6   H8  UNL     1      -0.568  -1.116  -1.865  1.00  0.00     0.083 HD  
ENDROOT
BRANCH   1   7
ATOM     7   C7  UNL     1      -1.730   0.141  -4.159  1.00  0.00     0.171 C   
BRANCH   7   8
ATOM     8   C6  UNL     1      -3.198  -0.108  -3.971  1.00  0.00    -0.010 A   
ATOM     9   C3  UNL     1      -5.087  -1.586  -3.602  1.00  0.00     0.039 A   
ATOM     10  C4  UNL     1      -5.893  -0.455  -3.576  1.00  0.00     0.120 A   
ATOM     11  C24 UNL     1      -3.714  -1.398  -3.804  1.00  0.00     0.018 A   
ATOM     12  N1  UNL     1      -5.429   0.804  -3.737  1.00  0.00    -0.264 NA  
ATOM     13  C5  UNL     1      -4.101   0.952  -3.929  1.00  0.00     0.116 A   
BRANCH   9  14
ATOM     14  C2  UNL     1      -5.687  -2.954  -3.416  1.00  0.00     0.272 C   
ATOM     15  C1  UNL     1      -6.238  -3.513  -4.719  1.00  0.00     0.093 C   
ATOM     16  F1  UNL     1      -6.693  -2.951  -2.498  1.00  0.00    -0.202 F   
ATOM     17  F2  UNL     1      -4.771  -3.846  -2.938  1.00  0.00    -0.202 F   
ENDBRANCH   9  14
ENDBRANCH   7   8
ENDBRANCH   1   7
BRANCH   3  18
ATOM     18  C10 UNL     1       0.368   0.862   0.376  1.00  0.00     0.117 C   
BRANCH  18  19
ATOM     19  N3  UNL     1       1.141   2.132   0.671  1.00  0.00     0.249 N   
ATOM     20  H10 UNL     1       0.512   2.912   0.433  1.00  0.00     0.199 HD  
ATOM     21  H11 UNL     1       1.353   2.209   1.668  1.00  0.00     0.199 HD  
BRANCH  19  22
ATOM     22  C11 UNL     1       2.406   2.333  -0.100  1.00  0.00     0.164 C   
BRANCH  22  23
ATOM     23  C12 UNL     1       3.454   1.304   0.224  1.00  0.00    -0.002 A   
ATOM     24  C13 UNL     1       3.807   0.324  -0.735  1.00  0.00     0.012 A   
ATOM     25  C17 UNL     1       4.067   1.286   1.489  1.00  0.00     0.045 A   
ATOM     26  C14 UNL     1       4.746  -0.669  -0.436  1.00  0.00     0.037 A   
ATOM     27  C16 UNL     1       4.988   0.292   1.751  1.00  0.00     0.109 A   
ATOM     28  C15 UNL     1       5.316  -0.659   0.817  1.00  0.00     0.108 A   
ATOM     29  O1  UNL     1       5.660   0.126   2.920  1.00  0.00    -0.316 OA  
ATOM     30  O2  UNL     1       6.236  -1.544   1.280  1.00  0.00    -0.316 OA  
ATOM     31  C18 UNL     1       6.481  -1.022   2.604  1.00  0.00     0.337 C   
ENDBRANCH  22  23
ENDBRANCH  19  22
ENDBRANCH  18  19
BRANCH  18  32
ATOM     32  C19 UNL     1      -0.691   0.673   1.483  1.00  0.00     0.043 C   
ATOM     33  C20 UNL     1      -0.107   0.566   2.899  1.00  0.00     0.010 C   
ATOM     34  C23 UNL     1      -1.467  -0.643   1.367  1.00  0.00     0.010 C   
ATOM     35  C21 UNL     1      -1.157  -0.174   3.725  1.00  0.00     0.001 C   
ATOM     36  C22 UNL     1      -2.126  -0.799   2.729  1.00  0.00     0.001 C   
ENDBRANCH  18  32
ENDBRANCH   3  18
TORSDOF 8
