REMARK SMILES Fc1cncc(F)c1CCn1cc([C@@H]([NH2+]Cc2ccc3c(c2)OCO3)C2CCCCC2)nn1
REMARK SMILES IDX 11 1 12 2 13 3 32 4 33 5 10 7 9 8 8 9 2 10 3 11 4 12 6 13
REMARK SMILES IDX 5 14 1 15 7 16 14 17 15 18 16 21 17 22 18 23 22 24 19 25
REMARK SMILES IDX 21 26 20 27 23 28 25 29 24 30 26 31 27 32 31 33 28 34 30 35
REMARK SMILES IDX 29 36
REMARK H PARENT 12 6 15 19 15 20
ROOT
ATOM     1   N2  UNL     1      -2.364  -1.911  -1.452  1.00  0.00    -0.212 N   
ATOM     2   C8  UNL     1      -1.023  -1.823  -1.698  1.00  0.00     0.045 A   
ATOM     3   C9  UNL     1      -0.707  -0.529  -1.347  1.00  0.00     0.127 A   
ATOM     4   N4  UNL     1      -1.851   0.120  -0.956  1.00  0.00    -0.132 NA  
ATOM     5   N5  UNL     1      -2.860  -0.729  -1.050  1.00  0.00    -0.076 NA  
ATOM     6   H7  UNL     1      -0.438  -2.666  -2.042  1.00  0.00     0.083 HD  
ENDROOT
BRANCH   1   7
ATOM     7   C7  UNL     1      -3.205  -3.088  -1.506  1.00  0.00     0.139 C   
BRANCH   7   8
ATOM     8   C6  UNL     1      -3.620  -3.587  -0.118  1.00  0.00     0.063 C   
BRANCH   8   9
ATOM     9   C5  UNL     1      -2.453  -3.948   0.763  1.00  0.00     0.028 A   
ATOM     10  C1  UNL     1      -1.642  -5.046   0.482  1.00  0.00     0.147 A   
ATOM     11  C2  UNL     1      -0.546  -5.317   1.290  1.00  0.00     0.150 A   
ATOM     12  N1  UNL     1      -0.198  -4.561   2.357  1.00  0.00    -0.259 NA  
ATOM     13  C4  UNL     1      -2.119  -3.178   1.877  1.00  0.00     0.147 A   
ATOM     14  C3  UNL     1      -1.009  -3.513   2.638  1.00  0.00     0.150 A   
ATOM     15  F1  UNL     1      -1.897  -5.818  -0.584  1.00  0.00    -0.205 F   
ATOM     16  F2  UNL     1      -2.842  -2.100   2.202  1.00  0.00    -0.205 F   
ENDBRANCH   8   9
ENDBRANCH   7   8
ENDBRANCH   1   7
BRANCH   3  17
ATOM     17  C10 UNL     1       0.605   0.194  -1.314  1.00  0.00     0.117 C   
BRANCH  17  18
ATOM     18  N3  UNL     1       0.390   1.668  -1.105  1.00  0.00     0.249 N   
ATOM     19  H9  UNL     1       1.214   2.132  -0.713  1.00  0.00     0.199 HD  
ATOM     20  H10 UNL     1      -0.356   1.760  -0.400  1.00  0.00     0.199 HD  
BRANCH  18  21
ATOM     21  C11 UNL     1      -0.058   2.425  -2.306  1.00  0.00     0.164 C   
BRANCH  21  22
ATOM     22  C12 UNL     1      -0.467   3.818  -1.919  1.00  0.00    -0.002 A   
ATOM     23  C13 UNL     1      -1.800   4.078  -1.523  1.00  0.00     0.012 A   
ATOM     24  C17 UNL     1       0.483   4.854  -1.882  1.00  0.00     0.045 A   
ATOM     25  C14 UNL     1      -2.191   5.355  -1.110  1.00  0.00     0.037 A   
ATOM     26  C16 UNL     1       0.064   6.101  -1.468  1.00  0.00     0.109 A   
ATOM     27  C15 UNL     1      -1.234   6.346  -1.096  1.00  0.00     0.108 A   
ATOM     28  O1  UNL     1       0.852   7.207  -1.371  1.00  0.00    -0.316 OA  
ATOM     29  O2  UNL     1      -1.430   7.638  -0.723  1.00  0.00    -0.316 OA  
ATOM     30  C18 UNL     1      -0.111   8.188  -0.926  1.00  0.00     0.337 C   
ENDBRANCH  21  22
ENDBRANCH  18  21
ENDBRANCH  17  18
BRANCH  17  31
ATOM     31  C19 UNL     1       1.546  -0.375  -0.216  1.00  0.00     0.043 C   
ATOM     32  C20 UNL     1       1.073  -0.085   1.222  1.00  0.00     0.010 C   
ATOM     33  C24 UNL     1       2.999   0.099  -0.403  1.00  0.00     0.010 C   
ATOM     34  C21 UNL     1       2.007  -0.713   2.255  1.00  0.00     0.001 C   
ATOM     35  C23 UNL     1       3.929  -0.530   0.633  1.00  0.00     0.001 C   
ATOM     36  C22 UNL     1       3.450  -0.263   2.056  1.00  0.00     0.000 C   
ENDBRANCH  17  31
ENDBRANCH   3  17
TORSDOF 8
