REMARK SMILES Cc1cc(Cl)cnc1Cn1cc([C@H](CC(C)C)[NH2+]Cc2ccc3c(c2)OCO3)nn1
REMARK SMILES IDX 10 1 11 2 12 3 29 4 30 5 9 7 8 8 2 9 3 10 4 11 7 12 6 13
REMARK SMILES IDX 1 14 5 15 13 16 14 17 15 18 16 19 17 20 18 21 19 24 20 25
REMARK SMILES IDX 21 26 25 27 22 28 24 29 23 30 26 31 28 32 27 33
REMARK H PARENT 11 6 18 22 18 23
ROOT
ATOM     1   N2  UNL     1      -2.033  -1.809  -0.006  1.00  0.00    -0.206 N   
ATOM     2   C8  UNL     1      -1.113  -1.137  -0.766  1.00  0.00     0.046 A   
ATOM     3   C9  UNL     1      -0.006  -1.954  -0.748  1.00  0.00     0.127 A   
ATOM     4   N4  UNL     1      -0.302  -3.101  -0.058  1.00  0.00    -0.132 NA  
ATOM     5   N5  UNL     1      -1.544  -3.002   0.390  1.00  0.00    -0.076 NA  
ATOM     6   H8  UNL     1      -1.308  -0.152  -1.167  1.00  0.00     0.083 HD  
ENDROOT
BRANCH   1   7
ATOM     7   C7  UNL     1      -3.385  -1.403   0.343  1.00  0.00     0.190 C   
BRANCH   7   8
ATOM     8   C6  UNL     1      -3.415  -0.354   1.439  1.00  0.00     0.063 A   
ATOM     9   C2  UNL     1      -4.548  -0.200   2.258  1.00  0.00    -0.026 A   
ATOM     10  C3  UNL     1      -4.540   0.824   3.219  1.00  0.00     0.027 A   
ATOM     11  C4  UNL     1      -3.447   1.673   3.321  1.00  0.00     0.059 A   
ATOM     12  N1  UNL     1      -2.345   0.488   1.528  1.00  0.00    -0.258 NA  
ATOM     13  C5  UNL     1      -2.385   1.473   2.460  1.00  0.00     0.131 A   
ATOM     14  C1  UNL     1      -5.749  -1.098   2.155  1.00  0.00     0.046 C   
ATOM     15  CL1 UNL     1      -3.420   2.939   4.475  1.00  0.00    -0.083 Cl  
ENDBRANCH   7   8
ENDBRANCH   1   7
BRANCH   3  16
ATOM     16  C10 UNL     1       1.375  -1.729  -1.256  1.00  0.00     0.114 C   
BRANCH  16  17
ATOM     17  C11 UNL     1       1.651  -2.473  -2.578  1.00  0.00     0.064 C   
BRANCH  17  18
ATOM     18  C12 UNL     1       0.790  -2.021  -3.778  1.00  0.00    -0.012 C   
ATOM     19  C13 UNL     1       0.990  -0.542  -4.114  1.00  0.00     0.007 C   
ATOM     20  C14 UNL     1       1.122  -2.876  -5.003  1.00  0.00     0.007 C   
ENDBRANCH  17  18
ENDBRANCH  16  17
BRANCH  16  21
ATOM     21  N3  UNL     1       2.396  -2.230  -0.251  1.00  0.00     0.249 N   
ATOM     22  H19 UNL     1       2.189  -3.227  -0.101  1.00  0.00     0.199 HD  
ATOM     23  H20 UNL     1       3.336  -2.166  -0.650  1.00  0.00     0.199 HD  
BRANCH  21  24
ATOM     24  C15 UNL     1       2.385  -1.579   1.095  1.00  0.00     0.164 C   
BRANCH  24  25
ATOM     25  C16 UNL     1       2.630  -0.097   1.050  1.00  0.00    -0.002 A   
ATOM     26  C17 UNL     1       3.909   0.414   0.723  1.00  0.00     0.012 A   
ATOM     27  C21 UNL     1       1.575   0.794   1.312  1.00  0.00     0.045 A   
ATOM     28  C18 UNL     1       4.132   1.794   0.651  1.00  0.00     0.037 A   
ATOM     29  C20 UNL     1       1.830   2.147   1.238  1.00  0.00     0.109 A   
ATOM     30  C19 UNL     1       3.072   2.633   0.912  1.00  0.00     0.108 A   
ATOM     31  O1  UNL     1       0.927   3.138   1.467  1.00  0.00    -0.316 OA  
ATOM     32  O2  UNL     1       3.107   3.990   0.888  1.00  0.00    -0.316 OA  
ATOM     33  C22 UNL     1       1.753   4.309   1.274  1.00  0.00     0.337 C   
ENDBRANCH  24  25
ENDBRANCH  21  24
ENDBRANCH  16  21
ENDBRANCH   3  16
TORSDOF 8
