REMARK SMILES COc1cccc(CCn2cc([C@@H]([NH2+]Cc3ccc4c(c3)OCO4)C3CCCCC3)nn2)c1O
REMARK SMILES IDX 10 1 11 2 12 3 31 4 32 5 9 7 8 8 7 9 3 10 4 11 33 12 5 13
REMARK SMILES IDX 6 14 2 15 1 16 34 17 13 19 14 20 15 23 16 24 17 25 21 26
REMARK SMILES IDX 18 27 20 28 19 29 22 30 24 31 23 32 25 33 26 34 30 35 27 36
REMARK SMILES IDX 29 37 28 38
REMARK H PARENT 11 6 34 18 14 21 14 22
ROOT
ATOM     1   N1  UNL     1       3.152  -0.359  -1.417  1.00  0.00    -0.212 N   
ATOM     2   C9  UNL     1       1.924  -0.542  -1.993  1.00  0.00     0.045 A   
ATOM     3   C10 UNL     1       1.281   0.657  -1.761  1.00  0.00     0.127 A   
ATOM     4   N3  UNL     1       2.186   1.560  -1.270  1.00  0.00    -0.132 NA  
ATOM     5   N4  UNL     1       3.325   0.921  -1.044  1.00  0.00    -0.076 NA  
ATOM     6   H11 UNL     1       1.576  -1.514  -2.315  1.00  0.00     0.083 HD  
ENDROOT
BRANCH   1   7
ATOM     7   C8  UNL     1       4.041  -1.394  -0.927  1.00  0.00     0.139 C   
BRANCH   7   8
ATOM     8   C7  UNL     1       3.751  -1.770   0.539  1.00  0.00     0.060 C   
BRANCH   8   9
ATOM     9   C6  UNL     1       2.369  -2.366   0.749  1.00  0.00    -0.014 A   
ATOM     10  C2  UNL     1      -0.057  -2.180   1.064  1.00  0.00     0.105 A   
ATOM     11  C3  UNL     1      -0.198  -3.550   0.856  1.00  0.00     0.036 A   
ATOM     12  C26 UNL     1       1.221  -1.600   1.025  1.00  0.00     0.105 A   
ATOM     13  C4  UNL     1       0.932  -4.333   0.619  1.00  0.00     0.003 A   
ATOM     14  C5  UNL     1       2.201  -3.748   0.561  1.00  0.00     0.006 A   
BRANCH  10  15
ATOM     15  O1  UNL     1      -1.127  -1.330   1.222  1.00  0.00    -0.347 OA  
ATOM     16  C1  UNL     1      -2.095  -1.817   2.157  1.00  0.00     0.203 C   
ENDBRANCH  10  15
BRANCH  12  17
ATOM     17  O4  UNL     1       1.278  -0.240   1.216  1.00  0.00    -0.358 OA  
ATOM     18  H33 UNL     1       2.156  -0.020   1.597  1.00  0.00     0.218 HD  
ENDBRANCH  12  17
ENDBRANCH   8   9
ENDBRANCH   7   8
ENDBRANCH   1   7
BRANCH   3  19
ATOM     19  C11 UNL     1      -0.186   0.952  -1.781  1.00  0.00     0.117 C   
BRANCH  19  20
ATOM     20  N2  UNL     1      -0.689   1.174  -0.374  1.00  0.00     0.249 N   
ATOM     21  H13 UNL     1      -0.229   0.458   0.226  1.00  0.00     0.199 HD  
ATOM     22  H14 UNL     1      -1.682   0.935  -0.306  1.00  0.00     0.199 HD  
BRANCH  20  23
ATOM     23  C12 UNL     1      -0.422   2.473   0.299  1.00  0.00     0.164 C   
BRANCH  23  24
ATOM     24  C13 UNL     1      -1.009   2.492   1.687  1.00  0.00    -0.002 A   
ATOM     25  C14 UNL     1      -2.409   2.617   1.872  1.00  0.00     0.012 A   
ATOM     26  C18 UNL     1      -0.172   2.365   2.808  1.00  0.00     0.045 A   
ATOM     27  C15 UNL     1      -2.969   2.609   3.155  1.00  0.00     0.037 A   
ATOM     28  C17 UNL     1      -0.755   2.365   4.058  1.00  0.00     0.109 A   
ATOM     29  C16 UNL     1      -2.114   2.481   4.227  1.00  0.00     0.108 A   
ATOM     30  O2  UNL     1      -0.088   2.263   5.240  1.00  0.00    -0.316 OA  
ATOM     31  O3  UNL     1      -2.478   2.454   5.536  1.00  0.00    -0.316 OA  
ATOM     32  C19 UNL     1      -1.190   2.329   6.176  1.00  0.00     0.337 C   
ENDBRANCH  23  24
ENDBRANCH  20  23
ENDBRANCH  19  20
BRANCH  19  33
ATOM     33  C20 UNL     1      -0.609   2.092  -2.747  1.00  0.00     0.043 C   
ATOM     34  C21 UNL     1      -0.144   1.840  -4.200  1.00  0.00     0.010 C   
ATOM     35  C25 UNL     1      -2.134   2.341  -2.763  1.00  0.00     0.010 C   
ATOM     36  C22 UNL     1      -0.906   0.705  -4.885  1.00  0.00     0.001 C   
ATOM     37  C24 UNL     1      -2.914   1.210  -3.430  1.00  0.00     0.001 C   
ATOM     38  C23 UNL     1      -2.412   0.936  -4.843  1.00  0.00     0.000 C   
ENDBRANCH  19  33
ENDBRANCH   3  19
TORSDOF 10
