REMARK SMILES CC(C)(C)c1n[nH]cc1Cn1cc([C@@H]([NH2+]Cc2ccc3c(c2)OCO3)C(C)(C)C)nn1
REMARK SMILES IDX 11 1 12 2 13 3 30 4 31 5 10 7 9 8 5 9 6 10 7 11 8 12 2 14
REMARK SMILES IDX 1 15 3 16 4 17 14 18 15 19 16 22 17 23 18 24 22 25 19 26
REMARK SMILES IDX 21 27 20 28 23 29 25 30 24 31 26 32 27 33 28 34 29 35
REMARK H PARENT 12 6 7 13 15 20 15 21
ROOT
ATOM     1   N3  UNL     1       1.738   1.064   0.413  1.00  0.00    -0.208 N   
ATOM     2   C9  UNL     1       1.071  -0.069   0.795  1.00  0.00     0.046 A   
ATOM     3   C10 UNL     1       1.449  -1.013  -0.136  1.00  0.00     0.127 A   
ATOM     4   N5  UNL     1       2.323  -0.440  -1.028  1.00  0.00    -0.132 NA  
ATOM     5   N6  UNL     1       2.499   0.824  -0.676  1.00  0.00    -0.076 NA  
ATOM     6   H14 UNL     1       0.390  -0.084   1.635  1.00  0.00     0.083 HD  
ENDROOT
BRANCH   1   7
ATOM     7   C8  UNL     1       1.703   2.386   1.028  1.00  0.00     0.172 C   
BRANCH   7   8
ATOM     8   C7  UNL     1       0.570   3.192   0.482  1.00  0.00     0.011 A   
ATOM     9   C5  UNL     1      -0.585   3.746   1.141  1.00  0.00     0.070 A   
ATOM     10  N1  UNL     1      -1.348   4.426   0.269  1.00  0.00    -0.188 NA  
ATOM     11  N2  UNL     1      -0.715   4.321  -0.906  1.00  0.00    -0.245 N   
ATOM     12  C6  UNL     1       0.448   3.623  -0.829  1.00  0.00     0.099 A   
ATOM     13  H10 UNL     1      -1.136   4.761  -1.720  1.00  0.00     0.175 HD  
BRANCH   9  14
ATOM     14  C2  UNL     1      -1.018   3.695   2.610  1.00  0.00     0.006 C   
ATOM     15  C1  UNL     1      -0.012   4.468   3.483  1.00  0.00     0.017 C   
ATOM     16  C3  UNL     1      -1.133   2.235   3.106  1.00  0.00     0.017 C   
ATOM     17  C4  UNL     1      -2.414   4.339   2.823  1.00  0.00     0.017 C   
ENDBRANCH   9  14
ENDBRANCH   7   8
ENDBRANCH   1   7
BRANCH   3  18
ATOM     18  C11 UNL     1       1.013  -2.432  -0.350  1.00  0.00     0.120 C   
BRANCH  18  19
ATOM     19  N4  UNL     1       0.907  -2.676  -1.847  1.00  0.00     0.250 N   
ATOM     20  H16 UNL     1       1.495  -1.951  -2.290  1.00  0.00     0.199 HD  
ATOM     21  H17 UNL     1       1.331  -3.566  -2.112  1.00  0.00     0.199 HD  
BRANCH  19  22
ATOM     22  C12 UNL     1      -0.456  -2.606  -2.437  1.00  0.00     0.164 C   
BRANCH  22  23
ATOM     23  C13 UNL     1      -1.137  -1.272  -2.276  1.00  0.00    -0.002 A   
ATOM     24  C14 UNL     1      -0.692  -0.150  -3.022  1.00  0.00     0.012 A   
ATOM     25  C18 UNL     1      -2.213  -1.124  -1.382  1.00  0.00     0.045 A   
ATOM     26  C15 UNL     1      -1.308   1.101  -2.885  1.00  0.00     0.037 A   
ATOM     27  C17 UNL     1      -2.785   0.129  -1.259  1.00  0.00     0.109 A   
ATOM     28  C16 UNL     1      -2.350   1.210  -1.990  1.00  0.00     0.108 A   
ATOM     29  O1  UNL     1      -3.816   0.446  -0.431  1.00  0.00    -0.316 OA  
ATOM     30  O2  UNL     1      -3.056   2.339  -1.725  1.00  0.00    -0.316 OA  
ATOM     31  C19 UNL     1      -3.929   1.875  -0.671  1.00  0.00     0.337 C   
ENDBRANCH  22  23
ENDBRANCH  19  22
ENDBRANCH  18  19
BRANCH  18  32
ATOM     32  C20 UNL     1       1.942  -3.511   0.312  1.00  0.00     0.010 C   
ATOM     33  C21 UNL     1       1.284  -4.904   0.184  1.00  0.00     0.017 C   
ATOM     34  C22 UNL     1       3.349  -3.569  -0.316  1.00  0.00     0.017 C   
ATOM     35  C23 UNL     1       2.105  -3.225   1.821  1.00  0.00     0.017 C   
ENDBRANCH  18  32
ENDBRANCH   3  18
TORSDOF 8
