REMARK SMILES Cc1cccnc1[C@@H](CO)n1cc([C@H](CC(C)C)[NH2+]Cc2ccc3c(c2)OCO3)nn1
REMARK SMILES IDX 11 1 12 2 13 3 30 4 31 5 8 7 7 8 2 9 3 10 4 11 6 12 5 13
REMARK SMILES IDX 1 14 9 15 10 16 14 18 15 19 16 20 17 21 18 22 19 23 20 26
REMARK SMILES IDX 21 27 22 28 26 29 23 30 25 31 24 32 27 33 29 34 28 35
REMARK H PARENT 12 6 10 17 19 24 19 25
ROOT
ATOM     1   N2  UNL     1      -0.300   2.692   0.579  1.00  0.00    -0.201 N   
ATOM     2   C9  UNL     1       0.082   1.377   0.616  1.00  0.00     0.046 A   
ATOM     3   C10 UNL     1      -0.034   0.953  -0.688  1.00  0.00     0.127 A   
ATOM     4   N4  UNL     1      -0.538   1.979  -1.448  1.00  0.00    -0.132 NA  
ATOM     5   N5  UNL     1      -0.693   3.036  -0.668  1.00  0.00    -0.075 NA  
ATOM     6   H11 UNL     1       0.437   0.908   1.525  1.00  0.00     0.083 HD  
ENDROOT
BRANCH   1   7
ATOM     7   C7  UNL     1      -0.250   3.702   1.632  1.00  0.00     0.174 C   
BRANCH   7   8
ATOM     8   C6  UNL     1      -0.888   3.184   2.915  1.00  0.00     0.068 A   
ATOM     9   C2  UNL     1      -2.277   3.220   3.123  1.00  0.00    -0.027 A   
ATOM     10  C3  UNL     1      -2.772   2.723   4.337  1.00  0.00     0.007 A   
ATOM     11  C4  UNL     1      -1.902   2.207   5.290  1.00  0.00     0.020 A   
ATOM     12  N1  UNL     1      -0.032   2.658   3.842  1.00  0.00    -0.259 NA  
ATOM     13  C5  UNL     1      -0.553   2.195   5.001  1.00  0.00     0.111 A   
ATOM     14  C1  UNL     1      -3.241   3.783   2.115  1.00  0.00     0.046 C   
ENDBRANCH   7   8
BRANCH   7  15
ATOM     15  C8  UNL     1       1.192   4.219   1.819  1.00  0.00     0.187 C   
BRANCH  15  16
ATOM     16  O1  UNL     1       2.109   3.204   2.238  1.00  0.00    -0.394 OA  
ATOM     17  H10 UNL     1       1.774   2.896   3.111  1.00  0.00     0.210 HD  
ENDBRANCH  15  16
ENDBRANCH   7  15
ENDBRANCH   1   7
BRANCH   3  18
ATOM     18  C11 UNL     1       0.288  -0.355  -1.340  1.00  0.00     0.114 C   
BRANCH  18  19
ATOM     19  C12 UNL     1       1.646  -0.957  -0.925  1.00  0.00     0.064 C   
BRANCH  19  20
ATOM     20  C13 UNL     1       2.937  -0.363  -1.534  1.00  0.00    -0.012 C   
ATOM     21  C14 UNL     1       4.142  -1.173  -1.043  1.00  0.00     0.007 C   
ATOM     22  C15 UNL     1       3.155   1.113  -1.206  1.00  0.00     0.007 C   
ENDBRANCH  19  20
ENDBRANCH  18  19
BRANCH  18  23
ATOM     23  N3  UNL     1       0.193  -0.202  -2.835  1.00  0.00     0.249 N   
ATOM     24  H22 UNL     1      -0.673   0.330  -3.002  1.00  0.00     0.199 HD  
ATOM     25  H23 UNL     1       0.927   0.444  -3.143  1.00  0.00     0.199 HD  
BRANCH  23  26
ATOM     26  C16 UNL     1       0.175  -1.423  -3.679  1.00  0.00     0.164 C   
BRANCH  26  27
ATOM     27  C17 UNL     1      -1.052  -2.267  -3.476  1.00  0.00    -0.002 A   
ATOM     28  C18 UNL     1      -0.972  -3.496  -2.778  1.00  0.00     0.012 A   
ATOM     29  C22 UNL     1      -2.297  -1.828  -3.963  1.00  0.00     0.045 A   
ATOM     30  C19 UNL     1      -2.114  -4.276  -2.562  1.00  0.00     0.037 A   
ATOM     31  C21 UNL     1      -3.401  -2.623  -3.735  1.00  0.00     0.109 A   
ATOM     32  C20 UNL     1      -3.314  -3.811  -3.054  1.00  0.00     0.108 A   
ATOM     33  O2  UNL     1      -4.669  -2.345  -4.136  1.00  0.00    -0.316 OA  
ATOM     34  O3  UNL     1      -4.516  -4.433  -2.941  1.00  0.00    -0.316 OA  
ATOM     35  C23 UNL     1      -5.368  -3.520  -3.665  1.00  0.00     0.337 C   
ENDBRANCH  26  27
ENDBRANCH  23  26
ENDBRANCH  18  23
ENDBRANCH   3  18
TORSDOF 10
