REMARK SMILES Cc1cccnc1[C@H](CO)n1cc([C@H](CC(C)C)[NH2+]Cc2ccc3c(c2)OCO3)nn1
REMARK SMILES IDX 11 1 12 2 13 3 30 4 31 5 8 7 7 8 2 9 3 10 4 11 6 12 5 13
REMARK SMILES IDX 1 14 9 15 10 16 14 18 15 19 16 20 17 21 18 22 19 23 20 26
REMARK SMILES IDX 21 27 22 28 26 29 23 30 25 31 24 32 27 33 29 34 28 35
REMARK H PARENT 12 6 10 17 19 24 19 25
ROOT
ATOM     1   N2  UNL     1      -0.445   2.591  -0.208  1.00  0.00    -0.201 N   
ATOM     2   C9  UNL     1       0.689   1.821  -0.240  1.00  0.00     0.046 A   
ATOM     3   C10 UNL     1       0.306   0.681  -0.910  1.00  0.00     0.127 A   
ATOM     4   N4  UNL     1      -1.012   0.793  -1.268  1.00  0.00    -0.132 NA  
ATOM     5   N5  UNL     1      -1.465   1.956  -0.826  1.00  0.00    -0.075 NA  
ATOM     6   H11 UNL     1       1.613   2.139   0.227  1.00  0.00     0.083 HD  
ENDROOT
BRANCH   1   7
ATOM     7   C7  UNL     1      -0.672   3.870   0.458  1.00  0.00     0.174 C   
BRANCH   7   8
ATOM     8   C6  UNL     1       0.369   4.894   0.027  1.00  0.00     0.068 A   
ATOM     9   C2  UNL     1       0.196   5.688  -1.119  1.00  0.00    -0.027 A   
ATOM     10  C3  UNL     1       1.209   6.599  -1.443  1.00  0.00     0.007 A   
ATOM     11  C4  UNL     1       2.349   6.692  -0.653  1.00  0.00     0.020 A   
ATOM     12  N1  UNL     1       1.495   4.970   0.798  1.00  0.00    -0.259 NA  
ATOM     13  C5  UNL     1       2.446   5.865   0.446  1.00  0.00     0.111 A   
ATOM     14  C1  UNL     1      -1.030   5.618  -1.986  1.00  0.00     0.046 C   
ENDBRANCH   7   8
BRANCH   7  15
ATOM     15  C8  UNL     1      -0.760   3.687   1.986  1.00  0.00     0.187 C   
BRANCH  15  16
ATOM     16  O1  UNL     1       0.435   3.150   2.563  1.00  0.00    -0.394 OA  
ATOM     17  H10 UNL     1       1.133   3.818   2.378  1.00  0.00     0.210 HD  
ENDBRANCH  15  16
ENDBRANCH   7  15
ENDBRANCH   1   7
BRANCH   3  18
ATOM     18  C11 UNL     1       1.078  -0.567  -1.174  1.00  0.00     0.114 C   
BRANCH  18  19
ATOM     19  C12 UNL     1       0.950  -1.107  -2.607  1.00  0.00     0.064 C   
BRANCH  19  20
ATOM     20  C13 UNL     1       1.449  -0.143  -3.707  1.00  0.00    -0.012 C   
ATOM     21  C14 UNL     1       2.930   0.201  -3.560  1.00  0.00     0.007 C   
ATOM     22  C15 UNL     1       1.202  -0.758  -5.087  1.00  0.00     0.007 C   
ENDBRANCH  19  20
ENDBRANCH  18  19
BRANCH  18  23
ATOM     23  N3  UNL     1       0.724  -1.643  -0.177  1.00  0.00     0.249 N   
ATOM     24  H22 UNL     1       0.773  -1.215   0.756  1.00  0.00     0.199 HD  
ATOM     25  H23 UNL     1       1.440  -2.376  -0.184  1.00  0.00     0.199 HD  
BRANCH  23  26
ATOM     26  C16 UNL     1      -0.618  -2.287  -0.283  1.00  0.00     0.164 C   
BRANCH  26  27
ATOM     27  C17 UNL     1      -0.913  -3.068   0.970  1.00  0.00    -0.002 A   
ATOM     28  C18 UNL     1      -1.603  -2.451   2.038  1.00  0.00     0.012 A   
ATOM     29  C22 UNL     1      -0.448  -4.385   1.116  1.00  0.00     0.045 A   
ATOM     30  C19 UNL     1      -1.835  -3.137   3.234  1.00  0.00     0.037 A   
ATOM     31  C21 UNL     1      -0.699  -5.035   2.307  1.00  0.00     0.109 A   
ATOM     32  C20 UNL     1      -1.370  -4.427   3.337  1.00  0.00     0.108 A   
ATOM     33  O2  UNL     1      -0.322  -6.303   2.612  1.00  0.00    -0.316 OA  
ATOM     34  O3  UNL     1      -1.500  -5.235   4.420  1.00  0.00    -0.316 OA  
ATOM     35  C23 UNL     1      -0.854  -6.436   3.949  1.00  0.00     0.337 C   
ENDBRANCH  26  27
ENDBRANCH  23  26
ENDBRANCH  18  23
ENDBRANCH   3  18
TORSDOF 10
