REMARK SMILES CC(C)C[C@H]([NH2+]Cc1ccc2c(c1)OCO2)c1cn(Cc2ccccc2-n2cccn2)nn1
REMARK SMILES IDX 17 1 18 2 19 3 32 4 33 5 5 7 4 8 2 9 1 10 3 11 6 12 7 15
REMARK SMILES IDX 8 16 9 17 13 18 10 19 12 20 11 21 14 22 16 23 15 24 20 25
REMARK SMILES IDX 21 26 22 27 26 28 23 29 25 30 24 31 27 32 28 33 31 34 29 35
REMARK SMILES IDX 30 36
REMARK H PARENT 18 6 6 13 6 14
ROOT
ATOM     1   C14 UNL     1      -0.440  -0.221  -0.853  1.00  0.00     0.127 A   
ATOM     2   C15 UNL     1       0.826   0.233  -1.135  1.00  0.00     0.046 A   
ATOM     3   N2  UNL     1       0.664   0.994  -2.260  1.00  0.00    -0.208 N   
ATOM     4   N5  UNL     1      -0.611   0.917  -2.702  1.00  0.00    -0.076 NA  
ATOM     5   N6  UNL     1      -1.300   0.190  -1.836  1.00  0.00    -0.132 NA  
ATOM     6   H20 UNL     1       1.779   0.140  -0.634  1.00  0.00     0.083 HD  
ENDROOT
BRANCH   1   7
ATOM     7   C5  UNL     1      -0.964  -0.965   0.328  1.00  0.00     0.114 C   
BRANCH   7   8
ATOM     8   C4  UNL     1      -1.136  -2.462   0.001  1.00  0.00     0.064 C   
BRANCH   8   9
ATOM     9   C2  UNL     1      -1.582  -3.368   1.168  1.00  0.00    -0.012 C   
ATOM     10  C1  UNL     1      -0.620  -3.307   2.354  1.00  0.00     0.007 C   
ATOM     11  C3  UNL     1      -1.707  -4.814   0.681  1.00  0.00     0.007 C   
ENDBRANCH   8   9
ENDBRANCH   7   8
BRANCH   7  12
ATOM     12  N1  UNL     1      -2.299  -0.398   0.754  1.00  0.00     0.249 N   
ATOM     13  H11 UNL     1      -2.916  -0.470  -0.067  1.00  0.00     0.199 HD  
ATOM     14  H12 UNL     1      -2.706  -0.964   1.502  1.00  0.00     0.199 HD  
BRANCH  12  15
ATOM     15  C6  UNL     1      -2.305   1.037   1.176  1.00  0.00     0.164 C   
BRANCH  15  16
ATOM     16  C7  UNL     1      -1.492   1.299   2.413  1.00  0.00    -0.002 A   
ATOM     17  C8  UNL     1      -1.961   0.879   3.681  1.00  0.00     0.012 A   
ATOM     18  C12 UNL     1      -0.248   1.949   2.313  1.00  0.00     0.045 A   
ATOM     19  C9  UNL     1      -1.204   1.103   4.835  1.00  0.00     0.037 A   
ATOM     20  C11 UNL     1       0.470   2.157   3.471  1.00  0.00     0.109 A   
ATOM     21  C10 UNL     1       0.006   1.746   4.697  1.00  0.00     0.108 A   
ATOM     22  O1  UNL     1       1.680   2.770   3.554  1.00  0.00    -0.316 OA  
ATOM     23  O2  UNL     1       0.864   2.052   5.705  1.00  0.00    -0.316 OA  
ATOM     24  C13 UNL     1       1.894   2.758   4.984  1.00  0.00     0.337 C   
ENDBRANCH  15  16
ENDBRANCH  12  15
ENDBRANCH   7  12
ENDBRANCH   1   7
BRANCH   3  25
ATOM     25  C16 UNL     1       1.668   1.748  -2.995  1.00  0.00     0.171 C   
BRANCH  25  26
ATOM     26  C17 UNL     1       1.383   3.237  -3.009  1.00  0.00    -0.005 A   
ATOM     27  C18 UNL     1       0.571   3.696  -4.074  1.00  0.00     0.007 A   
ATOM     28  C22 UNL     1       1.877   4.194  -2.085  1.00  0.00     0.061 A   
ATOM     29  C19 UNL     1       0.263   5.044  -4.240  1.00  0.00     0.000 A   
ATOM     30  C21 UNL     1       1.560   5.556  -2.277  1.00  0.00     0.026 A   
ATOM     31  C20 UNL     1       0.762   5.974  -3.343  1.00  0.00     0.002 A   
BRANCH  28  32
ATOM     32  N3  UNL     1       2.683   3.850  -0.953  1.00  0.00    -0.201 N   
ATOM     33  C23 UNL     1       3.406   4.703  -0.138  1.00  0.00     0.103 A   
ATOM     34  N4  UNL     1       2.798   2.569  -0.516  1.00  0.00    -0.185 NA  
ATOM     35  C24 UNL     1       4.012   3.938   0.831  1.00  0.00     0.039 A   
ATOM     36  C25 UNL     1       3.602   2.634   0.547  1.00  0.00     0.133 A   
ENDBRANCH  28  32
ENDBRANCH  25  26
ENDBRANCH   3  25
TORSDOF 9
