REMARK SMILES CC(C)[C@H]([NH2+]Cc1ccc2c(c1)OCO2)c1cn(C[C@H](O)c2ccncc2)nn1
REMARK SMILES IDX 16 1 17 2 18 3 28 4 29 5 4 7 2 8 1 9 3 10 5 11 6 14 7 15
REMARK SMILES IDX 8 16 12 17 9 18 11 19 10 20 13 21 15 22 14 23 19 24 20 25
REMARK SMILES IDX 21 26 22 28 23 29 27 30 24 31 26 32 25 33
REMARK H PARENT 17 6 5 12 5 13 21 27
ROOT
ATOM     1   C13 UNL     1       1.304   0.757  -1.080  1.00  0.00     0.127 A   
ATOM     2   C14 UNL     1       2.116   0.413  -0.023  1.00  0.00     0.045 A   
ATOM     3   N2  UNL     1       2.615   1.608   0.413  1.00  0.00    -0.209 N   
ATOM     4   N4  UNL     1       2.146   2.627  -0.330  1.00  0.00    -0.076 NA  
ATOM     5   N5  UNL     1       1.337   2.119  -1.246  1.00  0.00    -0.132 NA  
ATOM     6   H18 UNL     1       2.356  -0.527   0.455  1.00  0.00     0.083 HD  
ENDROOT
BRANCH   1   7
ATOM     7   C4  UNL     1       0.411  -0.074  -1.943  1.00  0.00     0.117 C   
BRANCH   7   8
ATOM     8   C2  UNL     1       1.067  -0.550  -3.265  1.00  0.00     0.037 C   
ATOM     9   C1  UNL     1       2.231  -1.513  -3.002  1.00  0.00     0.014 C   
ATOM     10  C3  UNL     1       1.534   0.585  -4.185  1.00  0.00     0.014 C   
ENDBRANCH   7   8
BRANCH   7  11
ATOM     11  N1  UNL     1      -0.844   0.702  -2.285  1.00  0.00     0.249 N   
ATOM     12  H9  UNL     1      -0.533   1.639  -2.577  1.00  0.00     0.199 HD  
ATOM     13  H10 UNL     1      -1.319   0.275  -3.085  1.00  0.00     0.199 HD  
BRANCH  11  14
ATOM     14  C5  UNL     1      -1.823   0.888  -1.171  1.00  0.00     0.164 C   
BRANCH  14  15
ATOM     15  C6  UNL     1      -2.488  -0.393  -0.752  1.00  0.00    -0.002 A   
ATOM     16  C7  UNL     1      -2.242  -0.935   0.531  1.00  0.00     0.012 A   
ATOM     17  C11 UNL     1      -3.350  -1.070  -1.633  1.00  0.00     0.045 A   
ATOM     18  C8  UNL     1      -2.833  -2.138   0.932  1.00  0.00     0.037 A   
ATOM     19  C10 UNL     1      -3.913  -2.256  -1.208  1.00  0.00     0.109 A   
ATOM     20  C9  UNL     1      -3.661  -2.776   0.037  1.00  0.00     0.108 A   
ATOM     21  O1  UNL     1      -4.757  -3.034  -1.936  1.00  0.00    -0.316 OA  
ATOM     22  O2  UNL     1      -4.315  -3.947   0.251  1.00  0.00    -0.316 OA  
ATOM     23  C12 UNL     1      -5.036  -4.093  -0.991  1.00  0.00     0.337 C   
ENDBRANCH  14  15
ENDBRANCH  11  14
ENDBRANCH   7  11
ENDBRANCH   1   7
BRANCH   3  24
ATOM     24  C15 UNL     1       3.448   1.852   1.569  1.00  0.00     0.170 C   
BRANCH  24  25
ATOM     25  C16 UNL     1       2.747   2.666   2.665  1.00  0.00     0.164 C   
BRANCH  25  26
ATOM     26  O3  UNL     1       3.585   2.692   3.821  1.00  0.00    -0.387 OA  
ATOM     27  H22 UNL     1       3.073   3.092   4.548  1.00  0.00     0.211 HD  
ENDBRANCH  25  26
BRANCH  25  28
ATOM     28  C17 UNL     1       1.395   2.104   3.055  1.00  0.00    -0.015 A   
ATOM     29  C18 UNL     1       1.275   0.868   3.699  1.00  0.00     0.026 A   
ATOM     30  C21 UNL     1       0.226   2.804   2.736  1.00  0.00     0.026 A   
ATOM     31  C19 UNL     1       0.007   0.373   3.954  1.00  0.00     0.111 A   
ATOM     32  C20 UNL     1      -0.997   2.229   3.038  1.00  0.00     0.111 A   
ATOM     33  N3  UNL     1      -1.130   1.013   3.607  1.00  0.00    -0.265 NA  
ENDBRANCH  25  28
ENDBRANCH  24  25
ENDBRANCH   3  24
TORSDOF 9
