REMARK SMILES CC(C)[C@H]([NH2+]Cc1ccc2c(c1)OCO2)c1cn(C[C@@H](O)c2ccncc2)nn1
REMARK SMILES IDX 16 1 17 2 18 3 28 4 29 5 4 7 2 8 1 9 3 10 5 11 6 14 7 15
REMARK SMILES IDX 8 16 12 17 9 18 11 19 10 20 13 21 15 22 14 23 19 24 20 25
REMARK SMILES IDX 21 26 22 28 23 29 27 30 24 31 26 32 25 33
REMARK H PARENT 17 6 5 12 5 13 21 27
ROOT
ATOM     1   C13 UNL     1      -0.996   0.045  -0.314  1.00  0.00     0.127 A   
ATOM     2   C14 UNL     1      -2.037   0.647  -0.986  1.00  0.00     0.045 A   
ATOM     3   N2  UNL     1      -1.973   0.112  -2.241  1.00  0.00    -0.209 N   
ATOM     4   N4  UNL     1      -1.008  -0.821  -2.318  1.00  0.00    -0.076 NA  
ATOM     5   N5  UNL     1      -0.395  -0.866  -1.146  1.00  0.00    -0.132 NA  
ATOM     6   H18 UNL     1      -2.755   1.410  -0.715  1.00  0.00     0.083 HD  
ENDROOT
BRANCH   1   7
ATOM     7   C4  UNL     1      -0.495   0.212   1.088  1.00  0.00     0.117 C   
BRANCH   7   8
ATOM     8   C2  UNL     1       0.502   1.389   1.262  1.00  0.00     0.037 C   
ATOM     9   C1  UNL     1       1.782   1.259   0.430  1.00  0.00     0.014 C   
ATOM     10  C3  UNL     1      -0.163   2.742   0.977  1.00  0.00     0.014 C   
ENDBRANCH   7   8
BRANCH   7  11
ATOM     11  N1  UNL     1       0.130  -1.091   1.519  1.00  0.00     0.249 N   
ATOM     12  H9  UNL     1      -0.535  -1.837   1.272  1.00  0.00     0.199 HD  
ATOM     13  H10 UNL     1       0.930  -1.293   0.905  1.00  0.00     0.199 HD  
BRANCH  11  14
ATOM     14  C5  UNL     1       0.502  -1.250   2.943  1.00  0.00     0.164 C   
BRANCH  14  15
ATOM     15  C6  UNL     1       0.915  -2.667   3.226  1.00  0.00    -0.002 A   
ATOM     16  C7  UNL     1       2.257  -3.073   3.031  1.00  0.00     0.012 A   
ATOM     17  C11 UNL     1      -0.042  -3.612   3.635  1.00  0.00     0.045 A   
ATOM     18  C8  UNL     1       2.646  -4.399   3.251  1.00  0.00     0.037 A   
ATOM     19  C10 UNL     1       0.375  -4.911   3.842  1.00  0.00     0.109 A   
ATOM     20  C9  UNL     1       1.680  -5.293   3.657  1.00  0.00     0.108 A   
ATOM     21  O1  UNL     1      -0.418  -5.941   4.238  1.00  0.00    -0.316 OA  
ATOM     22  O2  UNL     1       1.875  -6.613   3.914  1.00  0.00    -0.316 OA  
ATOM     23  C12 UNL     1       0.544  -7.018   4.301  1.00  0.00     0.337 C   
ENDBRANCH  14  15
ENDBRANCH  11  14
ENDBRANCH   7  11
ENDBRANCH   1   7
BRANCH   3  24
ATOM     24  C15 UNL     1      -2.735   0.490  -3.409  1.00  0.00     0.170 C   
BRANCH  24  25
ATOM     25  C16 UNL     1      -1.893   1.223  -4.462  1.00  0.00     0.164 C   
BRANCH  25  26
ATOM     26  O3  UNL     1      -2.749   1.616  -5.537  1.00  0.00    -0.387 OA  
ATOM     27  H22 UNL     1      -2.228   2.189  -6.130  1.00  0.00     0.211 HD  
ENDBRANCH  25  26
BRANCH  25  28
ATOM     28  C17 UNL     1      -1.196   2.449  -3.912  1.00  0.00    -0.015 A   
ATOM     29  C18 UNL     1      -1.906   3.609  -3.581  1.00  0.00     0.026 A   
ATOM     30  C21 UNL     1       0.184   2.425  -3.675  1.00  0.00     0.026 A   
ATOM     31  C19 UNL     1      -1.220   4.671  -3.016  1.00  0.00     0.111 A   
ATOM     32  C20 UNL     1       0.781   3.539  -3.106  1.00  0.00     0.111 A   
ATOM     33  N3  UNL     1       0.104   4.651  -2.752  1.00  0.00    -0.265 NA  
ENDBRANCH  25  28
ENDBRANCH  24  25
ENDBRANCH   3  24
TORSDOF 9
