REMARK SMILES COc1ccccc1C(=O)Cn1cc([C@@H]([NH2+]Cc2ccc3c(c2)OCO3)C2CCCC2)nn1
REMARK SMILES IDX 12 1 13 2 14 3 32 4 33 5 11 7 9 8 10 9 8 10 3 11 4 12 5 13
REMARK SMILES IDX 7 14 6 15 2 16 1 17 15 18 16 19 17 22 18 23 19 24 23 25
REMARK SMILES IDX 20 26 22 27 21 28 24 29 26 30 25 31 27 32 28 33 31 34 29 35
REMARK SMILES IDX 30 36
REMARK H PARENT 13 6 16 20 16 21
ROOT
ATOM     1   N1  UNL     1       1.293   1.130  -1.616  1.00  0.00    -0.204 N   
ATOM     2   C10 UNL     1       1.273   1.620  -0.339  1.00  0.00     0.046 A   
ATOM     3   C11 UNL     1       1.802   0.592   0.409  1.00  0.00     0.127 A   
ATOM     4   N3  UNL     1       2.192  -0.422  -0.423  1.00  0.00    -0.132 NA  
ATOM     5   N4  UNL     1       1.901  -0.068  -1.665  1.00  0.00    -0.076 NA  
ATOM     6   H10 UNL     1       0.813   2.565  -0.089  1.00  0.00     0.083 HD  
ENDROOT
BRANCH   1   7
ATOM     7   C9  UNL     1       0.624   1.681  -2.781  1.00  0.00     0.215 C   
BRANCH   7   8
ATOM     8   C8  UNL     1      -0.776   1.117  -2.877  1.00  0.00     0.184 C   
ATOM     9   O2  UNL     1      -1.363   0.602  -1.922  1.00  0.00    -0.292 OA  
BRANCH   8  10
ATOM     10  C7  UNL     1      -1.460   1.164  -4.192  1.00  0.00     0.050 A   
ATOM     11  C2  UNL     1      -1.502   2.332  -4.972  1.00  0.00     0.085 A   
ATOM     12  C3  UNL     1      -2.182   2.295  -6.194  1.00  0.00     0.034 A   
ATOM     13  C4  UNL     1      -2.821   1.124  -6.620  1.00  0.00     0.003 A   
ATOM     14  C6  UNL     1      -2.105  -0.009  -4.619  1.00  0.00     0.014 A   
ATOM     15  C5  UNL     1      -2.780  -0.028  -5.835  1.00  0.00     0.001 A   
BRANCH  11  16
ATOM     16  O1  UNL     1      -0.871   3.442  -4.476  1.00  0.00    -0.349 OA  
ATOM     17  C1  UNL     1      -1.257   4.700  -5.032  1.00  0.00     0.203 C   
ENDBRANCH  11  16
ENDBRANCH   8  10
ENDBRANCH   7   8
ENDBRANCH   1   7
BRANCH   3  18
ATOM     18  C12 UNL     1       1.852   0.411   1.886  1.00  0.00     0.117 C   
BRANCH  18  19
ATOM     19  N2  UNL     1       0.907  -0.695   2.295  1.00  0.00     0.249 N   
ATOM     20  H12 UNL     1       1.190  -1.546   1.786  1.00  0.00     0.199 HD  
ATOM     21  H13 UNL     1       1.003  -0.906   3.293  1.00  0.00     0.199 HD  
BRANCH  19  22
ATOM     22  C13 UNL     1      -0.535  -0.450   1.983  1.00  0.00     0.164 C   
BRANCH  22  23
ATOM     23  C14 UNL     1      -1.410  -1.413   2.736  1.00  0.00    -0.002 A   
ATOM     24  C15 UNL     1      -1.808  -1.126   4.065  1.00  0.00     0.012 A   
ATOM     25  C19 UNL     1      -1.801  -2.624   2.142  1.00  0.00     0.045 A   
ATOM     26  C16 UNL     1      -2.595  -2.028   4.791  1.00  0.00     0.037 A   
ATOM     27  C18 UNL     1      -2.588  -3.483   2.882  1.00  0.00     0.109 A   
ATOM     28  C17 UNL     1      -2.972  -3.198   4.168  1.00  0.00     0.108 A   
ATOM     29  O3  UNL     1      -3.057  -4.686   2.454  1.00  0.00    -0.316 OA  
ATOM     30  O4  UNL     1      -3.732  -4.184   4.712  1.00  0.00    -0.316 OA  
ATOM     31  C20 UNL     1      -3.861  -5.080   3.590  1.00  0.00     0.337 C   
ENDBRANCH  22  23
ENDBRANCH  19  22
ENDBRANCH  18  19
BRANCH  18  32
ATOM     32  C21 UNL     1       3.259   0.060   2.401  1.00  0.00     0.043 C   
ATOM     33  C22 UNL     1       3.376   0.061   3.927  1.00  0.00     0.010 C   
ATOM     34  C25 UNL     1       4.333   1.084   2.012  1.00  0.00     0.010 C   
ATOM     35  C23 UNL     1       4.876   0.188   4.204  1.00  0.00     0.001 C   
ATOM     36  C24 UNL     1       5.501   0.753   2.931  1.00  0.00     0.001 C   
ENDBRANCH  18  32
ENDBRANCH   3  18
TORSDOF 9
