REMARK SMILES CC(C)[C@H]([NH2+]Cc1ccc2c(c1)OCO2)c1cn(CC(=O)c2cccc(F)c2)nn1
REMARK SMILES IDX 16 1 17 2 18 3 29 4 30 5 4 7 2 8 1 9 3 10 5 11 6 14 7 15
REMARK SMILES IDX 8 16 12 17 9 18 11 19 10 20 13 21 15 22 14 23 19 24 20 25
REMARK SMILES IDX 21 26 22 27 23 28 28 29 24 30 26 31 25 32 27 33
REMARK H PARENT 17 6 5 12 5 13
ROOT
ATOM     1   C13 UNL     1       0.245   1.359  -0.321  1.00  0.00     0.127 A   
ATOM     2   C14 UNL     1       1.485   1.712  -0.802  1.00  0.00     0.046 A   
ATOM     3   N2  UNL     1       2.321   1.509   0.260  1.00  0.00    -0.204 N   
ATOM     4   N3  UNL     1       1.630   1.115   1.347  1.00  0.00    -0.076 NA  
ATOM     5   N4  UNL     1       0.357   1.010   1.000  1.00  0.00    -0.132 NA  
ATOM     6   H18 UNL     1       1.847   2.030  -1.771  1.00  0.00     0.083 HD  
ENDROOT
BRANCH   1   7
ATOM     7   C4  UNL     1      -1.080   1.260  -1.005  1.00  0.00     0.117 C   
BRANCH   7   8
ATOM     8   C2  UNL     1      -1.827   2.620  -1.033  1.00  0.00     0.037 C   
ATOM     9   C1  UNL     1      -2.994   2.607  -2.027  1.00  0.00     0.014 C   
ATOM     10  C3  UNL     1      -2.325   3.086   0.340  1.00  0.00     0.014 C   
ENDBRANCH   7   8
BRANCH   7  11
ATOM     11  N1  UNL     1      -1.935   0.208  -0.353  1.00  0.00     0.249 N   
ATOM     12  H9  UNL     1      -2.919   0.298  -0.617  1.00  0.00     0.199 HD  
ATOM     13  H10 UNL     1      -1.887   0.371   0.663  1.00  0.00     0.199 HD  
BRANCH  11  14
ATOM     14  C5  UNL     1      -1.504  -1.201  -0.584  1.00  0.00     0.164 C   
BRANCH  14  15
ATOM     15  C6  UNL     1      -2.457  -2.145   0.096  1.00  0.00    -0.002 A   
ATOM     16  C7  UNL     1      -3.552  -2.692  -0.615  1.00  0.00     0.012 A   
ATOM     17  C11 UNL     1      -2.304  -2.432   1.463  1.00  0.00     0.045 A   
ATOM     18  C8  UNL     1      -4.482  -3.518   0.027  1.00  0.00     0.037 A   
ATOM     19  C10 UNL     1      -3.239  -3.248   2.065  1.00  0.00     0.109 A   
ATOM     20  C9  UNL     1      -4.300  -3.773   1.368  1.00  0.00     0.108 A   
ATOM     21  O1  UNL     1      -3.247  -3.612   3.374  1.00  0.00    -0.316 OA  
ATOM     22  O2  UNL     1      -5.107  -4.536   2.151  1.00  0.00    -0.316 OA  
ATOM     23  C12 UNL     1      -4.420  -4.457   3.417  1.00  0.00     0.337 C   
ENDBRANCH  14  15
ENDBRANCH  11  14
ENDBRANCH   7  11
ENDBRANCH   1   7
BRANCH   3  24
ATOM     24  C15 UNL     1       3.759   1.699   0.327  1.00  0.00     0.214 C   
BRANCH  24  25
ATOM     25  C16 UNL     1       4.502   0.700  -0.533  1.00  0.00     0.182 C   
ATOM     26  O3  UNL     1       3.924  -0.109  -1.259  1.00  0.00    -0.292 OA  
BRANCH  25  27
ATOM     27  C17 UNL     1       5.997   0.729  -0.528  1.00  0.00     0.022 A   
ATOM     28  C18 UNL     1       6.687  -0.169  -1.362  1.00  0.00     0.012 A   
ATOM     29  C22 UNL     1       6.726   1.625   0.258  1.00  0.00     0.051 A   
ATOM     30  C19 UNL     1       8.084  -0.167  -1.412  1.00  0.00     0.004 A   
ATOM     31  C21 UNL     1       8.118   1.613   0.200  1.00  0.00     0.123 A   
ATOM     32  C20 UNL     1       8.803   0.732  -0.628  1.00  0.00     0.039 A   
ATOM     33  F1  UNL     1       8.807   2.477   0.956  1.00  0.00    -0.207 F   
ENDBRANCH  25  27
ENDBRANCH  24  25
ENDBRANCH   3  24
TORSDOF 8
