REMARK SMILES CC(C)(C)[C@H]([NH2+]Cc1ccc2c(c1)OCO2)c1cn(CC(=O)c2ccc(F)cc2)nn1
REMARK SMILES IDX 17 1 18 2 19 3 30 4 31 5 5 7 2 8 1 9 3 10 4 11 6 12 7 15
REMARK SMILES IDX 8 16 9 17 13 18 10 19 12 20 11 21 14 22 16 23 15 24 20 25
REMARK SMILES IDX 21 26 22 27 23 28 24 29 29 30 25 31 28 32 26 33 27 34
REMARK H PARENT 18 6 6 13 6 14
ROOT
ATOM     1   C14 UNL     1       0.049  -1.872  -0.530  1.00  0.00     0.127 A   
ATOM     2   C15 UNL     1      -0.748  -2.005   0.585  1.00  0.00     0.046 A   
ATOM     3   N2  UNL     1      -0.018  -1.424   1.583  1.00  0.00    -0.204 N   
ATOM     4   N3  UNL     1       1.160  -0.967   1.118  1.00  0.00    -0.076 NA  
ATOM     5   N4  UNL     1       1.210  -1.229  -0.177  1.00  0.00    -0.132 NA  
ATOM     6   H20 UNL     1      -1.738  -2.408   0.753  1.00  0.00     0.083 HD  
ENDROOT
BRANCH   1   7
ATOM     7   C5  UNL     1      -0.195  -2.207  -1.971  1.00  0.00     0.120 C   
BRANCH   7   8
ATOM     8   C2  UNL     1       0.385  -3.595  -2.415  1.00  0.00     0.010 C   
ATOM     9   C1  UNL     1      -0.030  -3.902  -3.873  1.00  0.00     0.017 C   
ATOM     10  C3  UNL     1      -0.203  -4.722  -1.535  1.00  0.00     0.017 C   
ATOM     11  C4  UNL     1       1.922  -3.661  -2.320  1.00  0.00     0.017 C   
ENDBRANCH   7   8
BRANCH   7  12
ATOM     12  N1  UNL     1       0.385  -1.089  -2.822  1.00  0.00     0.250 N   
ATOM     13  H11 UNL     1       0.866  -1.454  -3.647  1.00  0.00     0.199 HD  
ATOM     14  H12 UNL     1       1.124  -0.654  -2.245  1.00  0.00     0.199 HD  
BRANCH  12  15
ATOM     15  C6  UNL     1      -0.562  -0.019  -3.248  1.00  0.00     0.164 C   
BRANCH  15  16
ATOM     16  C7  UNL     1      -1.180   0.741  -2.109  1.00  0.00    -0.002 A   
ATOM     17  C8  UNL     1      -0.411   1.667  -1.361  1.00  0.00     0.012 A   
ATOM     18  C12 UNL     1      -2.518   0.508  -1.750  1.00  0.00     0.045 A   
ATOM     19  C9  UNL     1      -0.964   2.344  -0.268  1.00  0.00     0.037 A   
ATOM     20  C11 UNL     1      -3.029   1.187  -0.664  1.00  0.00     0.109 A   
ATOM     21  C10 UNL     1      -2.275   2.079   0.056  1.00  0.00     0.108 A   
ATOM     22  O1  UNL     1      -4.293   1.063  -0.182  1.00  0.00    -0.316 OA  
ATOM     23  O2  UNL     1      -2.970   2.635   1.081  1.00  0.00    -0.316 OA  
ATOM     24  C13 UNL     1      -4.247   1.974   0.940  1.00  0.00     0.337 C   
ENDBRANCH  15  16
ENDBRANCH  12  15
ENDBRANCH   7  12
ENDBRANCH   1   7
BRANCH   3  25
ATOM     25  C16 UNL     1      -0.365  -1.272   2.977  1.00  0.00     0.214 C   
BRANCH  25  26
ATOM     26  C17 UNL     1      -1.363  -0.158   3.159  1.00  0.00     0.182 C   
ATOM     27  O3  UNL     1      -2.555  -0.332   2.901  1.00  0.00    -0.292 OA  
BRANCH  26  28
ATOM     28  C18 UNL     1      -0.907   1.173   3.654  1.00  0.00     0.019 A   
ATOM     29  C19 UNL     1      -1.862   2.021   4.238  1.00  0.00     0.015 A   
ATOM     30  C23 UNL     1       0.420   1.609   3.533  1.00  0.00     0.015 A   
ATOM     31  C20 UNL     1      -1.493   3.285   4.703  1.00  0.00     0.040 A   
ATOM     32  C22 UNL     1       0.784   2.875   4.002  1.00  0.00     0.040 A   
ATOM     33  C21 UNL     1      -0.173   3.700   4.581  1.00  0.00     0.123 A   
ATOM     34  F1  UNL     1       0.182   4.912   5.022  1.00  0.00    -0.207 F   
ENDBRANCH  26  28
ENDBRANCH  25  26
ENDBRANCH   3  25
TORSDOF 8
