REMARK SMILES CC(C)[C@H]([NH2+]Cc1ccc2c(c1)OCO2)c1cn(-c2ccnc(N)c2)nn1
REMARK SMILES IDX 16 1 17 2 18 3 26 4 27 5 4 6 2 7 1 8 3 9 5 10 6 13 7 14 8 15
REMARK SMILES IDX 12 16 9 17 11 18 10 19 13 20 15 21 14 22 19 23 20 24 25 25
REMARK SMILES IDX 21 26 23 27 22 28 24 29
REMARK H PARENT 5 11 5 12 24 30 24 31
ROOT
ATOM     1   C13 UNL     1       0.052   0.929  -0.978  1.00  0.00     0.127 A   
ATOM     2   C14 UNL     1       0.970   0.893   0.048  1.00  0.00     0.135 A   
ATOM     3   N2  UNL     1       0.402   1.643   1.060  1.00  0.00    -0.180 N   
ATOM     4   N5  UNL     1      -0.762   2.177   0.608  1.00  0.00    -0.071 NA  
ATOM     5   N6  UNL     1      -0.999   1.721  -0.610  1.00  0.00    -0.131 NA  
ENDROOT
BRANCH   1   6
ATOM     6   C4  UNL     1      -0.025   0.166  -2.262  1.00  0.00     0.117 C   
BRANCH   6   7
ATOM     7   C2  UNL     1       0.260   1.013  -3.528  1.00  0.00     0.037 C   
ATOM     8   C1  UNL     1      -0.701   2.189  -3.741  1.00  0.00     0.014 C   
ATOM     9   C3  UNL     1       1.707   1.518  -3.545  1.00  0.00     0.014 C   
ENDBRANCH   6   7
BRANCH   6  10
ATOM     10  N1  UNL     1      -1.405  -0.456  -2.383  1.00  0.00     0.249 N   
ATOM     11  H9  UNL     1      -2.048   0.174  -1.877  1.00  0.00     0.199 HD  
ATOM     12  H10 UNL     1      -1.718  -0.448  -3.359  1.00  0.00     0.199 HD  
BRANCH  10  13
ATOM     13  C5  UNL     1      -1.572  -1.840  -1.840  1.00  0.00     0.164 C   
BRANCH  13  14
ATOM     14  C6  UNL     1      -1.157  -2.003  -0.403  1.00  0.00    -0.002 A   
ATOM     15  C7  UNL     1       0.018  -2.727  -0.080  1.00  0.00     0.012 A   
ATOM     16  C11 UNL     1      -1.897  -1.398   0.628  1.00  0.00     0.045 A   
ATOM     17  C8  UNL     1       0.468  -2.817   1.242  1.00  0.00     0.037 A   
ATOM     18  C10 UNL     1      -1.421  -1.500   1.920  1.00  0.00     0.109 A   
ATOM     19  C9  UNL     1      -0.268  -2.184   2.217  1.00  0.00     0.108 A   
ATOM     20  O1  UNL     1      -1.988  -0.938   3.019  1.00  0.00    -0.316 OA  
ATOM     21  O2  UNL     1       0.038  -2.136   3.540  1.00  0.00    -0.316 OA  
ATOM     22  C12 UNL     1      -1.077  -1.373   4.054  1.00  0.00     0.337 C   
ENDBRANCH  13  14
ENDBRANCH  10  13
ENDBRANCH   6  10
ENDBRANCH   1   6
BRANCH   3  23
ATOM     23  C15 UNL     1       0.839   1.823   2.392  1.00  0.00     0.062 A   
ATOM     24  C16 UNL     1       0.113   2.651   3.250  1.00  0.00     0.046 A   
ATOM     25  C19 UNL     1       1.972   1.165   2.873  1.00  0.00     0.070 A   
ATOM     26  C17 UNL     1       0.562   2.784   4.550  1.00  0.00     0.115 A   
ATOM     27  C18 UNL     1       2.333   1.354   4.199  1.00  0.00     0.117 A   
ATOM     28  N3  UNL     1       1.650   2.149   5.034  1.00  0.00    -0.242 NA  
BRANCH  27  29
ATOM     29  N4  UNL     1       3.462   0.730   4.718  1.00  0.00    -0.343 N   
ATOM     30  H21 UNL     1       3.525   1.001   5.699  1.00  0.00     0.144 HD  
ATOM     31  H22 UNL     1       3.423  -0.278   4.622  1.00  0.00     0.144 HD  
ENDBRANCH  27  29
ENDBRANCH   3  23
TORSDOF 7
