REMARK SMILES Cc1cc(Cn2cc([C@@H]([NH2+]Cc3ccc4c(c3)OCO4)C(C)(C)C)nn2)ccc1N([O-])[O-]
REMARK SMILES IDX 6 1 7 2 8 3 25 4 26 5 5 7 4 8 2 9 3 10 29 11 28 12 27 13
REMARK SMILES IDX 1 14 30 15 31 16 32 17 9 18 10 19 11 22 12 23 13 24 17 25
REMARK SMILES IDX 14 26 16 27 15 28 18 29 20 30 19 31 21 32 22 33 23 34 24 35
REMARK H PARENT 7 6 10 20 10 21
ROOT
ATOM     1   N1  UNL     1       1.059  -2.195   0.857  1.00  0.00    -0.208 N   
ATOM     2   C6  UNL     1      -0.259  -2.076   0.506  1.00  0.00     0.046 A   
ATOM     3   C7  UNL     1      -0.270  -2.340  -0.843  1.00  0.00     0.127 A   
ATOM     4   N3  UNL     1       1.014  -2.576  -1.265  1.00  0.00    -0.132 NA  
ATOM     5   N4  UNL     1       1.815  -2.493  -0.216  1.00  0.00    -0.076 NA  
ATOM     6   H7  UNL     1      -1.026  -1.818   1.220  1.00  0.00     0.083 HD  
ENDROOT
BRANCH   1   7
ATOM     7   C5  UNL     1       1.660  -2.079   2.173  1.00  0.00     0.169 C   
BRANCH   7   8
ATOM     8   C4  UNL     1       1.619  -0.655   2.675  1.00  0.00    -0.028 A   
ATOM     9   C2  UNL     1       2.505   1.635   2.618  1.00  0.00    -0.022 A   
ATOM     10  C3  UNL     1       2.544   0.295   2.196  1.00  0.00     0.011 A   
ATOM     11  C23 UNL     1       1.521   1.996   3.555  1.00  0.00     0.121 A   
ATOM     12  C22 UNL     1       0.594   1.064   4.042  1.00  0.00     0.032 A   
ATOM     13  C21 UNL     1       0.645  -0.257   3.602  1.00  0.00     0.007 A   
ATOM     14  C1  UNL     1       3.502   2.609   2.058  1.00  0.00     0.046 C   
BRANCH  11  15
ATOM     15  N5  UNL     1       1.407   3.370   4.041  1.00  0.00     0.092 N   
ATOM     16  O3  UNL     1       2.432   3.924   4.455  1.00  0.00    -0.138 OA  
ATOM     17  O4  UNL     1       0.276   3.879   4.020  1.00  0.00    -0.138 OA  
ENDBRANCH  11  15
ENDBRANCH   7   8
ENDBRANCH   1   7
BRANCH   3  18
ATOM     18  C8  UNL     1      -1.376  -2.321  -1.858  1.00  0.00     0.120 C   
BRANCH  18  19
ATOM     19  N2  UNL     1      -0.807  -1.782  -3.163  1.00  0.00     0.250 N   
ATOM     20  H9  UNL     1       0.219  -1.858  -3.070  1.00  0.00     0.199 HD  
ATOM     21  H10 UNL     1      -1.042  -2.386  -3.952  1.00  0.00     0.199 HD  
BRANCH  19  22
ATOM     22  C9  UNL     1      -1.137  -0.372  -3.504  1.00  0.00     0.164 C   
BRANCH  22  23
ATOM     23  C10 UNL     1      -0.730   0.621  -2.452  1.00  0.00    -0.002 A   
ATOM     24  C11 UNL     1       0.638   0.860  -2.175  1.00  0.00     0.012 A   
ATOM     25  C15 UNL     1      -1.710   1.291  -1.702  1.00  0.00     0.045 A   
ATOM     26  C12 UNL     1       1.027   1.731  -1.149  1.00  0.00     0.037 A   
ATOM     27  C14 UNL     1      -1.294   2.144  -0.696  1.00  0.00     0.109 A   
ATOM     28  C13 UNL     1       0.035   2.353  -0.422  1.00  0.00     0.108 A   
ATOM     29  O1  UNL     1      -2.112   2.843   0.128  1.00  0.00    -0.316 OA  
ATOM     30  O2  UNL     1       0.222   3.209   0.616  1.00  0.00    -0.316 OA  
ATOM     31  C16 UNL     1      -1.144   3.524   0.962  1.00  0.00     0.337 C   
ENDBRANCH  22  23
ENDBRANCH  19  22
ENDBRANCH  18  19
BRANCH  18  32
ATOM     32  C17 UNL     1      -2.071  -3.708  -2.086  1.00  0.00     0.010 C   
ATOM     33  C18 UNL     1      -3.239  -3.548  -3.086  1.00  0.00     0.017 C   
ATOM     34  C19 UNL     1      -1.105  -4.788  -2.624  1.00  0.00     0.017 C   
ATOM     35  C20 UNL     1      -2.681  -4.221  -0.755  1.00  0.00     0.017 C   
ENDBRANCH  18  32
ENDBRANCH   3  18
TORSDOF 8
