REMARK SMILES CCCc1nc(C)c(Cn2cc([C@H](CC(C)C)[NH2+]Cc3ccc4c(c3)OCO4)nn2)o1
REMARK SMILES IDX 10 1 11 2 12 3 29 4 30 5 9 7 8 8 4 9 5 10 31 11 6 12 7 13
REMARK SMILES IDX 3 14 2 15 1 16 13 17 14 18 15 19 16 20 17 21 18 22 19 25
REMARK SMILES IDX 20 26 21 27 25 28 22 29 24 30 23 31 26 32 28 33 27 34
REMARK H PARENT 11 6 18 23 18 24
ROOT
ATOM     1   N2  UNL     1       2.421  -1.541  -1.651  1.00  0.00    -0.206 N   
ATOM     2   C9  UNL     1       1.083  -1.641  -1.924  1.00  0.00     0.046 A   
ATOM     3   C10 UNL     1       0.728  -0.371  -2.320  1.00  0.00     0.127 A   
ATOM     4   N4  UNL     1       1.837   0.435  -2.294  1.00  0.00    -0.132 NA  
ATOM     5   N5  UNL     1       2.863  -0.288  -1.877  1.00  0.00    -0.076 NA  
ATOM     6   H13 UNL     1       0.535  -2.564  -1.790  1.00  0.00     0.083 HD  
ENDROOT
BRANCH   1   7
ATOM     7   C8  UNL     1       3.314  -2.566  -1.141  1.00  0.00     0.197 C   
BRANCH   7   8
ATOM     8   C7  UNL     1       3.137  -2.691   0.318  1.00  0.00     0.102 A   
ATOM     9   C4  UNL     1       2.304  -3.517   2.130  1.00  0.00     0.148 A   
ATOM     10  N1  UNL     1       3.090  -2.552   2.559  1.00  0.00    -0.231 NA  
ATOM     11  O3  UNL     1       2.270  -3.650   0.768  1.00  0.00    -0.296 OA  
ATOM     12  C5  UNL     1       3.643  -2.027   1.417  1.00  0.00     0.068 A   
ATOM     13  C6  UNL     1       4.609  -0.910   1.478  1.00  0.00     0.069 C   
BRANCH   9  14
ATOM     14  C3  UNL     1       1.455  -4.447   2.916  1.00  0.00     0.083 C   
BRANCH  14  15
ATOM     15  C2  UNL     1       0.038  -3.900   3.072  1.00  0.00     0.005 C   
ATOM     16  C1  UNL     1      -0.839  -4.844   3.880  1.00  0.00     0.004 C   
ENDBRANCH  14  15
ENDBRANCH   9  14
ENDBRANCH   7   8
ENDBRANCH   1   7
BRANCH   3  17
ATOM     17  C11 UNL     1      -0.598   0.210  -2.695  1.00  0.00     0.114 C   
BRANCH  17  18
ATOM     18  C12 UNL     1      -0.817   0.128  -4.218  1.00  0.00     0.064 C   
BRANCH  18  19
ATOM     19  C13 UNL     1      -2.177   0.631  -4.747  1.00  0.00    -0.012 C   
ATOM     20  C14 UNL     1      -3.361  -0.084  -4.096  1.00  0.00     0.007 C   
ATOM     21  C15 UNL     1      -2.236   0.447  -6.267  1.00  0.00     0.007 C   
ENDBRANCH  18  19
ENDBRANCH  17  18
BRANCH  17  22
ATOM     22  N3  UNL     1      -0.680   1.646  -2.257  1.00  0.00     0.249 N   
ATOM     23  H24 UNL     1      -1.463   2.136  -2.698  1.00  0.00     0.199 HD  
ATOM     24  H25 UNL     1       0.178   2.112  -2.586  1.00  0.00     0.199 HD  
BRANCH  22  25
ATOM     25  C16 UNL     1      -0.763   1.859  -0.784  1.00  0.00     0.164 C   
BRANCH  25  26
ATOM     26  C17 UNL     1      -0.878   3.325  -0.475  1.00  0.00    -0.002 A   
ATOM     27  C18 UNL     1       0.287   4.116  -0.331  1.00  0.00     0.012 A   
ATOM     28  C22 UNL     1      -2.142   3.932  -0.388  1.00  0.00     0.045 A   
ATOM     29  C19 UNL     1       0.197   5.491  -0.091  1.00  0.00     0.037 A   
ATOM     30  C21 UNL     1      -2.196   5.290  -0.152  1.00  0.00     0.109 A   
ATOM     31  C20 UNL     1      -1.060   6.048  -0.008  1.00  0.00     0.108 A   
ATOM     32  O1  UNL     1      -3.331   6.027  -0.042  1.00  0.00    -0.316 OA  
ATOM     33  O2  UNL     1      -1.338   7.359   0.214  1.00  0.00    -0.316 OA  
ATOM     34  C23 UNL     1      -2.782   7.339   0.218  1.00  0.00     0.337 C   
ENDBRANCH  25  26
ENDBRANCH  22  25
ENDBRANCH  17  22
ENDBRANCH   3  17
TORSDOF 10
