REMARK SMILES Cc1cc(Cn2cc([C@@H]([NH2+]Cc3ccc4c(c3)OCO4)C(C)(C)C)nn2)n[nH]1
REMARK SMILES IDX 6 1 7 2 8 3 25 4 26 5 5 7 4 8 2 9 3 10 28 11 27 12 1 13 9 15
REMARK SMILES IDX 10 16 11 19 12 20 13 21 17 22 14 23 16 24 15 25 18 26 20 27
REMARK SMILES IDX 19 28 21 29 22 30 23 31 24 32
REMARK H PARENT 7 6 28 14 10 17 10 18
ROOT
ATOM     1   N1  UNL     1      -2.002  -1.439   0.781  1.00  0.00    -0.206 N   
ATOM     2   C6  UNL     1      -0.658  -1.701   0.735  1.00  0.00     0.046 A   
ATOM     3   C7  UNL     1      -0.077  -0.459   0.619  1.00  0.00     0.127 A   
ATOM     4   N3  UNL     1      -1.065   0.489   0.522  1.00  0.00    -0.132 NA  
ATOM     5   N4  UNL     1      -2.235  -0.122   0.603  1.00  0.00    -0.076 NA  
ATOM     6   H7  UNL     1      -0.268  -2.707   0.829  1.00  0.00     0.083 HD  
ENDROOT
BRANCH   1   7
ATOM     7   C5  UNL     1      -3.099  -2.381   0.916  1.00  0.00     0.191 C   
BRANCH   7   8
ATOM     8   C4  UNL     1      -3.115  -2.962   2.287  1.00  0.00     0.079 A   
ATOM     9   C2  UNL     1      -3.547  -3.402   4.417  1.00  0.00     0.024 A   
ATOM     10  C3  UNL     1      -3.860  -2.521   3.407  1.00  0.00     0.047 A   
ATOM     11  N6  UNL     1      -2.669  -4.296   3.872  1.00  0.00    -0.243 N   
ATOM     12  N5  UNL     1      -2.371  -4.037   2.585  1.00  0.00    -0.187 NA  
ATOM     13  C1  UNL     1      -3.998  -3.496   5.824  1.00  0.00     0.063 C   
ATOM     14  H27 UNL     1      -2.237  -5.100   4.318  1.00  0.00     0.175 HD  
ENDBRANCH   7   8
ENDBRANCH   1   7
BRANCH   3  15
ATOM     15  C8  UNL     1       1.359  -0.042   0.520  1.00  0.00     0.120 C   
BRANCH  15  16
ATOM     16  N2  UNL     1       1.448   1.164  -0.387  1.00  0.00     0.250 N   
ATOM     17  H9  UNL     1       0.688   1.800  -0.102  1.00  0.00     0.199 HD  
ATOM     18  H10 UNL     1       2.318   1.687  -0.264  1.00  0.00     0.199 HD  
BRANCH  16  19
ATOM     19  C9  UNL     1       1.261   0.885  -1.838  1.00  0.00     0.164 C   
BRANCH  19  20
ATOM     20  C10 UNL     1       1.278   2.166  -2.622  1.00  0.00    -0.002 A   
ATOM     21  C11 UNL     1       0.090   2.921  -2.773  1.00  0.00     0.012 A   
ATOM     22  C15 UNL     1       2.481   2.652  -3.161  1.00  0.00     0.045 A   
ATOM     23  C12 UNL     1       0.095   4.139  -3.461  1.00  0.00     0.037 A   
ATOM     24  C14 UNL     1       2.451   3.856  -3.834  1.00  0.00     0.109 A   
ATOM     25  C13 UNL     1       1.292   4.579  -3.980  1.00  0.00     0.108 A   
ATOM     26  O1  UNL     1       3.519   4.465  -4.412  1.00  0.00    -0.316 OA  
ATOM     27  O2  UNL     1       1.485   5.732  -4.671  1.00  0.00    -0.316 OA  
ATOM     28  C16 UNL     1       2.896   5.647  -4.964  1.00  0.00     0.337 C   
ENDBRANCH  19  20
ENDBRANCH  16  19
ENDBRANCH  15  16
BRANCH  15  29
ATOM     29  C17 UNL     1       2.035   0.267   1.903  1.00  0.00     0.010 C   
ATOM     30  C18 UNL     1       3.544   0.547   1.713  1.00  0.00     0.017 C   
ATOM     31  C19 UNL     1       1.922  -0.958   2.840  1.00  0.00     0.017 C   
ATOM     32  C20 UNL     1       1.403   1.480   2.615  1.00  0.00     0.017 C   
ENDBRANCH  15  29
ENDBRANCH   3  15
TORSDOF 7
