REMARK SMILES COc1c(Cn2cc([C@H](CC(C)C)[NH2+]Cc3ccc4c(c3)OCO4)nn2)ccc(F)c1F
REMARK SMILES IDX 6 1 7 2 8 3 25 4 26 5 5 7 4 8 3 9 31 10 27 11 29 12 28 13
REMARK SMILES IDX 32 14 30 15 2 16 1 17 9 18 10 19 11 20 12 21 13 22 14 23
REMARK SMILES IDX 15 26 16 27 17 28 21 29 18 30 20 31 19 32 22 33 24 34 23 35
REMARK H PARENT 7 6 14 24 14 25
ROOT
ATOM     1   N1  UNL     1       0.010  -3.074  -0.989  1.00  0.00    -0.208 N   
ATOM     2   C5  UNL     1      -0.758  -2.897   0.129  1.00  0.00     0.046 A   
ATOM     3   C6  UNL     1      -1.016  -1.545   0.147  1.00  0.00     0.127 A   
ATOM     4   N3  UNL     1      -0.422  -0.960  -0.942  1.00  0.00    -0.132 NA  
ATOM     5   N4  UNL     1       0.203  -1.902  -1.627  1.00  0.00    -0.076 NA  
ATOM     6   H6  UNL     1      -1.025  -3.718   0.780  1.00  0.00     0.083 HD  
ENDROOT
BRANCH   1   7
ATOM     7   C4  UNL     1       0.568  -4.307  -1.517  1.00  0.00     0.172 C   
BRANCH   7   8
ATOM     8   C3  UNL     1       1.931  -4.582  -0.925  1.00  0.00     0.005 A   
ATOM     9   C2  UNL     1       2.076  -5.303   0.279  1.00  0.00     0.118 A   
ATOM     10  C23 UNL     1       3.360  -5.506   0.801  1.00  0.00     0.189 A   
ATOM     11  C20 UNL     1       3.076  -4.085  -1.579  1.00  0.00     0.011 A   
ATOM     12  C22 UNL     1       4.478  -5.011   0.136  1.00  0.00     0.161 A   
ATOM     13  C21 UNL     1       4.346  -4.304  -1.050  1.00  0.00     0.043 A   
ATOM     14  F2  UNL     1       3.548  -6.157   1.958  1.00  0.00    -0.201 F   
ATOM     15  F1  UNL     1       5.700  -5.205   0.649  1.00  0.00    -0.204 F   
BRANCH   9  16
ATOM     16  O1  UNL     1       0.903  -5.727   0.852  1.00  0.00    -0.346 OA  
ATOM     17  C1  UNL     1       1.000  -6.699   1.890  1.00  0.00     0.203 C   
ENDBRANCH   9  16
ENDBRANCH   7   8
ENDBRANCH   1   7
BRANCH   3  18
ATOM     18  C7  UNL     1      -1.771  -0.698   1.115  1.00  0.00     0.114 C   
BRANCH  18  19
ATOM     19  C8  UNL     1      -3.299  -0.876   1.021  1.00  0.00     0.064 C   
BRANCH  19  20
ATOM     20  C9  UNL     1      -3.978  -0.727  -0.361  1.00  0.00    -0.012 C   
ATOM     21  C10 UNL     1      -5.437  -1.188  -0.253  1.00  0.00     0.007 C   
ATOM     22  C11 UNL     1      -3.947   0.697  -0.915  1.00  0.00     0.007 C   
ENDBRANCH  19  20
ENDBRANCH  18  19
BRANCH  18  23
ATOM     23  N2  UNL     1      -1.408   0.750   0.962  1.00  0.00     0.249 N   
ATOM     24  H17 UNL     1      -2.161   1.372   1.272  1.00  0.00     0.199 HD  
ATOM     25  H18 UNL     1      -1.284   0.917  -0.048  1.00  0.00     0.199 HD  
BRANCH  23  26
ATOM     26  C12 UNL     1      -0.130   1.157   1.610  1.00  0.00     0.164 C   
BRANCH  26  27
ATOM     27  C13 UNL     1       0.181   2.592   1.295  1.00  0.00    -0.002 A   
ATOM     28  C14 UNL     1      -0.213   3.624   2.180  1.00  0.00     0.012 A   
ATOM     29  C18 UNL     1       0.818   2.922   0.086  1.00  0.00     0.045 A   
ATOM     30  C15 UNL     1       0.033   4.966   1.871  1.00  0.00     0.037 A   
ATOM     31  C17 UNL     1       1.045   4.254  -0.187  1.00  0.00     0.109 A   
ATOM     32  C16 UNL     1       0.663   5.248   0.680  1.00  0.00     0.108 A   
ATOM     33  O2  UNL     1       1.644   4.742  -1.304  1.00  0.00    -0.316 OA  
ATOM     34  O3  UNL     1       0.976   6.487   0.219  1.00  0.00    -0.316 OA  
ATOM     35  C19 UNL     1       1.621   6.161  -1.031  1.00  0.00     0.337 C   
ENDBRANCH  26  27
ENDBRANCH  23  26
ENDBRANCH  18  23
ENDBRANCH   3  18
TORSDOF 9
