REMARK SMILES COc1ccc(C(=O)n2cc([C@@H]([NH2+]Cc3ccc4c(c3)OCO4)C(C)C)nn2)cn1
REMARK SMILES IDX 9 1 10 2 11 3 27 4 28 5 7 6 8 7 6 8 3 9 4 10 30 11 5 12
REMARK SMILES IDX 29 13 2 14 1 15 12 16 13 17 14 20 15 21 16 22 20 23 17 24
REMARK SMILES IDX 19 25 18 26 21 27 23 28 22 29 24 30 25 31 26 32
REMARK H PARENT 13 18 13 19
ROOT
ATOM     1   N1  UNL     1      -0.587   0.463   1.457  1.00  0.00    -0.143 N   
ATOM     2   C7  UNL     1       0.644   1.065   1.651  1.00  0.00     0.139 A   
ATOM     3   C8  UNL     1       0.717   2.041   0.684  1.00  0.00     0.128 A   
ATOM     4   N3  UNL     1      -0.461   2.063  -0.014  1.00  0.00    -0.131 NA  
ATOM     5   N4  UNL     1      -1.252   1.122   0.478  1.00  0.00    -0.068 NA  
ENDROOT
BRANCH   1   6
ATOM     6   C6  UNL     1      -1.125  -0.651   2.119  1.00  0.00     0.272 C   
ATOM     7   O2  UNL     1      -0.446  -1.106   3.040  1.00  0.00    -0.269 OA  
BRANCH   6   8
ATOM     8   C5  UNL     1      -2.414  -1.308   1.805  1.00  0.00     0.058 A   
ATOM     9   C2  UNL     1      -4.776  -2.578   1.221  1.00  0.00     0.166 A   
ATOM     10  C3  UNL     1      -4.308  -2.618   2.524  1.00  0.00     0.055 A   
ATOM     11  N5  UNL     1      -4.124  -1.955   0.215  1.00  0.00    -0.232 NA  
ATOM     12  C4  UNL     1      -3.106  -1.978   2.819  1.00  0.00     0.020 A   
ATOM     13  C21 UNL     1      -2.957  -1.341   0.527  1.00  0.00     0.127 A   
BRANCH   9  14
ATOM     14  O1  UNL     1      -5.969  -3.224   0.980  1.00  0.00    -0.333 OA  
ATOM     15  C1  UNL     1      -6.387  -3.147  -0.379  1.00  0.00     0.205 C   
ENDBRANCH   9  14
ENDBRANCH   6   8
ENDBRANCH   1   6
BRANCH   3  16
ATOM     16  C9  UNL     1       1.852   2.916   0.254  1.00  0.00     0.117 C   
BRANCH  16  17
ATOM     17  N2  UNL     1       1.935   2.951  -1.262  1.00  0.00     0.249 N   
ATOM     18  H8  UNL     1       2.310   3.852  -1.575  1.00  0.00     0.199 HD  
ATOM     19  H9  UNL     1       0.963   2.907  -1.606  1.00  0.00     0.199 HD  
BRANCH  17  20
ATOM     20  C10 UNL     1       2.719   1.858  -1.919  1.00  0.00     0.164 C   
BRANCH  20  21
ATOM     21  C11 UNL     1       2.148   0.485  -1.702  1.00  0.00    -0.002 A   
ATOM     22  C12 UNL     1       0.967   0.085  -2.373  1.00  0.00     0.012 A   
ATOM     23  C16 UNL     1       2.739  -0.386  -0.770  1.00  0.00     0.045 A   
ATOM     24  C13 UNL     1       0.360  -1.144  -2.092  1.00  0.00     0.037 A   
ATOM     25  C15 UNL     1       2.109  -1.585  -0.508  1.00  0.00     0.109 A   
ATOM     26  C14 UNL     1       0.948  -1.949  -1.142  1.00  0.00     0.108 A   
ATOM     27  O3  UNL     1       2.514  -2.506   0.403  1.00  0.00    -0.316 OA  
ATOM     28  O4  UNL     1       0.471  -3.143  -0.705  1.00  0.00    -0.316 OA  
ATOM     29  C17 UNL     1       1.490  -3.516   0.249  1.00  0.00     0.337 C   
ENDBRANCH  20  21
ENDBRANCH  17  20
ENDBRANCH  16  17
BRANCH  16  30
ATOM     30  C18 UNL     1       1.762   4.372   0.780  1.00  0.00     0.037 C   
ATOM     31  C19 UNL     1       0.515   5.136   0.321  1.00  0.00     0.014 C   
ATOM     32  C20 UNL     1       1.868   4.424   2.309  1.00  0.00     0.014 C   
ENDBRANCH  16  30
ENDBRANCH   3  16
TORSDOF 8
