REMARK SMILES CC(C)C[C@H]([NH2+]Cc1ccc2c(c1)OCO2)c1cn(Cc2ccc(O)cc2)nn1
REMARK SMILES IDX 17 1 18 2 19 3 28 4 29 5 5 7 4 8 2 9 1 10 3 11 6 12 7 15
REMARK SMILES IDX 8 16 9 17 13 18 10 19 12 20 11 21 14 22 16 23 15 24 20 25
REMARK SMILES IDX 21 26 22 27 27 28 23 29 26 30 24 31 25 32
REMARK H PARENT 18 6 6 13 6 14 25 33
ROOT
ATOM     1   C14 UNL     1      -1.547   0.895  -0.670  1.00  0.00     0.127 A   
ATOM     2   C15 UNL     1      -1.313   0.120  -1.783  1.00  0.00     0.046 A   
ATOM     3   N2  UNL     1      -0.955   1.023  -2.746  1.00  0.00    -0.208 N   
ATOM     4   N3  UNL     1      -1.010   2.281  -2.266  1.00  0.00    -0.076 NA  
ATOM     5   N4  UNL     1      -1.381   2.216  -0.997  1.00  0.00    -0.132 NA  
ATOM     6   H20 UNL     1      -1.307  -0.948  -1.957  1.00  0.00     0.083 HD  
ENDROOT
BRANCH   1   7
ATOM     7   C5  UNL     1      -1.824   0.506   0.741  1.00  0.00     0.114 C   
BRANCH   7   8
ATOM     8   C4  UNL     1      -3.295   0.728   1.142  1.00  0.00     0.064 C   
BRANCH   8   9
ATOM     9   C2  UNL     1      -4.323  -0.115   0.357  1.00  0.00    -0.012 C   
ATOM     10  C1  UNL     1      -5.741   0.256   0.802  1.00  0.00     0.007 C   
ATOM     11  C3  UNL     1      -4.105  -1.618   0.538  1.00  0.00     0.007 C   
ENDBRANCH   8   9
ENDBRANCH   7   8
BRANCH   7  12
ATOM     12  N1  UNL     1      -0.980   1.326   1.700  1.00  0.00     0.249 N   
ATOM     13  H11 UNL     1      -1.252   2.309   1.564  1.00  0.00     0.199 HD  
ATOM     14  H12 UNL     1      -1.215   1.074   2.664  1.00  0.00     0.199 HD  
BRANCH  12  15
ATOM     15  C6  UNL     1       0.505   1.261   1.520  1.00  0.00     0.164 C   
BRANCH  15  16
ATOM     16  C7  UNL     1       1.065  -0.134   1.541  1.00  0.00    -0.002 A   
ATOM     17  C8  UNL     1       1.649  -0.680   0.372  1.00  0.00     0.012 A   
ATOM     18  C12 UNL     1       1.002  -0.912   2.709  1.00  0.00     0.045 A   
ATOM     19  C9  UNL     1       2.151  -1.985   0.357  1.00  0.00     0.037 A   
ATOM     20  C11 UNL     1       1.504  -2.197   2.660  1.00  0.00     0.109 A   
ATOM     21  C10 UNL     1       2.061  -2.719   1.518  1.00  0.00     0.108 A   
ATOM     22  O1  UNL     1       1.511  -3.080   3.693  1.00  0.00    -0.316 OA  
ATOM     23  O2  UNL     1       2.488  -3.997   1.689  1.00  0.00    -0.316 OA  
ATOM     24  C13 UNL     1       2.170  -4.213   3.080  1.00  0.00     0.337 C   
ENDBRANCH  15  16
ENDBRANCH  12  15
ENDBRANCH   7  12
ENDBRANCH   1   7
BRANCH   3  25
ATOM     25  C16 UNL     1      -0.448   0.752  -4.080  1.00  0.00     0.169 C   
BRANCH  25  26
ATOM     26  C17 UNL     1       0.961   0.216  -3.999  1.00  0.00    -0.028 A   
ATOM     27  C18 UNL     1       2.046   1.094  -3.838  1.00  0.00     0.008 A   
ATOM     28  C22 UNL     1       1.203  -1.166  -4.026  1.00  0.00     0.008 A   
ATOM     29  C19 UNL     1       3.346   0.601  -3.704  1.00  0.00     0.033 A   
ATOM     30  C21 UNL     1       2.501  -1.657  -3.886  1.00  0.00     0.033 A   
ATOM     31  C20 UNL     1       3.561  -0.772  -3.726  1.00  0.00     0.071 A   
BRANCH  31  32
ATOM     32  O3  UNL     1       4.808  -1.300  -3.588  1.00  0.00    -0.361 OA  
ATOM     33  H25 UNL     1       5.465  -0.586  -3.643  1.00  0.00     0.218 HD  
ENDBRANCH  31  32
ENDBRANCH  25  26
ENDBRANCH   3  25
TORSDOF 9
