REMARK SMILES CC(C)C[C@H]([NH2+]Cc1ccc2c(c1)OCO2)c1cn(Cc2c[nH]nc2-c2ccco2)nn1
REMARK SMILES IDX 17 1 18 2 19 3 31 4 32 5 5 7 4 8 2 9 1 10 3 11 6 12 7 15
REMARK SMILES IDX 8 16 9 17 13 18 10 19 12 20 11 21 14 22 16 23 15 24 20 25
REMARK SMILES IDX 21 26 22 27 25 28 23 29 24 30 26 32 27 33 30 34 28 35 29 36
REMARK H PARENT 18 6 6 13 6 14 23 31
ROOT
ATOM     1   C14 UNL     1      -0.367  -1.802  -1.794  1.00  0.00     0.127 A   
ATOM     2   C15 UNL     1      -0.419  -2.450  -0.580  1.00  0.00     0.046 A   
ATOM     3   N2  UNL     1       0.885  -2.787  -0.328  1.00  0.00    -0.208 N   
ATOM     4   N5  UNL     1       1.673  -2.437  -1.367  1.00  0.00    -0.076 NA  
ATOM     5   N6  UNL     1       0.922  -1.806  -2.255  1.00  0.00    -0.132 NA  
ATOM     6   H20 UNL     1      -1.217  -2.647   0.125  1.00  0.00     0.083 HD  
ENDROOT
BRANCH   1   7
ATOM     7   C5  UNL     1      -1.409  -1.040  -2.536  1.00  0.00     0.114 C   
BRANCH   7   8
ATOM     8   C4  UNL     1      -1.681  -1.579  -3.956  1.00  0.00     0.064 C   
BRANCH   8   9
ATOM     9   C2  UNL     1      -2.446  -2.916  -4.079  1.00  0.00    -0.012 C   
ATOM     10  C1  UNL     1      -3.795  -2.888  -3.360  1.00  0.00     0.007 C   
ATOM     11  C3  UNL     1      -1.631  -4.135  -3.647  1.00  0.00     0.007 C   
ENDBRANCH   8   9
ENDBRANCH   7   8
BRANCH   7  12
ATOM     12  N1  UNL     1      -0.937   0.391  -2.696  1.00  0.00     0.249 N   
ATOM     13  H11 UNL     1      -1.544   0.906  -3.341  1.00  0.00     0.199 HD  
ATOM     14  H12 UNL     1      -0.006   0.356  -3.134  1.00  0.00     0.199 HD  
BRANCH  12  15
ATOM     15  C6  UNL     1      -0.805   1.168  -1.430  1.00  0.00     0.164 C   
BRANCH  15  16
ATOM     16  C7  UNL     1      -0.476   2.604  -1.730  1.00  0.00    -0.002 A   
ATOM     17  C8  UNL     1       0.873   3.024  -1.821  1.00  0.00     0.012 A   
ATOM     18  C12 UNL     1      -1.506   3.527  -1.980  1.00  0.00     0.045 A   
ATOM     19  C9  UNL     1       1.195   4.349  -2.135  1.00  0.00     0.037 A   
ATOM     20  C11 UNL     1      -1.155   4.823  -2.297  1.00  0.00     0.109 A   
ATOM     21  C10 UNL     1       0.157   5.224  -2.369  1.00  0.00     0.108 A   
ATOM     22  O1  UNL     1      -2.025   5.829  -2.579  1.00  0.00    -0.316 OA  
ATOM     23  O2  UNL     1       0.279   6.538  -2.692  1.00  0.00    -0.316 OA  
ATOM     24  C13 UNL     1      -1.108   6.920  -2.827  1.00  0.00     0.337 C   
ENDBRANCH  15  16
ENDBRANCH  12  15
ENDBRANCH   7  12
ENDBRANCH   1   7
BRANCH   3  25
ATOM     25  C16 UNL     1       1.467  -3.376   0.872  1.00  0.00     0.173 C   
BRANCH  25  26
ATOM     26  C17 UNL     1       0.826  -2.852   2.114  1.00  0.00     0.017 A   
ATOM     27  C18 UNL     1       0.056  -3.551   3.025  1.00  0.00     0.099 A   
ATOM     28  C19 UNL     1       0.867  -1.532   2.641  1.00  0.00     0.118 A   
ATOM     29  N3  UNL     1      -0.313  -2.657   3.987  1.00  0.00    -0.245 N   
ATOM     30  N4  UNL     1       0.123  -1.413   3.747  1.00  0.00    -0.182 NA  
ATOM     31  H24 UNL     1      -0.865  -2.825   4.826  1.00  0.00     0.175 HD  
BRANCH  28  32
ATOM     32  C20 UNL     1       1.655  -0.319   2.047  1.00  0.00     0.109 A   
ATOM     33  C21 UNL     1       1.692   0.961   2.568  1.00  0.00     0.038 A   
ATOM     34  O3  UNL     1       2.436  -0.373   0.928  1.00  0.00    -0.316 OA  
ATOM     35  C22 UNL     1       2.571   1.711   1.748  1.00  0.00     0.028 A   
ATOM     36  C23 UNL     1       3.008   0.850   0.772  1.00  0.00     0.136 A   
ENDBRANCH  28  32
ENDBRANCH  25  26
ENDBRANCH   3  25
TORSDOF 9
