REMARK SMILES CC(C)C[C@H]([NH2+]Cc1ccc2c(c1)OCO2)c1cn([C@H](CO)c2cncc(F)c2)nn1
REMARK SMILES IDX 17 1 18 2 19 3 30 4 31 5 5 7 4 8 2 9 1 10 3 11 6 12 7 15
REMARK SMILES IDX 8 16 9 17 13 18 10 19 12 20 11 21 14 22 16 23 15 24 20 25
REMARK SMILES IDX 21 26 22 27 23 29 24 30 29 31 25 32 27 33 26 34 28 35
REMARK H PARENT 18 6 6 13 6 14 22 28
ROOT
ATOM     1   C14 UNL     1       1.675   0.518  -0.120  1.00  0.00     0.127 A   
ATOM     2   C15 UNL     1       0.990   1.530   0.512  1.00  0.00     0.046 A   
ATOM     3   N2  UNL     1       1.777   2.636   0.338  1.00  0.00    -0.202 N   
ATOM     4   N4  UNL     1       2.854   2.332  -0.411  1.00  0.00    -0.075 NA  
ATOM     5   N5  UNL     1       2.814   1.036  -0.678  1.00  0.00    -0.132 NA  
ATOM     6   H20 UNL     1       0.070   1.560   1.080  1.00  0.00     0.083 HD  
ENDROOT
BRANCH   1   7
ATOM     7   C5  UNL     1       1.361  -0.933  -0.284  1.00  0.00     0.114 C   
BRANCH   7   8
ATOM     8   C4  UNL     1       1.842  -1.784   0.910  1.00  0.00     0.064 C   
BRANCH   8   9
ATOM     9   C2  UNL     1       1.125  -1.510   2.251  1.00  0.00    -0.012 C   
ATOM     10  C1  UNL     1      -0.378  -1.790   2.176  1.00  0.00     0.007 C   
ATOM     11  C3  UNL     1       1.752  -2.364   3.358  1.00  0.00     0.007 C   
ENDBRANCH   8   9
ENDBRANCH   7   8
BRANCH   7  12
ATOM     12  N1  UNL     1       2.061  -1.475  -1.516  1.00  0.00     0.249 N   
ATOM     13  H11 UNL     1       3.031  -1.130  -1.466  1.00  0.00     0.199 HD  
ATOM     14  H12 UNL     1       2.097  -2.498  -1.486  1.00  0.00     0.199 HD  
BRANCH  12  15
ATOM     15  C6  UNL     1       1.506  -1.042  -2.834  1.00  0.00     0.164 C   
BRANCH  15  16
ATOM     16  C7  UNL     1       0.166  -1.654  -3.134  1.00  0.00    -0.002 A   
ATOM     17  C8  UNL     1       0.067  -3.025  -3.476  1.00  0.00     0.012 A   
ATOM     18  C12 UNL     1      -1.002  -0.874  -3.055  1.00  0.00     0.045 A   
ATOM     19  C9  UNL     1      -1.176  -3.612  -3.738  1.00  0.00     0.037 A   
ATOM     20  C11 UNL     1      -2.212  -1.482  -3.322  1.00  0.00     0.109 A   
ATOM     21  C10 UNL     1      -2.297  -2.811  -3.654  1.00  0.00     0.108 A   
ATOM     22  O1  UNL     1      -3.427  -0.872  -3.297  1.00  0.00    -0.316 OA  
ATOM     23  O2  UNL     1      -3.576  -3.206  -3.882  1.00  0.00    -0.316 OA  
ATOM     24  C13 UNL     1      -4.288  -1.963  -3.694  1.00  0.00     0.337 C   
ENDBRANCH  15  16
ENDBRANCH  12  15
ENDBRANCH   7  12
ENDBRANCH   1   7
BRANCH   3  25
ATOM     25  C16 UNL     1       1.584   3.999   0.837  1.00  0.00     0.157 C   
BRANCH  25  26
ATOM     26  C17 UNL     1       1.960   4.105   2.329  1.00  0.00     0.186 C   
BRANCH  26  27
ATOM     27  O3  UNL     1       1.200   3.223   3.152  1.00  0.00    -0.394 OA  
ATOM     28  H24 UNL     1       1.491   3.357   4.076  1.00  0.00     0.210 HD  
ENDBRANCH  26  27
ENDBRANCH  25  26
BRANCH  25  29
ATOM     29  C18 UNL     1       0.221   4.525   0.428  1.00  0.00    -0.002 A   
ATOM     30  C19 UNL     1      -0.896   4.497   1.264  1.00  0.00     0.117 A   
ATOM     31  C22 UNL     1       0.029   5.035  -0.867  1.00  0.00     0.048 A   
ATOM     32  N3  UNL     1      -2.130   4.924   0.904  1.00  0.00    -0.261 NA  
ATOM     33  C21 UNL     1      -1.226   5.486  -1.252  1.00  0.00     0.141 A   
ATOM     34  C20 UNL     1      -2.267   5.419  -0.347  1.00  0.00     0.150 A   
ATOM     35  F1  UNL     1      -1.420   5.966  -2.488  1.00  0.00    -0.205 F   
ENDBRANCH  25  29
ENDBRANCH   3  25
TORSDOF 10
