REMARK SMILES CC(C)C[C@H]([NH2+]Cc1ccc2c(c1)OCO2)c1cn([C@@H](CO)c2cncc(F)c2)nn1
REMARK SMILES IDX 17 1 18 2 19 3 30 4 31 5 5 7 4 8 2 9 1 10 3 11 6 12 7 15
REMARK SMILES IDX 8 16 9 17 13 18 10 19 12 20 11 21 14 22 16 23 15 24 20 25
REMARK SMILES IDX 21 26 22 27 23 29 24 30 29 31 25 32 27 33 26 34 28 35
REMARK H PARENT 18 6 6 13 6 14 22 28
ROOT
ATOM     1   C14 UNL     1      -1.656   0.790   0.109  1.00  0.00     0.127 A   
ATOM     2   C15 UNL     1      -0.969  -0.331   0.511  1.00  0.00     0.046 A   
ATOM     3   N2  UNL     1      -1.785  -1.370   0.152  1.00  0.00    -0.202 N   
ATOM     4   N4  UNL     1      -2.902  -0.911  -0.451  1.00  0.00    -0.075 NA  
ATOM     5   N5  UNL     1      -2.834   0.410  -0.481  1.00  0.00    -0.132 NA  
ATOM     6   H20 UNL     1      -0.009  -0.487   0.985  1.00  0.00     0.083 HD  
ENDROOT
BRANCH   1   7
ATOM     7   C5  UNL     1      -1.298   2.236   0.162  1.00  0.00     0.114 C   
BRANCH   7   8
ATOM     8   C4  UNL     1      -2.046   2.986   1.281  1.00  0.00     0.064 C   
BRANCH   8   9
ATOM     9   C2  UNL     1      -1.740   2.502   2.715  1.00  0.00    -0.012 C   
ATOM     10  C1  UNL     1      -0.261   2.645   3.077  1.00  0.00     0.007 C   
ATOM     11  C3  UNL     1      -2.594   3.284   3.717  1.00  0.00     0.007 C   
ENDBRANCH   8   9
ENDBRANCH   7   8
BRANCH   7  12
ATOM     12  N1  UNL     1      -1.680   2.893  -1.153  1.00  0.00     0.249 N   
ATOM     13  H11 UNL     1      -2.468   2.339  -1.526  1.00  0.00     0.199 HD  
ATOM     14  H12 UNL     1      -2.053   3.833  -0.989  1.00  0.00     0.199 HD  
BRANCH  12  15
ATOM     15  C6  UNL     1      -0.614   2.967  -2.191  1.00  0.00     0.164 C   
BRANCH  15  16
ATOM     16  C7  UNL     1      -0.123   1.630  -2.670  1.00  0.00    -0.002 A   
ATOM     17  C8  UNL     1       1.149   1.151  -2.276  1.00  0.00     0.012 A   
ATOM     18  C12 UNL     1      -0.938   0.828  -3.489  1.00  0.00     0.045 A   
ATOM     19  C9  UNL     1       1.601  -0.112  -2.677  1.00  0.00     0.037 A   
ATOM     20  C11 UNL     1      -0.461  -0.409  -3.871  1.00  0.00     0.109 A   
ATOM     21  C10 UNL     1       0.770  -0.868  -3.473  1.00  0.00     0.108 A   
ATOM     22  O1  UNL     1      -1.121  -1.304  -4.653  1.00  0.00    -0.316 OA  
ATOM     23  O2  UNL     1       1.031  -2.119  -3.937  1.00  0.00    -0.316 OA  
ATOM     24  C13 UNL     1      -0.134  -2.353  -4.759  1.00  0.00     0.337 C   
ENDBRANCH  15  16
ENDBRANCH  12  15
ENDBRANCH   7  12
ENDBRANCH   1   7
BRANCH   3  25
ATOM     25  C16 UNL     1      -1.588  -2.808   0.339  1.00  0.00     0.157 C   
BRANCH  25  26
ATOM     26  C17 UNL     1      -0.608  -3.372  -0.710  1.00  0.00     0.186 C   
BRANCH  26  27
ATOM     27  O3  UNL     1       0.681  -2.764  -0.647  1.00  0.00    -0.394 OA  
ATOM     28  H24 UNL     1       1.183  -3.078  -1.424  1.00  0.00     0.210 HD  
ENDBRANCH  26  27
ENDBRANCH  25  26
BRANCH  25  29
ATOM     29  C18 UNL     1      -1.308  -3.121   1.797  1.00  0.00    -0.002 A   
ATOM     30  C19 UNL     1      -0.028  -3.343   2.304  1.00  0.00     0.117 A   
ATOM     31  C22 UNL     1      -2.368  -3.157   2.719  1.00  0.00     0.048 A   
ATOM     32  N3  UNL     1       0.244  -3.587   3.609  1.00  0.00    -0.261 NA  
ATOM     33  C21 UNL     1      -2.111  -3.414   4.059  1.00  0.00     0.141 A   
ATOM     34  C20 UNL     1      -0.807  -3.624   4.460  1.00  0.00     0.150 A   
ATOM     35  F1  UNL     1      -3.115  -3.447   4.942  1.00  0.00    -0.205 F   
ENDBRANCH  25  29
ENDBRANCH   3  25
TORSDOF 10
