REMARK SMILES CC(C)[C@H]([NH2+]Cc1ccc2c(c1)OCO2)c1cn(Cc2ccc(F)cc2F)nn1
REMARK SMILES IDX 16 1 17 2 18 3 28 4 29 5 4 7 2 8 1 9 3 10 5 11 6 14 7 15
REMARK SMILES IDX 8 16 12 17 9 18 11 19 10 20 13 21 15 22 14 23 19 24 20 25
REMARK SMILES IDX 21 26 26 27 22 28 25 29 23 30 27 31 24 32
REMARK H PARENT 17 6 5 12 5 13
ROOT
ATOM     1   C13 UNL     1       0.201  -0.874  -1.502  1.00  0.00     0.127 A   
ATOM     2   C14 UNL     1      -0.846  -0.840  -0.608  1.00  0.00     0.046 A   
ATOM     3   N2  UNL     1      -0.989  -2.144  -0.218  1.00  0.00    -0.208 N   
ATOM     4   N3  UNL     1      -0.090  -2.934  -0.837  1.00  0.00    -0.076 NA  
ATOM     5   N4  UNL     1       0.645  -2.168  -1.626  1.00  0.00    -0.132 NA  
ATOM     6   H18 UNL     1      -1.468  -0.047  -0.217  1.00  0.00     0.083 HD  
ENDROOT
BRANCH   1   7
ATOM     7   C4  UNL     1       0.905   0.211  -2.250  1.00  0.00     0.117 C   
BRANCH   7   8
ATOM     8   C2  UNL     1       0.307   0.501  -3.652  1.00  0.00     0.037 C   
ATOM     9   C1  UNL     1      -1.097   1.110  -3.551  1.00  0.00     0.014 C   
ATOM     10  C3  UNL     1       0.277  -0.714  -4.587  1.00  0.00     0.014 C   
ENDBRANCH   7   8
BRANCH   7  11
ATOM     11  N1  UNL     1       2.365  -0.166  -2.418  1.00  0.00     0.249 N   
ATOM     12  H9  UNL     1       2.691   0.057  -3.363  1.00  0.00     0.199 HD  
ATOM     13  H10 UNL     1       2.400  -1.196  -2.345  1.00  0.00     0.199 HD  
BRANCH  11  14
ATOM     14  C5  UNL     1       3.319   0.412  -1.432  1.00  0.00     0.164 C   
BRANCH  14  15
ATOM     15  C6  UNL     1       3.050   0.040  -0.001  1.00  0.00    -0.002 A   
ATOM     16  C7  UNL     1       3.201  -1.298   0.438  1.00  0.00     0.012 A   
ATOM     17  C11 UNL     1       2.646   1.023   0.918  1.00  0.00     0.045 A   
ATOM     18  C8  UNL     1       2.952  -1.653   1.768  1.00  0.00     0.037 A   
ATOM     19  C10 UNL     1       2.417   0.641   2.224  1.00  0.00     0.109 A   
ATOM     20  C9  UNL     1       2.567  -0.659   2.638  1.00  0.00     0.108 A   
ATOM     21  O1  UNL     1       2.037   1.467   3.234  1.00  0.00    -0.316 OA  
ATOM     22  O2  UNL     1       2.306  -0.814   3.962  1.00  0.00    -0.316 OA  
ATOM     23  C12 UNL     1       2.026   0.547   4.350  1.00  0.00     0.337 C   
ENDBRANCH  14  15
ENDBRANCH  11  14
ENDBRANCH   7  11
ENDBRANCH   1   7
BRANCH   3  24
ATOM     24  C15 UNL     1      -1.964  -2.708   0.698  1.00  0.00     0.172 C   
BRANCH  24  25
ATOM     25  C16 UNL     1      -1.574  -2.460   2.129  1.00  0.00     0.007 A   
ATOM     26  C17 UNL     1      -0.768  -3.369   2.831  1.00  0.00     0.011 A   
ATOM     27  C21 UNL     1      -1.995  -1.294   2.779  1.00  0.00     0.130 A   
ATOM     28  C18 UNL     1      -0.414  -3.109   4.157  1.00  0.00     0.040 A   
ATOM     29  C20 UNL     1      -1.650  -1.030   4.097  1.00  0.00     0.078 A   
ATOM     30  C19 UNL     1      -0.861  -1.945   4.776  1.00  0.00     0.126 A   
ATOM     31  F2  UNL     1      -2.740  -0.401   2.111  1.00  0.00    -0.207 F   
ATOM     32  F1  UNL     1      -0.506  -1.694   6.042  1.00  0.00    -0.207 F   
ENDBRANCH  24  25
ENDBRANCH   3  24
TORSDOF 7
