REMARK SMILES Fc1ccc(F)c(Cn2cc([C@@H]([NH2+]Cc3ccc4c(c3)OCO4)C3CCCCC3)nn2)c1
REMARK SMILES IDX 9 1 10 2 11 3 30 4 31 5 8 7 7 8 2 9 3 10 32 11 4 12 5 13
REMARK SMILES IDX 1 14 6 15 12 16 13 17 14 20 15 21 16 22 20 23 17 24 19 25
REMARK SMILES IDX 18 26 21 27 23 28 22 29 24 30 25 31 29 32 26 33 28 34 27 35
REMARK H PARENT 10 6 13 18 13 19
ROOT
ATOM     1   N1  UNL     1      -0.848   1.465  -0.773  1.00  0.00    -0.208 N   
ATOM     2   C7  UNL     1       0.008   0.416  -0.969  1.00  0.00     0.046 A   
ATOM     3   C8  UNL     1      -0.777  -0.696  -0.762  1.00  0.00     0.127 A   
ATOM     4   N3  UNL     1      -2.054  -0.296  -0.458  1.00  0.00    -0.132 NA  
ATOM     5   N4  UNL     1      -2.087   1.026  -0.476  1.00  0.00    -0.076 NA  
ATOM     6   H5  UNL     1       1.051   0.558  -1.213  1.00  0.00     0.083 HD  
ENDROOT
BRANCH   1   7
ATOM     7   C6  UNL     1      -0.571   2.885  -0.895  1.00  0.00     0.172 C   
BRANCH   7   8
ATOM     8   C5  UNL     1      -0.013   3.446   0.382  1.00  0.00     0.010 A   
ATOM     9   C1  UNL     1      -0.296   4.581   2.498  1.00  0.00     0.123 A   
ATOM     10  C2  UNL     1       1.066   4.481   2.762  1.00  0.00     0.042 A   
ATOM     11  C24 UNL     1      -0.843   4.069   1.323  1.00  0.00     0.047 A   
ATOM     12  C3  UNL     1       1.899   3.854   1.838  1.00  0.00     0.042 A   
ATOM     13  C4  UNL     1       1.355   3.341   0.663  1.00  0.00     0.128 A   
ATOM     14  F1  UNL     1      -1.099   5.162   3.396  1.00  0.00    -0.207 F   
ATOM     15  F2  UNL     1       2.163   2.727  -0.212  1.00  0.00    -0.207 F   
ENDBRANCH   7   8
ENDBRANCH   1   7
BRANCH   3  16
ATOM     16  C9  UNL     1      -0.446  -2.152  -0.765  1.00  0.00     0.117 C   
BRANCH  16  17
ATOM     17  N2  UNL     1      -1.278  -2.871   0.277  1.00  0.00     0.249 N   
ATOM     18  H7  UNL     1      -2.150  -2.323   0.372  1.00  0.00     0.199 HD  
ATOM     19  H8  UNL     1      -1.560  -3.795  -0.062  1.00  0.00     0.199 HD  
BRANCH  17  20
ATOM     20  C10 UNL     1      -0.665  -3.021   1.626  1.00  0.00     0.164 C   
BRANCH  20  21
ATOM     21  C11 UNL     1      -0.525  -1.732   2.385  1.00  0.00    -0.002 A   
ATOM     22  C12 UNL     1       0.740  -1.117   2.537  1.00  0.00     0.012 A   
ATOM     23  C16 UNL     1      -1.661  -1.120   2.941  1.00  0.00     0.045 A   
ATOM     24  C13 UNL     1       0.874   0.089   3.233  1.00  0.00     0.037 A   
ATOM     25  C15 UNL     1      -1.493   0.066   3.623  1.00  0.00     0.109 A   
ATOM     26  C14 UNL     1      -0.262   0.654   3.767  1.00  0.00     0.108 A   
ATOM     27  O1  UNL     1      -2.483   0.774   4.229  1.00  0.00    -0.316 OA  
ATOM     28  O2  UNL     1      -0.317   1.804   4.487  1.00  0.00    -0.316 OA  
ATOM     29  C17 UNL     1      -1.731   1.883   4.772  1.00  0.00     0.337 C   
ENDBRANCH  20  21
ENDBRANCH  17  20
ENDBRANCH  16  17
BRANCH  16  30
ATOM     30  C18 UNL     1      -0.662  -2.849  -2.135  1.00  0.00     0.043 C   
ATOM     31  C19 UNL     1      -2.111  -2.788  -2.657  1.00  0.00     0.010 C   
ATOM     32  C23 UNL     1       0.309  -2.314  -3.206  1.00  0.00     0.010 C   
ATOM     33  C20 UNL     1      -2.261  -3.535  -3.982  1.00  0.00     0.001 C   
ATOM     34  C22 UNL     1       0.156  -3.063  -4.529  1.00  0.00     0.001 C   
ATOM     35  C21 UNL     1      -1.282  -3.023  -5.034  1.00  0.00     0.000 C   
ENDBRANCH  16  30
ENDBRANCH   3  16
TORSDOF 7
