REMARK SMILES Cc1c(CCn2cc([C@@H]([NH2+]Cc3ccc4c(c3)OCO4)C3CCCCC3)nn2)cnn1C
REMARK SMILES IDX 6 1 7 2 8 3 27 4 28 5 5 7 4 8 3 9 2 10 31 11 29 12 30 13
REMARK SMILES IDX 1 14 32 15 9 16 10 17 11 20 12 21 13 22 17 23 14 24 16 25
REMARK SMILES IDX 15 26 18 27 20 28 19 29 21 30 22 31 26 32 23 33 25 34 24 35
REMARK H PARENT 7 6 10 18 10 19
ROOT
ATOM     1   N1  UNL     1      -2.720   0.859   1.549  1.00  0.00    -0.212 N   
ATOM     2   C6  UNL     1      -1.880  -0.202   1.765  1.00  0.00     0.045 A   
ATOM     3   C7  UNL     1      -0.633   0.306   1.465  1.00  0.00     0.127 A   
ATOM     4   N3  UNL     1      -0.736   1.660   1.276  1.00  0.00    -0.132 NA  
ATOM     5   N4  UNL     1      -2.019   1.989   1.333  1.00  0.00    -0.076 NA  
ATOM     6   H8  UNL     1      -2.249  -1.204   1.927  1.00  0.00     0.083 HD  
ENDROOT
BRANCH   1   7
ATOM     7   C5  UNL     1      -4.124   0.777   1.191  1.00  0.00     0.139 C   
BRANCH   7   8
ATOM     8   C4  UNL     1      -4.346   0.761  -0.334  1.00  0.00     0.060 C   
BRANCH   8   9
ATOM     9   C3  UNL     1      -3.412  -0.175  -1.046  1.00  0.00    -0.008 A   
ATOM     10  C2  UNL     1      -3.487  -1.546  -1.224  1.00  0.00     0.029 A   
ATOM     11  N6  UNL     1      -2.304  -1.905  -1.830  1.00  0.00    -0.233 N   
ATOM     12  C23 UNL     1      -2.161   0.180  -1.595  1.00  0.00     0.136 A   
ATOM     13  N5  UNL     1      -1.406  -0.888  -1.878  1.00  0.00    -0.190 NA  
ATOM     14  C1  UNL     1      -4.557  -2.515  -0.873  1.00  0.00     0.064 C   
ATOM     15  C24 UNL     1      -1.908  -3.211  -2.311  1.00  0.00     0.159 C   
ENDBRANCH   8   9
ENDBRANCH   7   8
ENDBRANCH   1   7
BRANCH   3  16
ATOM     16  C8  UNL     1       0.645  -0.423   1.198  1.00  0.00     0.117 C   
BRANCH  16  17
ATOM     17  N2  UNL     1       0.995  -0.380  -0.273  1.00  0.00     0.249 N   
ATOM     18  H10 UNL     1       0.141  -0.636  -0.815  1.00  0.00     0.199 HD  
ATOM     19  H11 UNL     1       1.665  -1.118  -0.501  1.00  0.00     0.199 HD  
BRANCH  17  20
ATOM     20  C9  UNL     1       1.463   0.912  -0.853  1.00  0.00     0.164 C   
BRANCH  20  21
ATOM     21  C10 UNL     1       1.992   0.721  -2.251  1.00  0.00    -0.002 A   
ATOM     22  C11 UNL     1       3.270   0.147  -2.466  1.00  0.00     0.012 A   
ATOM     23  C15 UNL     1       1.209   1.096  -3.357  1.00  0.00     0.045 A   
ATOM     24  C12 UNL     1       3.761  -0.050  -3.762  1.00  0.00     0.037 A   
ATOM     25  C14 UNL     1       1.726   0.897  -4.620  1.00  0.00     0.109 A   
ATOM     26  C13 UNL     1       2.965   0.339  -4.818  1.00  0.00     0.108 A   
ATOM     27  O1  UNL     1       1.106   1.217  -5.787  1.00  0.00    -0.316 OA  
ATOM     28  O2  UNL     1       3.283   0.232  -6.134  1.00  0.00    -0.316 OA  
ATOM     29  C16 UNL     1       2.111   0.817  -6.747  1.00  0.00     0.337 C   
ENDBRANCH  20  21
ENDBRANCH  17  20
ENDBRANCH  16  17
BRANCH  16  30
ATOM     30  C17 UNL     1       1.826   0.017   2.105  1.00  0.00     0.043 C   
ATOM     31  C18 UNL     1       1.476  -0.169   3.600  1.00  0.00     0.010 C   
ATOM     32  C22 UNL     1       3.126  -0.752   1.788  1.00  0.00     0.010 C   
ATOM     33  C19 UNL     1       2.628   0.232   4.518  1.00  0.00     0.001 C   
ATOM     34  C21 UNL     1       4.273  -0.348   2.709  1.00  0.00     0.001 C   
ATOM     35  C20 UNL     1       3.908  -0.519   4.176  1.00  0.00     0.000 C   
ENDBRANCH  16  30
ENDBRANCH   3  16
TORSDOF 8
