REMARK SMILES CC(C)(C)[C@H]([NH2+]Cc1ccc2c(c1)OCO2)c1cn(CCc2ccc(F)cc2)nn1
REMARK SMILES IDX 17 1 18 2 19 3 29 4 30 5 5 7 2 8 1 9 3 10 4 11 6 12 7 15
REMARK SMILES IDX 8 16 9 17 13 18 10 19 12 20 11 21 14 22 16 23 15 24 20 25
REMARK SMILES IDX 21 26 22 27 23 28 28 29 24 30 27 31 25 32 26 33
REMARK H PARENT 18 6 6 13 6 14
ROOT
ATOM     1   C14 UNL     1       0.887  -0.751  -1.545  1.00  0.00     0.127 A   
ATOM     2   C15 UNL     1       0.064  -0.033  -2.385  1.00  0.00     0.045 A   
ATOM     3   N2  UNL     1      -0.701  -0.988  -2.991  1.00  0.00    -0.212 N   
ATOM     4   N3  UNL     1      -0.384  -2.217  -2.545  1.00  0.00    -0.076 NA  
ATOM     5   N4  UNL     1       0.589  -2.085  -1.657  1.00  0.00    -0.132 NA  
ATOM     6   H20 UNL     1      -0.054   1.022  -2.587  1.00  0.00     0.083 HD  
ENDROOT
BRANCH   1   7
ATOM     7   C5  UNL     1       1.908  -0.301  -0.544  1.00  0.00     0.120 C   
BRANCH   7   8
ATOM     8   C2  UNL     1       3.382  -0.302  -1.084  1.00  0.00     0.010 C   
ATOM     9   C1  UNL     1       3.894  -1.714  -1.429  1.00  0.00     0.017 C   
ATOM     10  C3  UNL     1       3.482   0.574  -2.355  1.00  0.00     0.017 C   
ATOM     11  C4  UNL     1       4.337   0.318  -0.036  1.00  0.00     0.017 C   
ENDBRANCH   7   8
BRANCH   7  12
ATOM     12  N1  UNL     1       1.799  -1.175   0.691  1.00  0.00     0.250 N   
ATOM     13  H11 UNL     1       2.609  -1.056   1.302  1.00  0.00     0.199 HD  
ATOM     14  H12 UNL     1       1.808  -2.148   0.354  1.00  0.00     0.199 HD  
BRANCH  12  15
ATOM     15  C6  UNL     1       0.559  -1.009   1.508  1.00  0.00     0.164 C   
BRANCH  15  16
ATOM     16  C7  UNL     1       0.474   0.334   2.177  1.00  0.00    -0.002 A   
ATOM     17  C8  UNL     1      -0.444   1.305   1.711  1.00  0.00     0.012 A   
ATOM     18  C12 UNL     1       1.325   0.648   3.251  1.00  0.00     0.045 A   
ATOM     19  C9  UNL     1      -0.518   2.570   2.303  1.00  0.00     0.037 A   
ATOM     20  C11 UNL     1       1.229   1.905   3.809  1.00  0.00     0.109 A   
ATOM     21  C10 UNL     1       0.334   2.840   3.349  1.00  0.00     0.108 A   
ATOM     22  O1  UNL     1       1.978   2.368   4.844  1.00  0.00    -0.316 OA  
ATOM     23  O2  UNL     1       0.406   4.008   4.037  1.00  0.00    -0.316 OA  
ATOM     24  C13 UNL     1       1.428   3.696   5.008  1.00  0.00     0.337 C   
ENDBRANCH  15  16
ENDBRANCH  12  15
ENDBRANCH   7  12
ENDBRANCH   1   7
BRANCH   3  25
ATOM     25  C16 UNL     1      -1.760  -0.801  -3.961  1.00  0.00     0.139 C   
BRANCH  25  26
ATOM     26  C17 UNL     1      -3.155  -1.059  -3.387  1.00  0.00     0.057 C   
BRANCH  26  27
ATOM     27  C18 UNL     1      -3.501  -0.161  -2.220  1.00  0.00    -0.046 A   
ATOM     28  C19 UNL     1      -3.627  -0.701  -0.930  1.00  0.00     0.007 A   
ATOM     29  C23 UNL     1      -3.695   1.216  -2.408  1.00  0.00     0.007 A   
ATOM     30  C20 UNL     1      -3.933   0.123   0.152  1.00  0.00     0.039 A   
ATOM     31  C22 UNL     1      -3.992   2.040  -1.322  1.00  0.00     0.039 A   
ATOM     32  C21 UNL     1      -4.106   1.487  -0.052  1.00  0.00     0.123 A   
ATOM     33  F1  UNL     1      -4.373   2.280   0.992  1.00  0.00    -0.207 F   
ENDBRANCH  26  27
ENDBRANCH  25  26
ENDBRANCH   3  25
TORSDOF 8
