REMARK SMILES CC(C)C[C@H]([NH2+]Cc1ccc2c(c1)OCO2)c1cn(CCc2cccc(N(C)C)c2)nn1
REMARK SMILES IDX 17 1 18 2 19 3 31 4 32 5 5 7 4 8 2 9 1 10 3 11 6 12 7 15
REMARK SMILES IDX 8 16 9 17 13 18 10 19 12 20 11 21 14 22 16 23 15 24 20 25
REMARK SMILES IDX 21 26 22 27 23 28 30 29 24 30 26 31 25 32 27 33 28 34 29 35
REMARK H PARENT 18 6 6 13 6 14
ROOT
ATOM     1   C14 UNL     1       1.154  -2.884  -0.721  1.00  0.00     0.127 A   
ATOM     2   C15 UNL     1       1.517  -2.340  -1.938  1.00  0.00     0.045 A   
ATOM     3   N2  UNL     1       0.959  -3.192  -2.854  1.00  0.00    -0.212 N   
ATOM     4   N4  UNL     1       0.441  -4.274  -2.248  1.00  0.00    -0.076 NA  
ATOM     5   N5  UNL     1       0.518  -4.076  -0.941  1.00  0.00    -0.132 NA  
ATOM     6   H20 UNL     1       1.986  -1.411  -2.228  1.00  0.00     0.083 HD  
ENDROOT
BRANCH   1   7
ATOM     7   C5  UNL     1       1.274  -2.290   0.649  1.00  0.00     0.114 C   
BRANCH   7   8
ATOM     8   C4  UNL     1       0.959  -3.267   1.799  1.00  0.00     0.064 C   
BRANCH   8   9
ATOM     9   C2  UNL     1       1.940  -4.455   1.935  1.00  0.00    -0.012 C   
ATOM     10  C1  UNL     1       1.453  -5.398   3.039  1.00  0.00     0.007 C   
ATOM     11  C3  UNL     1       3.367  -3.998   2.240  1.00  0.00     0.007 C   
ENDBRANCH   8   9
ENDBRANCH   7   8
BRANCH   7  12
ATOM     12  N1  UNL     1       0.359  -1.091   0.761  1.00  0.00     0.249 N   
ATOM     13  H11 UNL     1       0.415  -0.563  -0.118  1.00  0.00     0.199 HD  
ATOM     14  H12 UNL     1      -0.643  -1.376   0.752  1.00  0.00     0.199 HD  
BRANCH  12  15
ATOM     15  C6  UNL     1       0.623  -0.166   1.889  1.00  0.00     0.164 C   
BRANCH  15  16
ATOM     16  C7  UNL     1       0.041   1.200   1.655  1.00  0.00    -0.002 A   
ATOM     17  C8  UNL     1       0.663   2.097   0.752  1.00  0.00     0.012 A   
ATOM     18  C12 UNL     1      -1.133   1.592   2.318  1.00  0.00     0.045 A   
ATOM     19  C9  UNL     1       0.121   3.364   0.508  1.00  0.00     0.037 A   
ATOM     20  C11 UNL     1      -1.642   2.846   2.055  1.00  0.00     0.109 A   
ATOM     21  C10 UNL     1      -1.034   3.707   1.174  1.00  0.00     0.108 A   
ATOM     22  O1  UNL     1      -2.772   3.371   2.598  1.00  0.00    -0.316 OA  
ATOM     23  O2  UNL     1      -1.701   4.884   1.056  1.00  0.00    -0.316 OA  
ATOM     24  C13 UNL     1      -2.787   4.681   1.986  1.00  0.00     0.337 C   
ENDBRANCH  15  16
ENDBRANCH  12  15
ENDBRANCH   7  12
ENDBRANCH   1   7
BRANCH   3  25
ATOM     25  C16 UNL     1       0.639  -2.896  -4.237  1.00  0.00     0.139 C   
BRANCH  25  26
ATOM     26  C17 UNL     1      -0.841  -2.527  -4.442  1.00  0.00     0.057 C   
BRANCH  26  27
ATOM     27  C18 UNL     1      -1.318  -1.450  -3.486  1.00  0.00    -0.045 A   
ATOM     28  C19 UNL     1      -1.126  -0.099  -3.766  1.00  0.00     0.004 A   
ATOM     29  C25 UNL     1      -1.867  -1.825  -2.241  1.00  0.00     0.027 A   
ATOM     30  C20 UNL     1      -1.457   0.851  -2.805  1.00  0.00     0.002 A   
ATOM     31  C22 UNL     1      -2.180  -0.896  -1.236  1.00  0.00     0.028 A   
ATOM     32  C21 UNL     1      -1.958   0.455  -1.558  1.00  0.00     0.023 A   
BRANCH  31  33
ATOM     33  N3  UNL     1      -2.571  -1.287   0.078  1.00  0.00    -0.337 N   
ATOM     34  C23 UNL     1      -3.668  -0.435   0.606  1.00  0.00     0.129 C   
ATOM     35  C24 UNL     1      -2.904  -2.722   0.252  1.00  0.00     0.129 C   
ENDBRANCH  31  33
ENDBRANCH  26  27
ENDBRANCH  25  26
ENDBRANCH   3  25
TORSDOF 10
