REMARK SMILES COc1ccc(CCn2cc([C@@H]([NH2+]Cc3ccc4c(c3)OCO4)C(C)(C)C)nn2)c(F)c1
REMARK SMILES IDX 9 1 10 2 11 3 28 4 29 5 8 7 7 8 6 9 3 10 4 11 32 12 5 13
REMARK SMILES IDX 30 14 31 15 2 16 1 17 12 18 13 19 14 22 15 23 16 24 20 25
REMARK SMILES IDX 17 26 19 27 18 28 21 29 23 30 22 31 24 32 25 33 26 34 27 35
REMARK H PARENT 10 6 13 20 13 21
ROOT
ATOM     1   N1  UNL     1       1.810  -1.351   1.136  1.00  0.00    -0.212 N   
ATOM     2   C8  UNL     1       1.683  -0.373   0.190  1.00  0.00     0.045 A   
ATOM     3   C9  UNL     1       1.391   0.757   0.921  1.00  0.00     0.127 A   
ATOM     4   N3  UNL     1       1.376   0.439   2.255  1.00  0.00    -0.132 NA  
ATOM     5   N4  UNL     1       1.631  -0.852   2.373  1.00  0.00    -0.076 NA  
ATOM     6   H10 UNL     1       1.771  -0.574  -0.869  1.00  0.00     0.083 HD  
ENDROOT
BRANCH   1   7
ATOM     7   C7  UNL     1       2.061  -2.763   0.947  1.00  0.00     0.139 C   
BRANCH   7   8
ATOM     8   C6  UNL     1       0.786  -3.606   0.993  1.00  0.00     0.060 C   
BRANCH   8   9
ATOM     9   C5  UNL     1      -0.005  -3.559  -0.292  1.00  0.00    -0.010 A   
ATOM     10  C2  UNL     1      -1.473  -3.479  -2.700  1.00  0.00     0.077 A   
ATOM     11  C3  UNL     1      -0.469  -4.432  -2.517  1.00  0.00     0.034 A   
ATOM     12  C24 UNL     1      -1.736  -2.563  -1.681  1.00  0.00     0.073 A   
ATOM     13  C4  UNL     1       0.261  -4.472  -1.322  1.00  0.00     0.009 A   
ATOM     14  C23 UNL     1      -1.008  -2.607  -0.495  1.00  0.00     0.129 A   
ATOM     15  F1  UNL     1      -1.270  -1.696   0.455  1.00  0.00    -0.207 F   
BRANCH  10  16
ATOM     16  O1  UNL     1      -2.248  -3.332  -3.816  1.00  0.00    -0.349 OA  
ATOM     17  C1  UNL     1      -2.152  -4.351  -4.807  1.00  0.00     0.203 C   
ENDBRANCH  10  16
ENDBRANCH   8   9
ENDBRANCH   7   8
ENDBRANCH   1   7
BRANCH   3  18
ATOM     18  C10 UNL     1       1.011   2.142   0.495  1.00  0.00     0.120 C   
BRANCH  18  19
ATOM     19  N2  UNL     1      -0.085   2.647   1.416  1.00  0.00     0.250 N   
ATOM     20  H12 UNL     1       0.250   2.473   2.374  1.00  0.00     0.199 HD  
ATOM     21  H13 UNL     1      -0.224   3.654   1.317  1.00  0.00     0.199 HD  
BRANCH  19  22
ATOM     22  C11 UNL     1      -1.411   1.969   1.298  1.00  0.00     0.164 C   
BRANCH  22  23
ATOM     23  C12 UNL     1      -2.139   2.338   0.036  1.00  0.00    -0.002 A   
ATOM     24  C13 UNL     1      -2.826   3.571  -0.065  1.00  0.00     0.012 A   
ATOM     25  C17 UNL     1      -2.112   1.470  -1.069  1.00  0.00     0.045 A   
ATOM     26  C14 UNL     1      -3.482   3.934  -1.247  1.00  0.00     0.037 A   
ATOM     27  C16 UNL     1      -2.765   1.858  -2.219  1.00  0.00     0.109 A   
ATOM     28  C15 UNL     1      -3.432   3.055  -2.306  1.00  0.00     0.108 A   
ATOM     29  O2  UNL     1      -2.827   1.143  -3.372  1.00  0.00    -0.316 OA  
ATOM     30  O3  UNL     1      -4.006   3.242  -3.524  1.00  0.00    -0.316 OA  
ATOM     31  C18 UNL     1      -3.651   2.009  -4.188  1.00  0.00     0.337 C   
ENDBRANCH  22  23
ENDBRANCH  19  22
ENDBRANCH  18  19
BRANCH  18  32
ATOM     32  C19 UNL     1       2.208   3.157   0.464  1.00  0.00     0.010 C   
ATOM     33  C20 UNL     1       1.744   4.514  -0.114  1.00  0.00     0.017 C   
ATOM     34  C21 UNL     1       2.817   3.407   1.857  1.00  0.00     0.017 C   
ATOM     35  C22 UNL     1       3.323   2.629  -0.468  1.00  0.00     0.017 C   
ENDBRANCH  18  32
ENDBRANCH   3  18
TORSDOF 9
