REMARK SMILES COc1ccc(C(=O)Cn2cc([C@@H]([NH2+]Cc3ccc4c(c3)OCO4)C3CCCCC3)nn2)cc1
REMARK SMILES IDX 10 1 11 2 12 3 31 4 32 5 9 7 7 8 8 9 6 10 3 11 4 12 34 13
REMARK SMILES IDX 5 14 33 15 2 16 1 17 13 18 14 19 15 22 16 23 17 24 21 25
REMARK SMILES IDX 18 26 20 27 19 28 22 29 24 30 23 31 25 32 26 33 30 34 27 35
REMARK SMILES IDX 29 36 28 37
REMARK H PARENT 11 6 14 20 14 21
ROOT
ATOM     1   N1  UNL     1      -0.393   1.548   2.584  1.00  0.00    -0.204 N   
ATOM     2   C8  UNL     1      -1.632   1.004   2.379  1.00  0.00     0.046 A   
ATOM     3   C9  UNL     1      -1.371  -0.155   1.677  1.00  0.00     0.127 A   
ATOM     4   N3  UNL     1      -0.015  -0.281   1.505  1.00  0.00    -0.132 NA  
ATOM     5   N4  UNL     1       0.570   0.766   2.064  1.00  0.00    -0.076 NA  
ATOM     6   H8  UNL     1      -2.543   1.511   2.673  1.00  0.00     0.083 HD  
ENDROOT
BRANCH   1   7
ATOM     7   C7  UNL     1      -0.068   2.860   3.090  1.00  0.00     0.214 C   
BRANCH   7   8
ATOM     8   C6  UNL     1      -0.204   3.861   1.969  1.00  0.00     0.182 C   
ATOM     9   O2  UNL     1      -1.299   4.377   1.734  1.00  0.00    -0.292 OA  
BRANCH   8  10
ATOM     10  C5  UNL     1       0.950   4.146   1.059  1.00  0.00     0.019 A   
ATOM     11  C2  UNL     1       3.013   4.673  -0.789  1.00  0.00     0.075 A   
ATOM     12  C3  UNL     1       3.284   3.992   0.397  1.00  0.00     0.034 A   
ATOM     13  C26 UNL     1       1.706   5.073  -1.058  1.00  0.00     0.034 A   
ATOM     14  C4  UNL     1       2.258   3.717   1.314  1.00  0.00     0.014 A   
ATOM     15  C25 UNL     1       0.683   4.827  -0.136  1.00  0.00     0.014 A   
BRANCH  11  16
ATOM     16  O1  UNL     1       3.918   4.965  -1.770  1.00  0.00    -0.349 OA  
ATOM     17  C1  UNL     1       5.295   4.845  -1.428  1.00  0.00     0.203 C   
ENDBRANCH  11  16
ENDBRANCH   8  10
ENDBRANCH   7   8
ENDBRANCH   1   7
BRANCH   3  18
ATOM     18  C10 UNL     1      -2.303  -1.093   0.976  1.00  0.00     0.117 C   
BRANCH  18  19
ATOM     19  N2  UNL     1      -2.055  -1.006  -0.507  1.00  0.00     0.249 N   
ATOM     20  H10 UNL     1      -1.032  -0.962  -0.630  1.00  0.00     0.199 HD  
ATOM     21  H11 UNL     1      -2.355  -1.852  -1.001  1.00  0.00     0.199 HD  
BRANCH  19  22
ATOM     22  C11 UNL     1      -2.654   0.187  -1.165  1.00  0.00     0.164 C   
BRANCH  22  23
ATOM     23  C12 UNL     1      -1.976   0.498  -2.467  1.00  0.00    -0.002 A   
ATOM     24  C13 UNL     1      -2.410  -0.100  -3.673  1.00  0.00     0.012 A   
ATOM     25  C17 UNL     1      -0.881   1.384  -2.486  1.00  0.00     0.045 A   
ATOM     26  C14 UNL     1      -1.784   0.205  -4.888  1.00  0.00     0.037 A   
ATOM     27  C16 UNL     1      -0.297   1.673  -3.701  1.00  0.00     0.109 A   
ATOM     28  C15 UNL     1      -0.741   1.107  -4.870  1.00  0.00     0.108 A   
ATOM     29  O3  UNL     1       0.739   2.530  -3.898  1.00  0.00    -0.316 OA  
ATOM     30  O4  UNL     1      -0.041   1.541  -5.952  1.00  0.00    -0.316 OA  
ATOM     31  C18 UNL     1       0.860   2.490  -5.337  1.00  0.00     0.337 C   
ENDBRANCH  22  23
ENDBRANCH  19  22
ENDBRANCH  18  19
BRANCH  18  32
ATOM     32  C19 UNL     1      -2.200  -2.560   1.472  1.00  0.00     0.043 C   
ATOM     33  C20 UNL     1      -0.939  -3.315   1.006  1.00  0.00     0.010 C   
ATOM     34  C24 UNL     1      -3.463  -3.360   1.079  1.00  0.00     0.010 C   
ATOM     35  C21 UNL     1      -0.902  -4.745   1.544  1.00  0.00     0.001 C   
ATOM     36  C23 UNL     1      -3.421  -4.791   1.614  1.00  0.00     0.001 C   
ATOM     37  C22 UNL     1      -2.160  -5.523   1.169  1.00  0.00     0.000 C   
ENDBRANCH  18  32
ENDBRANCH   3  18
TORSDOF 9
