REMARK SMILES Cn1nc(Cn2cc([C@@H]([NH2+]Cc3ccc4c(c3)OCO4)C3CCCCC3)nn2)c2ccccc21
REMARK SMILES IDX 6 1 7 2 8 3 27 4 28 5 5 7 4 8 2 9 3 10 34 11 29 12 33 13
REMARK SMILES IDX 30 14 32 15 31 16 1 17 9 18 10 19 11 22 12 23 13 24 17 25
REMARK SMILES IDX 14 26 16 27 15 28 18 29 20 30 19 31 21 32 22 33 26 34 23 35
REMARK SMILES IDX 25 36 24 37
REMARK H PARENT 7 6 10 20 10 21
ROOT
ATOM     1   N3  UNL     1       1.434  -0.459  -1.956  1.00  0.00    -0.206 N   
ATOM     2   C4  UNL     1       1.655  -0.683  -0.624  1.00  0.00     0.046 A   
ATOM     3   C5  UNL     1       0.568  -0.109  -0.004  1.00  0.00     0.127 A   
ATOM     4   N5  UNL     1      -0.223   0.494  -0.949  1.00  0.00    -0.132 NA  
ATOM     5   N6  UNL     1       0.327   0.291  -2.135  1.00  0.00    -0.076 NA  
ATOM     6   H6  UNL     1       2.512  -1.243  -0.272  1.00  0.00     0.083 HD  
ENDROOT
BRANCH   1   7
ATOM     7   C3  UNL     1       2.227  -0.898  -3.091  1.00  0.00     0.192 C   
BRANCH   7   8
ATOM     8   C2  UNL     1       2.211  -2.383  -3.182  1.00  0.00     0.087 A   
ATOM     9   N1  UNL     1       2.949  -4.370  -3.128  1.00  0.00    -0.228 N   
ATOM     10  N2  UNL     1       3.314  -3.091  -2.894  1.00  0.00    -0.184 NA  
ATOM     11  C26 UNL     1       1.630  -4.517  -3.478  1.00  0.00     0.059 A   
ATOM     12  C21 UNL     1       1.120  -3.223  -3.536  1.00  0.00     0.022 A   
ATOM     13  C25 UNL     1       0.850  -5.647  -3.757  1.00  0.00     0.026 A   
ATOM     14  C22 UNL     1      -0.229  -3.029  -3.893  1.00  0.00     0.012 A   
ATOM     15  C24 UNL     1      -0.489  -5.434  -4.105  1.00  0.00     0.002 A   
ATOM     16  C23 UNL     1      -1.022  -4.148  -4.172  1.00  0.00     0.001 A   
ATOM     17  C1  UNL     1       3.924  -5.427  -2.987  1.00  0.00     0.159 C   
ENDBRANCH   7   8
ENDBRANCH   1   7
BRANCH   3  18
ATOM     18  C6  UNL     1       0.193   0.002   1.442  1.00  0.00     0.117 C   
BRANCH  18  19
ATOM     19  N4  UNL     1      -0.386   1.382   1.661  1.00  0.00     0.249 N   
ATOM     20  H8  UNL     1      -1.013   1.561   0.861  1.00  0.00     0.199 HD  
ATOM     21  H9  UNL     1      -0.971   1.447   2.496  1.00  0.00     0.199 HD  
BRANCH  19  22
ATOM     22  C7  UNL     1       0.617   2.482   1.698  1.00  0.00     0.164 C   
BRANCH  22  23
ATOM     23  C8  UNL     1      -0.062   3.822   1.731  1.00  0.00    -0.002 A   
ATOM     24  C9  UNL     1      -0.304   4.476   2.963  1.00  0.00     0.012 A   
ATOM     25  C13 UNL     1      -0.494   4.417   0.533  1.00  0.00     0.045 A   
ATOM     26  C10 UNL     1      -0.954   5.714   3.001  1.00  0.00     0.037 A   
ATOM     27  C12 UNL     1      -1.129   5.639   0.607  1.00  0.00     0.109 A   
ATOM     28  C11 UNL     1      -1.354   6.270   1.806  1.00  0.00     0.108 A   
ATOM     29  O1  UNL     1      -1.595   6.352  -0.453  1.00  0.00    -0.316 OA  
ATOM     30  O2  UNL     1      -1.988   7.462   1.653  1.00  0.00    -0.316 OA  
ATOM     31  C14 UNL     1      -2.122   7.521   0.214  1.00  0.00     0.337 C   
ENDBRANCH  22  23
ENDBRANCH  19  22
ENDBRANCH  18  19
BRANCH  18  32
ATOM     32  C15 UNL     1      -0.839  -1.076   1.890  1.00  0.00     0.043 C   
ATOM     33  C16 UNL     1      -0.316  -2.501   1.592  1.00  0.00     0.010 C   
ATOM     34  C20 UNL     1      -1.181  -0.957   3.393  1.00  0.00     0.010 C   
ATOM     35  C17 UNL     1      -1.251  -3.597   2.094  1.00  0.00     0.001 C   
ATOM     36  C19 UNL     1      -2.095  -2.075   3.894  1.00  0.00     0.001 C   
ATOM     37  C18 UNL     1      -1.533  -3.452   3.581  1.00  0.00     0.000 C   
ENDBRANCH  18  32
ENDBRANCH   3  18
TORSDOF 7
