REMARK SMILES CC(C)[C@H]([NH2+]Cc1ccc2c(c1)OCO2)c1cn(Cc2nccn2C)nn1
REMARK SMILES IDX 16 1 17 2 18 3 26 4 27 5 4 7 2 8 1 9 3 10 5 11 6 14 7 15
REMARK SMILES IDX 8 16 12 17 9 18 11 19 10 20 13 21 15 22 14 23 19 24 20 25
REMARK SMILES IDX 21 26 24 27 22 28 23 29 25 30
REMARK H PARENT 17 6 5 12 5 13
ROOT
ATOM     1   C13 UNL     1      -1.030   2.033   0.326  1.00  0.00     0.127 A   
ATOM     2   C14 UNL     1      -0.985   2.400   1.652  1.00  0.00     0.046 A   
ATOM     3   N2  UNL     1      -2.072   1.776   2.203  1.00  0.00    -0.205 N   
ATOM     4   N5  UNL     1      -2.778   1.117   1.262  1.00  0.00    -0.076 NA  
ATOM     5   N6  UNL     1      -2.139   1.253   0.111  1.00  0.00    -0.132 NA  
ATOM     6   H18 UNL     1      -0.277   2.953   2.253  1.00  0.00     0.083 HD  
ENDROOT
BRANCH   1   7
ATOM     7   C4  UNL     1      -0.038   2.230  -0.771  1.00  0.00     0.117 C   
BRANCH   7   8
ATOM     8   C2  UNL     1      -0.433   3.305  -1.813  1.00  0.00     0.037 C   
ATOM     9   C1  UNL     1      -0.513   4.697  -1.178  1.00  0.00     0.014 C   
ATOM     10  C3  UNL     1      -1.729   3.012  -2.575  1.00  0.00     0.014 C   
ENDBRANCH   7   8
BRANCH   7  11
ATOM     11  N1  UNL     1       0.194   0.921  -1.483  1.00  0.00     0.249 N   
ATOM     12  H9  UNL     1      -0.734   0.525  -1.698  1.00  0.00     0.199 HD  
ATOM     13  H10 UNL     1       0.668   1.061  -2.380  1.00  0.00     0.199 HD  
BRANCH  11  14
ATOM     14  C5  UNL     1       0.933  -0.103  -0.689  1.00  0.00     0.164 C   
BRANCH  14  15
ATOM     15  C6  UNL     1       1.103  -1.365  -1.485  1.00  0.00    -0.002 A   
ATOM     16  C7  UNL     1       2.263  -1.568  -2.269  1.00  0.00     0.012 A   
ATOM     17  C11 UNL     1       0.082  -2.333  -1.492  1.00  0.00     0.045 A   
ATOM     18  C8  UNL     1       2.412  -2.724  -3.042  1.00  0.00     0.037 A   
ATOM     19  C10 UNL     1       0.260  -3.460  -2.266  1.00  0.00     0.109 A   
ATOM     20  C9  UNL     1       1.392  -3.650  -3.019  1.00  0.00     0.108 A   
ATOM     21  O1  UNL     1      -0.623  -4.486  -2.386  1.00  0.00    -0.316 OA  
ATOM     22  O2  UNL     1       1.367  -4.822  -3.706  1.00  0.00    -0.316 OA  
ATOM     23  C12 UNL     1       0.093  -5.360  -3.289  1.00  0.00     0.337 C   
ENDBRANCH  14  15
ENDBRANCH  11  14
ENDBRANCH   7  11
ENDBRANCH   1   7
BRANCH   3  24
ATOM     24  C15 UNL     1      -2.437   1.690   3.606  1.00  0.00     0.206 C   
BRANCH  24  25
ATOM     25  C16 UNL     1      -1.738   0.523   4.218  1.00  0.00     0.120 A   
ATOM     26  N3  UNL     1      -0.425   0.394   4.331  1.00  0.00    -0.243 NA  
ATOM     27  N4  UNL     1      -2.372  -0.586   4.732  1.00  0.00    -0.296 N   
ATOM     28  C17 UNL     1      -0.217  -0.816   4.941  1.00  0.00     0.128 A   
ATOM     29  C18 UNL     1      -1.412  -1.441   5.196  1.00  0.00     0.096 A   
ATOM     30  C19 UNL     1      -3.795  -0.829   4.776  1.00  0.00     0.137 C   
ENDBRANCH  24  25
ENDBRANCH   3  24
TORSDOF 7
