REMARK SMILES COc1cc(Cn2cc([C@@H]([NH2+]Cc3ccc4c(c3)OCO4)C(C)C)nn2)ccn1
REMARK SMILES IDX 7 1 8 2 9 3 25 4 26 5 6 7 5 8 3 9 4 10 29 11 28 12 27 13
REMARK SMILES IDX 2 14 1 15 10 16 11 17 12 20 13 21 14 22 18 23 15 24 17 25
REMARK SMILES IDX 16 26 19 27 21 28 20 29 22 30 23 31 24 32
REMARK H PARENT 8 6 11 18 11 19
ROOT
ATOM     1   N1  UNL     1      -1.760   1.417   0.142  1.00  0.00    -0.208 N   
ATOM     2   C6  UNL     1      -1.294   0.365   0.884  1.00  0.00     0.046 A   
ATOM     3   C7  UNL     1      -0.450  -0.301   0.023  1.00  0.00     0.127 A   
ATOM     4   N3  UNL     1      -0.464   0.328  -1.196  1.00  0.00    -0.132 NA  
ATOM     5   N4  UNL     1      -1.279   1.366  -1.115  1.00  0.00    -0.076 NA  
ATOM     6   H7  UNL     1      -1.573   0.217   1.918  1.00  0.00     0.083 HD  
ENDROOT
BRANCH   1   7
ATOM     7   C5  UNL     1      -2.663   2.481   0.551  1.00  0.00     0.169 C   
BRANCH   7   8
ATOM     8   C4  UNL     1      -1.990   3.425   1.510  1.00  0.00    -0.023 A   
ATOM     9   C2  UNL     1      -1.636   4.274   3.724  1.00  0.00     0.166 A   
ATOM     10  C3  UNL     1      -2.298   3.401   2.874  1.00  0.00     0.060 A   
ATOM     11  N5  UNL     1      -0.698   5.150   3.312  1.00  0.00    -0.233 NA  
ATOM     12  C21 UNL     1      -0.420   5.170   1.992  1.00  0.00     0.114 A   
ATOM     13  C20 UNL     1      -1.028   4.339   1.064  1.00  0.00     0.026 A   
BRANCH   9  14
ATOM     14  O1  UNL     1      -1.978   4.198   5.058  1.00  0.00    -0.333 OA  
ATOM     15  C1  UNL     1      -1.310   5.169   5.861  1.00  0.00     0.205 C   
ENDBRANCH   9  14
ENDBRANCH   7   8
ENDBRANCH   1   7
BRANCH   3  16
ATOM     16  C8  UNL     1       0.396  -1.522   0.213  1.00  0.00     0.117 C   
BRANCH  16  17
ATOM     17  N2  UNL     1       0.708  -2.153  -1.117  1.00  0.00     0.249 N   
ATOM     18  H9  UNL     1       0.934  -1.381  -1.763  1.00  0.00     0.199 HD  
ATOM     19  H10 UNL     1       1.542  -2.747  -1.081  1.00  0.00     0.199 HD  
BRANCH  17  20
ATOM     20  C9  UNL     1      -0.409  -2.923  -1.731  1.00  0.00     0.164 C   
BRANCH  20  21
ATOM     21  C10 UNL     1      -0.033  -3.383  -3.111  1.00  0.00    -0.002 A   
ATOM     22  C11 UNL     1      -0.228  -2.527  -4.221  1.00  0.00     0.012 A   
ATOM     23  C15 UNL     1       0.563  -4.641  -3.301  1.00  0.00     0.045 A   
ATOM     24  C12 UNL     1       0.151  -2.923  -5.508  1.00  0.00     0.037 A   
ATOM     25  C14 UNL     1       0.924  -5.000  -4.584  1.00  0.00     0.109 A   
ATOM     26  C13 UNL     1       0.724  -4.167  -5.656  1.00  0.00     0.108 A   
ATOM     27  O2  UNL     1       1.506  -6.175  -4.940  1.00  0.00    -0.316 OA  
ATOM     28  O3  UNL     1       1.152  -4.713  -6.824  1.00  0.00    -0.316 OA  
ATOM     29  C16 UNL     1       1.626  -5.999  -6.370  1.00  0.00     0.337 C   
ENDBRANCH  20  21
ENDBRANCH  17  20
ENDBRANCH  16  17
BRANCH  16  30
ATOM     30  C17 UNL     1       1.707  -1.210   0.982  1.00  0.00     0.037 C   
ATOM     31  C18 UNL     1       2.695  -0.338   0.197  1.00  0.00     0.014 C   
ATOM     32  C19 UNL     1       2.407  -2.490   1.453  1.00  0.00     0.014 C   
ENDBRANCH  16  30
ENDBRANCH   3  16
TORSDOF 8
