REMARK SMILES CC(C)(C)[C@H]([NH2+]Cc1ccc2c(c1)OCO2)c1cn(Cc2c[nH]c3ncccc23)nn1
REMARK SMILES IDX 17 1 18 2 19 3 30 4 31 5 5 7 2 8 1 9 3 10 4 11 6 12 7 15
REMARK SMILES IDX 8 16 9 17 13 18 10 19 12 20 11 21 14 22 16 23 15 24 20 25
REMARK SMILES IDX 21 26 22 27 29 28 23 29 24 30 28 31 25 32 27 33 26 34
REMARK H PARENT 18 6 6 13 6 14 23 35
ROOT
ATOM     1   C14 UNL     1      -0.667  -1.317   1.558  1.00  0.00     0.127 A   
ATOM     2   C15 UNL     1      -0.939  -0.052   2.029  1.00  0.00     0.046 A   
ATOM     3   N2  UNL     1       0.064   0.186   2.932  1.00  0.00    -0.208 N   
ATOM     4   N5  UNL     1       0.858  -0.896   3.060  1.00  0.00    -0.076 NA  
ATOM     5   N6  UNL     1       0.423  -1.820   2.219  1.00  0.00    -0.132 NA  
ATOM     6   H20 UNL     1      -1.664   0.704   1.759  1.00  0.00     0.083 HD  
ENDROOT
BRANCH   1   7
ATOM     7   C5  UNL     1      -1.264  -2.073   0.413  1.00  0.00     0.120 C   
BRANCH   7   8
ATOM     8   C2  UNL     1      -2.266  -3.204   0.837  1.00  0.00     0.010 C   
ATOM     9   C1  UNL     1      -2.930  -3.829  -0.411  1.00  0.00     0.017 C   
ATOM     10  C3  UNL     1      -3.401  -2.603   1.699  1.00  0.00     0.017 C   
ATOM     11  C4  UNL     1      -1.597  -4.336   1.641  1.00  0.00     0.017 C   
ENDBRANCH   7   8
BRANCH   7  12
ATOM     12  N1  UNL     1      -0.152  -2.642  -0.451  1.00  0.00     0.250 N   
ATOM     13  H11 UNL     1       0.413  -3.245   0.160  1.00  0.00     0.199 HD  
ATOM     14  H12 UNL     1      -0.537  -3.225  -1.195  1.00  0.00     0.199 HD  
BRANCH  12  15
ATOM     15  C6  UNL     1       0.796  -1.654  -1.063  1.00  0.00     0.164 C   
BRANCH  15  16
ATOM     16  C7  UNL     1       0.123  -0.632  -1.936  1.00  0.00    -0.002 A   
ATOM     17  C8  UNL     1      -0.475  -1.009  -3.162  1.00  0.00     0.012 A   
ATOM     18  C12 UNL     1       0.066   0.712  -1.522  1.00  0.00     0.045 A   
ATOM     19  C9  UNL     1      -1.133  -0.065  -3.959  1.00  0.00     0.037 A   
ATOM     20  C11 UNL     1      -0.593   1.616  -2.328  1.00  0.00     0.109 A   
ATOM     21  C10 UNL     1      -1.176   1.238  -3.513  1.00  0.00     0.108 A   
ATOM     22  O1  UNL     1      -0.754   2.940  -2.068  1.00  0.00    -0.316 OA  
ATOM     23  O2  UNL     1      -1.771   2.278  -4.152  1.00  0.00    -0.316 OA  
ATOM     24  C13 UNL     1      -1.458   3.367  -3.257  1.00  0.00     0.337 C   
ENDBRANCH  15  16
ENDBRANCH  12  15
ENDBRANCH   7  12
ENDBRANCH   1   7
BRANCH   3  25
ATOM     25  C16 UNL     1       0.407   1.450   3.566  1.00  0.00     0.171 C   
BRANCH  25  26
ATOM     26  C17 UNL     1       0.917   2.400   2.528  1.00  0.00    -0.004 A   
ATOM     27  C18 UNL     1       0.241   3.485   1.990  1.00  0.00     0.079 A   
ATOM     28  C23 UNL     1       2.189   2.342   1.872  1.00  0.00     0.021 A   
ATOM     29  N3  UNL     1       1.042   4.063   1.036  1.00  0.00    -0.305 N   
ATOM     30  C19 UNL     1       2.219   3.376   0.943  1.00  0.00     0.129 A   
ATOM     31  C22 UNL     1       3.325   1.516   1.945  1.00  0.00     0.014 A   
ATOM     32  N4  UNL     1       3.208   3.680   0.086  1.00  0.00    -0.241 NA  
ATOM     33  C21 UNL     1       4.392   1.803   1.092  1.00  0.00     0.021 A   
ATOM     34  C20 UNL     1       4.282   2.869   0.208  1.00  0.00     0.113 A   
ATOM     35  H24 UNL     1       0.824   4.872   0.471  1.00  0.00     0.154 HD  
ENDBRANCH  25  26
ENDBRANCH   3  25
TORSDOF 7
