REMARK SMILES Cc1ccc(F)c(CCn2cc([C@@H]([NH2+]Cc3ccc4c(c3)OCO4)C(C)(C)C)nn2)c1
REMARK SMILES IDX 10 1 11 2 12 3 29 4 30 5 9 7 8 8 7 9 2 10 3 11 31 12 4 13
REMARK SMILES IDX 5 14 1 15 6 16 13 17 14 18 15 21 16 22 17 23 21 24 18 25
REMARK SMILES IDX 20 26 19 27 22 28 24 29 23 30 25 31 26 32 27 33 28 34
REMARK H PARENT 11 6 14 19 14 20
ROOT
ATOM     1   N1  UNL     1       2.902   0.095  -1.362  1.00  0.00    -0.212 N   
ATOM     2   C9  UNL     1       1.626  -0.346  -1.571  1.00  0.00     0.045 A   
ATOM     3   C10 UNL     1       0.845   0.731  -1.217  1.00  0.00     0.127 A   
ATOM     4   N3  UNL     1       1.655   1.773  -0.844  1.00  0.00    -0.132 NA  
ATOM     5   N4  UNL     1       2.911   1.372  -0.941  1.00  0.00    -0.076 NA  
ATOM     6   H10 UNL     1       1.406  -1.356  -1.890  1.00  0.00     0.083 HD  
ENDROOT
BRANCH   1   7
ATOM     7   C8  UNL     1       4.140  -0.648  -1.476  1.00  0.00     0.139 C   
BRANCH   7   8
ATOM     8   C7  UNL     1       4.631  -1.186  -0.131  1.00  0.00     0.060 C   
BRANCH   8   9
ATOM     9   C6  UNL     1       3.834  -2.371   0.360  1.00  0.00    -0.010 A   
ATOM     10  C2  UNL     1       3.428  -4.777   0.388  1.00  0.00    -0.051 A   
ATOM     11  C3  UNL     1       2.361  -4.582   1.273  1.00  0.00     0.006 A   
ATOM     12  C24 UNL     1       4.167  -3.669  -0.055  1.00  0.00     0.010 A   
ATOM     13  C4  UNL     1       2.019  -3.296   1.687  1.00  0.00     0.040 A   
ATOM     14  C5  UNL     1       2.750  -2.206   1.227  1.00  0.00     0.126 A   
ATOM     15  C1  UNL     1       3.828  -6.165  -0.024  1.00  0.00     0.044 C   
ATOM     16  F1  UNL     1       2.381  -0.976   1.616  1.00  0.00    -0.207 F   
ENDBRANCH   8   9
ENDBRANCH   7   8
ENDBRANCH   1   7
BRANCH   3  17
ATOM     17  C11 UNL     1      -0.639   0.874  -1.074  1.00  0.00     0.120 C   
BRANCH  17  18
ATOM     18  N2  UNL     1      -0.915   1.693   0.166  1.00  0.00     0.250 N   
ATOM     19  H12 UNL     1      -1.852   2.101   0.172  1.00  0.00     0.199 HD  
ATOM     20  H13 UNL     1      -0.255   2.486   0.143  1.00  0.00     0.199 HD  
BRANCH  18  21
ATOM     21  C12 UNL     1      -0.687   0.983   1.457  1.00  0.00     0.164 C   
BRANCH  21  22
ATOM     22  C13 UNL     1      -0.894   1.920   2.613  1.00  0.00    -0.002 A   
ATOM     23  C14 UNL     1       0.199   2.654   3.134  1.00  0.00     0.012 A   
ATOM     24  C18 UNL     1      -2.179   2.116   3.146  1.00  0.00     0.045 A   
ATOM     25  C15 UNL     1       0.019   3.564   4.180  1.00  0.00     0.037 A   
ATOM     26  C17 UNL     1      -2.321   3.022   4.177  1.00  0.00     0.109 A   
ATOM     27  C16 UNL     1      -1.254   3.726   4.680  1.00  0.00     0.108 A   
ATOM     28  O1  UNL     1      -3.488   3.331   4.801  1.00  0.00    -0.316 OA  
ATOM     29  O2  UNL     1      -1.615   4.565   5.684  1.00  0.00    -0.316 OA  
ATOM     30  C19 UNL     1      -3.029   4.289   5.781  1.00  0.00     0.337 C   
ENDBRANCH  21  22
ENDBRANCH  18  21
ENDBRANCH  17  18
BRANCH  17  31
ATOM     31  C20 UNL     1      -1.351   1.506  -2.320  1.00  0.00     0.010 C   
ATOM     32  C21 UNL     1      -0.935   2.969  -2.567  1.00  0.00     0.017 C   
ATOM     33  C22 UNL     1      -1.027   0.686  -3.590  1.00  0.00     0.017 C   
ATOM     34  C23 UNL     1      -2.887   1.461  -2.137  1.00  0.00     0.017 C   
ENDBRANCH  17  31
ENDBRANCH   3  17
TORSDOF 8
