REMARK SMILES Cc1ccc([C@@H](CO)n2cc([C@H](CC(C)C)[NH2+]Cc3ccc4c(c3)OCO4)nn2)c(O)c1
REMARK SMILES IDX 9 1 10 2 11 3 28 4 29 5 6 7 5 8 2 9 3 10 32 11 4 12 30 13
REMARK SMILES IDX 1 14 31 15 7 17 8 18 12 20 13 21 14 22 15 23 16 24 17 25
REMARK SMILES IDX 18 28 19 29 20 30 24 31 21 32 23 33 22 34 25 35 27 36 26 37
REMARK H PARENT 10 6 31 16 8 19 17 26 17 27
ROOT
ATOM     1   N1  UNL     1       1.312   0.745  -0.910  1.00  0.00    -0.202 N   
ATOM     2   C8  UNL     1       0.251   0.443  -0.094  1.00  0.00     0.046 A   
ATOM     3   C9  UNL     1      -0.407  -0.567  -0.758  1.00  0.00     0.127 A   
ATOM     4   N3  UNL     1       0.245  -0.835  -1.933  1.00  0.00    -0.132 NA  
ATOM     5   N4  UNL     1       1.281  -0.018  -2.024  1.00  0.00    -0.075 NA  
ATOM     6   H10 UNL     1       0.070   0.968   0.834  1.00  0.00     0.083 HD  
ENDROOT
BRANCH   1   7
ATOM     7   C6  UNL     1       2.326   1.783  -0.700  1.00  0.00     0.158 C   
BRANCH   7   8
ATOM     8   C5  UNL     1       3.709   1.164  -0.572  1.00  0.00     0.007 A   
ATOM     9   C2  UNL     1       6.250  -0.037  -0.215  1.00  0.00    -0.049 A   
ATOM     10  C3  UNL     1       5.386   0.125   0.871  1.00  0.00     0.004 A   
ATOM     11  C24 UNL     1       5.832   0.383  -1.482  1.00  0.00     0.037 A   
ATOM     12  C4  UNL     1       4.134   0.720   0.695  1.00  0.00     0.009 A   
ATOM     13  C23 UNL     1       4.578   0.975  -1.652  1.00  0.00     0.077 A   
ATOM     14  C1  UNL     1       7.586  -0.699  -0.039  1.00  0.00     0.044 C   
BRANCH  13  15
ATOM     15  O4  UNL     1       4.194   1.377  -2.899  1.00  0.00    -0.361 OA  
ATOM     16  H30 UNL     1       4.849   1.061  -3.546  1.00  0.00     0.218 HD  
ENDBRANCH  13  15
ENDBRANCH   7   8
BRANCH   7  17
ATOM     17  C7  UNL     1       2.157   2.927  -1.714  1.00  0.00     0.186 C   
BRANCH  17  18
ATOM     18  O1  UNL     1       0.987   3.699  -1.392  1.00  0.00    -0.394 OA  
ATOM     19  H9  UNL     1       0.997   4.471  -1.988  1.00  0.00     0.210 HD  
ENDBRANCH  17  18
ENDBRANCH   7  17
ENDBRANCH   1   7
BRANCH   3  20
ATOM     20  C10 UNL     1      -1.668  -1.291  -0.440  1.00  0.00     0.114 C   
BRANCH  20  21
ATOM     21  C11 UNL     1      -1.413  -2.691   0.153  1.00  0.00     0.064 C   
BRANCH  21  22
ATOM     22  C12 UNL     1      -0.685  -2.703   1.515  1.00  0.00    -0.012 C   
ATOM     23  C13 UNL     1      -0.438  -4.149   1.954  1.00  0.00     0.007 C   
ATOM     24  C14 UNL     1      -1.466  -1.962   2.601  1.00  0.00     0.007 C   
ENDBRANCH  21  22
ENDBRANCH  20  21
BRANCH  20  25
ATOM     25  N2  UNL     1      -2.479  -1.493  -1.706  1.00  0.00     0.249 N   
ATOM     26  H21 UNL     1      -3.251  -2.142  -1.530  1.00  0.00     0.199 HD  
ATOM     27  H22 UNL     1      -1.845  -1.942  -2.382  1.00  0.00     0.199 HD  
BRANCH  25  28
ATOM     28  C15 UNL     1      -3.010  -0.256  -2.354  1.00  0.00     0.164 C   
BRANCH  28  29
ATOM     29  C16 UNL     1      -4.002   0.478  -1.496  1.00  0.00    -0.002 A   
ATOM     30  C17 UNL     1      -3.645   1.705  -0.885  1.00  0.00     0.012 A   
ATOM     31  C21 UNL     1      -5.279  -0.063  -1.266  1.00  0.00     0.045 A   
ATOM     32  C18 UNL     1      -4.542   2.381  -0.051  1.00  0.00     0.037 A   
ATOM     33  C20 UNL     1      -6.138   0.630  -0.438  1.00  0.00     0.109 A   
ATOM     34  C19 UNL     1      -5.781   1.816   0.153  1.00  0.00     0.108 A   
ATOM     35  O2  UNL     1      -7.398   0.243  -0.107  1.00  0.00    -0.316 OA  
ATOM     36  O3  UNL     1      -6.771   2.327   0.930  1.00  0.00    -0.316 OA  
ATOM     37  C22 UNL     1      -7.809   1.342   0.738  1.00  0.00     0.337 C   
ENDBRANCH  28  29
ENDBRANCH  25  28
ENDBRANCH  20  25
ENDBRANCH   3  20
TORSDOF 11
