REMARK SMILES Cc1ccc([C@H](CO)n2cc([C@H](CC(C)C)[NH2+]Cc3ccc4c(c3)OCO4)nn2)c(O)c1
REMARK SMILES IDX 9 1 10 2 11 3 28 4 29 5 6 7 5 8 2 9 3 10 32 11 4 12 30 13
REMARK SMILES IDX 1 14 31 15 7 17 8 18 12 20 13 21 14 22 15 23 16 24 17 25
REMARK SMILES IDX 18 28 19 29 20 30 24 31 21 32 23 33 22 34 25 35 27 36 26 37
REMARK H PARENT 10 6 31 16 8 19 17 26 17 27
ROOT
ATOM     1   N1  UNL     1       2.187  -1.444   1.490  1.00  0.00    -0.202 N   
ATOM     2   C8  UNL     1       1.648  -0.357   2.127  1.00  0.00     0.046 A   
ATOM     3   C9  UNL     1       0.289  -0.534   1.994  1.00  0.00     0.127 A   
ATOM     4   N3  UNL     1       0.048  -1.660   1.253  1.00  0.00    -0.132 NA  
ATOM     5   N4  UNL     1       1.214  -2.206   0.945  1.00  0.00    -0.075 NA  
ATOM     6   H10 UNL     1       2.265   0.383   2.615  1.00  0.00     0.083 HD  
ENDROOT
BRANCH   1   7
ATOM     7   C6  UNL     1       3.602  -1.799   1.377  1.00  0.00     0.158 C   
BRANCH   7   8
ATOM     8   C5  UNL     1       4.044  -1.723  -0.076  1.00  0.00     0.007 A   
ATOM     9   C2  UNL     1       4.863  -1.530  -2.779  1.00  0.00    -0.049 A   
ATOM     10  C3  UNL     1       4.487  -2.762  -2.235  1.00  0.00     0.004 A   
ATOM     11  C24 UNL     1       4.812  -0.389  -1.973  1.00  0.00     0.037 A   
ATOM     12  C4  UNL     1       4.077  -2.858  -0.903  1.00  0.00     0.009 A   
ATOM     13  C23 UNL     1       4.406  -0.492  -0.641  1.00  0.00     0.077 A   
ATOM     14  C1  UNL     1       5.285  -1.448  -4.217  1.00  0.00     0.044 C   
BRANCH  13  15
ATOM     15  O4  UNL     1       4.348   0.635   0.135  1.00  0.00    -0.361 OA  
ATOM     16  H30 UNL     1       4.794   1.355  -0.347  1.00  0.00     0.218 HD  
ENDBRANCH  13  15
ENDBRANCH   7   8
BRANCH   7  17
ATOM     17  C7  UNL     1       3.893  -3.129   2.095  1.00  0.00     0.186 C   
BRANCH  17  18
ATOM     18  O1  UNL     1       3.775  -2.964   3.511  1.00  0.00    -0.394 OA  
ATOM     19  H9  UNL     1       4.008  -3.819   3.918  1.00  0.00     0.210 HD  
ENDBRANCH  17  18
ENDBRANCH   7  17
ENDBRANCH   1   7
BRANCH   3  20
ATOM     20  C10 UNL     1      -0.844   0.323   2.429  1.00  0.00     0.114 C   
BRANCH  20  21
ATOM     21  C11 UNL     1      -1.749  -0.332   3.493  1.00  0.00     0.064 C   
BRANCH  21  22
ATOM     22  C12 UNL     1      -1.166  -0.549   4.906  1.00  0.00    -0.012 C   
ATOM     23  C13 UNL     1      -0.580   0.726   5.512  1.00  0.00     0.007 C   
ATOM     24  C14 UNL     1      -0.163  -1.699   4.992  1.00  0.00     0.007 C   
ENDBRANCH  21  22
ENDBRANCH  20  21
BRANCH  20  25
ATOM     25  N2  UNL     1      -1.736   0.626   1.243  1.00  0.00     0.249 N   
ATOM     26  H21 UNL     1      -2.077  -0.275   0.879  1.00  0.00     0.199 HD  
ATOM     27  H22 UNL     1      -2.559   1.158   1.544  1.00  0.00     0.199 HD  
BRANCH  25  28
ATOM     28  C15 UNL     1      -1.082   1.339   0.108  1.00  0.00     0.164 C   
BRANCH  28  29
ATOM     29  C16 UNL     1      -2.122   1.892  -0.827  1.00  0.00    -0.002 A   
ATOM     30  C17 UNL     1      -2.555   3.235  -0.701  1.00  0.00     0.012 A   
ATOM     31  C21 UNL     1      -2.717   1.062  -1.793  1.00  0.00     0.045 A   
ATOM     32  C18 UNL     1      -3.564   3.744  -1.524  1.00  0.00     0.037 A   
ATOM     33  C20 UNL     1      -3.710   1.596  -2.588  1.00  0.00     0.109 A   
ATOM     34  C19 UNL     1      -4.124   2.898  -2.455  1.00  0.00     0.108 A   
ATOM     35  O2  UNL     1      -4.391   0.931  -3.557  1.00  0.00    -0.316 OA  
ATOM     36  O3  UNL     1      -5.120   3.215  -3.320  1.00  0.00    -0.316 OA  
ATOM     37  C22 UNL     1      -5.269   1.972  -4.040  1.00  0.00     0.337 C   
ENDBRANCH  28  29
ENDBRANCH  25  28
ENDBRANCH  20  25
ENDBRANCH   3  20
TORSDOF 11
