REMARK SMILES CC(C)C[C@H]([NH2+]Cc1ccc2c(c1)OCO2)c1cn([C@H](CO)c2ccccc2)nn1
REMARK SMILES IDX 17 1 18 2 19 3 29 4 30 5 5 7 4 8 2 9 1 10 3 11 6 12 7 15
REMARK SMILES IDX 8 16 9 17 13 18 10 19 12 20 11 21 14 22 16 23 15 24 20 25
REMARK SMILES IDX 21 26 22 27 23 29 24 30 28 31 25 32 27 33 26 34
REMARK H PARENT 18 6 6 13 6 14 22 28
ROOT
ATOM     1   C14 UNL     1      -0.589  -1.785  -0.053  1.00  0.00     0.127 A   
ATOM     2   C15 UNL     1      -1.094  -0.551   0.280  1.00  0.00     0.046 A   
ATOM     3   N2  UNL     1      -1.924  -0.801   1.339  1.00  0.00    -0.202 N   
ATOM     4   N3  UNL     1      -1.923  -2.119   1.640  1.00  0.00    -0.075 NA  
ATOM     5   N4  UNL     1      -1.113  -2.730   0.789  1.00  0.00    -0.132 NA  
ATOM     6   H20 UNL     1      -0.939   0.448  -0.106  1.00  0.00     0.083 HD  
ENDROOT
BRANCH   1   7
ATOM     7   C5  UNL     1       0.434  -2.173  -1.061  1.00  0.00     0.114 C   
BRANCH   7   8
ATOM     8   C4  UNL     1      -0.168  -2.943  -2.252  1.00  0.00     0.064 C   
BRANCH   8   9
ATOM     9   C2  UNL     1      -1.195  -2.148  -3.089  1.00  0.00    -0.012 C   
ATOM     10  C1  UNL     1      -1.776  -3.048  -4.184  1.00  0.00     0.007 C   
ATOM     11  C3  UNL     1      -0.589  -0.894  -3.720  1.00  0.00     0.007 C   
ENDBRANCH   8   9
ENDBRANCH   7   8
BRANCH   7  12
ATOM     12  N1  UNL     1       1.469  -3.081  -0.425  1.00  0.00     0.249 N   
ATOM     13  H11 UNL     1       0.949  -3.872  -0.022  1.00  0.00     0.199 HD  
ATOM     14  H12 UNL     1       2.092  -3.455  -1.145  1.00  0.00     0.199 HD  
BRANCH  12  15
ATOM     15  C6  UNL     1       2.288  -2.482   0.675  1.00  0.00     0.164 C   
BRANCH  15  16
ATOM     16  C7  UNL     1       3.123  -1.317   0.225  1.00  0.00    -0.002 A   
ATOM     17  C8  UNL     1       4.256  -1.523  -0.600  1.00  0.00     0.012 A   
ATOM     18  C12 UNL     1       2.760  -0.007   0.588  1.00  0.00     0.045 A   
ATOM     19  C9  UNL     1       5.010  -0.441  -1.067  1.00  0.00     0.037 A   
ATOM     20  C11 UNL     1       3.522   1.036   0.106  1.00  0.00     0.109 A   
ATOM     21  C10 UNL     1       4.613   0.826  -0.700  1.00  0.00     0.108 A   
ATOM     22  O1  UNL     1       3.300   2.355   0.346  1.00  0.00    -0.316 OA  
ATOM     23  O2  UNL     1       5.217   1.986  -1.068  1.00  0.00    -0.316 OA  
ATOM     24  C13 UNL     1       4.392   2.955  -0.387  1.00  0.00     0.337 C   
ENDBRANCH  15  16
ENDBRANCH  12  15
ENDBRANCH   7  12
ENDBRANCH   1   7
BRANCH   3  25
ATOM     25  C16 UNL     1      -2.654   0.150   2.176  1.00  0.00     0.155 C   
BRANCH  25  26
ATOM     26  C17 UNL     1      -3.829   0.803   1.421  1.00  0.00     0.185 C   
BRANCH  26  27
ATOM     27  O3  UNL     1      -3.436   1.479   0.227  1.00  0.00    -0.394 OA  
ATOM     28  H24 UNL     1      -4.242   1.877  -0.152  1.00  0.00     0.210 HD  
ENDBRANCH  26  27
ENDBRANCH  25  26
BRANCH  25  29
ATOM     29  C18 UNL     1      -1.669   1.079   2.879  1.00  0.00    -0.023 A   
ATOM     30  C19 UNL     1      -1.323   2.344   2.381  1.00  0.00     0.006 A   
ATOM     31  C23 UNL     1      -1.040   0.635   4.059  1.00  0.00     0.006 A   
ATOM     32  C20 UNL     1      -0.388   3.142   3.044  1.00  0.00     0.000 A   
ATOM     33  C22 UNL     1      -0.108   1.435   4.721  1.00  0.00     0.000 A   
ATOM     34  C21 UNL     1       0.217   2.688   4.214  1.00  0.00     0.000 A   
ENDBRANCH  25  29
ENDBRANCH   3  25
TORSDOF 10
