REMARK SMILES CC(C)C[C@H]([NH2+]Cc1ccc2c(c1)OCO2)c1cn([C@@H](CO)c2ccccc2)nn1
REMARK SMILES IDX 17 1 18 2 19 3 29 4 30 5 5 7 4 8 2 9 1 10 3 11 6 12 7 15
REMARK SMILES IDX 8 16 9 17 13 18 10 19 12 20 11 21 14 22 16 23 15 24 20 25
REMARK SMILES IDX 21 26 22 27 23 29 24 30 28 31 25 32 27 33 26 34
REMARK H PARENT 18 6 6 13 6 14 22 28
ROOT
ATOM     1   C14 UNL     1       0.167   1.475   0.031  1.00  0.00     0.127 A   
ATOM     2   C15 UNL     1       0.377   0.507   0.984  1.00  0.00     0.046 A   
ATOM     3   N2  UNL     1       1.359   1.028   1.784  1.00  0.00    -0.202 N   
ATOM     4   N3  UNL     1       1.679   2.279   1.384  1.00  0.00    -0.075 NA  
ATOM     5   N4  UNL     1       0.970   2.553   0.300  1.00  0.00    -0.132 NA  
ATOM     6   H20 UNL     1      -0.038  -0.478   1.152  1.00  0.00     0.083 HD  
ENDROOT
BRANCH   1   7
ATOM     7   C5  UNL     1      -0.759   1.512  -1.136  1.00  0.00     0.114 C   
BRANCH   7   8
ATOM     8   C4  UNL     1      -0.086   1.028  -2.438  1.00  0.00     0.064 C   
BRANCH   8   9
ATOM     9   C2  UNL     1       0.344  -0.458  -2.447  1.00  0.00    -0.012 C   
ATOM     10  C1  UNL     1       1.037  -0.789  -3.773  1.00  0.00     0.007 C   
ATOM     11  C3  UNL     1      -0.839  -1.407  -2.233  1.00  0.00     0.007 C   
ENDBRANCH   8   9
ENDBRANCH   7   8
BRANCH   7  12
ATOM     12  N1  UNL     1      -1.222   2.935  -1.384  1.00  0.00     0.249 N   
ATOM     13  H11 UNL     1      -0.371   3.514  -1.386  1.00  0.00     0.199 HD  
ATOM     14  H12 UNL     1      -1.651   3.013  -2.309  1.00  0.00     0.199 HD  
BRANCH  12  15
ATOM     15  C6  UNL     1      -2.148   3.510  -0.365  1.00  0.00     0.164 C   
BRANCH  15  16
ATOM     16  C7  UNL     1      -3.507   2.869  -0.383  1.00  0.00    -0.002 A   
ATOM     17  C8  UNL     1      -4.428   3.172  -1.415  1.00  0.00     0.012 A   
ATOM     18  C12 UNL     1      -3.861   1.936   0.609  1.00  0.00     0.045 A   
ATOM     19  C9  UNL     1      -5.685   2.555  -1.459  1.00  0.00     0.037 A   
ATOM     20  C11 UNL     1      -5.105   1.343   0.533  1.00  0.00     0.109 A   
ATOM     21  C10 UNL     1      -5.991   1.644  -0.471  1.00  0.00     0.108 A   
ATOM     22  O1  UNL     1      -5.597   0.420   1.403  1.00  0.00    -0.316 OA  
ATOM     23  O2  UNL     1      -7.156   0.953  -0.357  1.00  0.00    -0.316 OA  
ATOM     24  C13 UNL     1      -6.908   0.187   0.843  1.00  0.00     0.337 C   
ENDBRANCH  15  16
ENDBRANCH  12  15
ENDBRANCH   7  12
ENDBRANCH   1   7
BRANCH   3  25
ATOM     25  C16 UNL     1       2.075   0.395   2.889  1.00  0.00     0.155 C   
BRANCH  25  26
ATOM     26  C17 UNL     1       1.185   0.224   4.139  1.00  0.00     0.185 C   
BRANCH  26  27
ATOM     27  O3  UNL     1      -0.029  -0.485   3.889  1.00  0.00    -0.394 OA  
ATOM     28  H24 UNL     1      -0.459  -0.618   4.754  1.00  0.00     0.210 HD  
ENDBRANCH  26  27
ENDBRANCH  25  26
BRANCH  25  29
ATOM     29  C18 UNL     1       2.817  -0.841   2.394  1.00  0.00    -0.023 A   
ATOM     30  C19 UNL     1       4.083  -0.678   1.796  1.00  0.00     0.006 A   
ATOM     31  C23 UNL     1       2.277  -2.135   2.465  1.00  0.00     0.006 A   
ATOM     32  C20 UNL     1       4.790  -1.777   1.302  1.00  0.00     0.000 A   
ATOM     33  C22 UNL     1       2.985  -3.234   1.967  1.00  0.00     0.000 A   
ATOM     34  C21 UNL     1       4.239  -3.056   1.389  1.00  0.00     0.000 A   
ENDBRANCH  25  29
ENDBRANCH   3  25
TORSDOF 10
