REMARK SMILES Cc1cc(Cn2cc([C@H](CC(C)C)[NH2+]Cc3ccc4c(c3)OCO4)nn2)n(C)n1
REMARK SMILES IDX 6 1 7 2 8 3 25 4 26 5 5 7 4 8 2 9 3 10 29 11 27 12 1 13
REMARK SMILES IDX 28 14 9 15 10 16 11 17 12 18 13 19 14 20 15 23 16 24 17 25
REMARK SMILES IDX 21 26 18 27 20 28 19 29 22 30 24 31 23 32
REMARK H PARENT 7 6 14 21 14 22
ROOT
ATOM     1   N1  UNL     1      -2.421  -0.281   1.947  1.00  0.00    -0.206 N   
ATOM     2   C6  UNL     1      -1.115  -0.650   1.768  1.00  0.00     0.046 A   
ATOM     3   C7  UNL     1      -0.809  -0.194   0.505  1.00  0.00     0.127 A   
ATOM     4   N3  UNL     1      -1.933   0.358  -0.056  1.00  0.00    -0.132 NA  
ATOM     5   N4  UNL     1      -2.914   0.288   0.829  1.00  0.00    -0.076 NA  
ATOM     6   H7  UNL     1      -0.540  -1.129   2.549  1.00  0.00     0.083 HD  
ENDROOT
BRANCH   1   7
ATOM     7   C5  UNL     1      -3.238  -0.397   3.148  1.00  0.00     0.187 C   
BRANCH   7   8
ATOM     8   C4  UNL     1      -2.671   0.433   4.245  1.00  0.00     0.049 A   
ATOM     9   C2  UNL     1      -1.639   1.275   6.023  1.00  0.00     0.057 A   
ATOM     10  C3  UNL     1      -1.984   0.065   5.386  1.00  0.00     0.047 A   
ATOM     11  N6  UNL     1      -2.073   2.330   5.329  1.00  0.00    -0.187 NA  
ATOM     12  N5  UNL     1      -2.743   1.804   4.290  1.00  0.00    -0.231 N   
ATOM     13  C1  UNL     1      -0.884   1.468   7.284  1.00  0.00     0.068 C   
ATOM     14  C21 UNL     1      -3.397   2.699   3.362  1.00  0.00     0.159 C   
ENDBRANCH   7   8
ENDBRANCH   1   7
BRANCH   3  15
ATOM     15  C8  UNL     1       0.464  -0.225  -0.275  1.00  0.00     0.114 C   
BRANCH  15  16
ATOM     16  C9  UNL     1       1.295   1.061  -0.097  1.00  0.00     0.064 C   
BRANCH  16  17
ATOM     17  C10 UNL     1       1.826   1.314   1.331  1.00  0.00    -0.012 C   
ATOM     18  C11 UNL     1       2.547   2.664   1.381  1.00  0.00     0.007 C   
ATOM     19  C12 UNL     1       2.771   0.208   1.803  1.00  0.00     0.007 C   
ENDBRANCH  16  17
ENDBRANCH  15  16
BRANCH  15  20
ATOM     20  N2  UNL     1       0.158  -0.344  -1.749  1.00  0.00     0.249 N   
ATOM     21  H18 UNL     1       0.960  -0.062  -2.321  1.00  0.00     0.199 HD  
ATOM     22  H19 UNL     1      -0.592   0.333  -1.953  1.00  0.00     0.199 HD  
BRANCH  20  23
ATOM     23  C13 UNL     1      -0.315  -1.683  -2.198  1.00  0.00     0.164 C   
BRANCH  23  24
ATOM     24  C14 UNL     1      -0.570  -1.675  -3.678  1.00  0.00    -0.002 A   
ATOM     25  C15 UNL     1      -1.832  -1.281  -4.181  1.00  0.00     0.012 A   
ATOM     26  C19 UNL     1       0.465  -1.994  -4.574  1.00  0.00     0.045 A   
ATOM     27  C16 UNL     1      -2.066  -1.215  -5.559  1.00  0.00     0.037 A   
ATOM     28  C18 UNL     1       0.202  -1.912  -5.925  1.00  0.00     0.109 A   
ATOM     29  C17 UNL     1      -1.026  -1.533  -6.404  1.00  0.00     0.108 A   
ATOM     30  O1  UNL     1       1.091  -2.171  -6.920  1.00  0.00    -0.316 OA  
ATOM     31  O2  UNL     1      -1.067  -1.512  -7.762  1.00  0.00    -0.316 OA  
ATOM     32  C20 UNL     1       0.277  -1.922  -8.088  1.00  0.00     0.337 C   
ENDBRANCH  23  24
ENDBRANCH  20  23
ENDBRANCH  15  20
ENDBRANCH   3  15
TORSDOF 8
