REMARK SMILES Cc1nn(C)c(C)c1CCn1cc([C@@H]([NH2+]Cc2ccc3c(c2)OCO3)C2CCCCC2)nn1
REMARK SMILES IDX 11 1 12 2 13 3 32 4 33 5 10 7 9 8 8 9 2 10 3 11 4 12 6 13
REMARK SMILES IDX 1 14 5 15 7 16 14 17 15 18 16 21 17 22 18 23 22 24 19 25
REMARK SMILES IDX 21 26 20 27 23 28 25 29 24 30 26 31 27 32 31 33 28 34 30 35
REMARK SMILES IDX 29 36
REMARK H PARENT 12 6 15 19 15 20
ROOT
ATOM     1   N3  UNL     1       2.099  -1.472   1.863  1.00  0.00    -0.212 N   
ATOM     2   C9  UNL     1       1.676  -1.356   0.570  1.00  0.00     0.045 A   
ATOM     3   C10 UNL     1       0.320  -1.585   0.643  1.00  0.00     0.127 A   
ATOM     4   N5  UNL     1      -0.010  -1.907   1.936  1.00  0.00    -0.132 NA  
ATOM     5   N6  UNL     1       1.091  -1.852   2.669  1.00  0.00    -0.076 NA  
ATOM     6   H14 UNL     1       2.341  -1.076  -0.236  1.00  0.00     0.083 HD  
ENDROOT
BRANCH   1   7
ATOM     7   C8  UNL     1       3.423  -1.217   2.392  1.00  0.00     0.139 C   
BRANCH   7   8
ATOM     8   C7  UNL     1       3.543   0.153   3.062  1.00  0.00     0.060 C   
BRANCH   8   9
ATOM     9   C6  UNL     1       3.245   1.288   2.131  1.00  0.00    -0.005 A   
ATOM     10  C2  UNL     1       2.068   2.088   2.104  1.00  0.00     0.060 A   
ATOM     11  N1  UNL     1       2.089   2.963   1.095  1.00  0.00    -0.187 NA  
ATOM     12  N2  UNL     1       3.305   2.812   0.547  1.00  0.00    -0.233 N   
ATOM     13  C4  UNL     1       4.033   1.793   1.109  1.00  0.00     0.030 A   
ATOM     14  C1  UNL     1       0.897   2.035   3.015  1.00  0.00     0.069 C   
ATOM     15  C3  UNL     1       3.708   3.687  -0.531  1.00  0.00     0.159 C   
ATOM     16  C5  UNL     1       5.394   1.426   0.639  1.00  0.00     0.064 C   
ENDBRANCH   8   9
ENDBRANCH   7   8
ENDBRANCH   1   7
BRANCH   3  17
ATOM     17  C11 UNL     1      -0.734  -1.575  -0.415  1.00  0.00     0.117 C   
BRANCH  17  18
ATOM     18  N4  UNL     1      -1.822  -2.575  -0.080  1.00  0.00     0.249 N   
ATOM     19  H16 UNL     1      -2.654  -2.397  -0.650  1.00  0.00     0.199 HD  
ATOM     20  H17 UNL     1      -2.076  -2.400   0.902  1.00  0.00     0.199 HD  
BRANCH  18  21
ATOM     21  C12 UNL     1      -1.450  -4.017  -0.179  1.00  0.00     0.164 C   
BRANCH  21  22
ATOM     22  C13 UNL     1      -1.171  -4.455  -1.590  1.00  0.00    -0.002 A   
ATOM     23  C14 UNL     1      -2.231  -4.620  -2.515  1.00  0.00     0.012 A   
ATOM     24  C18 UNL     1       0.152  -4.675  -2.009  1.00  0.00     0.045 A   
ATOM     25  C15 UNL     1      -1.977  -4.991  -3.840  1.00  0.00     0.037 A   
ATOM     26  C17 UNL     1       0.367  -5.038  -3.322  1.00  0.00     0.109 A   
ATOM     27  C16 UNL     1      -0.666  -5.192  -4.212  1.00  0.00     0.108 A   
ATOM     28  O1  UNL     1       1.579  -5.278  -3.887  1.00  0.00    -0.316 OA  
ATOM     29  O2  UNL     1      -0.236  -5.551  -5.449  1.00  0.00    -0.316 OA  
ATOM     30  C19 UNL     1       1.187  -5.647  -5.229  1.00  0.00     0.337 C   
ENDBRANCH  21  22
ENDBRANCH  18  21
ENDBRANCH  17  18
BRANCH  17  31
ATOM     31  C20 UNL     1      -1.401  -0.190  -0.646  1.00  0.00     0.043 C   
ATOM     32  C21 UNL     1      -2.135   0.376   0.585  1.00  0.00     0.010 C   
ATOM     33  C25 UNL     1      -0.392   0.842  -1.188  1.00  0.00     0.010 C   
ATOM     34  C22 UNL     1      -2.790   1.723   0.283  1.00  0.00     0.001 C   
ATOM     35  C24 UNL     1      -1.056   2.183  -1.489  1.00  0.00     0.001 C   
ATOM     36  C23 UNL     1      -1.789   2.731  -0.270  1.00  0.00     0.000 C   
ENDBRANCH  17  31
ENDBRANCH   3  17
TORSDOF 8
