REMARK SMILES CC(C)(C)[C@H]([NH2+]Cc1ccc2c(c1)OCO2)c1cn(Cc2cc(F)cc(F)c2O)nn1
REMARK SMILES IDX 17 1 18 2 19 3 30 4 31 5 5 7 2 8 1 9 3 10 4 11 6 12 7 15
REMARK SMILES IDX 8 16 9 17 13 18 10 19 12 20 11 21 14 22 16 23 15 24 20 25
REMARK SMILES IDX 21 26 22 27 28 28 23 29 26 30 25 31 24 32 27 33 29 34
REMARK H PARENT 18 6 6 13 6 14 29 35
ROOT
ATOM     1   C14 UNL     1       0.425  -0.255   1.465  1.00  0.00     0.127 A   
ATOM     2   C15 UNL     1       0.796  -1.564   1.679  1.00  0.00     0.046 A   
ATOM     3   N2  UNL     1      -0.250  -2.094   2.385  1.00  0.00    -0.208 N   
ATOM     4   N3  UNL     1      -1.214  -1.173   2.576  1.00  0.00    -0.076 NA  
ATOM     5   N4  UNL     1      -0.812  -0.042   2.020  1.00  0.00    -0.132 NA  
ATOM     6   H20 UNL     1       1.662  -2.152   1.406  1.00  0.00     0.083 HD  
ENDROOT
BRANCH   1   7
ATOM     7   C5  UNL     1       1.088   0.854   0.703  1.00  0.00     0.120 C   
BRANCH   7   8
ATOM     8   C2  UNL     1       2.033   1.756   1.572  1.00  0.00     0.010 C   
ATOM     9   C1  UNL     1       1.271   2.537   2.662  1.00  0.00     0.017 C   
ATOM     10  C3  UNL     1       3.115   0.893   2.260  1.00  0.00     0.017 C   
ATOM     11  C4  UNL     1       2.776   2.775   0.676  1.00  0.00     0.017 C   
ENDBRANCH   7   8
BRANCH   7  12
ATOM     12  N1  UNL     1       0.015   1.694   0.049  1.00  0.00     0.250 N   
ATOM     13  H11 UNL     1       0.350   2.621  -0.224  1.00  0.00     0.199 HD  
ATOM     14  H12 UNL     1      -0.710   1.851   0.765  1.00  0.00     0.199 HD  
BRANCH  12  15
ATOM     15  C6  UNL     1      -0.660   1.067  -1.122  1.00  0.00     0.164 C   
BRANCH  15  16
ATOM     16  C7  UNL     1      -1.768   1.951  -1.619  1.00  0.00    -0.002 A   
ATOM     17  C8  UNL     1      -3.057   1.866  -1.038  1.00  0.00     0.012 A   
ATOM     18  C12 UNL     1      -1.521   2.904  -2.621  1.00  0.00     0.045 A   
ATOM     19  C9  UNL     1      -4.090   2.711  -1.456  1.00  0.00     0.037 A   
ATOM     20  C11 UNL     1      -2.562   3.722  -3.009  1.00  0.00     0.109 A   
ATOM     21  C10 UNL     1      -3.810   3.629  -2.444  1.00  0.00     0.108 A   
ATOM     22  O1  UNL     1      -2.493   4.692  -3.958  1.00  0.00    -0.316 OA  
ATOM     23  O2  UNL     1      -4.685   4.526  -2.968  1.00  0.00    -0.316 OA  
ATOM     24  C13 UNL     1      -3.852   5.184  -3.946  1.00  0.00     0.337 C   
ENDBRANCH  15  16
ENDBRANCH  12  15
ENDBRANCH   7  12
ENDBRANCH   1   7
BRANCH   3  25
ATOM     25  C16 UNL     1      -0.394  -3.441   2.909  1.00  0.00     0.172 C   
BRANCH  25  26
ATOM     26  C17 UNL     1      -1.076  -4.339   1.912  1.00  0.00     0.007 A   
ATOM     27  C18 UNL     1      -2.472  -4.497   1.936  1.00  0.00     0.047 A   
ATOM     28  C22 UNL     1      -0.356  -5.021   0.927  1.00  0.00     0.112 A   
ATOM     29  C19 UNL     1      -3.105  -5.324   1.006  1.00  0.00     0.126 A   
ATOM     30  C21 UNL     1      -1.007  -5.847   0.007  1.00  0.00     0.156 A   
ATOM     31  C20 UNL     1      -2.383  -6.007   0.038  1.00  0.00     0.081 A   
ATOM     32  F1  UNL     1      -4.436  -5.455   1.048  1.00  0.00    -0.207 F   
ATOM     33  F2  UNL     1      -0.281  -6.481  -0.924  1.00  0.00    -0.204 F   
BRANCH  28  34
ATOM     34  O3  UNL     1       1.002  -4.870   0.860  1.00  0.00    -0.358 OA  
ATOM     35  H25 UNL     1       1.324  -5.510   0.192  1.00  0.00     0.218 HD  
ENDBRANCH  28  34
ENDBRANCH  25  26
ENDBRANCH   3  25
TORSDOF 8
