REMARK SMILES Cc1ccccc1[C@H](O)Cn1cc([C@H](CC(C)C)[NH2+]Cc2ccc3c(c2)OCO3)nn1
REMARK SMILES IDX 11 1 12 2 13 3 30 4 31 5 10 7 8 8 7 9 2 10 3 11 4 12 6 13
REMARK SMILES IDX 5 14 1 15 9 16 14 18 15 19 16 20 17 21 18 22 19 23 20 26
REMARK SMILES IDX 21 27 22 28 26 29 23 30 25 31 24 32 27 33 29 34 28 35
REMARK H PARENT 12 6 9 17 19 24 19 25
ROOT
ATOM     1   N1  UNL     1      -1.083   0.670  -3.240  1.00  0.00    -0.209 N   
ATOM     2   C10 UNL     1      -0.209   0.393  -2.227  1.00  0.00     0.045 A   
ATOM     3   C11 UNL     1      -0.081   1.593  -1.563  1.00  0.00     0.127 A   
ATOM     4   N3  UNL     1      -0.808   2.551  -2.221  1.00  0.00    -0.132 NA  
ATOM     5   N4  UNL     1      -1.405   1.977  -3.253  1.00  0.00    -0.076 NA  
ATOM     6   H12 UNL     1       0.181  -0.601  -2.051  1.00  0.00     0.083 HD  
ENDROOT
BRANCH   1   7
ATOM     7   C9  UNL     1      -1.642  -0.242  -4.213  1.00  0.00     0.170 C   
BRANCH   7   8
ATOM     8   C8  UNL     1      -3.004  -0.810  -3.792  1.00  0.00     0.164 C   
BRANCH   8   9
ATOM     9   C7  UNL     1      -2.943  -1.624  -2.507  1.00  0.00    -0.015 A   
ATOM     10  C2  UNL     1      -3.553  -1.193  -1.308  1.00  0.00    -0.045 A   
ATOM     11  C3  UNL     1      -3.444  -1.993  -0.157  1.00  0.00     0.004 A   
ATOM     12  C4  UNL     1      -2.732  -3.192  -0.178  1.00  0.00     0.000 A   
ATOM     13  C6  UNL     1      -2.236  -2.844  -2.509  1.00  0.00     0.007 A   
ATOM     14  C5  UNL     1      -2.129  -3.617  -1.353  1.00  0.00     0.000 A   
ATOM     15  C1  UNL     1      -4.354   0.078  -1.220  1.00  0.00     0.045 C   
ENDBRANCH   8   9
BRANCH   8  16
ATOM     16  O1  UNL     1      -3.490  -1.647  -4.849  1.00  0.00    -0.387 OA  
ATOM     17  H9  UNL     1      -4.184  -2.220  -4.473  1.00  0.00     0.211 HD  
ENDBRANCH   8  16
ENDBRANCH   7   8
ENDBRANCH   1   7
BRANCH   3  18
ATOM     18  C12 UNL     1       0.699   1.963  -0.348  1.00  0.00     0.114 C   
BRANCH  18  19
ATOM     19  C13 UNL     1      -0.183   2.046   0.916  1.00  0.00     0.064 C   
BRANCH  19  20
ATOM     20  C14 UNL     1      -0.852   0.719   1.336  1.00  0.00    -0.012 C   
ATOM     21  C15 UNL     1      -1.737   0.952   2.564  1.00  0.00     0.007 C   
ATOM     22  C16 UNL     1       0.161  -0.389   1.631  1.00  0.00     0.007 C   
ENDBRANCH  19  20
ENDBRANCH  18  19
BRANCH  18  23
ATOM     23  N2  UNL     1       1.331   3.330  -0.527  1.00  0.00     0.249 N   
ATOM     24  H23 UNL     1       0.572   3.965  -0.811  1.00  0.00     0.199 HD  
ATOM     25  H24 UNL     1       1.693   3.669   0.369  1.00  0.00     0.199 HD  
BRANCH  23  26
ATOM     26  C17 UNL     1       2.408   3.430  -1.558  1.00  0.00     0.164 C   
BRANCH  26  27
ATOM     27  C18 UNL     1       3.607   2.579  -1.237  1.00  0.00    -0.002 A   
ATOM     28  C19 UNL     1       3.878   1.420  -2.002  1.00  0.00     0.012 A   
ATOM     29  C23 UNL     1       4.440   2.901  -0.149  1.00  0.00     0.045 A   
ATOM     30  C20 UNL     1       4.955   0.586  -1.687  1.00  0.00     0.037 A   
ATOM     31  C22 UNL     1       5.488   2.052   0.140  1.00  0.00     0.109 A   
ATOM     32  C21 UNL     1       5.738   0.927  -0.607  1.00  0.00     0.108 A   
ATOM     33  O2  UNL     1       6.370   2.203   1.162  1.00  0.00    -0.316 OA  
ATOM     34  O3  UNL     1       6.810   0.230  -0.151  1.00  0.00    -0.316 OA  
ATOM     35  C24 UNL     1       7.217   1.047   0.968  1.00  0.00     0.337 C   
ENDBRANCH  26  27
ENDBRANCH  23  26
ENDBRANCH  18  23
ENDBRANCH   3  18
TORSDOF 10
