REMARK SMILES Cc1ccccc1[C@@H](O)Cn1cc([C@H](CC(C)C)[NH2+]Cc2ccc3c(c2)OCO3)nn1
REMARK SMILES IDX 11 1 12 2 13 3 30 4 31 5 10 7 8 8 7 9 2 10 3 11 4 12 6 13
REMARK SMILES IDX 5 14 1 15 9 16 14 18 15 19 16 20 17 21 18 22 19 23 20 26
REMARK SMILES IDX 21 27 22 28 26 29 23 30 25 31 24 32 27 33 29 34 28 35
REMARK H PARENT 12 6 9 17 19 24 19 25
ROOT
ATOM     1   N1  UNL     1      -0.898  -2.558   0.627  1.00  0.00    -0.209 N   
ATOM     2   C10 UNL     1      -0.077  -1.540   1.020  1.00  0.00     0.045 A   
ATOM     3   C11 UNL     1      -0.945  -0.576   1.484  1.00  0.00     0.127 A   
ATOM     4   N3  UNL     1      -2.232  -1.025   1.348  1.00  0.00    -0.132 NA  
ATOM     5   N4  UNL     1      -2.189  -2.251   0.850  1.00  0.00    -0.076 NA  
ATOM     6   H12 UNL     1       0.998  -1.598   0.941  1.00  0.00     0.083 HD  
ENDROOT
BRANCH   1   7
ATOM     7   C9  UNL     1      -0.530  -3.810   0.012  1.00  0.00     0.170 C   
BRANCH   7   8
ATOM     8   C8  UNL     1      -0.984  -3.929  -1.448  1.00  0.00     0.164 C   
BRANCH   8   9
ATOM     9   C7  UNL     1      -0.474  -2.801  -2.338  1.00  0.00    -0.015 A   
ATOM     10  C2  UNL     1      -1.340  -1.877  -2.963  1.00  0.00    -0.045 A   
ATOM     11  C3  UNL     1      -0.796  -0.859  -3.765  1.00  0.00     0.004 A   
ATOM     12  C4  UNL     1       0.583  -0.751  -3.954  1.00  0.00     0.000 A   
ATOM     13  C6  UNL     1       0.915  -2.675  -2.545  1.00  0.00     0.007 A   
ATOM     14  C5  UNL     1       1.437  -1.657  -3.341  1.00  0.00     0.000 A   
ATOM     15  C1  UNL     1      -2.836  -1.962  -2.829  1.00  0.00     0.045 C   
ENDBRANCH   8   9
BRANCH   8  16
ATOM     16  O1  UNL     1      -0.502  -5.172  -1.966  1.00  0.00    -0.387 OA  
ATOM     17  H9  UNL     1      -0.663  -5.162  -2.929  1.00  0.00     0.211 HD  
ENDBRANCH   8  16
ENDBRANCH   7   8
ENDBRANCH   1   7
BRANCH   3  18
ATOM     18  C12 UNL     1      -0.700   0.812   1.969  1.00  0.00     0.114 C   
BRANCH  18  19
ATOM     19  C13 UNL     1      -0.816   0.940   3.497  1.00  0.00     0.064 C   
BRANCH  19  20
ATOM     20  C14 UNL     1       0.213   0.120   4.308  1.00  0.00    -0.012 C   
ATOM     21  C15 UNL     1      -0.042   0.325   5.806  1.00  0.00     0.007 C   
ATOM     22  C16 UNL     1       1.658   0.493   3.973  1.00  0.00     0.007 C   
ENDBRANCH  19  20
ENDBRANCH  18  19
BRANCH  18  23
ATOM     23  N2  UNL     1      -1.729   1.739   1.354  1.00  0.00     0.249 N   
ATOM     24  H23 UNL     1      -1.776   2.623   1.871  1.00  0.00     0.199 HD  
ATOM     25  H24 UNL     1      -2.639   1.269   1.470  1.00  0.00     0.199 HD  
BRANCH  23  26
ATOM     26  C17 UNL     1      -1.545   2.026  -0.101  1.00  0.00     0.164 C   
BRANCH  26  27
ATOM     27  C18 UNL     1      -0.467   3.047  -0.343  1.00  0.00    -0.002 A   
ATOM     28  C19 UNL     1      -0.752   4.427  -0.208  1.00  0.00     0.012 A   
ATOM     29  C23 UNL     1       0.843   2.640  -0.650  1.00  0.00     0.045 A   
ATOM     30  C20 UNL     1       0.251   5.388  -0.374  1.00  0.00     0.037 A   
ATOM     31  C22 UNL     1       1.812   3.613  -0.794  1.00  0.00     0.109 A   
ATOM     32  C21 UNL     1       1.524   4.948  -0.665  1.00  0.00     0.108 A   
ATOM     33  O2  UNL     1       3.126   3.387  -1.061  1.00  0.00    -0.316 OA  
ATOM     34  O3  UNL     1       2.618   5.732  -0.846  1.00  0.00    -0.316 OA  
ATOM     35  C24 UNL     1       3.629   4.741  -1.131  1.00  0.00     0.337 C   
ENDBRANCH  26  27
ENDBRANCH  23  26
ENDBRANCH  18  23
ENDBRANCH   3  18
TORSDOF 10
