REMARK SMILES O=C(Cn1cc([C@@H]([NH2+]Cc2ccc3c(c2)OCO3)C2CCCC2)nn1)c1cccc(Cl)c1
REMARK SMILES IDX 4 1 5 2 6 3 24 4 25 5 3 7 2 8 1 9 26 10 27 11 32 12 28 13
REMARK SMILES IDX 30 14 29 15 31 16 7 17 8 18 9 21 10 22 11 23 15 24 12 25
REMARK SMILES IDX 14 26 13 27 16 28 18 29 17 30 19 31 20 32 23 33 21 34 22 35
REMARK H PARENT 5 6 8 19 8 20
ROOT
ATOM     1   N1  UNL     1      -0.186   0.794   3.093  1.00  0.00    -0.204 N   
ATOM     2   C3  UNL     1      -0.556  -0.429   2.609  1.00  0.00     0.046 A   
ATOM     3   C4  UNL     1       0.062  -0.501   1.381  1.00  0.00     0.127 A   
ATOM     4   N3  UNL     1       0.782   0.649   1.173  1.00  0.00    -0.132 NA  
ATOM     5   N4  UNL     1       0.613   1.437   2.222  1.00  0.00    -0.076 NA  
ATOM     6   H3  UNL     1      -1.220  -1.088   3.153  1.00  0.00     0.083 HD  
ENDROOT
BRANCH   1   7
ATOM     7   C2  UNL     1      -0.583   1.422   4.331  1.00  0.00     0.214 C   
BRANCH   7   8
ATOM     8   C1  UNL     1      -1.960   2.016   4.186  1.00  0.00     0.182 C   
ATOM     9   O1  UNL     1      -2.956   1.293   4.240  1.00  0.00    -0.292 OA  
BRANCH   8  10
ATOM     10  C19 UNL     1      -2.135   3.480   3.943  1.00  0.00     0.021 A   
ATOM     11  C20 UNL     1      -1.073   4.330   3.611  1.00  0.00     0.012 A   
ATOM     12  C24 UNL     1      -3.431   4.005   4.042  1.00  0.00     0.032 A   
ATOM     13  C21 UNL     1      -1.305   5.692   3.401  1.00  0.00     0.002 A   
ATOM     14  C23 UNL     1      -3.654   5.363   3.823  1.00  0.00     0.041 A   
ATOM     15  C22 UNL     1      -2.595   6.208   3.511  1.00  0.00     0.020 A   
ATOM     16  CL1 UNL     1      -5.248   5.994   3.939  1.00  0.00    -0.084 Cl  
ENDBRANCH   8  10
ENDBRANCH   7   8
ENDBRANCH   1   7
BRANCH   3  17
ATOM     17  C5  UNL     1       0.018  -1.553   0.318  1.00  0.00     0.117 C   
BRANCH  17  18
ATOM     18  N2  UNL     1       0.326  -0.947  -1.025  1.00  0.00     0.249 N   
ATOM     19  H5  UNL     1       1.092  -0.272  -0.880  1.00  0.00     0.199 HD  
ATOM     20  H6  UNL     1       0.678  -1.639  -1.693  1.00  0.00     0.199 HD  
BRANCH  18  21
ATOM     21  C6  UNL     1      -0.802  -0.198  -1.647  1.00  0.00     0.164 C   
BRANCH  21  22
ATOM     22  C7  UNL     1      -0.364   0.446  -2.931  1.00  0.00    -0.002 A   
ATOM     23  C8  UNL     1       0.227   1.734  -2.915  1.00  0.00     0.012 A   
ATOM     24  C12 UNL     1      -0.492  -0.242  -4.148  1.00  0.00     0.045 A   
ATOM     25  C9  UNL     1       0.670   2.336  -4.097  1.00  0.00     0.037 A   
ATOM     26  C11 UNL     1      -0.048   0.382  -5.295  1.00  0.00     0.109 A   
ATOM     27  C10 UNL     1       0.517   1.634  -5.271  1.00  0.00     0.108 A   
ATOM     28  O2  UNL     1      -0.105  -0.139  -6.548  1.00  0.00    -0.316 OA  
ATOM     29  O3  UNL     1       0.883   2.060  -6.508  1.00  0.00    -0.316 OA  
ATOM     30  C13 UNL     1       0.454   0.947  -7.323  1.00  0.00     0.337 C   
ENDBRANCH  21  22
ENDBRANCH  18  21
ENDBRANCH  17  18
BRANCH  17  31
ATOM     31  C14 UNL     1       0.983  -2.716   0.616  1.00  0.00     0.043 C   
ATOM     32  C15 UNL     1       2.480  -2.374   0.587  1.00  0.00     0.010 C   
ATOM     33  C18 UNL     1       0.830  -3.926  -0.329  1.00  0.00     0.010 C   
ATOM     34  C16 UNL     1       3.140  -3.721   0.339  1.00  0.00     0.001 C   
ATOM     35  C17 UNL     1       2.248  -4.339  -0.724  1.00  0.00     0.001 C   
ENDBRANCH  17  31
ENDBRANCH   3  17
TORSDOF 8
