REMARK SMILES Cc1nn(C(C)C)c(C)c1Cn1cc([C@H](CC(C)C)[NH2+]Cc2ccc3c(c2)OCO3)nn1
REMARK SMILES IDX 12 1 13 2 14 3 31 4 32 5 11 7 10 8 2 9 3 10 4 11 8 12 1 13
REMARK SMILES IDX 9 14 5 15 6 16 7 17 15 18 16 19 17 20 18 21 19 22 20 23
REMARK SMILES IDX 21 26 22 27 23 28 27 29 24 30 26 31 25 32 28 33 30 34 29 35
REMARK H PARENT 13 6 20 24 20 25
ROOT
ATOM     1   N3  UNL     1       2.622   1.978  -0.237  1.00  0.00    -0.208 N   
ATOM     2   C10 UNL     1       1.711   1.318  -1.019  1.00  0.00     0.046 A   
ATOM     3   C11 UNL     1       0.802   2.291  -1.362  1.00  0.00     0.127 A   
ATOM     4   N5  UNL     1       1.209   3.493  -0.845  1.00  0.00    -0.132 NA  
ATOM     5   N6  UNL     1       2.322   3.290  -0.159  1.00  0.00    -0.076 NA  
ATOM     6   H16 UNL     1       1.758   0.249  -1.183  1.00  0.00     0.083 HD  
ENDROOT
BRANCH   1   7
ATOM     7   C9  UNL     1       3.687   1.404   0.574  1.00  0.00     0.173 C   
BRANCH   7   8
ATOM     8   C8  UNL     1       3.094   0.489   1.595  1.00  0.00     0.013 A   
ATOM     9   C2  UNL     1       2.284   0.866   2.699  1.00  0.00     0.062 A   
ATOM     10  N1  UNL     1       1.820  -0.198   3.351  1.00  0.00    -0.186 NA  
ATOM     11  N2  UNL     1       2.405  -1.258   2.759  1.00  0.00    -0.227 N   
ATOM     12  C6  UNL     1       3.181  -0.896   1.679  1.00  0.00     0.032 A   
ATOM     13  C1  UNL     1       1.888   2.228   3.141  1.00  0.00     0.069 C   
ATOM     14  C7  UNL     1       3.925  -1.858   0.822  1.00  0.00     0.064 C   
BRANCH  11  15
ATOM     15  C3  UNL     1       2.143  -2.575   3.342  1.00  0.00     0.092 C   
ATOM     16  C4  UNL     1       1.688  -3.625   2.330  1.00  0.00     0.030 C   
ATOM     17  C5  UNL     1       3.320  -3.063   4.184  1.00  0.00     0.030 C   
ENDBRANCH  11  15
ENDBRANCH   7   8
ENDBRANCH   1   7
BRANCH   3  18
ATOM     18  C12 UNL     1      -0.515   2.194  -2.053  1.00  0.00     0.114 C   
BRANCH  18  19
ATOM     19  C13 UNL     1      -0.488   2.788  -3.474  1.00  0.00     0.064 C   
BRANCH  19  20
ATOM     20  C14 UNL     1       0.459   2.073  -4.462  1.00  0.00    -0.012 C   
ATOM     21  C15 UNL     1       0.093   0.601  -4.659  1.00  0.00     0.007 C   
ATOM     22  C16 UNL     1       0.437   2.796  -5.812  1.00  0.00     0.007 C   
ENDBRANCH  19  20
ENDBRANCH  18  19
BRANCH  18  23
ATOM     23  N4  UNL     1      -1.562   2.967  -1.271  1.00  0.00     0.249 N   
ATOM     24  H27 UNL     1      -1.200   3.926  -1.175  1.00  0.00     0.199 HD  
ATOM     25  H28 UNL     1      -2.432   3.018  -1.809  1.00  0.00     0.199 HD  
BRANCH  23  26
ATOM     26  C17 UNL     1      -1.861   2.471   0.108  1.00  0.00     0.164 C   
BRANCH  26  27
ATOM     27  C18 UNL     1      -2.449   1.088   0.128  1.00  0.00    -0.002 A   
ATOM     28  C19 UNL     1      -3.768   0.862  -0.336  1.00  0.00     0.012 A   
ATOM     29  C23 UNL     1      -1.682   0.002   0.588  1.00  0.00     0.045 A   
ATOM     30  C20 UNL     1      -4.315  -0.425  -0.347  1.00  0.00     0.037 A   
ATOM     31  C22 UNL     1      -2.251  -1.254   0.561  1.00  0.00     0.109 A   
ATOM     32  C21 UNL     1      -3.530  -1.462   0.106  1.00  0.00     0.108 A   
ATOM     33  O1  UNL     1      -1.650  -2.405   0.960  1.00  0.00    -0.316 OA  
ATOM     34  O2  UNL     1      -3.898  -2.768   0.171  1.00  0.00    -0.316 OA  
ATOM     35  C24 UNL     1      -2.717  -3.358   0.755  1.00  0.00     0.337 C   
ENDBRANCH  26  27
ENDBRANCH  23  26
ENDBRANCH  18  23
ENDBRANCH   3  18
TORSDOF 9
