REMARK SMILES C[C@H](O)c1cccc(-n2cc([C@@H]([NH2+]Cc3ccc4c(c3)OCO4)C(C)(C)C)nn2)c1
REMARK SMILES IDX 9 1 10 2 11 3 28 4 29 5 8 6 4 7 5 8 30 9 6 10 7 11 2 12 1 13
REMARK SMILES IDX 3 14 12 16 13 17 14 20 15 21 16 22 20 23 17 24 19 25 18 26
REMARK SMILES IDX 21 27 23 28 22 29 24 30 25 31 26 32 27 33
REMARK H PARENT 3 15 13 18 13 19
ROOT
ATOM     1   N1  UNL     1      -2.024   1.503  -1.898  1.00  0.00    -0.181 N   
ATOM     2   C8  UNL     1      -1.521   0.812  -0.813  1.00  0.00     0.135 A   
ATOM     3   C9  UNL     1      -0.713   1.712  -0.155  1.00  0.00     0.128 A   
ATOM     4   N3  UNL     1      -0.707   2.891  -0.844  1.00  0.00    -0.131 NA  
ATOM     5   N4  UNL     1      -1.490   2.753  -1.901  1.00  0.00    -0.071 NA  
ENDROOT
BRANCH   1   6
ATOM     6   C7  UNL     1      -2.918   1.060  -2.902  1.00  0.00     0.058 A   
ATOM     7   C3  UNL     1      -4.333  -0.679  -3.871  1.00  0.00    -0.018 A   
ATOM     8   C4  UNL     1      -4.671   0.202  -4.909  1.00  0.00     0.006 A   
ATOM     9   C23 UNL     1      -3.458  -0.234  -2.864  1.00  0.00     0.032 A   
ATOM     10  C5  UNL     1      -4.143   1.493  -4.946  1.00  0.00     0.002 A   
ATOM     11  C6  UNL     1      -3.269   1.924  -3.948  1.00  0.00     0.026 A   
BRANCH   7  12
ATOM     12  C2  UNL     1      -4.943  -2.065  -3.831  1.00  0.00     0.141 C   
ATOM     13  C1  UNL     1      -6.257  -2.073  -3.061  1.00  0.00     0.043 C   
BRANCH  12  14
ATOM     14  O1  UNL     1      -4.034  -2.971  -3.207  1.00  0.00    -0.389 OA  
ATOM     15  H5  UNL     1      -4.404  -3.863  -3.330  1.00  0.00     0.211 HD  
ENDBRANCH  12  14
ENDBRANCH   7  12
ENDBRANCH   1   6
BRANCH   3  16
ATOM     16  C10 UNL     1       0.147   1.558   1.063  1.00  0.00     0.120 C   
BRANCH  16  17
ATOM     17  N2  UNL     1       1.422   2.361   0.879  1.00  0.00     0.250 N   
ATOM     18  H11 UNL     1       1.131   3.310   0.607  1.00  0.00     0.199 HD  
ATOM     19  H12 UNL     1       1.936   2.442   1.758  1.00  0.00     0.199 HD  
BRANCH  17  20
ATOM     20  C11 UNL     1       2.366   1.879  -0.177  1.00  0.00     0.164 C   
BRANCH  20  21
ATOM     21  C12 UNL     1       2.924   0.512   0.108  1.00  0.00    -0.002 A   
ATOM     22  C13 UNL     1       2.566  -0.586  -0.710  1.00  0.00     0.012 A   
ATOM     23  C17 UNL     1       3.787   0.308   1.200  1.00  0.00     0.045 A   
ATOM     24  C14 UNL     1       3.052  -1.870  -0.445  1.00  0.00     0.037 A   
ATOM     25  C16 UNL     1       4.245  -0.971   1.435  1.00  0.00     0.109 A   
ATOM     26  C15 UNL     1       3.889  -2.030   0.637  1.00  0.00     0.108 A   
ATOM     27  O2  UNL     1       5.074  -1.339   2.446  1.00  0.00    -0.316 OA  
ATOM     28  O3  UNL     1       4.452  -3.197   1.042  1.00  0.00    -0.316 OA  
ATOM     29  C18 UNL     1       5.232  -2.750   2.172  1.00  0.00     0.337 C   
ENDBRANCH  20  21
ENDBRANCH  17  20
ENDBRANCH  16  17
BRANCH  16  30
ATOM     30  C19 UNL     1      -0.561   1.966   2.405  1.00  0.00     0.010 C   
ATOM     31  C20 UNL     1       0.348   1.640   3.613  1.00  0.00     0.017 C   
ATOM     32  C21 UNL     1      -0.919   3.464   2.459  1.00  0.00     0.017 C   
ATOM     33  C22 UNL     1      -1.861   1.150   2.589  1.00  0.00     0.017 C   
ENDBRANCH  16  30
ENDBRANCH   3  16
TORSDOF 8
