REMARK SMILES C[C@@H](O)c1cccc(-n2cc([C@@H]([NH2+]Cc3ccc4c(c3)OCO4)C(C)(C)C)nn2)c1
REMARK SMILES IDX 9 1 10 2 11 3 28 4 29 5 8 6 4 7 5 8 30 9 6 10 7 11 2 12 1 13
REMARK SMILES IDX 3 14 12 16 13 17 14 20 15 21 16 22 20 23 17 24 19 25 18 26
REMARK SMILES IDX 21 27 23 28 22 29 24 30 25 31 26 32 27 33
REMARK H PARENT 3 15 13 18 13 19
ROOT
ATOM     1   N1  UNL     1      -1.250   1.081  -0.275  1.00  0.00    -0.181 N   
ATOM     2   C8  UNL     1       0.115   1.059  -0.059  1.00  0.00     0.135 A   
ATOM     3   C9  UNL     1       0.604   0.116  -0.935  1.00  0.00     0.128 A   
ATOM     4   N3  UNL     1      -0.439  -0.425  -1.635  1.00  0.00    -0.131 NA  
ATOM     5   N4  UNL     1      -1.555   0.152  -1.222  1.00  0.00    -0.071 NA  
ENDROOT
BRANCH   1   6
ATOM     6   C7  UNL     1      -2.242   1.870   0.356  1.00  0.00     0.058 A   
ATOM     7   C3  UNL     1      -2.879   3.601   1.957  1.00  0.00    -0.018 A   
ATOM     8   C4  UNL     1      -4.217   3.418   1.588  1.00  0.00     0.006 A   
ATOM     9   C23 UNL     1      -1.896   2.810   1.338  1.00  0.00     0.032 A   
ATOM     10  C5  UNL     1      -4.568   2.484   0.613  1.00  0.00     0.002 A   
ATOM     11  C6  UNL     1      -3.586   1.712  -0.006  1.00  0.00     0.026 A   
BRANCH   7  12
ATOM     12  C2  UNL     1      -2.528   4.630   3.010  1.00  0.00     0.141 C   
ATOM     13  C1  UNL     1      -2.724   4.086   4.418  1.00  0.00     0.043 C   
BRANCH  12  14
ATOM     14  O1  UNL     1      -1.168   5.040   2.859  1.00  0.00    -0.389 OA  
ATOM     15  H5  UNL     1      -1.027   5.777   3.479  1.00  0.00     0.211 HD  
ENDBRANCH  12  14
ENDBRANCH   7  12
ENDBRANCH   1   6
BRANCH   3  16
ATOM     16  C10 UNL     1       1.992  -0.411  -1.154  1.00  0.00     0.120 C   
BRANCH  16  17
ATOM     17  N2  UNL     1       1.905  -1.874  -1.529  1.00  0.00     0.250 N   
ATOM     18  H11 UNL     1       2.779  -2.226  -1.931  1.00  0.00     0.199 HD  
ATOM     19  H12 UNL     1       1.192  -1.953  -2.270  1.00  0.00     0.199 HD  
BRANCH  17  20
ATOM     20  C11 UNL     1       1.496  -2.796  -0.430  1.00  0.00     0.164 C   
BRANCH  20  21
ATOM     21  C12 UNL     1       1.485  -4.216  -0.919  1.00  0.00    -0.002 A   
ATOM     22  C13 UNL     1       0.355  -4.727  -1.602  1.00  0.00     0.012 A   
ATOM     23  C17 UNL     1       2.620  -5.029  -0.751  1.00  0.00     0.045 A   
ATOM     24  C14 UNL     1       0.350  -6.033  -2.104  1.00  0.00     0.037 A   
ATOM     25  C16 UNL     1       2.580  -6.311  -1.257  1.00  0.00     0.109 A   
ATOM     26  C15 UNL     1       1.478  -6.800  -1.915  1.00  0.00     0.108 A   
ATOM     27  O2  UNL     1       3.587  -7.221  -1.180  1.00  0.00    -0.316 OA  
ATOM     28  O3  UNL     1       1.649  -8.081  -2.335  1.00  0.00    -0.316 OA  
ATOM     29  C18 UNL     1       2.984  -8.352  -1.854  1.00  0.00     0.337 C   
ENDBRANCH  20  21
ENDBRANCH  17  20
ENDBRANCH  16  17
BRANCH  16  30
ATOM     30  C19 UNL     1       2.818   0.380  -2.229  1.00  0.00     0.010 C   
ATOM     31  C20 UNL     1       4.261  -0.171  -2.319  1.00  0.00     0.017 C   
ATOM     32  C21 UNL     1       2.187   0.306  -3.634  1.00  0.00     0.017 C   
ATOM     33  C22 UNL     1       2.932   1.868  -1.826  1.00  0.00     0.017 C   
ENDBRANCH  16  30
ENDBRANCH   3  16
TORSDOF 8
