REMARK SMILES CC(C)C[C@H]([NH2+]Cc1ccc2c(c1)OCO2)c1cn(-c2ccccc2N([O-])[O-])nn1
REMARK SMILES IDX 17 1 18 2 19 3 29 4 30 5 5 6 4 7 2 8 1 9 3 10 6 11 7 14 8 15
REMARK SMILES IDX 9 16 13 17 10 18 12 19 11 20 14 21 16 22 15 23 20 24 21 25
REMARK SMILES IDX 25 26 22 27 24 28 23 29 26 30 27 31 28 32
REMARK H PARENT 6 12 6 13
ROOT
ATOM     1   C14 UNL     1      -0.587  -0.826   1.744  1.00  0.00     0.127 A   
ATOM     2   C15 UNL     1       0.627  -0.341   1.310  1.00  0.00     0.135 A   
ATOM     3   N2  UNL     1       1.350  -1.450   0.917  1.00  0.00    -0.178 N   
ATOM     4   N4  UNL     1       0.594  -2.554   1.181  1.00  0.00    -0.071 NA  
ATOM     5   N5  UNL     1      -0.578  -2.184   1.667  1.00  0.00    -0.131 NA  
ENDROOT
BRANCH   1   6
ATOM     6   C5  UNL     1      -1.841  -0.116   2.131  1.00  0.00     0.114 C   
BRANCH   6   7
ATOM     7   C4  UNL     1      -2.187  -0.298   3.621  1.00  0.00     0.064 C   
BRANCH   7   8
ATOM     8   C2  UNL     1      -1.141   0.264   4.608  1.00  0.00    -0.012 C   
ATOM     9   C1  UNL     1      -1.575  -0.037   6.045  1.00  0.00     0.007 C   
ATOM     10  C3  UNL     1      -0.928   1.769   4.439  1.00  0.00     0.007 C   
ENDBRANCH   7   8
ENDBRANCH   6   7
BRANCH   6  11
ATOM     11  N1  UNL     1      -3.002  -0.676   1.325  1.00  0.00     0.249 N   
ATOM     12  H11 UNL     1      -3.865  -0.640   1.877  1.00  0.00     0.199 HD  
ATOM     13  H12 UNL     1      -2.798  -1.677   1.182  1.00  0.00     0.199 HD  
BRANCH  11  14
ATOM     14  C6  UNL     1      -3.261  -0.043  -0.005  1.00  0.00     0.164 C   
BRANCH  14  15
ATOM     15  C7  UNL     1      -2.119  -0.153  -0.977  1.00  0.00    -0.002 A   
ATOM     16  C8  UNL     1      -1.356   0.992  -1.316  1.00  0.00     0.012 A   
ATOM     17  C12 UNL     1      -1.764  -1.401  -1.518  1.00  0.00     0.045 A   
ATOM     18  C9  UNL     1      -0.238   0.891  -2.152  1.00  0.00     0.037 A   
ATOM     19  C11 UNL     1      -0.656  -1.465  -2.338  1.00  0.00     0.109 A   
ATOM     20  C10 UNL     1       0.090  -0.353  -2.641  1.00  0.00     0.108 A   
ATOM     21  O1  UNL     1      -0.160  -2.593  -2.910  1.00  0.00    -0.316 OA  
ATOM     22  O2  UNL     1       1.151  -0.642  -3.437  1.00  0.00    -0.316 OA  
ATOM     23  C13 UNL     1       0.961  -2.057  -3.648  1.00  0.00     0.337 C   
ENDBRANCH  14  15
ENDBRANCH  11  14
ENDBRANCH   6  11
ENDBRANCH   1   6
BRANCH   3  24
ATOM     24  C16 UNL     1       2.616  -1.583   0.272  1.00  0.00     0.086 A   
ATOM     25  C17 UNL     1       3.010  -2.876  -0.132  1.00  0.00     0.028 A   
ATOM     26  C21 UNL     1       3.493  -0.529  -0.026  1.00  0.00     0.141 A   
ATOM     27  C18 UNL     1       4.214  -3.089  -0.815  1.00  0.00     0.002 A   
ATOM     28  C20 UNL     1       4.701  -0.735  -0.715  1.00  0.00     0.033 A   
ATOM     29  C19 UNL     1       5.055  -2.020  -1.112  1.00  0.00     0.002 A   
BRANCH  26  30
ATOM     30  N3  UNL     1       3.248   0.827   0.394  1.00  0.00     0.094 N   
ATOM     31  O3  UNL     1       3.461   1.091   1.583  1.00  0.00    -0.138 OA  
ATOM     32  O4  UNL     1       2.796   1.606  -0.453  1.00  0.00    -0.138 OA  
ENDBRANCH  26  30
ENDBRANCH   3  24
TORSDOF 8
