REMARK SMILES CC(C)(C)[C@H]([NH2+]Cc1ccc2c(c1)OCO2)c1cn(Cc2n[nH]c3c2CCCN3)nn1
REMARK SMILES IDX 17 1 18 2 19 3 30 4 31 5 5 7 2 8 1 9 3 10 4 11 6 12 7 15
REMARK SMILES IDX 8 16 9 17 13 18 10 19 12 20 11 21 14 22 16 23 15 24 20 25
REMARK SMILES IDX 21 26 22 27 25 28 23 29 24 30 26 31 29 32 27 33 28 34
REMARK H PARENT 18 6 6 13 6 14 23 35 29 36
ROOT
ATOM     1   C14 UNL     1      -0.828  -0.525  -0.884  1.00  0.00     0.127 A   
ATOM     2   C15 UNL     1      -1.242  -0.255   0.401  1.00  0.00     0.046 A   
ATOM     3   N2  UNL     1      -1.503  -1.490   0.935  1.00  0.00    -0.206 N   
ATOM     4   N6  UNL     1      -1.266  -2.462   0.028  1.00  0.00    -0.076 NA  
ATOM     5   N7  UNL     1      -0.861  -1.883  -1.090  1.00  0.00    -0.132 NA  
ATOM     6   H20 UNL     1      -1.358   0.654   0.979  1.00  0.00     0.083 HD  
ENDROOT
BRANCH   1   7
ATOM     7   C5  UNL     1      -0.313   0.373  -1.969  1.00  0.00     0.120 C   
BRANCH   7   8
ATOM     8   C2  UNL     1      -1.430   0.974  -2.892  1.00  0.00     0.010 C   
ATOM     9   C1  UNL     1      -0.816   1.987  -3.887  1.00  0.00     0.017 C   
ATOM     10  C3  UNL     1      -2.180  -0.105  -3.698  1.00  0.00     0.017 C   
ATOM     11  C4  UNL     1      -2.464   1.752  -2.045  1.00  0.00     0.017 C   
ENDBRANCH   7   8
BRANCH   7  12
ATOM     12  N1  UNL     1       0.685  -0.412  -2.800  1.00  0.00     0.250 N   
ATOM     13  H11 UNL     1       0.253  -1.336  -2.952  1.00  0.00     0.199 HD  
ATOM     14  H12 UNL     1       0.829   0.009  -3.719  1.00  0.00     0.199 HD  
BRANCH  12  15
ATOM     15  C6  UNL     1       2.014  -0.654  -2.165  1.00  0.00     0.164 C   
BRANCH  15  16
ATOM     16  C7  UNL     1       2.900   0.560  -2.212  1.00  0.00    -0.002 A   
ATOM     17  C8  UNL     1       3.500   0.957  -3.431  1.00  0.00     0.012 A   
ATOM     18  C12 UNL     1       3.121   1.322  -1.051  1.00  0.00     0.045 A   
ATOM     19  C9  UNL     1       4.310   2.095  -3.497  1.00  0.00     0.037 A   
ATOM     20  C11 UNL     1       3.923   2.439  -1.151  1.00  0.00     0.109 A   
ATOM     21  C10 UNL     1       4.502   2.815  -2.339  1.00  0.00     0.108 A   
ATOM     22  O1  UNL     1       4.236   3.282  -0.132  1.00  0.00    -0.316 OA  
ATOM     23  O2  UNL     1       5.255   3.939  -2.218  1.00  0.00    -0.316 OA  
ATOM     24  C13 UNL     1       5.101   4.222  -0.809  1.00  0.00     0.337 C   
ENDBRANCH  15  16
ENDBRANCH  12  15
ENDBRANCH   7  12
ENDBRANCH   1   7
BRANCH   3  25
ATOM     25  C16 UNL     1      -1.978  -1.812   2.270  1.00  0.00     0.192 C   
BRANCH  25  26
ATOM     26  C17 UNL     1      -0.942  -1.458   3.280  1.00  0.00     0.084 A   
ATOM     27  N3  UNL     1      -0.930  -0.234   3.843  1.00  0.00    -0.186 NA  
ATOM     28  C19 UNL     1       0.114  -2.263   3.772  1.00  0.00     0.014 A   
ATOM     29  N4  UNL     1       0.105  -0.281   4.714  1.00  0.00    -0.225 N   
ATOM     30  C18 UNL     1       0.758  -1.473   4.687  1.00  0.00     0.107 A   
ATOM     31  C20 UNL     1       0.551  -3.658   3.501  1.00  0.00     0.042 C   
ATOM     32  N5  UNL     1       1.845  -1.810   5.414  1.00  0.00    -0.331 N   
ATOM     33  C21 UNL     1       1.993  -3.860   4.013  1.00  0.00     0.024 C   
ATOM     34  C22 UNL     1       2.198  -3.238   5.412  1.00  0.00     0.103 C   
ATOM     35  H23 UNL     1       0.313   0.537   5.280  1.00  0.00     0.177 HD  
ATOM     36  H30 UNL     1       2.078  -1.317   6.274  1.00  0.00     0.148 HD  
ENDBRANCH  25  26
ENDBRANCH   3  25
TORSDOF 7
