REMARK SMILES Cc1nc[nH]c1[C@H](CO)n1cc([C@@H]([NH2+]Cc2ccc3c(c2)OCO3)C(C)C)nn1
REMARK SMILES IDX 10 1 11 2 12 3 28 4 29 5 7 7 6 8 2 9 3 10 4 11 5 12 1 13
REMARK SMILES IDX 8 15 9 16 13 18 14 19 15 22 16 23 17 24 21 25 18 26 20 27
REMARK SMILES IDX 19 28 22 29 24 30 23 31 25 32 26 33 27 34
REMARK H PARENT 11 6 5 14 9 17 14 20 14 21
ROOT
ATOM     1   N3  UNL     1      -1.051   1.492   0.153  1.00  0.00    -0.201 N   
ATOM     2   C7  UNL     1      -0.201   0.420   0.228  1.00  0.00     0.046 A   
ATOM     3   C8  UNL     1      -0.811  -0.548  -0.536  1.00  0.00     0.127 A   
ATOM     4   N5  UNL     1      -2.008  -0.064  -1.005  1.00  0.00    -0.132 NA  
ATOM     5   N6  UNL     1      -2.146   1.180  -0.578  1.00  0.00    -0.075 NA  
ATOM     6   H10 UNL     1       0.721   0.450   0.793  1.00  0.00     0.083 HD  
ENDROOT
BRANCH   1   7
ATOM     7   C5  UNL     1      -0.929   2.825   0.747  1.00  0.00     0.171 C   
BRANCH   7   8
ATOM     8   C4  UNL     1       0.485   3.324   0.665  1.00  0.00     0.055 A   
ATOM     9   C2  UNL     1       1.221   3.835  -0.391  1.00  0.00     0.058 A   
ATOM     10  N1  UNL     1       2.502   4.115   0.016  1.00  0.00    -0.245 NA  
ATOM     11  C3  UNL     1       2.551   3.814   1.292  1.00  0.00     0.186 A   
ATOM     12  N2  UNL     1       1.358   3.322   1.730  1.00  0.00    -0.306 N   
ATOM     13  C1  UNL     1       0.814   4.064  -1.797  1.00  0.00     0.068 C   
ATOM     14  H5  UNL     1       1.150   2.996   2.667  1.00  0.00     0.154 HD  
ENDBRANCH   7   8
BRANCH   7  15
ATOM     15  C6  UNL     1      -1.536   2.851   2.162  1.00  0.00     0.187 C   
BRANCH  15  16
ATOM     16  O1  UNL     1      -0.750   2.110   3.107  1.00  0.00    -0.394 OA  
ATOM     17  H9  UNL     1      -1.332   1.946   3.876  1.00  0.00     0.210 HD  
ENDBRANCH  15  16
ENDBRANCH   7  15
ENDBRANCH   1   7
BRANCH   3  18
ATOM     18  C9  UNL     1      -0.429  -1.960  -0.838  1.00  0.00     0.117 C   
BRANCH  18  19
ATOM     19  N4  UNL     1      -1.681  -2.821  -0.839  1.00  0.00     0.249 N   
ATOM     20  H12 UNL     1      -1.645  -3.506  -1.599  1.00  0.00     0.199 HD  
ATOM     21  H13 UNL     1      -2.458  -2.181  -1.071  1.00  0.00     0.199 HD  
BRANCH  19  22
ATOM     22  C10 UNL     1      -2.010  -3.528   0.435  1.00  0.00     0.164 C   
BRANCH  22  23
ATOM     23  C11 UNL     1      -2.100  -2.635   1.643  1.00  0.00    -0.002 A   
ATOM     24  C12 UNL     1      -3.175  -1.727   1.796  1.00  0.00     0.012 A   
ATOM     25  C16 UNL     1      -1.083  -2.665   2.612  1.00  0.00     0.045 A   
ATOM     26  C13 UNL     1      -3.223  -0.843   2.882  1.00  0.00     0.037 A   
ATOM     27  C15 UNL     1      -1.160  -1.782   3.668  1.00  0.00     0.109 A   
ATOM     28  C14 UNL     1      -2.194  -0.890   3.796  1.00  0.00     0.108 A   
ATOM     29  O2  UNL     1      -0.249  -1.671   4.668  1.00  0.00    -0.316 OA  
ATOM     30  O3  UNL     1      -2.054  -0.089   4.886  1.00  0.00    -0.316 OA  
ATOM     31  C17 UNL     1      -0.851  -0.637   5.473  1.00  0.00     0.337 C   
ENDBRANCH  22  23
ENDBRANCH  19  22
ENDBRANCH  18  19
BRANCH  18  32
ATOM     32  C18 UNL     1       0.303  -2.140  -2.194  1.00  0.00     0.037 C   
ATOM     33  C19 UNL     1      -0.495  -1.663  -3.414  1.00  0.00     0.014 C   
ATOM     34  C20 UNL     1       1.679  -1.462  -2.180  1.00  0.00     0.014 C   
ENDBRANCH  18  32
ENDBRANCH   3  18
TORSDOF 9
