REMARK SMILES Cc1nc[nH]c1[C@@H](CO)n1cc([C@@H]([NH2+]Cc2ccc3c(c2)OCO3)C(C)C)nn1
REMARK SMILES IDX 10 1 11 2 12 3 28 4 29 5 7 7 6 8 2 9 3 10 4 11 5 12 1 13
REMARK SMILES IDX 8 15 9 16 13 18 14 19 15 22 16 23 17 24 21 25 18 26 20 27
REMARK SMILES IDX 19 28 22 29 24 30 23 31 25 32 26 33 27 34
REMARK H PARENT 11 6 5 14 9 17 14 20 14 21
ROOT
ATOM     1   N3  UNL     1      -1.704  -0.167  -0.043  1.00  0.00    -0.201 N   
ATOM     2   C7  UNL     1      -0.594  -0.963   0.059  1.00  0.00     0.046 A   
ATOM     3   C8  UNL     1      -0.419  -1.127   1.413  1.00  0.00     0.127 A   
ATOM     4   N5  UNL     1      -1.394  -0.434   2.082  1.00  0.00    -0.132 NA  
ATOM     5   N6  UNL     1      -2.176   0.144   1.185  1.00  0.00    -0.075 NA  
ATOM     6   H10 UNL     1      -0.057  -1.320  -0.808  1.00  0.00     0.083 HD  
ENDROOT
BRANCH   1   7
ATOM     7   C5  UNL     1      -2.401   0.312  -1.238  1.00  0.00     0.171 C   
BRANCH   7   8
ATOM     8   C4  UNL     1      -1.433   0.866  -2.244  1.00  0.00     0.055 A   
ATOM     9   C2  UNL     1      -0.880   2.124  -2.394  1.00  0.00     0.058 A   
ATOM     10  N1  UNL     1      -0.018   2.140  -3.464  1.00  0.00    -0.245 NA  
ATOM     11  C3  UNL     1      -0.060   0.934  -3.979  1.00  0.00     0.186 A   
ATOM     12  N2  UNL     1      -0.904   0.127  -3.278  1.00  0.00    -0.306 N   
ATOM     13  C1  UNL     1      -1.108   3.350  -1.595  1.00  0.00     0.068 C   
ATOM     14  H5  UNL     1      -1.118  -0.844  -3.482  1.00  0.00     0.154 HD  
ENDBRANCH   7   8
BRANCH   7  15
ATOM     15  C6  UNL     1      -3.341  -0.770  -1.804  1.00  0.00     0.187 C   
BRANCH  15  16
ATOM     16  O1  UNL     1      -2.622  -1.882  -2.360  1.00  0.00    -0.394 OA  
ATOM     17  H9  UNL     1      -3.296  -2.529  -2.646  1.00  0.00     0.210 HD  
ENDBRANCH  15  16
ENDBRANCH   7  15
ENDBRANCH   1   7
BRANCH   3  18
ATOM     18  C9  UNL     1       0.638  -1.842   2.193  1.00  0.00     0.117 C   
BRANCH  18  19
ATOM     19  N4  UNL     1       0.992  -0.986   3.397  1.00  0.00     0.249 N   
ATOM     20  H12 UNL     1       0.218  -0.307   3.495  1.00  0.00     0.199 HD  
ATOM     21  H13 UNL     1       0.966  -1.531   4.262  1.00  0.00     0.199 HD  
BRANCH  19  22
ATOM     22  C10 UNL     1       2.269  -0.228   3.313  1.00  0.00     0.164 C   
BRANCH  22  23
ATOM     23  C11 UNL     1       2.250   0.856   2.273  1.00  0.00    -0.002 A   
ATOM     24  C12 UNL     1       1.548   2.061   2.513  1.00  0.00     0.012 A   
ATOM     25  C16 UNL     1       2.900   0.669   1.040  1.00  0.00     0.045 A   
ATOM     26  C13 UNL     1       1.497   3.069   1.544  1.00  0.00     0.037 A   
ATOM     27  C15 UNL     1       2.822   1.679   0.104  1.00  0.00     0.109 A   
ATOM     28  C14 UNL     1       2.144   2.846   0.349  1.00  0.00     0.108 A   
ATOM     29  O2  UNL     1       3.383   1.653  -1.133  1.00  0.00    -0.316 OA  
ATOM     30  O3  UNL     1       2.199   3.709  -0.697  1.00  0.00    -0.316 OA  
ATOM     31  C17 UNL     1       2.980   2.947  -1.643  1.00  0.00     0.337 C   
ENDBRANCH  22  23
ENDBRANCH  19  22
ENDBRANCH  18  19
BRANCH  18  32
ATOM     32  C18 UNL     1       0.196  -3.247   2.683  1.00  0.00     0.037 C   
ATOM     33  C19 UNL     1      -0.293  -4.131   1.526  1.00  0.00     0.014 C   
ATOM     34  C20 UNL     1       1.338  -3.986   3.397  1.00  0.00     0.014 C   
ENDBRANCH  18  32
ENDBRANCH   3  18
TORSDOF 9
