REMARK SMILES CC(C)C[C@H]([NH2+]Cc1ccc2c(c1)OCO2)c1cn(Cc2ccc3c(c2)CCN3C)nn1
REMARK SMILES IDX 17 1 18 2 19 3 31 4 32 5 5 7 4 8 2 9 1 10 3 11 6 12 7 15
REMARK SMILES IDX 8 16 9 17 13 18 10 19 12 20 11 21 14 22 16 23 15 24 20 25
REMARK SMILES IDX 21 26 22 27 26 28 23 29 25 30 24 31 27 32 29 33 28 34 30 35
REMARK H PARENT 18 6 6 13 6 14
ROOT
ATOM     1   C14 UNL     1       0.871  -2.213  -0.196  1.00  0.00     0.127 A   
ATOM     2   C15 UNL     1       1.950  -2.301   0.655  1.00  0.00     0.046 A   
ATOM     3   N2  UNL     1       1.389  -2.273   1.905  1.00  0.00    -0.208 N   
ATOM     4   N4  UNL     1       0.043  -2.280   1.826  1.00  0.00    -0.076 NA  
ATOM     5   N5  UNL     1      -0.285  -2.228   0.546  1.00  0.00    -0.132 NA  
ATOM     6   H20 UNL     1       3.021  -2.300   0.506  1.00  0.00     0.083 HD  
ENDROOT
BRANCH   1   7
ATOM     7   C5  UNL     1       0.797  -2.081  -1.683  1.00  0.00     0.114 C   
BRANCH   7   8
ATOM     8   C4  UNL     1       1.557  -0.859  -2.240  1.00  0.00     0.064 C   
BRANCH   8   9
ATOM     9   C2  UNL     1       0.926   0.543  -2.061  1.00  0.00    -0.012 C   
ATOM     10  C1  UNL     1       1.767   1.576  -2.822  1.00  0.00     0.007 C   
ATOM     11  C3  UNL     1       0.794   0.981  -0.600  1.00  0.00     0.007 C   
ENDBRANCH   8   9
ENDBRANCH   7   8
BRANCH   7  12
ATOM     12  N1  UNL     1      -0.624  -2.030  -2.166  1.00  0.00     0.249 N   
ATOM     13  H11 UNL     1      -1.144  -1.460  -1.481  1.00  0.00     0.199 HD  
ATOM     14  H12 UNL     1      -0.708  -1.548  -3.066  1.00  0.00     0.199 HD  
BRANCH  12  15
ATOM     15  C6  UNL     1      -1.320  -3.345  -2.254  1.00  0.00     0.164 C   
BRANCH  15  16
ATOM     16  C7  UNL     1      -2.789  -3.134  -2.497  1.00  0.00    -0.002 A   
ATOM     17  C8  UNL     1      -3.657  -2.913  -1.401  1.00  0.00     0.012 A   
ATOM     18  C12 UNL     1      -3.297  -3.071  -3.807  1.00  0.00     0.045 A   
ATOM     19  C9  UNL     1      -5.015  -2.643  -1.602  1.00  0.00     0.037 A   
ATOM     20  C11 UNL     1      -4.641  -2.805  -3.969  1.00  0.00     0.109 A   
ATOM     21  C10 UNL     1      -5.474  -2.594  -2.900  1.00  0.00     0.108 A   
ATOM     22  O1  UNL     1      -5.289  -2.696  -5.160  1.00  0.00    -0.316 OA  
ATOM     23  O2  UNL     1      -6.751  -2.329  -3.280  1.00  0.00    -0.316 OA  
ATOM     24  C13 UNL     1      -6.639  -2.428  -4.715  1.00  0.00     0.337 C   
ENDBRANCH  15  16
ENDBRANCH  12  15
ENDBRANCH   7  12
ENDBRANCH   1   7
BRANCH   3  25
ATOM     25  C16 UNL     1       2.064  -2.148   3.188  1.00  0.00     0.169 C   
BRANCH  25  26
ATOM     26  C17 UNL     1       2.596  -0.745   3.357  1.00  0.00    -0.028 A   
ATOM     27  C18 UNL     1       3.965  -0.464   3.155  1.00  0.00     0.007 A   
ATOM     28  C22 UNL     1       1.712   0.307   3.646  1.00  0.00     0.011 A   
ATOM     29  C19 UNL     1       4.450   0.851   3.221  1.00  0.00     0.024 A   
ATOM     30  C21 UNL     1       2.216   1.596   3.719  1.00  0.00    -0.025 A   
ATOM     31  C20 UNL     1       3.569   1.881   3.505  1.00  0.00     0.032 A   
ATOM     32  C23 UNL     1       1.477   2.870   3.958  1.00  0.00     0.056 C   
ATOM     33  N3  UNL     1       3.833   3.262   3.562  1.00  0.00    -0.333 N   
ATOM     34  C24 UNL     1       2.654   3.816   4.253  1.00  0.00     0.110 C   
ATOM     35  C25 UNL     1       5.146   3.700   4.005  1.00  0.00     0.130 C   
ENDBRANCH  25  26
ENDBRANCH   3  25
TORSDOF 8
