REMARK SMILES Cc1ccncc1CCn1cc([C@@H]([NH2+]Cc2ccc3c(c2)OCO3)C(C)C)nn1
REMARK SMILES IDX 10 1 11 2 12 3 28 4 29 5 9 7 8 8 7 9 2 10 3 11 4 12 6 13
REMARK SMILES IDX 5 14 1 15 13 16 14 17 15 20 16 21 17 22 21 23 18 24 20 25
REMARK SMILES IDX 19 26 22 27 24 28 23 29 25 30 26 31 27 32
REMARK H PARENT 11 6 14 18 14 19
ROOT
ATOM     1   N2  UNL     1      -1.552  -2.767   1.076  1.00  0.00    -0.212 N   
ATOM     2   C9  UNL     1      -1.048  -2.578  -0.184  1.00  0.00     0.045 A   
ATOM     3   C10 UNL     1      -1.633  -1.403  -0.607  1.00  0.00     0.127 A   
ATOM     4   N4  UNL     1      -2.577  -1.032   0.321  1.00  0.00    -0.132 NA  
ATOM     5   N5  UNL     1      -2.514  -1.869   1.344  1.00  0.00    -0.076 NA  
ATOM     6   H11 UNL     1      -0.249  -3.196  -0.567  1.00  0.00     0.083 HD  
ENDROOT
BRANCH   1   7
ATOM     7   C8  UNL     1      -0.933  -3.527   2.147  1.00  0.00     0.139 C   
BRANCH   7   8
ATOM     8   C7  UNL     1      -0.025  -2.659   3.042  1.00  0.00     0.059 C   
BRANCH   8   9
ATOM     9   C6  UNL     1       0.999  -1.866   2.255  1.00  0.00    -0.025 A   
ATOM     10  C2  UNL     1       2.245  -2.375   1.861  1.00  0.00    -0.045 A   
ATOM     11  C3  UNL     1       3.048  -1.591   1.023  1.00  0.00     0.024 A   
ATOM     12  C4  UNL     1       2.570  -0.370   0.569  1.00  0.00     0.111 A   
ATOM     13  C5  UNL     1       0.647  -0.595   1.788  1.00  0.00     0.115 A   
ATOM     14  N1  UNL     1       1.354   0.131   0.886  1.00  0.00    -0.264 NA  
ATOM     15  C1  UNL     1       2.747  -3.712   2.326  1.00  0.00     0.045 C   
ENDBRANCH   8   9
ENDBRANCH   7   8
ENDBRANCH   1   7
BRANCH   3  16
ATOM     16  C11 UNL     1      -1.336  -0.466  -1.737  1.00  0.00     0.117 C   
BRANCH  16  17
ATOM     17  N3  UNL     1      -0.605   0.763  -1.238  1.00  0.00     0.249 N   
ATOM     18  H13 UNL     1      -0.156   1.255  -2.015  1.00  0.00     0.199 HD  
ATOM     19  H14 UNL     1       0.166   0.480  -0.599  1.00  0.00     0.199 HD  
BRANCH  17  20
ATOM     20  C12 UNL     1      -1.437   1.749  -0.488  1.00  0.00     0.164 C   
BRANCH  20  21
ATOM     21  C13 UNL     1      -0.778   3.103  -0.483  1.00  0.00    -0.002 A   
ATOM     22  C14 UNL     1      -1.123   4.066  -1.462  1.00  0.00     0.012 A   
ATOM     23  C18 UNL     1       0.221   3.403   0.458  1.00  0.00     0.045 A   
ATOM     24  C15 UNL     1      -0.492   5.314  -1.497  1.00  0.00     0.037 A   
ATOM     25  C17 UNL     1       0.825   4.642   0.395  1.00  0.00     0.109 A   
ATOM     26  C16 UNL     1       0.478   5.571  -0.554  1.00  0.00     0.108 A   
ATOM     27  O1  UNL     1       1.804   5.088   1.225  1.00  0.00    -0.316 OA  
ATOM     28  O2  UNL     1       1.194   6.720  -0.441  1.00  0.00    -0.316 OA  
ATOM     29  C19 UNL     1       2.015   6.421   0.708  1.00  0.00     0.337 C   
ENDBRANCH  20  21
ENDBRANCH  17  20
ENDBRANCH  16  17
BRANCH  16  30
ATOM     30  C20 UNL     1      -0.569  -1.029  -2.962  1.00  0.00     0.037 C   
ATOM     31  C21 UNL     1       0.913  -1.342  -2.729  1.00  0.00     0.014 C   
ATOM     32  C22 UNL     1      -1.280  -2.232  -3.591  1.00  0.00     0.014 C   
ENDBRANCH  16  30
ENDBRANCH   3  16
TORSDOF 8
