REMARK SMILES OC[C@@H](c1cn[nH]c1)n1cc([C@@H]([NH2+]Cc2ccc3c(c2)OCO3)C2CCCCC2)nn1
REMARK SMILES IDX 9 1 10 2 11 3 30 4 31 5 3 7 2 8 1 9 4 11 5 12 8 13 6 14 7 15
REMARK SMILES IDX 12 17 13 18 14 21 15 22 16 23 20 24 17 25 19 26 18 27 21 28
REMARK SMILES IDX 23 29 22 30 24 31 25 32 29 33 26 34 28 35 27 36
REMARK H PARENT 10 6 1 10 7 16 13 19 13 20
ROOT
ATOM     1   N3  UNL     1       0.399  -0.885  -2.594  1.00  0.00    -0.202 N   
ATOM     2   C6  UNL     1      -0.484   0.062  -2.151  1.00  0.00     0.046 A   
ATOM     3   C7  UNL     1      -0.464  -0.065  -0.782  1.00  0.00     0.127 A   
ATOM     4   N5  UNL     1       0.375  -1.091  -0.439  1.00  0.00    -0.132 NA  
ATOM     5   N6  UNL     1       0.903  -1.581  -1.549  1.00  0.00    -0.075 NA  
ATOM     6   H8  UNL     1      -1.028   0.708  -2.825  1.00  0.00     0.083 HD  
ENDROOT
BRANCH   1   7
ATOM     7   C2  UNL     1       0.818  -1.217  -3.958  1.00  0.00     0.158 C   
BRANCH   7   8
ATOM     8   C1  UNL     1      -0.064  -2.325  -4.556  1.00  0.00     0.186 C   
BRANCH   8   9
ATOM     9   O1  UNL     1      -1.448  -1.959  -4.613  1.00  0.00    -0.394 OA  
ATOM     10  H1  UNL     1      -1.904  -2.661  -5.117  1.00  0.00     0.210 HD  
ENDBRANCH   8   9
ENDBRANCH   7   8
BRANCH   7  11
ATOM     11  C3  UNL     1       0.942   0.014  -4.812  1.00  0.00     0.012 A   
ATOM     12  C4  UNL     1      -0.050   0.654  -5.594  1.00  0.00     0.138 A   
ATOM     13  C5  UNL     1       2.066   0.793  -5.018  1.00  0.00     0.099 A   
ATOM     14  N1  UNL     1       0.403   1.745  -6.211  1.00  0.00    -0.193 NA  
ATOM     15  N2  UNL     1       1.697   1.800  -5.863  1.00  0.00    -0.246 N   
ATOM     16  H6  UNL     1       2.268   2.550  -6.241  1.00  0.00     0.175 HD  
ENDBRANCH   7  11
ENDBRANCH   1   7
BRANCH   3  17
ATOM     17  C8  UNL     1      -1.232   0.661   0.273  1.00  0.00     0.117 C   
BRANCH  17  18
ATOM     18  N4  UNL     1      -1.767  -0.300   1.297  1.00  0.00     0.249 N   
ATOM     19  H10 UNL     1      -2.114   0.191   2.127  1.00  0.00     0.199 HD  
ATOM     20  H11 UNL     1      -0.978  -0.884   1.611  1.00  0.00     0.199 HD  
BRANCH  18  21
ATOM     21  C9  UNL     1      -2.825  -1.225   0.803  1.00  0.00     0.164 C   
BRANCH  21  22
ATOM     22  C10 UNL     1      -3.483  -1.942   1.950  1.00  0.00    -0.002 A   
ATOM     23  C11 UNL     1      -4.741  -1.506   2.439  1.00  0.00     0.012 A   
ATOM     24  C15 UNL     1      -2.837  -3.032   2.563  1.00  0.00     0.045 A   
ATOM     25  C12 UNL     1      -5.357  -2.153   3.515  1.00  0.00     0.037 A   
ATOM     26  C14 UNL     1      -3.474  -3.650   3.619  1.00  0.00     0.109 A   
ATOM     27  C13 UNL     1      -4.698  -3.224   4.082  1.00  0.00     0.108 A   
ATOM     28  O2  UNL     1      -2.997  -4.721   4.310  1.00  0.00    -0.316 OA  
ATOM     29  O3  UNL     1      -5.143  -3.971   5.124  1.00  0.00    -0.316 OA  
ATOM     30  C16 UNL     1      -4.094  -4.965   5.222  1.00  0.00     0.337 C   
ENDBRANCH  21  22
ENDBRANCH  18  21
ENDBRANCH  17  18
BRANCH  17  31
ATOM     31  C17 UNL     1      -0.390   1.777   0.955  1.00  0.00     0.043 C   
ATOM     32  C18 UNL     1       0.742   1.254   1.863  1.00  0.00     0.010 C   
ATOM     33  C22 UNL     1      -1.284   2.761   1.738  1.00  0.00     0.010 C   
ATOM     34  C19 UNL     1       1.549   2.398   2.478  1.00  0.00     0.001 C   
ATOM     35  C21 UNL     1      -0.470   3.901   2.349  1.00  0.00     0.001 C   
ATOM     36  C20 UNL     1       0.658   3.377   3.232  1.00  0.00     0.000 C   
ENDBRANCH  17  31
ENDBRANCH   3  17
TORSDOF 9
