REMARK SMILES CC(C)(C)[C@H]([NH2+]Cc1ccc2c(c1)OCO2)c1cn([C@@H](CO)c2cn[nH]c2)nn1
REMARK SMILES IDX 17 1 18 2 19 3 28 4 29 5 5 7 2 8 1 9 3 10 4 11 6 12 7 15
REMARK SMILES IDX 8 16 9 17 13 18 10 19 12 20 11 21 14 22 16 23 15 24 20 25
REMARK SMILES IDX 21 26 22 27 23 29 24 30 27 31 25 32 26 33
REMARK H PARENT 18 6 6 13 6 14 22 28 26 34
ROOT
ATOM     1   C14 UNL     1       1.646   0.329  -0.542  1.00  0.00     0.127 A   
ATOM     2   C15 UNL     1       2.466  -0.409   0.280  1.00  0.00     0.046 A   
ATOM     3   N2  UNL     1       3.196   0.527   0.963  1.00  0.00    -0.202 N   
ATOM     4   N5  UNL     1       2.814   1.772   0.600  1.00  0.00    -0.075 NA  
ATOM     5   N6  UNL     1       1.865   1.662  -0.314  1.00  0.00    -0.132 NA  
ATOM     6   H20 UNL     1       2.588  -1.472   0.436  1.00  0.00     0.083 HD  
ENDROOT
BRANCH   1   7
ATOM     7   C5  UNL     1       0.574  -0.101  -1.496  1.00  0.00     0.120 C   
BRANCH   7   8
ATOM     8   C2  UNL     1       1.024  -0.124  -3.000  1.00  0.00     0.010 C   
ATOM     9   C1  UNL     1      -0.091  -0.726  -3.887  1.00  0.00     0.017 C   
ATOM     10  C3  UNL     1       2.267  -1.030  -3.168  1.00  0.00     0.017 C   
ATOM     11  C4  UNL     1       1.369   1.277  -3.544  1.00  0.00     0.017 C   
ENDBRANCH   7   8
BRANCH   7  12
ATOM     12  N1  UNL     1      -0.627   0.797  -1.317  1.00  0.00     0.250 N   
ATOM     13  H11 UNL     1      -1.289   0.712  -2.091  1.00  0.00     0.199 HD  
ATOM     14  H12 UNL     1      -0.283   1.770  -1.333  1.00  0.00     0.199 HD  
BRANCH  12  15
ATOM     15  C6  UNL     1      -1.372   0.616  -0.037  1.00  0.00     0.164 C   
BRANCH  15  16
ATOM     16  C7  UNL     1      -2.590   1.497  -0.018  1.00  0.00    -0.002 A   
ATOM     17  C8  UNL     1      -2.512   2.816   0.488  1.00  0.00     0.012 A   
ATOM     18  C12 UNL     1      -3.798   1.034  -0.568  1.00  0.00     0.045 A   
ATOM     19  C9  UNL     1      -3.624   3.663   0.454  1.00  0.00     0.037 A   
ATOM     20  C11 UNL     1      -4.872   1.898  -0.592  1.00  0.00     0.109 A   
ATOM     21  C10 UNL     1      -4.790   3.175  -0.096  1.00  0.00     0.108 A   
ATOM     22  O1  UNL     1      -6.102   1.613  -1.095  1.00  0.00    -0.316 OA  
ATOM     23  O2  UNL     1      -5.957   3.855  -0.225  1.00  0.00    -0.316 OA  
ATOM     24  C13 UNL     1      -6.798   2.852  -0.833  1.00  0.00     0.337 C   
ENDBRANCH  15  16
ENDBRANCH  12  15
ENDBRANCH   7  12
ENDBRANCH   1   7
BRANCH   3  25
ATOM     25  C16 UNL     1       4.219   0.355   1.998  1.00  0.00     0.158 C   
BRANCH  25  26
ATOM     26  C17 UNL     1       3.619   0.554   3.403  1.00  0.00     0.186 C   
BRANCH  26  27
ATOM     27  O3  UNL     1       2.548  -0.357   3.677  1.00  0.00    -0.394 OA  
ATOM     28  H24 UNL     1       2.301  -0.227   4.612  1.00  0.00     0.210 HD  
ENDBRANCH  26  27
ENDBRANCH  25  26
BRANCH  25  29
ATOM     29  C18 UNL     1       4.980  -0.932   1.826  1.00  0.00     0.012 A   
ATOM     30  C19 UNL     1       4.664  -2.218   2.329  1.00  0.00     0.138 A   
ATOM     31  C20 UNL     1       6.159  -1.135   1.133  1.00  0.00     0.099 A   
ATOM     32  N3  UNL     1       5.543  -3.147   1.952  1.00  0.00    -0.193 NA  
ATOM     33  N4  UNL     1       6.460  -2.462   1.254  1.00  0.00    -0.246 N   
ATOM     34  H26 UNL     1       7.261  -2.965   0.884  1.00  0.00     0.175 HD  
ENDBRANCH  25  29
ENDBRANCH   3  25
TORSDOF 9
