REMARK SMILES CC(C)(C)[C@H]([NH2+]Cc1ccc2c(c1)OCO2)c1cn([C@H](CO)c2cn[nH]c2)nn1
REMARK SMILES IDX 17 1 18 2 19 3 28 4 29 5 5 7 2 8 1 9 3 10 4 11 6 12 7 15
REMARK SMILES IDX 8 16 9 17 13 18 10 19 12 20 11 21 14 22 16 23 15 24 20 25
REMARK SMILES IDX 21 26 22 27 23 29 24 30 27 31 25 32 26 33
REMARK H PARENT 18 6 6 13 6 14 22 28 26 34
ROOT
ATOM     1   C14 UNL     1      -0.901   1.037   0.732  1.00  0.00     0.127 A   
ATOM     2   C15 UNL     1      -0.302   2.028   1.474  1.00  0.00     0.046 A   
ATOM     3   N2  UNL     1       0.619   1.366   2.243  1.00  0.00    -0.202 N   
ATOM     4   N5  UNL     1       0.587   0.041   1.979  1.00  0.00    -0.075 NA  
ATOM     5   N6  UNL     1      -0.347  -0.173   1.067  1.00  0.00    -0.132 NA  
ATOM     6   H20 UNL     1      -0.409   3.104   1.510  1.00  0.00     0.083 HD  
ENDROOT
BRANCH   1   7
ATOM     7   C5  UNL     1      -1.909   1.104  -0.375  1.00  0.00     0.120 C   
BRANCH   7   8
ATOM     8   C2  UNL     1      -3.392   0.900   0.089  1.00  0.00     0.010 C   
ATOM     9   C1  UNL     1      -3.760   1.944   1.169  1.00  0.00     0.017 C   
ATOM     10  C3  UNL     1      -4.361   1.123  -1.096  1.00  0.00     0.017 C   
ATOM     11  C4  UNL     1      -3.648  -0.506   0.667  1.00  0.00     0.017 C   
ENDBRANCH   7   8
BRANCH   7  12
ATOM     12  N1  UNL     1      -1.534   0.076  -1.419  1.00  0.00     0.250 N   
ATOM     13  H11 UNL     1      -2.312  -0.166  -2.036  1.00  0.00     0.199 HD  
ATOM     14  H12 UNL     1      -1.296  -0.787  -0.905  1.00  0.00     0.199 HD  
BRANCH  12  15
ATOM     15  C6  UNL     1      -0.351   0.427  -2.255  1.00  0.00     0.164 C   
BRANCH  15  16
ATOM     16  C7  UNL     1       0.012  -0.721  -3.155  1.00  0.00    -0.002 A   
ATOM     17  C8  UNL     1      -0.478  -0.778  -4.482  1.00  0.00     0.012 A   
ATOM     18  C12 UNL     1       0.808  -1.771  -2.662  1.00  0.00     0.045 A   
ATOM     19  C9  UNL     1      -0.171  -1.860  -5.314  1.00  0.00     0.037 A   
ATOM     20  C11 UNL     1       1.095  -2.820  -3.510  1.00  0.00     0.109 A   
ATOM     21  C10 UNL     1       0.621  -2.863  -4.798  1.00  0.00     0.108 A   
ATOM     22  O1  UNL     1       1.853  -3.904  -3.196  1.00  0.00    -0.316 OA  
ATOM     23  O2  UNL     1       1.026  -3.978  -5.460  1.00  0.00    -0.316 OA  
ATOM     24  C13 UNL     1       1.819  -4.630  -4.446  1.00  0.00     0.337 C   
ENDBRANCH  15  16
ENDBRANCH  12  15
ENDBRANCH   7  12
ENDBRANCH   1   7
BRANCH   3  25
ATOM     25  C16 UNL     1       1.651   1.915   3.122  1.00  0.00     0.158 C   
BRANCH  25  26
ATOM     26  C17 UNL     1       1.050   2.625   4.348  1.00  0.00     0.186 C   
BRANCH  26  27
ATOM     27  O3  UNL     1       0.236   3.749   4.003  1.00  0.00    -0.394 OA  
ATOM     28  H24 UNL     1      -0.040   4.170   4.838  1.00  0.00     0.210 HD  
ENDBRANCH  26  27
ENDBRANCH  25  26
BRANCH  25  29
ATOM     29  C18 UNL     1       2.627   2.716   2.303  1.00  0.00     0.012 A   
ATOM     30  C19 UNL     1       3.501   2.198   1.313  1.00  0.00     0.138 A   
ATOM     31  C20 UNL     1       2.902   4.071   2.295  1.00  0.00     0.099 A   
ATOM     32  N3  UNL     1       4.221   3.144   0.713  1.00  0.00    -0.193 NA  
ATOM     33  N4  UNL     1       3.870   4.271   1.353  1.00  0.00    -0.246 N   
ATOM     34  H26 UNL     1       4.325   5.139   1.088  1.00  0.00     0.175 HD  
ENDBRANCH  25  29
ENDBRANCH   3  25
TORSDOF 9
