REMARK SMILES Cc1ccncc1[C@H](CO)n1cc([C@@H]([NH2+]Cc2ccc3c(c2)OCO3)C(C)C)nn1
REMARK SMILES IDX 11 1 12 2 13 3 29 4 30 5 8 7 7 8 2 9 3 10 4 11 6 12 5 13
REMARK SMILES IDX 1 14 9 15 10 16 14 18 15 19 16 22 17 23 18 24 22 25 19 26
REMARK SMILES IDX 21 27 20 28 23 29 25 30 24 31 26 32 27 33 28 34
REMARK H PARENT 12 6 10 17 15 20 15 21
ROOT
ATOM     1   N2  UNL     1      -1.241  -2.089   0.584  1.00  0.00    -0.202 N   
ATOM     2   C9  UNL     1      -0.904  -1.585  -0.644  1.00  0.00     0.046 A   
ATOM     3   C10 UNL     1      -0.071  -0.528  -0.359  1.00  0.00     0.127 A   
ATOM     4   N4  UNL     1       0.039  -0.396   1.001  1.00  0.00    -0.132 NA  
ATOM     5   N5  UNL     1      -0.686  -1.348   1.567  1.00  0.00    -0.075 NA  
ATOM     6   H11 UNL     1      -1.271  -2.013  -1.567  1.00  0.00     0.083 HD  
ENDROOT
BRANCH   1   7
ATOM     7   C7  UNL     1      -2.084  -3.238   0.917  1.00  0.00     0.157 C   
BRANCH   7   8
ATOM     8   C6  UNL     1      -1.731  -4.443   0.054  1.00  0.00    -0.002 A   
ATOM     9   C2  UNL     1      -0.643  -5.292   0.361  1.00  0.00    -0.043 A   
ATOM     10  C3  UNL     1      -0.361  -6.369  -0.491  1.00  0.00     0.024 A   
ATOM     11  C4  UNL     1      -1.144  -6.561  -1.614  1.00  0.00     0.111 A   
ATOM     12  C5  UNL     1      -2.446  -4.736  -1.110  1.00  0.00     0.117 A   
ATOM     13  N1  UNL     1      -2.174  -5.762  -1.945  1.00  0.00    -0.264 NA  
ATOM     14  C1  UNL     1       0.221  -5.096   1.578  1.00  0.00     0.045 C   
ENDBRANCH   7   8
BRANCH   7  15
ATOM     15  C8  UNL     1      -3.572  -2.829   0.973  1.00  0.00     0.186 C   
BRANCH  15  16
ATOM     16  O1  UNL     1      -4.029  -2.216  -0.233  1.00  0.00    -0.394 OA  
ATOM     17  H10 UNL     1      -4.989  -2.067  -0.130  1.00  0.00     0.210 HD  
ENDBRANCH  15  16
ENDBRANCH   7  15
ENDBRANCH   1   7
BRANCH   3  18
ATOM     18  C11 UNL     1       0.615   0.449  -1.257  1.00  0.00     0.117 C   
BRANCH  18  19
ATOM     19  N3  UNL     1       0.681   1.801  -0.592  1.00  0.00     0.249 N   
ATOM     20  H13 UNL     1       0.990   1.642   0.379  1.00  0.00     0.199 HD  
ATOM     21  H14 UNL     1       1.390   2.400  -1.029  1.00  0.00     0.199 HD  
BRANCH  19  22
ATOM     22  C12 UNL     1      -0.611   2.539  -0.527  1.00  0.00     0.164 C   
BRANCH  22  23
ATOM     23  C13 UNL     1      -0.431   3.852   0.181  1.00  0.00    -0.002 A   
ATOM     24  C14 UNL     1      -0.190   5.037  -0.555  1.00  0.00     0.012 A   
ATOM     25  C18 UNL     1      -0.451   3.901   1.586  1.00  0.00     0.045 A   
ATOM     26  C15 UNL     1       0.016   6.257   0.098  1.00  0.00     0.037 A   
ATOM     27  C17 UNL     1      -0.243   5.120   2.197  1.00  0.00     0.109 A   
ATOM     28  C16 UNL     1      -0.016   6.265   1.475  1.00  0.00     0.108 A   
ATOM     29  O2  UNL     1      -0.232   5.341   3.538  1.00  0.00    -0.316 OA  
ATOM     30  O3  UNL     1       0.163   7.352   2.269  1.00  0.00    -0.316 OA  
ATOM     31  C19 UNL     1       0.009   6.766   3.579  1.00  0.00     0.337 C   
ENDBRANCH  22  23
ENDBRANCH  19  22
ENDBRANCH  18  19
BRANCH  18  32
ATOM     32  C20 UNL     1       2.050   0.032  -1.669  1.00  0.00     0.037 C   
ATOM     33  C21 UNL     1       2.046  -1.237  -2.529  1.00  0.00     0.014 C   
ATOM     34  C22 UNL     1       3.018  -0.143  -0.493  1.00  0.00     0.014 C   
ENDBRANCH  18  32
ENDBRANCH   3  18
TORSDOF 9
