REMARK SMILES Cc1ccncc1[C@@H](CO)n1cc([C@@H]([NH2+]Cc2ccc3c(c2)OCO3)C(C)C)nn1
REMARK SMILES IDX 11 1 12 2 13 3 29 4 30 5 8 7 7 8 2 9 3 10 4 11 6 12 5 13
REMARK SMILES IDX 1 14 9 15 10 16 14 18 15 19 16 22 17 23 18 24 22 25 19 26
REMARK SMILES IDX 21 27 20 28 23 29 25 30 24 31 26 32 27 33 28 34
REMARK H PARENT 12 6 10 17 15 20 15 21
ROOT
ATOM     1   N2  UNL     1       0.389   0.264   3.006  1.00  0.00    -0.202 N   
ATOM     2   C9  UNL     1      -0.126  -0.396   1.918  1.00  0.00     0.046 A   
ATOM     3   C10 UNL     1       0.341   0.319   0.838  1.00  0.00     0.127 A   
ATOM     4   N4  UNL     1       1.073   1.385   1.291  1.00  0.00    -0.132 NA  
ATOM     5   N5  UNL     1       1.088   1.349   2.611  1.00  0.00    -0.075 NA  
ATOM     6   H11 UNL     1      -0.731  -1.287   2.018  1.00  0.00     0.083 HD  
ENDROOT
BRANCH   1   7
ATOM     7   C7  UNL     1       0.288  -0.121   4.420  1.00  0.00     0.157 C   
BRANCH   7   8
ATOM     8   C6  UNL     1       1.447  -1.018   4.824  1.00  0.00    -0.002 A   
ATOM     9   C2  UNL     1       1.263  -2.232   5.517  1.00  0.00    -0.043 A   
ATOM     10  C3  UNL     1       2.390  -2.992   5.860  1.00  0.00     0.024 A   
ATOM     11  C4  UNL     1       3.647  -2.526   5.517  1.00  0.00     0.111 A   
ATOM     12  C5  UNL     1       2.765  -0.639   4.549  1.00  0.00     0.117 A   
ATOM     13  N1  UNL     1       3.856  -1.368   4.866  1.00  0.00    -0.264 NA  
ATOM     14  C1  UNL     1      -0.096  -2.743   5.908  1.00  0.00     0.045 C   
ENDBRANCH   7   8
BRANCH   7  15
ATOM     15  C8  UNL     1       0.143   1.090   5.362  1.00  0.00     0.186 C   
BRANCH  15  16
ATOM     16  O1  UNL     1      -1.137   1.699   5.185  1.00  0.00    -0.394 OA  
ATOM     17  H10 UNL     1      -1.146   2.505   5.736  1.00  0.00     0.210 HD  
ENDBRANCH  15  16
ENDBRANCH   7  15
ENDBRANCH   1   7
BRANCH   3  18
ATOM     18  C11 UNL     1       0.157   0.139  -0.636  1.00  0.00     0.117 C   
BRANCH  18  19
ATOM     19  N3  UNL     1       0.349   1.471  -1.330  1.00  0.00     0.249 N   
ATOM     20  H13 UNL     1       0.628   1.343  -2.308  1.00  0.00     0.199 HD  
ATOM     21  H14 UNL     1       1.140   1.924  -0.849  1.00  0.00     0.199 HD  
BRANCH  19  22
ATOM     22  C12 UNL     1      -0.802   2.413  -1.263  1.00  0.00     0.164 C   
BRANCH  22  23
ATOM     23  C13 UNL     1      -1.810   2.147  -2.348  1.00  0.00    -0.002 A   
ATOM     24  C14 UNL     1      -2.949   1.338  -2.100  1.00  0.00     0.012 A   
ATOM     25  C18 UNL     1      -1.603   2.671  -3.635  1.00  0.00     0.045 A   
ATOM     26  C15 UNL     1      -3.862   1.051  -3.121  1.00  0.00     0.037 A   
ATOM     27  C17 UNL     1      -2.530   2.378  -4.615  1.00  0.00     0.109 A   
ATOM     28  C16 UNL     1      -3.625   1.587  -4.367  1.00  0.00     0.108 A   
ATOM     29  O2  UNL     1      -2.478   2.810  -5.902  1.00  0.00    -0.316 OA  
ATOM     30  O3  UNL     1      -4.402   1.419  -5.469  1.00  0.00    -0.316 OA  
ATOM     31  C19 UNL     1      -3.695   2.232  -6.431  1.00  0.00     0.337 C   
ENDBRANCH  22  23
ENDBRANCH  19  22
ENDBRANCH  18  19
BRANCH  18  32
ATOM     32  C20 UNL     1       1.123  -0.887  -1.280  1.00  0.00     0.037 C   
ATOM     33  C21 UNL     1       2.609  -0.572  -1.063  1.00  0.00     0.014 C   
ATOM     34  C22 UNL     1       0.822  -2.318  -0.816  1.00  0.00     0.014 C   
ENDBRANCH  18  32
ENDBRANCH   3  18
TORSDOF 9
