REMARK SMILES Cn1ccc2ccc(Cn3cc([C@@H]([NH2+]Cc4ccc5c(c4)OCO5)C(C)(C)C)nn3)cc21
REMARK SMILES IDX 10 1 11 2 12 3 29 4 30 5 9 7 8 8 2 9 3 10 32 11 4 12 5 13
REMARK SMILES IDX 31 14 6 15 7 16 1 17 13 18 14 19 15 22 16 23 17 24 21 25
REMARK SMILES IDX 18 26 20 27 19 28 22 29 24 30 23 31 25 32 26 33 27 34 28 35
REMARK H PARENT 11 6 14 20 14 21
ROOT
ATOM     1   N2  UNL     1      -1.055   1.671   1.793  1.00  0.00    -0.208 N   
ATOM     2   C9  UNL     1      -0.140   0.655   1.839  1.00  0.00     0.046 A   
ATOM     3   C10 UNL     1       1.067   1.286   1.639  1.00  0.00     0.127 A   
ATOM     4   N4  UNL     1       0.858   2.638   1.543  1.00  0.00    -0.132 NA  
ATOM     5   N5  UNL     1      -0.443   2.861   1.638  1.00  0.00    -0.076 NA  
ATOM     6   H10 UNL     1      -0.429  -0.383   1.924  1.00  0.00     0.083 HD  
ENDROOT
BRANCH   1   7
ATOM     7   C8  UNL     1      -2.504   1.560   1.728  1.00  0.00     0.169 C   
BRANCH   7   8
ATOM     8   C7  UNL     1      -2.911   0.992   0.388  1.00  0.00    -0.027 A   
ATOM     9   N1  UNL     1      -3.815  -2.160  -1.438  1.00  0.00    -0.310 N   
ATOM     10  C2  UNL     1      -3.989  -2.179  -2.796  1.00  0.00     0.075 A   
ATOM     11  C25 UNL     1      -3.494  -0.885  -1.016  1.00  0.00     0.040 A   
ATOM     12  C3  UNL     1      -3.804  -0.900  -3.265  1.00  0.00     0.025 A   
ATOM     13  C4  UNL     1      -3.493  -0.072  -2.152  1.00  0.00    -0.003 A   
ATOM     14  C24 UNL     1      -3.210  -0.378   0.263  1.00  0.00     0.030 A   
ATOM     15  C5  UNL     1      -3.214   1.300  -2.012  1.00  0.00     0.010 A   
ATOM     16  C6  UNL     1      -2.924   1.817  -0.745  1.00  0.00     0.006 A   
ATOM     17  C1  UNL     1      -3.957  -3.313  -0.577  1.00  0.00     0.136 C   
ENDBRANCH   7   8
ENDBRANCH   1   7
BRANCH   3  18
ATOM     18  C11 UNL     1       2.428   0.718   1.384  1.00  0.00     0.120 C   
BRANCH  18  19
ATOM     19  N3  UNL     1       3.065   1.430   0.204  1.00  0.00     0.250 N   
ATOM     20  H12 UNL     1       3.120   2.425   0.456  1.00  0.00     0.199 HD  
ATOM     21  H13 UNL     1       4.019   1.096   0.054  1.00  0.00     0.199 HD  
BRANCH  19  22
ATOM     22  C12 UNL     1       2.329   1.365  -1.100  1.00  0.00     0.164 C   
BRANCH  22  23
ATOM     23  C13 UNL     1       2.048  -0.033  -1.577  1.00  0.00    -0.002 A   
ATOM     24  C14 UNL     1       0.711  -0.485  -1.691  1.00  0.00     0.012 A   
ATOM     25  C18 UNL     1       3.101  -0.904  -1.903  1.00  0.00     0.045 A   
ATOM     26  C15 UNL     1       0.423  -1.788  -2.110  1.00  0.00     0.037 A   
ATOM     27  C17 UNL     1       2.782  -2.184  -2.309  1.00  0.00     0.109 A   
ATOM     28  C16 UNL     1       1.482  -2.615  -2.408  1.00  0.00     0.108 A   
ATOM     29  O1  UNL     1       3.677  -3.149  -2.649  1.00  0.00    -0.316 OA  
ATOM     30  O2  UNL     1       1.394  -3.905  -2.823  1.00  0.00    -0.316 OA  
ATOM     31  C19 UNL     1       2.788  -4.229  -3.014  1.00  0.00     0.337 C   
ENDBRANCH  22  23
ENDBRANCH  19  22
ENDBRANCH  18  19
BRANCH  18  32
ATOM     32  C20 UNL     1       3.384   0.749   2.628  1.00  0.00     0.010 C   
ATOM     33  C21 UNL     1       2.733  -0.009   3.809  1.00  0.00     0.017 C   
ATOM     34  C22 UNL     1       4.712   0.026   2.304  1.00  0.00     0.017 C   
ATOM     35  C23 UNL     1       3.719   2.178   3.099  1.00  0.00     0.017 C   
ENDBRANCH  18  32
ENDBRANCH   3  18
TORSDOF 7
