REMARK SMILES CC(C)[C@H]([NH2+]Cc1ccc2c(c1)OCO2)c1cn(Cc2ccc(N(C)C)cc2)nn1
REMARK SMILES IDX 16 1 17 2 18 3 29 4 30 5 4 7 2 8 1 9 3 10 5 11 6 14 7 15
REMARK SMILES IDX 8 16 12 17 9 18 11 19 10 20 13 21 15 22 14 23 19 24 20 25
REMARK SMILES IDX 21 26 28 27 22 28 27 29 23 30 24 31 25 32 26 33
REMARK H PARENT 17 6 5 12 5 13
ROOT
ATOM     1   C13 UNL     1      -1.766   0.305  -2.434  1.00  0.00     0.127 A   
ATOM     2   C14 UNL     1      -0.622   1.037  -2.205  1.00  0.00     0.046 A   
ATOM     3   N2  UNL     1      -1.085   2.285  -1.887  1.00  0.00    -0.208 N   
ATOM     4   N4  UNL     1      -2.431   2.323  -1.937  1.00  0.00    -0.076 NA  
ATOM     5   N5  UNL     1      -2.860   1.118  -2.274  1.00  0.00    -0.132 NA  
ATOM     6   H18 UNL     1       0.431   0.791  -2.201  1.00  0.00     0.083 HD  
ENDROOT
BRANCH   1   7
ATOM     7   C4  UNL     1      -1.961  -1.148  -2.716  1.00  0.00     0.117 C   
BRANCH   7   8
ATOM     8   C2  UNL     1      -2.044  -1.498  -4.225  1.00  0.00     0.037 C   
ATOM     9   C1  UNL     1      -0.724  -1.200  -4.945  1.00  0.00     0.014 C   
ATOM     10  C3  UNL     1      -3.201  -0.824  -4.970  1.00  0.00     0.014 C   
ENDBRANCH   7   8
BRANCH   7  11
ATOM     11  N1  UNL     1      -3.222  -1.643  -2.039  1.00  0.00     0.249 N   
ATOM     12  H9  UNL     1      -3.968  -0.985  -2.302  1.00  0.00     0.199 HD  
ATOM     13  H10 UNL     1      -3.482  -2.565  -2.401  1.00  0.00     0.199 HD  
BRANCH  11  14
ATOM     14  C5  UNL     1      -3.196  -1.687  -0.545  1.00  0.00     0.164 C   
BRANCH  14  15
ATOM     15  C6  UNL     1      -2.242  -2.711   0.000  1.00  0.00    -0.002 A   
ATOM     16  C7  UNL     1      -1.052  -2.304   0.650  1.00  0.00     0.012 A   
ATOM     17  C11 UNL     1      -2.517  -4.082  -0.144  1.00  0.00     0.045 A   
ATOM     18  C8  UNL     1      -0.147  -3.247   1.149  1.00  0.00     0.037 A   
ATOM     19  C10 UNL     1      -1.603  -4.984   0.360  1.00  0.00     0.109 A   
ATOM     20  C9  UNL     1      -0.452  -4.580   0.990  1.00  0.00     0.108 A   
ATOM     21  O1  UNL     1      -1.718  -6.337   0.305  1.00  0.00    -0.316 OA  
ATOM     22  O2  UNL     1       0.303  -5.627   1.412  1.00  0.00    -0.316 OA  
ATOM     23  C12 UNL     1      -0.531  -6.741   1.027  1.00  0.00     0.337 C   
ENDBRANCH  14  15
ENDBRANCH  11  14
ENDBRANCH   7  11
ENDBRANCH   1   7
BRANCH   3  24
ATOM     24  C15 UNL     1      -0.319   3.450  -1.477  1.00  0.00     0.169 C   
BRANCH  24  25
ATOM     25  C16 UNL     1       0.344   3.208  -0.146  1.00  0.00    -0.028 A   
ATOM     26  C17 UNL     1      -0.406   3.193   1.033  1.00  0.00     0.007 A   
ATOM     27  C23 UNL     1       1.712   2.950  -0.060  1.00  0.00     0.007 A   
ATOM     28  C18 UNL     1       0.205   2.918   2.264  1.00  0.00     0.024 A   
ATOM     29  C22 UNL     1       2.311   2.677   1.179  1.00  0.00     0.024 A   
ATOM     30  C19 UNL     1       1.582   2.660   2.381  1.00  0.00     0.028 A   
BRANCH  30  31
ATOM     31  N3  UNL     1       2.175   2.358   3.614  1.00  0.00    -0.337 N   
ATOM     32  C20 UNL     1       3.634   2.268   3.702  1.00  0.00     0.129 C   
ATOM     33  C21 UNL     1       1.511   2.826   4.833  1.00  0.00     0.129 C   
ENDBRANCH  30  31
ENDBRANCH  24  25
ENDBRANCH   3  24
TORSDOF 8
