REMARK SMILES CC(C)[C@H]([NH2+]Cc1ccc2c(c1)OCO2)c1cn(Cc2ccccc2N(C)C)nn1
REMARK SMILES IDX 16 1 17 2 18 3 29 4 30 5 4 7 2 8 1 9 3 10 5 11 6 14 7 15
REMARK SMILES IDX 8 16 12 17 9 18 11 19 10 20 13 21 15 22 14 23 19 24 20 25
REMARK SMILES IDX 21 26 25 27 22 28 24 29 23 30 26 31 27 32 28 33
REMARK H PARENT 17 6 5 12 5 13
ROOT
ATOM     1   C13 UNL     1      -1.363  -1.341  -0.263  1.00  0.00     0.127 A   
ATOM     2   C14 UNL     1      -0.086  -1.515  -0.744  1.00  0.00     0.046 A   
ATOM     3   N2  UNL     1      -0.268  -1.799  -2.069  1.00  0.00    -0.208 N   
ATOM     4   N4  UNL     1      -1.583  -1.849  -2.373  1.00  0.00    -0.076 NA  
ATOM     5   N5  UNL     1      -2.263  -1.563  -1.275  1.00  0.00    -0.132 NA  
ATOM     6   H18 UNL     1       0.899  -1.417  -0.310  1.00  0.00     0.083 HD  
ENDROOT
BRANCH   1   7
ATOM     7   C4  UNL     1      -1.850  -0.881   1.070  1.00  0.00     0.117 C   
BRANCH   7   8
ATOM     8   C2  UNL     1      -2.205  -2.062   2.014  1.00  0.00     0.037 C   
ATOM     9   C1  UNL     1      -3.432  -2.872   1.581  1.00  0.00     0.014 C   
ATOM     10  C3  UNL     1      -2.386  -1.590   3.462  1.00  0.00     0.014 C   
ENDBRANCH   7   8
BRANCH   7  11
ATOM     11  N1  UNL     1      -3.037   0.041   0.909  1.00  0.00     0.249 N   
ATOM     12  H9  UNL     1      -3.472   0.232   1.814  1.00  0.00     0.199 HD  
ATOM     13  H10 UNL     1      -3.722  -0.469   0.334  1.00  0.00     0.199 HD  
BRANCH  11  14
ATOM     14  C5  UNL     1      -2.776   1.338   0.207  1.00  0.00     0.164 C   
BRANCH  14  15
ATOM     15  C6  UNL     1      -1.812   2.226   0.945  1.00  0.00    -0.002 A   
ATOM     16  C7  UNL     1      -2.213   2.896   2.126  1.00  0.00     0.012 A   
ATOM     17  C11 UNL     1      -0.492   2.368   0.482  1.00  0.00     0.045 A   
ATOM     18  C8  UNL     1      -1.311   3.692   2.840  1.00  0.00     0.037 A   
ATOM     19  C10 UNL     1       0.373   3.155   1.213  1.00  0.00     0.109 A   
ATOM     20  C9  UNL     1      -0.025   3.799   2.359  1.00  0.00     0.108 A   
ATOM     21  O1  UNL     1       1.679   3.385   0.917  1.00  0.00    -0.316 OA  
ATOM     22  O2  UNL     1       0.977   4.522   2.923  1.00  0.00    -0.316 OA  
ATOM     23  C12 UNL     1       2.053   4.272   1.996  1.00  0.00     0.337 C   
ENDBRANCH  14  15
ENDBRANCH  11  14
ENDBRANCH   7  11
ENDBRANCH   1   7
BRANCH   3  24
ATOM     24  C15 UNL     1       0.743  -1.997  -3.093  1.00  0.00     0.171 C   
BRANCH  24  25
ATOM     25  C16 UNL     1       1.145  -0.676  -3.704  1.00  0.00    -0.007 A   
ATOM     26  C17 UNL     1       0.402  -0.185  -4.796  1.00  0.00     0.007 A   
ATOM     27  C21 UNL     1       2.200   0.098  -3.171  1.00  0.00     0.033 A   
ATOM     28  C18 UNL     1       0.702   1.049  -5.368  1.00  0.00     0.000 A   
ATOM     29  C20 UNL     1       2.486   1.338  -3.769  1.00  0.00     0.024 A   
ATOM     30  C19 UNL     1       1.745   1.810  -4.855  1.00  0.00     0.002 A   
BRANCH  27  31
ATOM     31  N3  UNL     1       2.955  -0.409  -2.083  1.00  0.00    -0.337 N   
ATOM     32  C22 UNL     1       3.279   0.588  -1.053  1.00  0.00     0.129 C   
ATOM     33  C23 UNL     1       4.153  -1.106  -2.590  1.00  0.00     0.129 C   
ENDBRANCH  27  31
ENDBRANCH  24  25
ENDBRANCH   3  24
TORSDOF 8
