REMARK SMILES Cc1c(Cl)ccnc1Cn1cc([C@@H]([NH2+]Cc2ccc3c(c2)OCO3)C2CCCC2)nn1
REMARK SMILES IDX 10 1 11 2 12 3 30 4 31 5 9 7 8 8 2 9 3 10 5 11 7 12 6 13
REMARK SMILES IDX 1 14 4 15 13 16 14 17 15 20 16 21 17 22 21 23 18 24 20 25
REMARK SMILES IDX 19 26 22 27 24 28 23 29 25 30 26 31 29 32 27 33 28 34
REMARK H PARENT 11 6 14 18 14 19
ROOT
ATOM     1   N2  UNL     1       0.622  -0.228   2.615  1.00  0.00    -0.206 N   
ATOM     2   C8  UNL     1       0.366  -1.450   2.053  1.00  0.00     0.046 A   
ATOM     3   C9  UNL     1      -0.209  -1.147   0.839  1.00  0.00     0.127 A   
ATOM     4   N4  UNL     1      -0.311   0.216   0.721  1.00  0.00    -0.132 NA  
ATOM     5   N5  UNL     1       0.176   0.765   1.821  1.00  0.00    -0.076 NA  
ATOM     6   H8  UNL     1       0.638  -2.375   2.544  1.00  0.00     0.083 HD  
ENDROOT
BRANCH   1   7
ATOM     7   C7  UNL     1       1.242   0.060   3.895  1.00  0.00     0.190 C   
BRANCH   7   8
ATOM     8   C6  UNL     1       2.737  -0.104   3.803  1.00  0.00     0.064 A   
ATOM     9   C2  UNL     1       3.595   0.885   3.298  1.00  0.00    -0.009 A   
ATOM     10  C3  UNL     1       4.959   0.557   3.218  1.00  0.00     0.047 A   
ATOM     11  C4  UNL     1       5.430  -0.675   3.661  1.00  0.00     0.041 A   
ATOM     12  N1  UNL     1       3.189  -1.321   4.220  1.00  0.00    -0.259 NA  
ATOM     13  C5  UNL     1       4.513  -1.572   4.157  1.00  0.00     0.113 A   
ATOM     14  C1  UNL     1       3.101   2.219   2.807  1.00  0.00     0.048 C   
ATOM     15  CL1 UNL     1       6.123   1.653   2.553  1.00  0.00    -0.084 Cl  
ENDBRANCH   7   8
ENDBRANCH   1   7
BRANCH   3  16
ATOM     16  C10 UNL     1      -0.699  -2.024  -0.270  1.00  0.00     0.117 C   
BRANCH  16  17
ATOM     17  N3  UNL     1      -1.628  -1.252  -1.168  1.00  0.00     0.249 N   
ATOM     18  H10 UNL     1      -1.675  -1.639  -2.114  1.00  0.00     0.199 HD  
ATOM     19  H11 UNL     1      -1.223  -0.308  -1.268  1.00  0.00     0.199 HD  
BRANCH  17  20
ATOM     20  C11 UNL     1      -3.012  -1.070  -0.649  1.00  0.00     0.164 C   
BRANCH  20  21
ATOM     21  C12 UNL     1      -3.822  -0.241  -1.605  1.00  0.00    -0.002 A   
ATOM     22  C13 UNL     1      -4.667  -0.861  -2.556  1.00  0.00     0.012 A   
ATOM     23  C17 UNL     1      -3.701   1.160  -1.594  1.00  0.00     0.045 A   
ATOM     24  C14 UNL     1      -5.390  -0.098  -3.480  1.00  0.00     0.037 A   
ATOM     25  C16 UNL     1      -4.422   1.881  -2.524  1.00  0.00     0.109 A   
ATOM     26  C15 UNL     1      -5.243   1.270  -3.440  1.00  0.00     0.108 A   
ATOM     27  O1  UNL     1      -4.414   3.233  -2.653  1.00  0.00    -0.316 OA  
ATOM     28  O2  UNL     1      -5.859   2.161  -4.258  1.00  0.00    -0.316 OA  
ATOM     29  C18 UNL     1      -5.330   3.408  -3.758  1.00  0.00     0.337 C   
ENDBRANCH  20  21
ENDBRANCH  17  20
ENDBRANCH  16  17
BRANCH  16  30
ATOM     30  C19 UNL     1       0.469  -2.622  -1.080  1.00  0.00     0.043 C   
ATOM     31  C20 UNL     1       0.065  -3.692  -2.098  1.00  0.00     0.010 C   
ATOM     32  C23 UNL     1       1.307  -1.629  -1.903  1.00  0.00     0.010 C   
ATOM     33  C21 UNL     1       1.323  -3.843  -2.937  1.00  0.00     0.001 C   
ATOM     34  C22 UNL     1       1.828  -2.416  -3.109  1.00  0.00     0.001 C   
ENDBRANCH  16  30
ENDBRANCH   3  16
TORSDOF 7
