REMARK SMILES CC(C)(C)[C@H]([NH2+]Cc1ccc2c(c1)OCO2)c1cn(CC(=O)c2ccc(O)cc2)nn1
REMARK SMILES IDX 17 1 18 2 19 3 30 4 31 5 5 7 2 8 1 9 3 10 4 11 6 12 7 15
REMARK SMILES IDX 8 16 9 17 13 18 10 19 12 20 11 21 14 22 16 23 15 24 20 25
REMARK SMILES IDX 21 26 22 27 23 28 24 29 29 30 25 31 28 32 26 33 27 34
REMARK H PARENT 18 6 6 13 6 14 27 35
ROOT
ATOM     1   C14 UNL     1       0.830   0.745   0.352  1.00  0.00     0.127 A   
ATOM     2   C15 UNL     1       1.205  -0.237  -0.537  1.00  0.00     0.046 A   
ATOM     3   N2  UNL     1       1.983  -1.075   0.211  1.00  0.00    -0.204 N   
ATOM     4   N3  UNL     1       2.142  -0.599   1.460  1.00  0.00    -0.076 NA  
ATOM     5   N4  UNL     1       1.432   0.512   1.562  1.00  0.00    -0.132 NA  
ATOM     6   H20 UNL     1       0.936  -0.454  -1.562  1.00  0.00     0.083 HD  
ENDROOT
BRANCH   1   7
ATOM     7   C5  UNL     1      -0.175   1.847   0.221  1.00  0.00     0.120 C   
BRANCH   7   8
ATOM     8   C2  UNL     1       0.450   3.262  -0.041  1.00  0.00     0.010 C   
ATOM     9   C1  UNL     1       1.316   3.767   1.131  1.00  0.00     0.017 C   
ATOM     10  C3  UNL     1      -0.666   4.302  -0.297  1.00  0.00     0.017 C   
ATOM     11  C4  UNL     1       1.330   3.221  -1.312  1.00  0.00     0.017 C   
ENDBRANCH   7   8
BRANCH   7  12
ATOM     12  N1  UNL     1      -1.048   1.870   1.462  1.00  0.00     0.250 N   
ATOM     13  H11 UNL     1      -1.661   2.688   1.462  1.00  0.00     0.199 HD  
ATOM     14  H12 UNL     1      -0.411   1.957   2.265  1.00  0.00     0.199 HD  
BRANCH  12  15
ATOM     15  C6  UNL     1      -1.882   0.650   1.710  1.00  0.00     0.164 C   
BRANCH  15  16
ATOM     16  C7  UNL     1      -2.878   0.377   0.618  1.00  0.00    -0.002 A   
ATOM     17  C8  UNL     1      -2.712  -0.748  -0.226  1.00  0.00     0.012 A   
ATOM     18  C12 UNL     1      -3.963   1.245   0.409  1.00  0.00     0.045 A   
ATOM     19  C9  UNL     1      -3.608  -1.001  -1.270  1.00  0.00     0.037 A   
ATOM     20  C11 UNL     1      -4.826   0.967  -0.631  1.00  0.00     0.109 A   
ATOM     21  C10 UNL     1      -4.653  -0.123  -1.448  1.00  0.00     0.108 A   
ATOM     22  O1  UNL     1      -5.913   1.706  -0.973  1.00  0.00    -0.316 OA  
ATOM     23  O2  UNL     1      -5.611  -0.208  -2.407  1.00  0.00    -0.316 OA  
ATOM     24  C13 UNL     1      -6.427   0.937  -2.085  1.00  0.00     0.337 C   
ENDBRANCH  15  16
ENDBRANCH  12  15
ENDBRANCH   7  12
ENDBRANCH   1   7
BRANCH   3  25
ATOM     25  C16 UNL     1       2.547  -2.356  -0.170  1.00  0.00     0.214 C   
BRANCH  25  26
ATOM     26  C17 UNL     1       1.481  -3.431  -0.215  1.00  0.00     0.182 C   
ATOM     27  O3  UNL     1       0.278  -3.172  -0.166  1.00  0.00    -0.292 OA  
BRANCH  26  28
ATOM     28  C18 UNL     1       1.914  -4.855  -0.358  1.00  0.00     0.019 A   
ATOM     29  C19 UNL     1       0.937  -5.860  -0.275  1.00  0.00     0.014 A   
ATOM     30  C23 UNL     1       3.249  -5.214  -0.582  1.00  0.00     0.014 A   
ATOM     31  C20 UNL     1       1.289  -7.206  -0.409  1.00  0.00     0.034 A   
ATOM     32  C22 UNL     1       3.596  -6.561  -0.716  1.00  0.00     0.034 A   
ATOM     33  C21 UNL     1       2.618  -7.544  -0.629  1.00  0.00     0.071 A   
BRANCH  33  34
ATOM     34  O4  UNL     1       3.012  -8.839  -0.769  1.00  0.00    -0.361 OA  
ATOM     35  H25 UNL     1       2.238  -9.422  -0.691  1.00  0.00     0.218 HD  
ENDBRANCH  33  34
ENDBRANCH  26  28
ENDBRANCH  25  26
ENDBRANCH   3  25
TORSDOF 9
