REMARK SMILES Cc1n[nH]c(C)c1-n1cc([C@@H]([NH2+]Cc2ccc3c(c2)OCO3)C2CCCCC2)nn1
REMARK SMILES IDX 11 1 10 2 8 3 9 4 30 5 29 6 7 7 2 8 3 9 4 10 5 11 1 12 6 14
REMARK SMILES IDX 12 15 13 18 14 19 15 20 19 21 16 22 18 23 17 24 20 25 22 26
REMARK SMILES IDX 21 27 23 28 24 29 28 30 25 31 27 32 26 33
REMARK H PARENT 4 13 12 16 12 17
ROOT
ATOM     1   C8  UNL     1      -0.195   0.714  -0.985  1.00  0.00     0.117 C   
ENDROOT
BRANCH   1   2
ATOM     2   C7  UNL     1       1.239   0.292  -0.894  1.00  0.00     0.127 A   
ATOM     3   N3  UNL     1       3.407  -0.037  -1.070  1.00  0.00    -0.177 N   
ATOM     4   C6  UNL     1       2.360   0.719  -1.570  1.00  0.00     0.135 A   
ATOM     5   N6  UNL     1       2.897  -0.898  -0.148  1.00  0.00    -0.071 NA  
ATOM     6   N5  UNL     1       1.597  -0.697  -0.026  1.00  0.00    -0.131 NA  
BRANCH   3   7
ATOM     7   C5  UNL     1       4.780   0.021  -1.423  1.00  0.00     0.099 A   
ATOM     8   C2  UNL     1       5.810  -0.796  -0.878  1.00  0.00     0.081 A   
ATOM     9   N1  UNL     1       6.996  -0.501  -1.419  1.00  0.00    -0.187 NA  
ATOM     10  N2  UNL     1       6.739   0.484  -2.285  1.00  0.00    -0.241 N   
ATOM     11  C3  UNL     1       5.417   0.846  -2.337  1.00  0.00     0.047 A   
ATOM     12  C1  UNL     1       5.736  -1.867   0.151  1.00  0.00     0.071 C   
ATOM     13  H4  UNL     1       7.519   0.867  -2.812  1.00  0.00     0.175 HD  
ATOM     14  C4  UNL     1       4.975   1.927  -3.250  1.00  0.00     0.065 C   
ENDBRANCH   3   7
ENDBRANCH   1   2
BRANCH   1  15
ATOM     15  N4  UNL     1      -1.094  -0.353  -0.420  1.00  0.00     0.249 N   
ATOM     16  H10 UNL     1      -2.007   0.015  -0.137  1.00  0.00     0.199 HD  
ATOM     17  H11 UNL     1      -0.646  -0.697   0.444  1.00  0.00     0.199 HD  
BRANCH  15  18
ATOM     18  C9  UNL     1      -1.309  -1.538  -1.297  1.00  0.00     0.164 C   
BRANCH  18  19
ATOM     19  C10 UNL     1      -2.132  -2.572  -0.584  1.00  0.00    -0.002 A   
ATOM     20  C11 UNL     1      -1.504  -3.532   0.245  1.00  0.00     0.012 A   
ATOM     21  C15 UNL     1      -3.534  -2.556  -0.686  1.00  0.00     0.045 A   
ATOM     22  C12 UNL     1      -2.258  -4.473   0.954  1.00  0.00     0.037 A   
ATOM     23  C14 UNL     1      -4.247  -3.497   0.027  1.00  0.00     0.109 A   
ATOM     24  C13 UNL     1      -3.628  -4.428   0.824  1.00  0.00     0.108 A   
ATOM     25  O1  UNL     1      -5.600  -3.618   0.041  1.00  0.00    -0.316 OA  
ATOM     26  O2  UNL     1      -4.514  -5.256   1.437  1.00  0.00    -0.316 OA  
ATOM     27  C16 UNL     1      -5.765  -4.754   0.920  1.00  0.00     0.337 C   
ENDBRANCH  18  19
ENDBRANCH  15  18
ENDBRANCH   1  15
BRANCH   1  28
ATOM     28  C17 UNL     1      -0.449   2.069  -0.271  1.00  0.00     0.043 C   
ATOM     29  C18 UNL     1      -0.305   2.004   1.263  1.00  0.00     0.010 C   
ATOM     30  C22 UNL     1      -1.817   2.669  -0.653  1.00  0.00     0.010 C   
ATOM     31  C19 UNL     1      -0.528   3.372   1.907  1.00  0.00     0.001 C   
ATOM     32  C21 UNL     1      -2.034   4.035  -0.004  1.00  0.00     0.001 C   
ATOM     33  C20 UNL     1      -1.874   3.969   1.511  1.00  0.00     0.000 C   
ENDBRANCH   1  28
TORSDOF 6
