REMARK SMILES CC(C)[C@H]([NH2+]Cc1ccc2c(c1)OCO2)c1cn([C@H](CO)c2ccc(F)nc2)nn1
REMARK SMILES IDX 16 1 17 2 18 3 29 4 30 5 4 7 2 8 1 9 3 10 5 11 6 14 7 15
REMARK SMILES IDX 8 16 12 17 9 18 11 19 10 20 13 21 15 22 14 23 19 24 20 25
REMARK SMILES IDX 21 26 22 28 23 29 28 30 24 31 27 32 25 33 26 34
REMARK H PARENT 17 6 5 12 5 13 21 27
ROOT
ATOM     1   C13 UNL     1       0.390  -0.183  -0.932  1.00  0.00     0.127 A   
ATOM     2   C14 UNL     1       1.162   0.397   0.047  1.00  0.00     0.046 A   
ATOM     3   N2  UNL     1       0.652   1.662   0.170  1.00  0.00    -0.202 N   
ATOM     4   N4  UNL     1      -0.374   1.847  -0.688  1.00  0.00    -0.075 NA  
ATOM     5   N5  UNL     1      -0.540   0.727  -1.371  1.00  0.00    -0.132 NA  
ATOM     6   H18 UNL     1       1.993   0.049   0.645  1.00  0.00     0.083 HD  
ENDROOT
BRANCH   1   7
ATOM     7   C4  UNL     1       0.405  -1.559  -1.515  1.00  0.00     0.117 C   
BRANCH   7   8
ATOM     8   C2  UNL     1       1.490  -1.719  -2.614  1.00  0.00     0.037 C   
ATOM     9   C1  UNL     1       1.245  -0.866  -3.865  1.00  0.00     0.014 C   
ATOM     10  C3  UNL     1       1.676  -3.188  -3.012  1.00  0.00     0.014 C   
ENDBRANCH   7   8
BRANCH   7  11
ATOM     11  N1  UNL     1      -0.962  -1.900  -2.066  1.00  0.00     0.249 N   
ATOM     12  H9  UNL     1      -1.427  -0.994  -2.237  1.00  0.00     0.199 HD  
ATOM     13  H10 UNL     1      -0.892  -2.354  -2.980  1.00  0.00     0.199 HD  
BRANCH  11  14
ATOM     14  C5  UNL     1      -1.843  -2.718  -1.186  1.00  0.00     0.164 C   
BRANCH  14  15
ATOM     15  C6  UNL     1      -2.220  -2.047   0.104  1.00  0.00    -0.002 A   
ATOM     16  C7  UNL     1      -3.109  -0.945   0.106  1.00  0.00     0.012 A   
ATOM     17  C11 UNL     1      -1.681  -2.499   1.321  1.00  0.00     0.045 A   
ATOM     18  C8  UNL     1      -3.453  -0.299   1.299  1.00  0.00     0.037 A   
ATOM     19  C10 UNL     1      -2.043  -1.843   2.478  1.00  0.00     0.109 A   
ATOM     20  C9  UNL     1      -2.904  -0.774   2.468  1.00  0.00     0.108 A   
ATOM     21  O1  UNL     1      -1.618  -2.157   3.730  1.00  0.00    -0.316 OA  
ATOM     22  O2  UNL     1      -3.131  -0.278   3.712  1.00  0.00    -0.316 OA  
ATOM     23  C12 UNL     1      -2.343  -1.182   4.518  1.00  0.00     0.337 C   
ENDBRANCH  14  15
ENDBRANCH  11  14
ENDBRANCH   7  11
ENDBRANCH   1   7
BRANCH   3  24
ATOM     24  C15 UNL     1       1.059   2.741   1.073  1.00  0.00     0.157 C   
BRANCH  24  25
ATOM     25  C16 UNL     1       2.250   3.519   0.478  1.00  0.00     0.186 C   
BRANCH  25  26
ATOM     26  O3  UNL     1       3.395   2.693   0.262  1.00  0.00    -0.394 OA  
ATOM     27  H22 UNL     1       4.092   3.265  -0.113  1.00  0.00     0.210 HD  
ENDBRANCH  25  26
ENDBRANCH  24  25
BRANCH  24  28
ATOM     28  C17 UNL     1       1.196   2.231   2.498  1.00  0.00    -0.005 A   
ATOM     29  C18 UNL     1       2.414   2.102   3.175  1.00  0.00     0.012 A   
ATOM     30  C21 UNL     1       0.049   1.843   3.195  1.00  0.00     0.120 A   
ATOM     31  C19 UNL     1       2.438   1.605   4.477  1.00  0.00     0.061 A   
ATOM     32  N3  UNL     1       0.046   1.351   4.452  1.00  0.00    -0.228 NA  
ATOM     33  C20 UNL     1       1.241   1.247   5.065  1.00  0.00     0.212 A   
ATOM     34  F1  UNL     1       1.258   0.752   6.310  1.00  0.00    -0.185 F   
ENDBRANCH  24  28
ENDBRANCH   3  24
TORSDOF 9
