REMARK SMILES CC(C)[C@H]([NH2+]Cc1ccc2c(c1)OCO2)c1cn([C@@H](CO)c2ccc(F)nc2)nn1
REMARK SMILES IDX 16 1 17 2 18 3 29 4 30 5 4 7 2 8 1 9 3 10 5 11 6 14 7 15
REMARK SMILES IDX 8 16 12 17 9 18 11 19 10 20 13 21 15 22 14 23 19 24 20 25
REMARK SMILES IDX 21 26 22 28 23 29 28 30 24 31 27 32 25 33 26 34
REMARK H PARENT 17 6 5 12 5 13 21 27
ROOT
ATOM     1   C13 UNL     1      -0.969   0.486   0.806  1.00  0.00     0.127 A   
ATOM     2   C14 UNL     1      -0.301  -0.717   0.799  1.00  0.00     0.046 A   
ATOM     3   N2  UNL     1      -1.266  -1.634   0.480  1.00  0.00    -0.202 N   
ATOM     4   N4  UNL     1      -2.445  -1.021   0.248  1.00  0.00    -0.075 NA  
ATOM     5   N5  UNL     1      -2.278   0.276   0.456  1.00  0.00    -0.132 NA  
ATOM     6   H18 UNL     1       0.724  -1.001   0.995  1.00  0.00     0.083 HD  
ENDROOT
BRANCH   1   7
ATOM     7   C4  UNL     1      -0.481   1.876   1.060  1.00  0.00     0.117 C   
BRANCH   7   8
ATOM     8   C2  UNL     1      -0.876   2.386   2.477  1.00  0.00     0.037 C   
ATOM     9   C1  UNL     1      -0.288   1.488   3.578  1.00  0.00     0.014 C   
ATOM     10  C3  UNL     1      -0.417   3.827   2.738  1.00  0.00     0.014 C   
ENDBRANCH   7   8
BRANCH   7  11
ATOM     11  N1  UNL     1      -1.063   2.812   0.018  1.00  0.00     0.249 N   
ATOM     12  H9  UNL     1      -2.086   2.722   0.088  1.00  0.00     0.199 HD  
ATOM     13  H10 UNL     1      -0.822   3.781   0.232  1.00  0.00     0.199 HD  
BRANCH  11  14
ATOM     14  C5  UNL     1      -0.687   2.545  -1.404  1.00  0.00     0.164 C   
BRANCH  14  15
ATOM     15  C6  UNL     1       0.782   2.723  -1.667  1.00  0.00    -0.002 A   
ATOM     16  C7  UNL     1       1.349   4.019  -1.722  1.00  0.00     0.012 A   
ATOM     17  C11 UNL     1       1.610   1.598  -1.827  1.00  0.00     0.045 A   
ATOM     18  C8  UNL     1       2.722   4.194  -1.929  1.00  0.00     0.037 A   
ATOM     19  C10 UNL     1       2.959   1.806  -2.028  1.00  0.00     0.109 A   
ATOM     20  C9  UNL     1       3.499   3.067  -2.076  1.00  0.00     0.108 A   
ATOM     21  O1  UNL     1       3.893   0.833  -2.192  1.00  0.00    -0.316 OA  
ATOM     22  O2  UNL     1       4.842   3.047  -2.279  1.00  0.00    -0.316 OA  
ATOM     23  C12 UNL     1       5.087   1.628  -2.378  1.00  0.00     0.337 C   
ENDBRANCH  14  15
ENDBRANCH  11  14
ENDBRANCH   7  11
ENDBRANCH   1   7
BRANCH   3  24
ATOM     24  C15 UNL     1      -1.163  -3.092   0.397  1.00  0.00     0.157 C   
BRANCH  24  25
ATOM     25  C16 UNL     1      -0.543  -3.519  -0.948  1.00  0.00     0.186 C   
BRANCH  25  26
ATOM     26  O3  UNL     1       0.757  -2.963  -1.158  1.00  0.00    -0.394 OA  
ATOM     27  H22 UNL     1       1.095  -3.336  -1.995  1.00  0.00     0.210 HD  
ENDBRANCH  25  26
ENDBRANCH  24  25
BRANCH  24  28
ATOM     28  C17 UNL     1      -0.541  -3.651   1.666  1.00  0.00    -0.005 A   
ATOM     29  C18 UNL     1       0.735  -4.221   1.736  1.00  0.00     0.012 A   
ATOM     30  C21 UNL     1      -1.263  -3.584   2.862  1.00  0.00     0.120 A   
ATOM     31  C19 UNL     1       1.222  -4.686   2.956  1.00  0.00     0.061 A   
ATOM     32  N3  UNL     1      -0.809  -4.015   4.057  1.00  0.00    -0.228 NA  
ATOM     33  C20 UNL     1       0.421  -4.561   4.076  1.00  0.00     0.212 A   
ATOM     34  F1  UNL     1       0.892  -4.996   5.253  1.00  0.00    -0.185 F   
ENDBRANCH  24  28
ENDBRANCH   3  24
TORSDOF 9
