REMARK SMILES Oc1ccc(CCn2cc([C@@H]([NH2+]Cc3ccc4c(c3)OCO4)C3CCCC3)nn2)cc1Cl
REMARK SMILES IDX 8 1 9 2 10 3 28 4 29 5 7 7 6 8 5 9 2 10 3 11 31 12 4 13
REMARK SMILES IDX 30 14 32 15 1 16 11 18 12 19 13 22 14 23 15 24 19 25 16 26
REMARK SMILES IDX 18 27 17 28 20 29 22 30 21 31 23 32 24 33 27 34 25 35 26 36
REMARK H PARENT 9 6 1 17 12 20 12 21
ROOT
ATOM     1   N1  UNL     1       0.487   0.090  -3.486  1.00  0.00    -0.212 N   
ATOM     2   C7  UNL     1      -0.724   0.381  -2.923  1.00  0.00     0.045 A   
ATOM     3   C8  UNL     1      -0.416   1.271  -1.919  1.00  0.00     0.127 A   
ATOM     4   N3  UNL     1       0.937   1.497  -1.917  1.00  0.00    -0.132 NA  
ATOM     5   N4  UNL     1       1.478   0.769  -2.880  1.00  0.00    -0.076 NA  
ATOM     6   H8  UNL     1      -1.644  -0.081  -3.254  1.00  0.00     0.083 HD  
ENDROOT
BRANCH   1   7
ATOM     7   C6  UNL     1       0.780  -0.883  -4.519  1.00  0.00     0.139 C   
BRANCH   7   8
ATOM     8   C5  UNL     1       1.504  -2.124  -3.985  1.00  0.00     0.057 C   
BRANCH   8   9
ATOM     9   C4  UNL     1       0.733  -2.830  -2.892  1.00  0.00    -0.045 A   
ATOM     10  C1  UNL     1      -0.755  -4.040  -0.854  1.00  0.00     0.090 A   
ATOM     11  C2  UNL     1      -1.122  -4.228  -2.182  1.00  0.00     0.035 A   
ATOM     12  C24 UNL     1       0.351  -3.255  -0.532  1.00  0.00     0.071 A   
ATOM     13  C3  UNL     1      -0.380  -3.627  -3.200  1.00  0.00     0.006 A   
ATOM     14  C23 UNL     1       1.097  -2.653  -1.546  1.00  0.00     0.027 A   
ATOM     15  CL1 UNL     1       0.781  -2.975   1.114  1.00  0.00    -0.081 Cl  
BRANCH  10  16
ATOM     16  O1  UNL     1      -1.523  -4.644   0.102  1.00  0.00    -0.359 OA  
ATOM     17  H1  UNL     1      -1.042  -4.590   0.949  1.00  0.00     0.218 HD  
ENDBRANCH  10  16
ENDBRANCH   8   9
ENDBRANCH   7   8
ENDBRANCH   1   7
BRANCH   3  18
ATOM     18  C9  UNL     1      -1.270   1.908  -0.870  1.00  0.00     0.117 C   
BRANCH  18  19
ATOM     19  N2  UNL     1      -0.491   2.038   0.410  1.00  0.00     0.249 N   
ATOM     20  H10 UNL     1       0.439   2.405   0.154  1.00  0.00     0.199 HD  
ATOM     21  H11 UNL     1      -0.901   2.722   1.052  1.00  0.00     0.199 HD  
BRANCH  19  22
ATOM     22  C10 UNL     1      -0.266   0.759   1.142  1.00  0.00     0.164 C   
BRANCH  22  23
ATOM     23  C11 UNL     1       0.592   0.990   2.354  1.00  0.00    -0.002 A   
ATOM     24  C12 UNL     1       0.002   1.216   3.620  1.00  0.00     0.012 A   
ATOM     25  C16 UNL     1       1.991   1.030   2.223  1.00  0.00     0.045 A   
ATOM     26  C13 UNL     1       0.793   1.468   4.745  1.00  0.00     0.037 A   
ATOM     27  C15 UNL     1       2.741   1.282   3.352  1.00  0.00     0.109 A   
ATOM     28  C14 UNL     1       2.160   1.495   4.578  1.00  0.00     0.108 A   
ATOM     29  O2  UNL     1       4.097   1.356   3.400  1.00  0.00    -0.316 OA  
ATOM     30  O3  UNL     1       3.077   1.726   5.553  1.00  0.00    -0.316 OA  
ATOM     31  C17 UNL     1       4.308   1.615   4.807  1.00  0.00     0.337 C   
ENDBRANCH  22  23
ENDBRANCH  19  22
ENDBRANCH  18  19
BRANCH  18  32
ATOM     32  C18 UNL     1      -1.809   3.276  -1.329  1.00  0.00     0.043 C   
ATOM     33  C19 UNL     1      -0.792   4.416  -1.417  1.00  0.00     0.010 C   
ATOM     34  C22 UNL     1      -2.898   3.867  -0.427  1.00  0.00     0.010 C   
ATOM     35  C20 UNL     1      -1.675   5.645  -1.585  1.00  0.00     0.001 C   
ATOM     36  C21 UNL     1      -2.922   5.362  -0.750  1.00  0.00     0.001 C   
ENDBRANCH  18  32
ENDBRANCH   3  18
TORSDOF 9
