REMARK SMILES COc1c(F)cc(F)cc1Cn1cc([C@@H]([NH2+]Cc2ccc3c(c2)OCO3)C(C)(C)C)nn1
REMARK SMILES IDX 12 1 13 2 14 3 31 4 32 5 11 7 10 8 3 9 4 10 6 11 9 12 7 13
REMARK SMILES IDX 5 14 8 15 2 16 1 17 15 18 16 19 17 22 18 23 19 24 23 25
REMARK SMILES IDX 20 26 22 27 21 28 24 29 26 30 25 31 27 32 28 33 29 34 30 35
REMARK H PARENT 13 6 16 20 16 21
ROOT
ATOM     1   N1  UNL     1      -2.601  -1.053   1.866  1.00  0.00    -0.208 N   
ATOM     2   C9  UNL     1      -2.283  -0.293   0.775  1.00  0.00     0.046 A   
ATOM     3   C10 UNL     1      -1.588  -1.156  -0.042  1.00  0.00     0.127 A   
ATOM     4   N3  UNL     1      -1.524  -2.388   0.556  1.00  0.00    -0.132 NA  
ATOM     5   N4  UNL     1      -2.153  -2.316   1.717  1.00  0.00    -0.076 NA  
ATOM     6   H8  UNL     1      -2.537   0.756   0.708  1.00  0.00     0.083 HD  
ENDROOT
BRANCH   1   7
ATOM     7   C8  UNL     1      -3.299  -0.647   3.074  1.00  0.00     0.172 C   
BRANCH   7   8
ATOM     8   C7  UNL     1      -2.335  -0.436   4.218  1.00  0.00     0.008 A   
ATOM     9   C2  UNL     1      -1.550   0.732   4.317  1.00  0.00     0.115 A   
ATOM     10  C3  UNL     1      -0.659   0.864   5.394  1.00  0.00     0.156 A   
ATOM     11  C4  UNL     1      -0.541  -0.128   6.362  1.00  0.00     0.081 A   
ATOM     12  C6  UNL     1      -2.203  -1.437   5.198  1.00  0.00     0.047 A   
ATOM     13  C5  UNL     1      -1.315  -1.271   6.254  1.00  0.00     0.126 A   
ATOM     14  F1  UNL     1       0.129   1.941   5.520  1.00  0.00    -0.204 F   
ATOM     15  F2  UNL     1      -1.200  -2.235   7.175  1.00  0.00    -0.207 F   
BRANCH   9  16
ATOM     16  O1  UNL     1      -1.727   1.642   3.306  1.00  0.00    -0.346 OA  
ATOM     17  C1  UNL     1      -1.147   2.933   3.482  1.00  0.00     0.203 C   
ENDBRANCH   9  16
ENDBRANCH   7   8
ENDBRANCH   1   7
BRANCH   3  18
ATOM     18  C11 UNL     1      -0.858  -0.914  -1.326  1.00  0.00     0.120 C   
BRANCH  18  19
ATOM     19  N2  UNL     1       0.486  -1.618  -1.274  1.00  0.00     0.250 N   
ATOM     20  H10 UNL     1       0.288  -2.605  -1.062  1.00  0.00     0.199 HD  
ATOM     21  H11 UNL     1       0.950  -1.585  -2.184  1.00  0.00     0.199 HD  
BRANCH  19  22
ATOM     22  C12 UNL     1       1.448  -1.142  -0.231  1.00  0.00     0.164 C   
BRANCH  22  23
ATOM     23  C13 UNL     1       1.848   0.297  -0.405  1.00  0.00    -0.002 A   
ATOM     24  C14 UNL     1       2.712   0.680  -1.458  1.00  0.00     0.012 A   
ATOM     25  C18 UNL     1       1.333   1.278   0.461  1.00  0.00     0.045 A   
ATOM     26  C15 UNL     1       3.054   2.023  -1.652  1.00  0.00     0.037 A   
ATOM     27  C17 UNL     1       1.688   2.592   0.240  1.00  0.00     0.109 A   
ATOM     28  C16 UNL     1       2.524   2.954  -0.787  1.00  0.00     0.108 A   
ATOM     29  O2  UNL     1       1.270   3.659   0.971  1.00  0.00    -0.316 OA  
ATOM     30  O3  UNL     1       2.743   4.294  -0.830  1.00  0.00    -0.316 OA  
ATOM     31  C19 UNL     1       1.976   4.736   0.310  1.00  0.00     0.337 C   
ENDBRANCH  22  23
ENDBRANCH  19  22
ENDBRANCH  18  19
BRANCH  18  32
ATOM     32  C20 UNL     1      -1.653  -1.344  -2.610  1.00  0.00     0.010 C   
ATOM     33  C21 UNL     1      -0.882  -0.924  -3.884  1.00  0.00     0.017 C   
ATOM     34  C22 UNL     1      -1.908  -2.863  -2.683  1.00  0.00     0.017 C   
ATOM     35  C23 UNL     1      -3.019  -0.621  -2.651  1.00  0.00     0.017 C   
ENDBRANCH  18  32
ENDBRANCH   3  18
TORSDOF 8
