REMARK SMILES COc1cccc(CCn2cc([C@@H]([NH2+]Cc3ccc4c(c3)OCO4)C3CCCC3)nn2)n1
REMARK SMILES IDX 10 1 11 2 12 3 30 4 31 5 9 7 8 8 7 9 3 10 4 11 32 12 5 13
REMARK SMILES IDX 6 14 2 15 1 16 13 17 14 18 15 21 16 22 17 23 21 24 18 25
REMARK SMILES IDX 20 26 19 27 22 28 24 29 23 30 25 31 26 32 29 33 27 34 28 35
REMARK H PARENT 11 6 14 19 14 20
ROOT
ATOM     1   N1  UNL     1       1.597   0.042  -3.470  1.00  0.00    -0.212 N   
ATOM     2   C9  UNL     1       0.273  -0.285  -3.385  1.00  0.00     0.045 A   
ATOM     3   C10 UNL     1      -0.269   0.744  -2.650  1.00  0.00     0.127 A   
ATOM     4   N3  UNL     1       0.700   1.682  -2.400  1.00  0.00    -0.132 NA  
ATOM     5   N4  UNL     1       1.833   1.252  -2.930  1.00  0.00    -0.076 NA  
ATOM     6   H11 UNL     1      -0.112  -1.231  -3.738  1.00  0.00     0.083 HD  
ENDROOT
BRANCH   1   7
ATOM     7   C8  UNL     1       2.692  -0.801  -3.904  1.00  0.00     0.140 C   
BRANCH   7   8
ATOM     8   C7  UNL     1       3.713  -1.082  -2.799  1.00  0.00     0.077 C   
BRANCH   8   9
ATOM     9   C6  UNL     1       3.152  -1.742  -1.557  1.00  0.00     0.045 A   
ATOM     10  C2  UNL     1       1.495  -2.980  -0.527  1.00  0.00     0.166 A   
ATOM     11  C3  UNL     1       2.144  -2.962   0.693  1.00  0.00     0.055 A   
ATOM     12  N5  UNL     1       1.953  -2.369  -1.642  1.00  0.00    -0.229 NA  
ATOM     13  C4  UNL     1       3.374  -2.322   0.763  1.00  0.00     0.006 A   
ATOM     14  C5  UNL     1       3.891  -1.711  -0.376  1.00  0.00     0.024 A   
BRANCH  10  15
ATOM     15  O1  UNL     1       0.256  -3.583  -0.569  1.00  0.00    -0.333 OA  
ATOM     16  C1  UNL     1       0.076  -4.286  -1.797  1.00  0.00     0.205 C   
ENDBRANCH  10  15
ENDBRANCH   8   9
ENDBRANCH   7   8
ENDBRANCH   1   7
BRANCH   3  17
ATOM     17  C11 UNL     1      -1.601   0.870  -1.992  1.00  0.00     0.117 C   
BRANCH  17  18
ATOM     18  N2  UNL     1      -1.392   1.163  -0.531  1.00  0.00     0.249 N   
ATOM     19  H13 UNL     1      -2.232   1.544  -0.088  1.00  0.00     0.199 HD  
ATOM     20  H14 UNL     1      -0.682   1.909  -0.486  1.00  0.00     0.199 HD  
BRANCH  18  21
ATOM     21  C12 UNL     1      -0.868   0.026   0.277  1.00  0.00     0.164 C   
BRANCH  21  22
ATOM     22  C13 UNL     1      -0.521   0.485   1.665  1.00  0.00    -0.002 A   
ATOM     23  C14 UNL     1       0.831   0.707   2.019  1.00  0.00     0.012 A   
ATOM     24  C18 UNL     1      -1.536   0.760   2.600  1.00  0.00     0.045 A   
ATOM     25  C15 UNL     1       1.173   1.186   3.287  1.00  0.00     0.037 A   
ATOM     26  C17 UNL     1      -1.165   1.246   3.836  1.00  0.00     0.109 A   
ATOM     27  C16 UNL     1       0.151   1.451   4.171  1.00  0.00     0.108 A   
ATOM     28  O2  UNL     1      -2.018   1.582   4.840  1.00  0.00    -0.316 OA  
ATOM     29  O3  UNL     1       0.295   1.933   5.432  1.00  0.00    -0.316 OA  
ATOM     30  C19 UNL     1      -1.085   2.028   5.851  1.00  0.00     0.337 C   
ENDBRANCH  21  22
ENDBRANCH  18  21
ENDBRANCH  17  18
BRANCH  17  31
ATOM     31  C20 UNL     1      -2.484   1.944  -2.655  1.00  0.00     0.043 C   
ATOM     32  C21 UNL     1      -3.938   1.948  -2.178  1.00  0.00     0.010 C   
ATOM     33  C24 UNL     1      -2.061   3.404  -2.456  1.00  0.00     0.010 C   
ATOM     34  C22 UNL     1      -4.487   3.244  -2.754  1.00  0.00     0.001 C   
ATOM     35  C23 UNL     1      -3.324   4.232  -2.699  1.00  0.00     0.001 C   
ENDBRANCH  17  31
ENDBRANCH   3  17
TORSDOF 9
