REMARK SMILES CC(C)[C@H]([NH2+]Cc1ccc2c(c1)OCO2)c1cn(-c2cnn(C)c2)nn1
REMARK SMILES IDX 4 1 2 2 1 3 3 4 5 5 6 8 7 9 8 10 12 11 9 12 11 13 10 14
REMARK SMILES IDX 13 15 15 16 14 17 16 18 17 19 26 20 18 21 25 22 19 23 20 24
REMARK SMILES IDX 24 25 21 26 22 27 23 28
REMARK H PARENT 5 6 5 7
ROOT
ATOM     1   C4  UNL     1      -0.209   1.258   0.113  1.00  0.00     0.117 C   
ENDROOT
BRANCH   1   2
ATOM     2   C2  UNL     1      -1.350   2.249   0.462  1.00  0.00     0.037 C   
ATOM     3   C1  UNL     1      -1.274   2.713   1.921  1.00  0.00     0.014 C   
ATOM     4   C3  UNL     1      -2.756   1.717   0.160  1.00  0.00     0.014 C   
ENDBRANCH   1   2
BRANCH   1   5
ATOM     5   N1  UNL     1      -0.225   1.026  -1.379  1.00  0.00     0.249 N   
ATOM     6   H9  UNL     1      -0.495   1.873  -1.890  1.00  0.00     0.199 HD  
ATOM     7   H10 UNL     1      -0.962   0.329  -1.568  1.00  0.00     0.199 HD  
BRANCH   5   8
ATOM     8   C5  UNL     1       1.039   0.493  -1.960  1.00  0.00     0.164 C   
BRANCH   8   9
ATOM     9   C6  UNL     1       0.875   0.244  -3.432  1.00  0.00    -0.002 A   
ATOM     10  C7  UNL     1       1.251   1.231  -4.374  1.00  0.00     0.012 A   
ATOM     11  C11 UNL     1       0.294  -0.956  -3.879  1.00  0.00     0.045 A   
ATOM     12  C8  UNL     1       1.061   1.023  -5.745  1.00  0.00     0.037 A   
ATOM     13  C10 UNL     1       0.121  -1.128  -5.237  1.00  0.00     0.109 A   
ATOM     14  C9  UNL     1       0.493  -0.167  -6.143  1.00  0.00     0.108 A   
ATOM     15  O1  UNL     1      -0.423  -2.221  -5.832  1.00  0.00    -0.316 OA  
ATOM     16  O2  UNL     1       0.234  -0.535  -7.425  1.00  0.00    -0.316 OA  
ATOM     17  C12 UNL     1      -0.328  -1.850  -7.226  1.00  0.00     0.337 C   
ENDBRANCH   8   9
ENDBRANCH   5   8
ENDBRANCH   1   5
BRANCH   1  18
ATOM     18  C13 UNL     1      -0.290  -0.050   0.837  1.00  0.00     0.127 A   
ATOM     19  C14 UNL     1       0.189  -0.449   2.064  1.00  0.00     0.135 A   
ATOM     20  N6  UNL     1      -0.893  -1.115   0.229  1.00  0.00    -0.131 NA  
ATOM     21  N2  UNL     1      -0.173  -1.778   2.179  1.00  0.00    -0.178 N   
ATOM     22  N5  UNL     1      -0.808  -2.156   1.041  1.00  0.00    -0.071 NA  
BRANCH  21  23
ATOM     23  C15 UNL     1       0.071  -2.639   3.266  1.00  0.00     0.093 A   
ATOM     24  C16 UNL     1      -0.302  -3.992   3.343  1.00  0.00     0.158 A   
ATOM     25  C18 UNL     1       0.706  -2.367   4.458  1.00  0.00     0.122 A   
ATOM     26  N3  UNL     1       0.071  -4.543   4.500  1.00  0.00    -0.188 NA  
ATOM     27  N4  UNL     1       0.676  -3.541   5.162  1.00  0.00    -0.234 N   
ATOM     28  C17 UNL     1       1.209  -3.783   6.482  1.00  0.00     0.159 C   
ENDBRANCH  21  23
ENDBRANCH   1  18
TORSDOF 6
