REMARK SMILES [O-]N([O-])c1ccc(F)cc1Cn1cc([C@@H]([NH2+]Cc2ccc3c(c2)OCO3)C2CCCC2)nn1
REMARK SMILES IDX 12 1 13 2 14 3 32 4 33 5 11 7 10 8 4 9 5 10 6 11 9 12 7 13
REMARK SMILES IDX 8 14 2 15 1 16 3 17 15 18 16 19 17 22 18 23 19 24 23 25
REMARK SMILES IDX 20 26 22 27 21 28 24 29 26 30 25 31 27 32 28 33 31 34 29 35
REMARK SMILES IDX 30 36
REMARK H PARENT 13 6 16 20 16 21
ROOT
ATOM     1   N2  UNL     1      -1.260   2.573   0.170  1.00  0.00    -0.208 N   
ATOM     2   C8  UNL     1      -0.200   1.864   0.665  1.00  0.00     0.046 A   
ATOM     3   C9  UNL     1       0.505   1.492  -0.457  1.00  0.00     0.127 A   
ATOM     4   N4  UNL     1      -0.114   2.005  -1.567  1.00  0.00    -0.132 NA  
ATOM     5   N5  UNL     1      -1.186   2.669  -1.171  1.00  0.00    -0.076 NA  
ATOM     6   H6  UNL     1      -0.081   1.657   1.721  1.00  0.00     0.083 HD  
ENDROOT
BRANCH   1   7
ATOM     7   C7  UNL     1      -2.406   3.103   0.897  1.00  0.00     0.171 C   
BRANCH   7   8
ATOM     8   C6  UNL     1      -3.731   2.604   0.356  1.00  0.00     0.003 A   
ATOM     9   C1  UNL     1      -4.088   1.240   0.248  1.00  0.00     0.123 A   
ATOM     10  C2  UNL     1      -5.322   0.832  -0.284  1.00  0.00     0.034 A   
ATOM     11  C3  UNL     1      -6.235   1.797  -0.702  1.00  0.00     0.041 A   
ATOM     12  C5  UNL     1      -4.679   3.550  -0.071  1.00  0.00     0.047 A   
ATOM     13  C4  UNL     1      -5.909   3.143  -0.590  1.00  0.00     0.123 A   
ATOM     14  F1  UNL     1      -6.787   4.068  -0.992  1.00  0.00    -0.207 F   
BRANCH   9  15
ATOM     15  N1  UNL     1      -3.177   0.191   0.683  1.00  0.00     0.092 N   
ATOM     16  O1  UNL     1      -2.875  -0.686  -0.138  1.00  0.00    -0.138 OA  
ATOM     17  O2  UNL     1      -2.722   0.276   1.831  1.00  0.00    -0.138 OA  
ENDBRANCH   9  15
ENDBRANCH   7   8
ENDBRANCH   1   7
BRANCH   3  18
ATOM     18  C10 UNL     1       1.699   0.608  -0.623  1.00  0.00     0.117 C   
BRANCH  18  19
ATOM     19  N3  UNL     1       1.468  -0.331  -1.789  1.00  0.00     0.249 N   
ATOM     20  H8  UNL     1       1.165   0.260  -2.576  1.00  0.00     0.199 HD  
ATOM     21  H9  UNL     1       2.340  -0.787  -2.068  1.00  0.00     0.199 HD  
BRANCH  19  22
ATOM     22  C11 UNL     1       0.423  -1.382  -1.591  1.00  0.00     0.164 C   
BRANCH  22  23
ATOM     23  C12 UNL     1       0.872  -2.466  -0.650  1.00  0.00    -0.002 A   
ATOM     24  C13 UNL     1       1.781  -3.460  -1.087  1.00  0.00     0.012 A   
ATOM     25  C17 UNL     1       0.419  -2.479   0.680  1.00  0.00     0.045 A   
ATOM     26  C14 UNL     1       2.232  -4.455  -0.214  1.00  0.00     0.037 A   
ATOM     27  C16 UNL     1       0.891  -3.469   1.518  1.00  0.00     0.109 A   
ATOM     28  C15 UNL     1       1.770  -4.430   1.082  1.00  0.00     0.108 A   
ATOM     29  O3  UNL     1       0.571  -3.616   2.829  1.00  0.00    -0.316 OA  
ATOM     30  O4  UNL     1       2.103  -5.311   2.062  1.00  0.00    -0.316 OA  
ATOM     31  C18 UNL     1       1.313  -4.811   3.161  1.00  0.00     0.337 C   
ENDBRANCH  22  23
ENDBRANCH  19  22
ENDBRANCH  18  19
BRANCH  18  32
ATOM     32  C19 UNL     1       2.981   1.418  -0.897  1.00  0.00     0.043 C   
ATOM     33  C20 UNL     1       3.364   2.357   0.252  1.00  0.00     0.010 C   
ATOM     34  C23 UNL     1       4.247   0.564  -1.048  1.00  0.00     0.010 C   
ATOM     35  C21 UNL     1       4.801   2.736  -0.070  1.00  0.00     0.001 C   
ATOM     36  C22 UNL     1       5.415   1.480  -0.682  1.00  0.00     0.001 C   
ENDBRANCH  18  32
ENDBRANCH   3  18
TORSDOF 8
