REMARK SMILES Cc1ccc([C@H](O)Cn2cc([C@@H]([NH2+]Cc3ccc4c(c3)OCO4)C(C)(C)C)nn2)c(C)c1
REMARK SMILES IDX 9 1 10 2 11 3 28 4 29 5 8 7 6 8 5 9 2 10 3 11 32 12 4 13
REMARK SMILES IDX 30 14 1 15 31 16 7 17 12 19 13 20 14 23 15 24 16 25 20 26
REMARK SMILES IDX 17 27 19 28 18 29 21 30 23 31 22 32 24 33 25 34 26 35 27 36
REMARK H PARENT 10 6 7 18 13 21 13 22
ROOT
ATOM     1   N1  UNL     1       1.230  -0.957  -1.085  1.00  0.00    -0.209 N   
ATOM     2   C8  UNL     1       1.767  -0.348   0.013  1.00  0.00     0.046 A   
ATOM     3   C9  UNL     1       0.998  -0.809   1.058  1.00  0.00     0.127 A   
ATOM     4   N3  UNL     1       0.033  -1.652   0.566  1.00  0.00    -0.132 NA  
ATOM     5   N4  UNL     1       0.176  -1.722  -0.746  1.00  0.00    -0.076 NA  
ATOM     6   H10 UNL     1       2.598   0.340  -0.060  1.00  0.00     0.083 HD  
ENDROOT
BRANCH   1   7
ATOM     7   C7  UNL     1       1.650  -0.851  -2.469  1.00  0.00     0.170 C   
BRANCH   7   8
ATOM     8   C6  UNL     1       0.931   0.297  -3.182  1.00  0.00     0.164 C   
BRANCH   8   9
ATOM     9   C5  UNL     1       1.107   0.198  -4.688  1.00  0.00    -0.015 A   
ATOM     10  C2  UNL     1       1.531   0.015  -7.478  1.00  0.00    -0.051 A   
ATOM     11  C3  UNL     1       2.541   0.493  -6.643  1.00  0.00     0.004 A   
ATOM     12  C25 UNL     1       0.307  -0.366  -6.913  1.00  0.00     0.007 A   
ATOM     13  C4  UNL     1       2.335   0.578  -5.265  1.00  0.00     0.007 A   
ATOM     14  C23 UNL     1       0.089  -0.304  -5.525  1.00  0.00    -0.045 A   
ATOM     15  C1  UNL     1       1.742  -0.041  -8.963  1.00  0.00     0.044 C   
ATOM     16  C24 UNL     1      -1.242  -0.762  -4.989  1.00  0.00     0.045 C   
ENDBRANCH   8   9
BRANCH   8  17
ATOM     17  O1  UNL     1       1.449   1.554  -2.714  1.00  0.00    -0.387 OA  
ATOM     18  H7  UNL     1       1.234   2.215  -3.400  1.00  0.00     0.211 HD  
ENDBRANCH   8  17
ENDBRANCH   7   8
ENDBRANCH   1   7
BRANCH   3  19
ATOM     19  C10 UNL     1       1.004  -0.472   2.519  1.00  0.00     0.120 C   
BRANCH  19  20
ATOM     20  N2  UNL     1      -0.419  -0.538   3.029  1.00  0.00     0.250 N   
ATOM     21  H12 UNL     1      -0.831  -1.394   2.623  1.00  0.00     0.199 HD  
ATOM     22  H13 UNL     1      -0.478  -0.647   4.044  1.00  0.00     0.199 HD  
BRANCH  20  23
ATOM     23  C11 UNL     1      -1.290   0.599   2.617  1.00  0.00     0.164 C   
BRANCH  23  24
ATOM     24  C12 UNL     1      -2.715   0.342   3.013  1.00  0.00    -0.002 A   
ATOM     25  C13 UNL     1      -3.560  -0.417   2.166  1.00  0.00     0.012 A   
ATOM     26  C17 UNL     1      -3.206   0.808   4.243  1.00  0.00     0.045 A   
ATOM     27  C14 UNL     1      -4.881  -0.694   2.531  1.00  0.00     0.037 A   
ATOM     28  C16 UNL     1      -4.514   0.520   4.570  1.00  0.00     0.109 A   
ATOM     29  C15 UNL     1      -5.330  -0.209   3.740  1.00  0.00     0.108 A   
ATOM     30  O2  UNL     1      -5.141   0.906   5.711  1.00  0.00    -0.316 OA  
ATOM     31  O3  UNL     1      -6.575  -0.374   4.254  1.00  0.00    -0.316 OA  
ATOM     32  C18 UNL     1      -6.461   0.356   5.495  1.00  0.00     0.337 C   
ENDBRANCH  23  24
ENDBRANCH  20  23
ENDBRANCH  19  20
BRANCH  19  33
ATOM     33  C19 UNL     1       1.937  -1.381   3.391  1.00  0.00     0.010 C   
ATOM     34  C20 UNL     1       3.383  -1.344   2.848  1.00  0.00     0.017 C   
ATOM     35  C21 UNL     1       1.992  -0.851   4.844  1.00  0.00     0.017 C   
ATOM     36  C22 UNL     1       1.470  -2.849   3.428  1.00  0.00     0.017 C   
ENDBRANCH  19  33
ENDBRANCH   3  19
TORSDOF 9
