REMARK SMILES Cc1ccc([C@@H](O)Cn2cc([C@@H]([NH2+]Cc3ccc4c(c3)OCO4)C(C)(C)C)nn2)c(C)c1
REMARK SMILES IDX 9 1 10 2 11 3 28 4 29 5 8 7 6 8 5 9 2 10 3 11 32 12 4 13
REMARK SMILES IDX 30 14 1 15 31 16 7 17 12 19 13 20 14 23 15 24 16 25 20 26
REMARK SMILES IDX 17 27 19 28 18 29 21 30 23 31 22 32 24 33 25 34 26 35 27 36
REMARK H PARENT 10 6 7 18 13 21 13 22
ROOT
ATOM     1   N1  UNL     1       2.379   2.098  -0.818  1.00  0.00    -0.209 N   
ATOM     2   C8  UNL     1       1.184   1.791  -1.405  1.00  0.00     0.046 A   
ATOM     3   C9  UNL     1       0.259   2.481  -0.654  1.00  0.00     0.127 A   
ATOM     4   N3  UNL     1       0.908   3.166   0.341  1.00  0.00    -0.132 NA  
ATOM     5   N4  UNL     1       2.205   2.936   0.219  1.00  0.00    -0.076 NA  
ATOM     6   H10 UNL     1       1.105   1.115  -2.245  1.00  0.00     0.083 HD  
ENDROOT
BRANCH   1   7
ATOM     7   C7  UNL     1       3.688   1.590  -1.152  1.00  0.00     0.170 C   
BRANCH   7   8
ATOM     8   C6  UNL     1       4.282   0.682  -0.067  1.00  0.00     0.164 C   
BRANCH   8   9
ATOM     9   C5  UNL     1       3.409  -0.513   0.288  1.00  0.00    -0.015 A   
ATOM     10  C2  UNL     1       1.824  -2.791   0.846  1.00  0.00    -0.051 A   
ATOM     11  C3  UNL     1       2.348  -2.594  -0.431  1.00  0.00     0.004 A   
ATOM     12  C25 UNL     1       2.085  -1.841   1.840  1.00  0.00     0.007 A   
ATOM     13  C4  UNL     1       3.135  -1.475  -0.704  1.00  0.00     0.007 A   
ATOM     14  C23 UNL     1       2.872  -0.703   1.580  1.00  0.00    -0.045 A   
ATOM     15  C1  UNL     1       0.989  -3.998   1.160  1.00  0.00     0.044 C   
ATOM     16  C24 UNL     1       3.141   0.253   2.712  1.00  0.00     0.045 C   
ENDBRANCH   8   9
BRANCH   8  17
ATOM     17  O1  UNL     1       5.548   0.199  -0.530  1.00  0.00    -0.387 OA  
ATOM     18  H7  UNL     1       5.809  -0.537   0.054  1.00  0.00     0.211 HD  
ENDBRANCH   8  17
ENDBRANCH   7   8
ENDBRANCH   1   7
BRANCH   3  19
ATOM     19  C10 UNL     1      -1.237   2.485  -0.705  1.00  0.00     0.120 C   
BRANCH  19  20
ATOM     20  N2  UNL     1      -1.779   2.329   0.703  1.00  0.00     0.250 N   
ATOM     21  H12 UNL     1      -2.790   2.478   0.723  1.00  0.00     0.199 HD  
ATOM     22  H13 UNL     1      -1.344   3.074   1.262  1.00  0.00     0.199 HD  
BRANCH  20  23
ATOM     23  C11 UNL     1      -1.477   1.037   1.394  1.00  0.00     0.164 C   
BRANCH  23  24
ATOM     24  C12 UNL     1      -2.122  -0.150   0.736  1.00  0.00    -0.002 A   
ATOM     25  C13 UNL     1      -3.503  -0.408   0.907  1.00  0.00     0.012 A   
ATOM     26  C17 UNL     1      -1.359  -0.994  -0.090  1.00  0.00     0.045 A   
ATOM     27  C14 UNL     1      -4.115  -1.493   0.269  1.00  0.00     0.037 A   
ATOM     28  C16 UNL     1      -1.995  -2.050  -0.708  1.00  0.00     0.109 A   
ATOM     29  C15 UNL     1      -3.333  -2.296  -0.532  1.00  0.00     0.108 A   
ATOM     30  O2  UNL     1      -1.406  -2.949  -1.540  1.00  0.00    -0.316 OA  
ATOM     31  O3  UNL     1      -3.754  -3.386  -1.223  1.00  0.00    -0.316 OA  
ATOM     32  C18 UNL     1      -2.523  -3.816  -1.840  1.00  0.00     0.337 C   
ENDBRANCH  23  24
ENDBRANCH  20  23
ENDBRANCH  19  20
BRANCH  19  33
ATOM     33  C19 UNL     1      -1.855   3.755  -1.392  1.00  0.00     0.010 C   
ATOM     34  C20 UNL     1      -1.572   5.059  -0.620  1.00  0.00     0.017 C   
ATOM     35  C21 UNL     1      -3.388   3.599  -1.528  1.00  0.00     0.017 C   
ATOM     36  C22 UNL     1      -1.289   3.907  -2.823  1.00  0.00     0.017 C   
ENDBRANCH  19  33
ENDBRANCH   3  19
TORSDOF 9
