REMARK SMILES CC(C)[C@H]([NH2+]Cc1ccc2c(c1)OCO2)c1cn(Cc2cc(C(C)(C)C)nn2C)nn1
REMARK SMILES IDX 16 1 17 2 18 3 30 4 31 5 4 7 2 8 1 9 3 10 5 11 6 14 7 15
REMARK SMILES IDX 8 16 12 17 9 18 11 19 10 20 13 21 15 22 14 23 19 24 20 25
REMARK SMILES IDX 21 26 28 27 22 28 27 29 29 30 23 31 24 32 25 33 26 34
REMARK H PARENT 17 6 5 12 5 13
ROOT
ATOM     1   C13 UNL     1       1.923  -0.078  -0.136  1.00  0.00     0.127 A   
ATOM     2   C14 UNL     1       1.096  -0.097   0.964  1.00  0.00     0.046 A   
ATOM     3   N2  UNL     1       0.356   1.048   0.841  1.00  0.00    -0.206 N   
ATOM     4   N5  UNL     1       0.727   1.744  -0.253  1.00  0.00    -0.076 NA  
ATOM     5   N6  UNL     1       1.680   1.062  -0.863  1.00  0.00    -0.132 NA  
ATOM     6   H18 UNL     1       0.937  -0.801   1.769  1.00  0.00     0.083 HD  
ENDROOT
BRANCH   1   7
ATOM     7   C4  UNL     1       2.913  -1.073  -0.652  1.00  0.00     0.117 C   
BRANCH   7   8
ATOM     8   C2  UNL     1       4.293  -0.969   0.041  1.00  0.00     0.037 C   
ATOM     9   C1  UNL     1       5.231  -2.099  -0.396  1.00  0.00     0.014 C   
ATOM     10  C3  UNL     1       4.992   0.384  -0.136  1.00  0.00     0.014 C   
ENDBRANCH   7   8
BRANCH   7  11
ATOM     11  N1  UNL     1       3.043  -0.908  -2.151  1.00  0.00     0.249 N   
ATOM     12  H9  UNL     1       2.474  -0.079  -2.392  1.00  0.00     0.199 HD  
ATOM     13  H10 UNL     1       3.999  -0.644  -2.410  1.00  0.00     0.199 HD  
BRANCH  11  14
ATOM     14  C5  UNL     1       2.590  -2.047  -2.994  1.00  0.00     0.164 C   
BRANCH  14  15
ATOM     15  C6  UNL     1       1.161  -2.464  -2.767  1.00  0.00    -0.002 A   
ATOM     16  C7  UNL     1       0.869  -3.793  -2.369  1.00  0.00     0.012 A   
ATOM     17  C11 UNL     1       0.104  -1.555  -2.952  1.00  0.00     0.045 A   
ATOM     18  C8  UNL     1      -0.450  -4.210  -2.149  1.00  0.00     0.037 A   
ATOM     19  C10 UNL     1      -1.185  -1.999  -2.724  1.00  0.00     0.109 A   
ATOM     20  C9  UNL     1      -1.455  -3.288  -2.335  1.00  0.00     0.108 A   
ATOM     21  O1  UNL     1      -2.312  -1.253  -2.860  1.00  0.00    -0.316 OA  
ATOM     22  O2  UNL     1      -2.784  -3.521  -2.182  1.00  0.00    -0.316 OA  
ATOM     23  C12 UNL     1      -3.329  -2.228  -2.524  1.00  0.00     0.337 C   
ENDBRANCH  14  15
ENDBRANCH  11  14
ENDBRANCH   7  11
ENDBRANCH   1   7
BRANCH   3  24
ATOM     24  C15 UNL     1      -0.745   1.506   1.676  1.00  0.00     0.187 C   
BRANCH  24  25
ATOM     25  C16 UNL     1      -1.922   0.608   1.524  1.00  0.00     0.049 A   
ATOM     26  C17 UNL     1      -2.426  -0.361   2.368  1.00  0.00     0.048 A   
ATOM     27  N4  UNL     1      -2.744   0.598   0.426  1.00  0.00    -0.231 N   
ATOM     28  C18 UNL     1      -3.529  -0.930   1.683  1.00  0.00     0.066 A   
ATOM     29  N3  UNL     1      -3.688  -0.353   0.485  1.00  0.00    -0.186 NA  
ATOM     30  C23 UNL     1      -2.682   1.446  -0.744  1.00  0.00     0.159 C   
BRANCH  28  31
ATOM     31  C19 UNL     1      -4.426  -2.077   2.123  1.00  0.00     0.006 C   
ATOM     32  C20 UNL     1      -4.673  -2.031   3.645  1.00  0.00     0.017 C   
ATOM     33  C21 UNL     1      -3.750  -3.416   1.771  1.00  0.00     0.017 C   
ATOM     34  C22 UNL     1      -5.803  -2.022   1.427  1.00  0.00     0.017 C   
ENDBRANCH  28  31
ENDBRANCH  24  25
ENDBRANCH   3  24
TORSDOF 8
