REMARK SMILES CC(C)C[C@H]([NH2+]Cc1ccc2c(c1)OCO2)c1cn(Cc2nc3ccccc3[nH]2)nn1
REMARK SMILES IDX 17 1 18 2 19 3 30 4 31 5 5 7 4 8 2 9 1 10 3 11 6 12 7 15
REMARK SMILES IDX 8 16 9 17 13 18 10 19 12 20 11 21 14 22 16 23 15 24 20 25
REMARK SMILES IDX 21 26 22 27 29 28 23 29 28 30 24 31 27 32 25 33 26 34
REMARK H PARENT 18 6 6 13 6 14 29 35
ROOT
ATOM     1   C14 UNL     1      -0.441  -2.017  -1.247  1.00  0.00     0.127 A   
ATOM     2   C15 UNL     1      -0.422  -2.316   0.096  1.00  0.00     0.046 A   
ATOM     3   N2  UNL     1       0.702  -3.083   0.243  1.00  0.00    -0.205 N   
ATOM     4   N5  UNL     1       1.287  -3.316  -0.949  1.00  0.00    -0.076 NA  
ATOM     5   N6  UNL     1       0.596  -2.664  -1.871  1.00  0.00    -0.132 NA  
ATOM     6   H20 UNL     1      -1.009  -1.987   0.943  1.00  0.00     0.083 HD  
ENDROOT
BRANCH   1   7
ATOM     7   C5  UNL     1      -1.283  -1.051  -2.010  1.00  0.00     0.114 C   
BRANCH   7   8
ATOM     8   C4  UNL     1      -2.289  -1.792  -2.914  1.00  0.00     0.064 C   
BRANCH   8   9
ATOM     9   C2  UNL     1      -3.258  -0.909  -3.729  1.00  0.00    -0.012 C   
ATOM     10  C1  UNL     1      -4.076   0.036  -2.848  1.00  0.00     0.007 C   
ATOM     11  C3  UNL     1      -4.200  -1.799  -4.545  1.00  0.00     0.007 C   
ENDBRANCH   8   9
ENDBRANCH   7   8
BRANCH   7  12
ATOM     12  N1  UNL     1      -0.407  -0.164  -2.864  1.00  0.00     0.249 N   
ATOM     13  H11 UNL     1       0.143  -0.792  -3.465  1.00  0.00     0.199 HD  
ATOM     14  H12 UNL     1      -0.979   0.426  -3.471  1.00  0.00     0.199 HD  
BRANCH  12  15
ATOM     15  C6  UNL     1       0.564   0.708  -2.130  1.00  0.00     0.164 C   
BRANCH  15  16
ATOM     16  C7  UNL     1      -0.104   1.743  -1.269  1.00  0.00    -0.002 A   
ATOM     17  C8  UNL     1      -0.779   2.841  -1.857  1.00  0.00     0.012 A   
ATOM     18  C12 UNL     1      -0.084   1.613   0.131  1.00  0.00     0.045 A   
ATOM     19  C9  UNL     1      -1.431   3.791  -1.064  1.00  0.00     0.037 A   
ATOM     20  C11 UNL     1      -0.736   2.568   0.883  1.00  0.00     0.109 A   
ATOM     21  C10 UNL     1      -1.393   3.624   0.302  1.00  0.00     0.108 A   
ATOM     22  O1  UNL     1      -0.816   2.590   2.239  1.00  0.00    -0.316 OA  
ATOM     23  O2  UNL     1      -1.969   4.444   1.219  1.00  0.00    -0.316 OA  
ATOM     24  C13 UNL     1      -1.582   3.796   2.450  1.00  0.00     0.337 C   
ENDBRANCH  15  16
ENDBRANCH  12  15
ENDBRANCH   7  12
ENDBRANCH   1   7
BRANCH   3  25
ATOM     25  C16 UNL     1       1.339  -3.496   1.481  1.00  0.00     0.206 C   
BRANCH  25  26
ATOM     26  C17 UNL     1       2.088  -2.339   2.049  1.00  0.00     0.118 A   
ATOM     27  N3  UNL     1       1.590  -1.150   2.336  1.00  0.00    -0.234 NA  
ATOM     28  N4  UNL     1       3.434  -2.385   2.325  1.00  0.00    -0.300 N   
ATOM     29  C18 UNL     1       2.643  -0.411   2.816  1.00  0.00     0.086 A   
ATOM     30  C23 UNL     1       3.813  -1.159   2.810  1.00  0.00     0.057 A   
ATOM     31  C19 UNL     1       2.675   0.915   3.270  1.00  0.00     0.030 A   
ATOM     32  C22 UNL     1       5.044  -0.657   3.237  1.00  0.00     0.026 A   
ATOM     33  C20 UNL     1       3.896   1.444   3.704  1.00  0.00     0.002 A   
ATOM     34  C21 UNL     1       5.059   0.669   3.686  1.00  0.00     0.002 A   
ATOM     35  H27 UNL     1       4.049  -3.176   2.191  1.00  0.00     0.154 HD  
ENDBRANCH  25  26
ENDBRANCH   3  25
TORSDOF 8
