REMARK SMILES CC(C)C[C@H]([NH2+]Cc1ccc2c(c1)OCO2)c1cn(CCc2nccn2C)nn1
REMARK SMILES IDX 17 1 18 2 19 3 28 4 29 5 5 7 4 8 2 9 1 10 3 11 6 12 7 15
REMARK SMILES IDX 8 16 9 17 13 18 10 19 12 20 11 21 14 22 16 23 15 24 20 25
REMARK SMILES IDX 21 26 22 27 23 28 26 29 24 30 25 31 27 32
REMARK H PARENT 18 6 6 13 6 14
ROOT
ATOM     1   C14 UNL     1       0.572   2.002  -0.661  1.00  0.00     0.127 A   
ATOM     2   C15 UNL     1      -0.714   2.234  -1.091  1.00  0.00     0.045 A   
ATOM     3   N2  UNL     1      -0.773   1.581  -2.288  1.00  0.00    -0.212 N   
ATOM     4   N5  UNL     1       0.434   1.100  -2.639  1.00  0.00    -0.076 NA  
ATOM     5   N6  UNL     1       1.265   1.333  -1.636  1.00  0.00    -0.132 NA  
ATOM     6   H20 UNL     1      -1.591   2.662  -0.623  1.00  0.00     0.083 HD  
ENDROOT
BRANCH   1   7
ATOM     7   C5  UNL     1       1.180   2.186   0.684  1.00  0.00     0.114 C   
BRANCH   7   8
ATOM     8   C4  UNL     1       2.422   3.093   0.671  1.00  0.00     0.064 C   
BRANCH   8   9
ATOM     9   C2  UNL     1       2.154   4.550   0.236  1.00  0.00    -0.012 C   
ATOM     10  C1  UNL     1       1.184   5.269   1.175  1.00  0.00     0.007 C   
ATOM     11  C3  UNL     1       3.476   5.320   0.172  1.00  0.00     0.007 C   
ENDBRANCH   8   9
ENDBRANCH   7   8
BRANCH   7  12
ATOM     12  N1  UNL     1       1.612   0.839   1.216  1.00  0.00     0.249 N   
ATOM     13  H11 UNL     1       2.241   0.424   0.515  1.00  0.00     0.199 HD  
ATOM     14  H12 UNL     1       2.154   0.943   2.079  1.00  0.00     0.199 HD  
BRANCH  12  15
ATOM     15  C6  UNL     1       0.500  -0.134   1.441  1.00  0.00     0.164 C   
BRANCH  15  16
ATOM     16  C7  UNL     1       1.025  -1.392   2.076  1.00  0.00    -0.002 A   
ATOM     17  C8  UNL     1       1.470  -2.463   1.266  1.00  0.00     0.012 A   
ATOM     18  C12 UNL     1       1.126  -1.491   3.475  1.00  0.00     0.045 A   
ATOM     19  C9  UNL     1       1.999  -3.625   1.839  1.00  0.00     0.037 A   
ATOM     20  C11 UNL     1       1.654  -2.649   4.007  1.00  0.00     0.109 A   
ATOM     21  C10 UNL     1       2.077  -3.686   3.213  1.00  0.00     0.108 A   
ATOM     22  O1  UNL     1       1.824  -2.905   5.330  1.00  0.00    -0.316 OA  
ATOM     23  O2  UNL     1       2.563  -4.728   3.937  1.00  0.00    -0.316 OA  
ATOM     24  C13 UNL     1       2.389  -4.235   5.282  1.00  0.00     0.337 C   
ENDBRANCH  15  16
ENDBRANCH  12  15
ENDBRANCH   7  12
ENDBRANCH   1   7
BRANCH   3  25
ATOM     25  C16 UNL     1      -1.950   1.269  -3.071  1.00  0.00     0.142 C   
BRANCH  25  26
ATOM     26  C17 UNL     1      -2.266  -0.226  -3.106  1.00  0.00     0.094 C   
BRANCH  26  27
ATOM     27  C18 UNL     1      -2.680  -0.790  -1.777  1.00  0.00     0.101 A   
ATOM     28  N3  UNL     1      -2.548  -0.215  -0.593  1.00  0.00    -0.244 NA  
ATOM     29  N4  UNL     1      -3.262  -2.032  -1.641  1.00  0.00    -0.297 N   
ATOM     30  C19 UNL     1      -3.113  -1.079   0.309  1.00  0.00     0.128 A   
ATOM     31  C20 UNL     1      -3.541  -2.223  -0.318  1.00  0.00     0.096 A   
ATOM     32  C21 UNL     1      -3.553  -2.969  -2.700  1.00  0.00     0.137 C   
ENDBRANCH  26  27
ENDBRANCH  25  26
ENDBRANCH   3  25
TORSDOF 9
