REMARK SMILES CC(C)C[C@H]([NH2+]Cc1ccc2c(c1)OCO2)c1cn(Cc2ccc(Cl)cn2)nn1
REMARK SMILES IDX 17 1 18 2 19 3 28 4 29 5 5 7 4 8 2 9 1 10 3 11 6 12 7 15
REMARK SMILES IDX 8 16 9 17 13 18 10 19 12 20 11 21 14 22 16 23 15 24 20 25
REMARK SMILES IDX 21 26 22 27 27 28 23 29 26 30 24 31 25 32
REMARK H PARENT 18 6 6 13 6 14
ROOT
ATOM     1   C14 UNL     1       1.165   1.586  -0.404  1.00  0.00     0.127 A   
ATOM     2   C15 UNL     1       0.190   1.880  -1.330  1.00  0.00     0.046 A   
ATOM     3   N2  UNL     1       0.879   2.029  -2.503  1.00  0.00    -0.206 N   
ATOM     4   N4  UNL     1       2.198   1.829  -2.312  1.00  0.00    -0.076 NA  
ATOM     5   N5  UNL     1       2.386   1.560  -1.030  1.00  0.00    -0.132 NA  
ATOM     6   H20 UNL     1      -0.885   1.989  -1.276  1.00  0.00     0.083 HD  
ENDROOT
BRANCH   1   7
ATOM     7   C5  UNL     1       1.075   1.260   1.049  1.00  0.00     0.114 C   
BRANCH   7   8
ATOM     8   C4  UNL     1       1.383   2.476   1.946  1.00  0.00     0.064 C   
BRANCH   8   9
ATOM     9   C2  UNL     1       0.386   3.649   1.830  1.00  0.00    -0.012 C   
ATOM     10  C1  UNL     1       0.852   4.811   2.709  1.00  0.00     0.007 C   
ATOM     11  C3  UNL     1      -1.036   3.244   2.221  1.00  0.00     0.007 C   
ENDBRANCH   8   9
ENDBRANCH   7   8
BRANCH   7  12
ATOM     12  N1  UNL     1       2.087   0.188   1.404  1.00  0.00     0.249 N   
ATOM     13  H11 UNL     1       2.994   0.520   1.046  1.00  0.00     0.199 HD  
ATOM     14  H12 UNL     1       2.171   0.106   2.421  1.00  0.00     0.199 HD  
BRANCH  12  15
ATOM     15  C6  UNL     1       1.848  -1.166   0.823  1.00  0.00     0.164 C   
BRANCH  15  16
ATOM     16  C7  UNL     1       0.602  -1.821   1.350  1.00  0.00    -0.002 A   
ATOM     17  C8  UNL     1      -0.539  -1.955   0.521  1.00  0.00     0.012 A   
ATOM     18  C12 UNL     1       0.550  -2.278   2.678  1.00  0.00     0.045 A   
ATOM     19  C9  UNL     1      -1.717  -2.531   1.006  1.00  0.00     0.037 A   
ATOM     20  C11 UNL     1      -0.627  -2.842   3.124  1.00  0.00     0.109 A   
ATOM     21  C10 UNL     1      -1.729  -2.965   2.313  1.00  0.00     0.108 A   
ATOM     22  O1  UNL     1      -0.846  -3.327   4.374  1.00  0.00    -0.316 OA  
ATOM     23  O2  UNL     1      -2.780  -3.544   2.951  1.00  0.00    -0.316 OA  
ATOM     24  C13 UNL     1      -2.199  -3.822   4.244  1.00  0.00     0.337 C   
ENDBRANCH  15  16
ENDBRANCH  12  15
ENDBRANCH   7  12
ENDBRANCH   1   7
BRANCH   3  25
ATOM     25  C16 UNL     1       0.359   2.363  -3.814  1.00  0.00     0.190 C   
BRANCH  25  26
ATOM     26  C17 UNL     1      -0.264   1.149  -4.448  1.00  0.00     0.060 A   
ATOM     27  C18 UNL     1       0.478   0.332  -5.303  1.00  0.00     0.027 A   
ATOM     28  N3  UNL     1      -1.557   0.879  -4.125  1.00  0.00    -0.258 NA  
ATOM     29  C19 UNL     1      -0.131  -0.789  -5.867  1.00  0.00     0.024 A   
ATOM     30  C21 UNL     1      -2.126  -0.212  -4.698  1.00  0.00     0.131 A   
ATOM     31  C20 UNL     1      -1.458  -1.064  -5.563  1.00  0.00     0.059 A   
ATOM     32  CL1 UNL     1      -2.244  -2.432  -6.232  1.00  0.00    -0.083 Cl  
ENDBRANCH  25  26
ENDBRANCH   3  25
TORSDOF 8
