REMARK SMILES CC(C)[C@H]([NH2+]Cc1ccc2c(c1)OCO2)c1cn(CC(=O)c2ccccc2)nn1
REMARK SMILES IDX 16 1 17 2 18 3 28 4 29 5 4 7 2 8 1 9 3 10 5 11 6 14 7 15
REMARK SMILES IDX 8 16 12 17 9 18 11 19 10 20 13 21 15 22 14 23 19 24 20 25
REMARK SMILES IDX 21 26 22 27 23 28 27 29 24 30 26 31 25 32
REMARK H PARENT 17 6 5 12 5 13
ROOT
ATOM     1   C13 UNL     1      -0.630   1.771  -0.988  1.00  0.00     0.127 A   
ATOM     2   C14 UNL     1      -1.510   0.727  -1.166  1.00  0.00     0.046 A   
ATOM     3   N2  UNL     1      -0.806  -0.170  -1.917  1.00  0.00    -0.204 N   
ATOM     4   N3  UNL     1       0.404   0.319  -2.244  1.00  0.00    -0.076 NA  
ATOM     5   N4  UNL     1       0.528   1.506  -1.672  1.00  0.00    -0.132 NA  
ATOM     6   H18 UNL     1      -2.497   0.511  -0.781  1.00  0.00     0.083 HD  
ENDROOT
BRANCH   1   7
ATOM     7   C4  UNL     1      -0.723   2.978  -0.119  1.00  0.00     0.117 C   
BRANCH   7   8
ATOM     8   C2  UNL     1      -1.091   4.282  -0.871  1.00  0.00     0.037 C   
ATOM     9   C1  UNL     1      -0.087   4.705  -1.948  1.00  0.00     0.014 C   
ATOM     10  C3  UNL     1      -2.498   4.200  -1.474  1.00  0.00     0.014 C   
ENDBRANCH   7   8
BRANCH   7  11
ATOM     11  N1  UNL     1       0.580   3.197   0.625  1.00  0.00     0.249 N   
ATOM     12  H9  UNL     1       0.550   4.094   1.115  1.00  0.00     0.199 HD  
ATOM     13  H10 UNL     1       1.322   3.251  -0.088  1.00  0.00     0.199 HD  
BRANCH  11  14
ATOM     14  C5  UNL     1       0.986   2.120   1.583  1.00  0.00     0.164 C   
BRANCH  14  15
ATOM     15  C6  UNL     1      -0.033   1.853   2.657  1.00  0.00    -0.002 A   
ATOM     16  C7  UNL     1      -0.753   0.635   2.659  1.00  0.00     0.012 A   
ATOM     17  C11 UNL     1      -0.308   2.818   3.640  1.00  0.00     0.045 A   
ATOM     18  C8  UNL     1      -1.747   0.387   3.609  1.00  0.00     0.037 A   
ATOM     19  C10 UNL     1      -1.297   2.542   4.562  1.00  0.00     0.109 A   
ATOM     20  C9  UNL     1      -2.000   1.363   4.543  1.00  0.00     0.108 A   
ATOM     21  O1  UNL     1      -1.704   3.370   5.559  1.00  0.00    -0.316 OA  
ATOM     22  O2  UNL     1      -2.941   1.302   5.519  1.00  0.00    -0.316 OA  
ATOM     23  C12 UNL     1      -2.729   2.566   6.184  1.00  0.00     0.337 C   
ENDBRANCH  14  15
ENDBRANCH  11  14
ENDBRANCH   7  11
ENDBRANCH   1   7
BRANCH   3  24
ATOM     24  C15 UNL     1      -1.190  -1.517  -2.296  1.00  0.00     0.214 C   
BRANCH  24  25
ATOM     25  C16 UNL     1      -1.071  -2.465  -1.127  1.00  0.00     0.182 C   
ATOM     26  O3  UNL     1      -0.948  -2.074   0.033  1.00  0.00    -0.292 OA  
BRANCH  25  27
ATOM     27  C17 UNL     1      -1.159  -3.934  -1.399  1.00  0.00     0.019 A   
ATOM     28  C18 UNL     1      -1.665  -4.437  -2.599  1.00  0.00     0.012 A   
ATOM     29  C22 UNL     1      -0.765  -4.821  -0.388  1.00  0.00     0.012 A   
ATOM     30  C19 UNL     1      -1.790  -5.819  -2.778  1.00  0.00     0.001 A   
ATOM     31  C21 UNL     1      -0.884  -6.200  -0.576  1.00  0.00     0.001 A   
ATOM     32  C20 UNL     1      -1.405  -6.697  -1.767  1.00  0.00     0.000 A   
ENDBRANCH  25  27
ENDBRANCH  24  25
ENDBRANCH   3  24
TORSDOF 8
