REMARK SMILES CC(C)[C@H]([NH2+]Cc1ccc2c(c1)OCO2)c1cn(-c2cc(N)ccc2Cl)nn1
REMARK SMILES IDX 16 1 17 2 18 3 27 4 28 5 4 6 2 7 1 8 3 9 5 10 6 13 7 14 8 15
REMARK SMILES IDX 12 16 9 17 11 18 10 19 13 20 15 21 14 22 19 23 20 24 25 25
REMARK SMILES IDX 21 26 24 27 23 28 26 29 22 30
REMARK H PARENT 5 11 5 12 22 31 22 32
ROOT
ATOM     1   C13 UNL     1      -0.037   0.663   0.128  1.00  0.00     0.127 A   
ATOM     2   C14 UNL     1      -0.099   2.038   0.161  1.00  0.00     0.135 A   
ATOM     3   N2  UNL     1       0.495   2.411   1.352  1.00  0.00    -0.179 N   
ATOM     4   N4  UNL     1       0.845   1.270   2.015  1.00  0.00    -0.071 NA  
ATOM     5   N5  UNL     1       0.549   0.217   1.274  1.00  0.00    -0.131 NA  
ENDROOT
BRANCH   1   6
ATOM     6   C4  UNL     1      -0.487  -0.320  -0.909  1.00  0.00     0.117 C   
BRANCH   6   7
ATOM     7   C2  UNL     1      -2.018  -0.567  -0.854  1.00  0.00     0.037 C   
ATOM     8   C1  UNL     1      -2.518  -1.304  -2.103  1.00  0.00     0.014 C   
ATOM     9   C3  UNL     1      -2.483  -1.309   0.405  1.00  0.00     0.014 C   
ENDBRANCH   6   7
BRANCH   6  10
ATOM     10  N1  UNL     1       0.257  -1.620  -0.762  1.00  0.00     0.249 N   
ATOM     11  H9  UNL     1      -0.234  -2.399  -1.209  1.00  0.00     0.199 HD  
ATOM     12  H10 UNL     1       0.284  -1.838   0.246  1.00  0.00     0.199 HD  
BRANCH  10  13
ATOM     13  C5  UNL     1       1.667  -1.604  -1.243  1.00  0.00     0.164 C   
BRANCH  13  14
ATOM     14  C6  UNL     1       2.332  -2.919  -0.950  1.00  0.00    -0.002 A   
ATOM     15  C7  UNL     1       2.961  -3.134   0.300  1.00  0.00     0.012 A   
ATOM     16  C11 UNL     1       2.283  -3.963  -1.890  1.00  0.00     0.045 A   
ATOM     17  C8  UNL     1       3.545  -4.367   0.608  1.00  0.00     0.037 A   
ATOM     18  C10 UNL     1       2.868  -5.166  -1.554  1.00  0.00     0.109 A   
ATOM     19  C9  UNL     1       3.482  -5.363  -0.341  1.00  0.00     0.108 A   
ATOM     20  O1  UNL     1       2.909  -6.272  -2.342  1.00  0.00    -0.316 OA  
ATOM     21  O2  UNL     1       3.988  -6.617  -0.214  1.00  0.00    -0.316 OA  
ATOM     22  C12 UNL     1       3.645  -7.185  -1.496  1.00  0.00     0.337 C   
ENDBRANCH  13  14
ENDBRANCH  10  13
ENDBRANCH   6  10
ENDBRANCH   1   6
BRANCH   3  23
ATOM     23  C15 UNL     1       0.738   3.689   1.929  1.00  0.00     0.078 A   
ATOM     24  C16 UNL     1       1.080   3.718   3.303  1.00  0.00     0.050 A   
ATOM     25  C20 UNL     1       0.676   4.906   1.234  1.00  0.00     0.064 A   
ATOM     26  C17 UNL     1       1.285   4.918   3.990  1.00  0.00     0.025 A   
ATOM     27  C19 UNL     1       0.933   6.106   1.914  1.00  0.00     0.024 A   
ATOM     28  C18 UNL     1       1.250   6.108   3.273  1.00  0.00     0.025 A   
ATOM     29  CL1 UNL     1       0.420   5.084  -0.465  1.00  0.00    -0.082 Cl  
BRANCH  26  30
ATOM     30  N3  UNL     1       1.736   4.905   5.310  1.00  0.00    -0.358 N   
ATOM     31  H20 UNL     1       1.459   4.095   5.856  1.00  0.00     0.143 HD  
ATOM     32  H21 UNL     1       1.596   5.774   5.819  1.00  0.00     0.143 HD  
ENDBRANCH  26  30
ENDBRANCH   3  23
TORSDOF 7
