REMARK SMILES CC(C)[C@H]([NH2+]Cc1ccc2c(c1)OCO2)c1cn(CCc2ccc(F)cc2F)nn1
REMARK SMILES IDX 16 1 17 2 18 3 29 4 30 5 4 7 2 8 1 9 3 10 5 11 6 14 7 15
REMARK SMILES IDX 8 16 12 17 9 18 11 19 10 20 13 21 15 22 14 23 19 24 20 25
REMARK SMILES IDX 21 26 22 27 27 28 23 29 26 30 24 31 28 32 25 33
REMARK H PARENT 17 6 5 12 5 13
ROOT
ATOM     1   C13 UNL     1       1.023  -1.042   0.932  1.00  0.00     0.127 A   
ATOM     2   C14 UNL     1      -0.120  -0.955   1.696  1.00  0.00     0.045 A   
ATOM     3   N2  UNL     1       0.348  -0.819   2.971  1.00  0.00    -0.212 N   
ATOM     4   N3  UNL     1       1.693  -0.849   2.998  1.00  0.00    -0.076 NA  
ATOM     5   N4  UNL     1       2.119  -0.990   1.755  1.00  0.00    -0.132 NA  
ATOM     6   H18 UNL     1      -1.176  -0.948   1.459  1.00  0.00     0.083 HD  
ENDROOT
BRANCH   1   7
ATOM     7   C4  UNL     1       1.214  -1.131  -0.547  1.00  0.00     0.117 C   
BRANCH   7   8
ATOM     8   C2  UNL     1       1.112  -2.591  -1.065  1.00  0.00     0.037 C   
ATOM     9   C1  UNL     1       0.971  -2.642  -2.591  1.00  0.00     0.014 C   
ATOM     10  C3  UNL     1       2.269  -3.495  -0.623  1.00  0.00     0.014 C   
ENDBRANCH   7   8
BRANCH   7  11
ATOM     11  N1  UNL     1       2.539  -0.526  -0.951  1.00  0.00     0.249 N   
ATOM     12  H9  UNL     1       3.243  -0.934  -0.320  1.00  0.00     0.199 HD  
ATOM     13  H10 UNL     1       2.789  -0.796  -1.905  1.00  0.00     0.199 HD  
BRANCH  11  14
ATOM     14  C5  UNL     1       2.657   0.958  -0.820  1.00  0.00     0.164 C   
BRANCH  14  15
ATOM     15  C6  UNL     1       1.744   1.704  -1.753  1.00  0.00    -0.002 A   
ATOM     16  C7  UNL     1       1.995   1.728  -3.146  1.00  0.00     0.012 A   
ATOM     17  C11 UNL     1       0.610   2.358  -1.244  1.00  0.00     0.045 A   
ATOM     18  C8  UNL     1       1.124   2.388  -4.020  1.00  0.00     0.037 A   
ATOM     19  C10 UNL     1      -0.230   2.996  -2.131  1.00  0.00     0.109 A   
ATOM     20  C9  UNL     1       0.019   3.010  -3.481  1.00  0.00     0.108 A   
ATOM     21  O1  UNL     1      -1.368   3.663  -1.804  1.00  0.00    -0.316 OA  
ATOM     22  O2  UNL     1      -0.930   3.690  -4.175  1.00  0.00    -0.316 OA  
ATOM     23  C12 UNL     1      -1.794   4.130  -3.105  1.00  0.00     0.337 C   
ENDBRANCH  14  15
ENDBRANCH  11  14
ENDBRANCH   7  11
ENDBRANCH   1   7
BRANCH   3  24
ATOM     24  C15 UNL     1      -0.407  -0.655   4.196  1.00  0.00     0.139 C   
BRANCH  24  25
ATOM     25  C16 UNL     1      -0.552   0.808   4.618  1.00  0.00     0.060 C   
BRANCH  25  26
ATOM     26  C17 UNL     1      -1.562   1.568   3.792  1.00  0.00    -0.010 A   
ATOM     27  C18 UNL     1      -2.925   1.531   4.123  1.00  0.00     0.010 A   
ATOM     28  C22 UNL     1      -1.164   2.313   2.673  1.00  0.00     0.129 A   
ATOM     29  C19 UNL     1      -3.855   2.228   3.349  1.00  0.00     0.040 A   
ATOM     30  C21 UNL     1      -2.084   3.011   1.900  1.00  0.00     0.078 A   
ATOM     31  C20 UNL     1      -3.425   2.961   2.247  1.00  0.00     0.126 A   
ATOM     32  F2  UNL     1       0.128   2.337   2.316  1.00  0.00    -0.207 F   
ATOM     33  F1  UNL     1      -4.322   3.622   1.505  1.00  0.00    -0.207 F   
ENDBRANCH  25  26
ENDBRANCH  24  25
ENDBRANCH   3  24
TORSDOF 8
