REMARK SMILES COc1cc(CCn2cc([C@@H]([NH2+]Cc3ccc4c(c3)OCO4)C3CCCC3)nn2)ccn1
REMARK SMILES IDX 8 1 9 2 10 3 28 4 29 5 7 7 6 8 5 9 3 10 4 11 32 12 31 13
REMARK SMILES IDX 30 14 2 15 1 16 11 17 12 18 13 21 14 22 15 23 19 24 16 25
REMARK SMILES IDX 18 26 17 27 20 28 22 29 21 30 23 31 24 32 27 33 25 34 26 35
REMARK H PARENT 9 6 12 19 12 20
ROOT
ATOM     1   N1  UNL     1       3.398   1.116   1.343  1.00  0.00    -0.212 N   
ATOM     2   C7  UNL     1       2.555   1.475   0.326  1.00  0.00     0.045 A   
ATOM     3   C8  UNL     1       2.258   0.286  -0.301  1.00  0.00     0.127 A   
ATOM     4   N3  UNL     1       2.998  -0.713   0.282  1.00  0.00    -0.132 NA  
ATOM     5   N4  UNL     1       3.676  -0.198   1.294  1.00  0.00    -0.076 NA  
ATOM     6   H9  UNL     1       2.187   2.484   0.217  1.00  0.00     0.083 HD  
ENDROOT
BRANCH   1   7
ATOM     7   C6  UNL     1       3.770   1.909   2.499  1.00  0.00     0.139 C   
BRANCH   7   8
ATOM     8   C5  UNL     1       2.839   1.673   3.697  1.00  0.00     0.057 C   
BRANCH   8   9
ATOM     9   C4  UNL     1       1.393   1.975   3.366  1.00  0.00    -0.041 A   
ATOM     10  C2  UNL     1      -0.704   1.302   2.426  1.00  0.00     0.166 A   
ATOM     11  C3  UNL     1       0.548   0.958   2.908  1.00  0.00     0.058 A   
ATOM     12  N5  UNL     1      -1.169   2.562   2.386  1.00  0.00    -0.233 NA  
ATOM     13  C24 UNL     1      -0.372   3.522   2.906  1.00  0.00     0.114 A   
ATOM     14  C23 UNL     1       0.906   3.284   3.390  1.00  0.00     0.024 A   
BRANCH  10  15
ATOM     15  O1  UNL     1      -1.427   0.297   1.807  1.00  0.00    -0.333 OA  
ATOM     16  C1  UNL     1      -2.825   0.606   1.790  1.00  0.00     0.205 C   
ENDBRANCH  10  15
ENDBRANCH   8   9
ENDBRANCH   7   8
ENDBRANCH   1   7
BRANCH   3  17
ATOM     17  C9  UNL     1       1.248  -0.062  -1.353  1.00  0.00     0.117 C   
BRANCH  17  18
ATOM     18  N2  UNL     1       0.053  -0.759  -0.739  1.00  0.00     0.249 N   
ATOM     19  H11 UNL     1      -0.680  -0.889  -1.443  1.00  0.00     0.199 HD  
ATOM     20  H12 UNL     1      -0.367  -0.168  -0.004  1.00  0.00     0.199 HD  
BRANCH  18  21
ATOM     21  C10 UNL     1       0.340  -2.098  -0.139  1.00  0.00     0.164 C   
BRANCH  21  22
ATOM     22  C11 UNL     1      -0.924  -2.907  -0.015  1.00  0.00    -0.002 A   
ATOM     23  C12 UNL     1      -1.605  -2.996   1.220  1.00  0.00     0.012 A   
ATOM     24  C16 UNL     1      -1.458  -3.551  -1.143  1.00  0.00     0.045 A   
ATOM     25  C13 UNL     1      -2.798  -3.716   1.334  1.00  0.00     0.037 A   
ATOM     26  C15 UNL     1      -2.634  -4.255  -0.996  1.00  0.00     0.109 A   
ATOM     27  C14 UNL     1      -3.286  -4.335   0.207  1.00  0.00     0.108 A   
ATOM     28  O2  UNL     1      -3.274  -4.934  -1.980  1.00  0.00    -0.316 OA  
ATOM     29  O3  UNL     1      -4.422  -5.074   0.132  1.00  0.00    -0.316 OA  
ATOM     30  C17 UNL     1      -4.385  -5.495  -1.248  1.00  0.00     0.337 C   
ENDBRANCH  21  22
ENDBRANCH  18  21
ENDBRANCH  17  18
BRANCH  17  31
ATOM     31  C18 UNL     1       0.746   1.153  -2.164  1.00  0.00     0.043 C   
ATOM     32  C19 UNL     1      -0.316   0.829  -3.222  1.00  0.00     0.010 C   
ATOM     33  C22 UNL     1       1.861   1.831  -2.985  1.00  0.00     0.010 C   
ATOM     34  C20 UNL     1      -0.274   2.042  -4.136  1.00  0.00     0.001 C   
ATOM     35  C21 UNL     1       1.212   2.338  -4.274  1.00  0.00     0.001 C   
ENDBRANCH  17  31
ENDBRANCH   3  17
TORSDOF 9
