REMARK SMILES CC(C)C[C@H]([NH2+]Cc1ccc2c(c1)OCO2)c1cn(CCc2cccc3cn[nH]c23)nn1
REMARK SMILES IDX 17 1 18 2 19 3 31 4 32 5 5 7 4 8 2 9 1 10 3 11 6 12 7 15
REMARK SMILES IDX 8 16 9 17 13 18 10 19 12 20 11 21 14 22 16 23 15 24 20 25
REMARK SMILES IDX 21 26 22 27 23 28 30 29 24 30 26 31 29 32 25 33 27 34 28 35
REMARK H PARENT 18 6 6 13 6 14 29 36
ROOT
ATOM     1   C14 UNL     1       0.498  -1.580   0.700  1.00  0.00     0.127 A   
ATOM     2   C15 UNL     1      -0.356  -2.590   0.298  1.00  0.00     0.045 A   
ATOM     3   N2  UNL     1       0.477  -3.601  -0.092  1.00  0.00    -0.212 N   
ATOM     4   N5  UNL     1       1.764  -3.268   0.117  1.00  0.00    -0.076 NA  
ATOM     5   N6  UNL     1       1.787  -2.043   0.618  1.00  0.00    -0.132 NA  
ATOM     6   H20 UNL     1      -1.428  -2.648   0.172  1.00  0.00     0.083 HD  
ENDROOT
BRANCH   1   7
ATOM     7   C5  UNL     1       0.249  -0.143   1.071  1.00  0.00     0.114 C   
BRANCH   7   8
ATOM     8   C4  UNL     1      -1.253   0.220   1.073  1.00  0.00     0.064 C   
BRANCH   8   9
ATOM     9   C2  UNL     1      -1.620   1.606   1.650  1.00  0.00    -0.012 C   
ATOM     10  C1  UNL     1      -1.242   1.742   3.125  1.00  0.00     0.007 C   
ATOM     11  C3  UNL     1      -3.125   1.844   1.484  1.00  0.00     0.007 C   
ENDBRANCH   8   9
ENDBRANCH   7   8
BRANCH   7  12
ATOM     12  N1  UNL     1       0.965   0.790   0.120  1.00  0.00     0.249 N   
ATOM     13  H11 UNL     1       0.486   1.687   0.042  1.00  0.00     0.199 HD  
ATOM     14  H12 UNL     1       0.918   0.382  -0.839  1.00  0.00     0.199 HD  
BRANCH  12  15
ATOM     15  C6  UNL     1       2.407   1.059   0.383  1.00  0.00     0.164 C   
BRANCH  15  16
ATOM     16  C7  UNL     1       2.629   1.887   1.619  1.00  0.00    -0.002 A   
ATOM     17  C8  UNL     1       3.139   1.291   2.797  1.00  0.00     0.012 A   
ATOM     18  C12 UNL     1       2.300   3.254   1.623  1.00  0.00     0.045 A   
ATOM     19  C9  UNL     1       3.316   2.041   3.965  1.00  0.00     0.037 A   
ATOM     20  C11 UNL     1       2.487   3.965   2.790  1.00  0.00     0.109 A   
ATOM     21  C10 UNL     1       2.978   3.376   3.930  1.00  0.00     0.108 A   
ATOM     22  O1  UNL     1       2.219   5.286   2.962  1.00  0.00    -0.316 OA  
ATOM     23  O2  UNL     1       3.081   4.252   4.963  1.00  0.00    -0.316 OA  
ATOM     24  C13 UNL     1       2.628   5.472   4.337  1.00  0.00     0.337 C   
ENDBRANCH  15  16
ENDBRANCH  12  15
ENDBRANCH   7  12
ENDBRANCH   1   7
BRANCH   3  25
ATOM     25  C16 UNL     1       0.146  -4.789  -0.858  1.00  0.00     0.139 C   
BRANCH  25  26
ATOM     26  C17 UNL     1       0.619  -4.707  -2.318  1.00  0.00     0.059 C   
BRANCH  26  27
ATOM     27  C18 UNL     1      -0.101  -3.641  -3.115  1.00  0.00    -0.023 A   
ATOM     28  C19 UNL     1      -1.208  -3.976  -3.917  1.00  0.00     0.006 A   
ATOM     29  C24 UNL     1       0.234  -2.273  -3.086  1.00  0.00     0.059 A   
ATOM     30  C20 UNL     1      -1.920  -3.010  -4.634  1.00  0.00     0.001 A   
ATOM     31  C22 UNL     1      -0.489  -1.288  -3.747  1.00  0.00     0.017 A   
ATOM     32  N4  UNL     1       1.258  -1.599  -2.466  1.00  0.00    -0.238 N   
ATOM     33  C21 UNL     1      -1.575  -1.657  -4.556  1.00  0.00     0.012 A   
ATOM     34  C23 UNL     1       0.120  -0.073  -3.357  1.00  0.00     0.141 A   
ATOM     35  N3  UNL     1       1.096  -0.249  -2.453  1.00  0.00    -0.192 NA  
ATOM     36  H29 UNL     1       2.013  -2.014  -1.922  1.00  0.00     0.176 HD  
ENDBRANCH  26  27
ENDBRANCH  25  26
ENDBRANCH   3  25
TORSDOF 9
