REMARK SMILES CC(C)C[C@H]([NH2+]Cc1ccc2c(c1)OCO2)c1cn(Cc2cc(F)ccn2)nn1
REMARK SMILES IDX 17 1 18 2 19 3 28 4 29 5 5 7 4 8 2 9 1 10 3 11 6 12 7 15
REMARK SMILES IDX 8 16 9 17 13 18 10 19 12 20 11 21 14 22 16 23 15 24 20 25
REMARK SMILES IDX 21 26 22 27 27 28 23 29 26 30 25 31 24 32
REMARK H PARENT 18 6 6 13 6 14
ROOT
ATOM     1   C14 UNL     1      -1.451   0.681  -1.221  1.00  0.00     0.127 A   
ATOM     2   C15 UNL     1      -0.640   0.879  -2.315  1.00  0.00     0.046 A   
ATOM     3   N2  UNL     1      -1.170   1.984  -2.923  1.00  0.00    -0.206 N   
ATOM     4   N4  UNL     1      -2.270   2.409  -2.271  1.00  0.00    -0.076 NA  
ATOM     5   N5  UNL     1      -2.456   1.614  -1.230  1.00  0.00    -0.132 NA  
ATOM     6   H20 UNL     1       0.267   0.407  -2.669  1.00  0.00     0.083 HD  
ENDROOT
BRANCH   1   7
ATOM     7   C5  UNL     1      -1.321  -0.268  -0.077  1.00  0.00     0.114 C   
BRANCH   7   8
ATOM     8   C4  UNL     1      -2.292  -1.456  -0.240  1.00  0.00     0.064 C   
BRANCH   8   9
ATOM     9   C2  UNL     1      -2.235  -2.543   0.855  1.00  0.00    -0.012 C   
ATOM     10  C1  UNL     1      -0.838  -3.141   1.017  1.00  0.00     0.007 C   
ATOM     11  C3  UNL     1      -3.237  -3.654   0.527  1.00  0.00     0.007 C   
ENDBRANCH   8   9
ENDBRANCH   7   8
BRANCH   7  12
ATOM     12  N1  UNL     1      -1.609   0.429   1.233  1.00  0.00     0.249 N   
ATOM     13  H11 UNL     1      -1.574  -0.241   2.004  1.00  0.00     0.199 HD  
ATOM     14  H12 UNL     1      -2.573   0.783   1.170  1.00  0.00     0.199 HD  
BRANCH  12  15
ATOM     15  C6  UNL     1      -0.736   1.595   1.576  1.00  0.00     0.164 C   
BRANCH  15  16
ATOM     16  C7  UNL     1       0.723   1.246   1.674  1.00  0.00    -0.002 A   
ATOM     17  C8  UNL     1       1.205   0.459   2.748  1.00  0.00     0.012 A   
ATOM     18  C12 UNL     1       1.618   1.680   0.678  1.00  0.00     0.045 A   
ATOM     19  C9  UNL     1       2.555   0.103   2.826  1.00  0.00     0.037 A   
ATOM     20  C11 UNL     1       2.943   1.312   0.787  1.00  0.00     0.109 A   
ATOM     21  C10 UNL     1       3.397   0.543   1.829  1.00  0.00     0.108 A   
ATOM     22  O1  UNL     1       3.932   1.644  -0.085  1.00  0.00    -0.316 OA  
ATOM     23  O2  UNL     1       4.729   0.292   1.746  1.00  0.00    -0.316 OA  
ATOM     24  C13 UNL     1       5.071   1.008   0.539  1.00  0.00     0.337 C   
ENDBRANCH  15  16
ENDBRANCH  12  15
ENDBRANCH   7  12
ENDBRANCH   1   7
BRANCH   3  25
ATOM     25  C16 UNL     1      -0.638   2.722  -4.052  1.00  0.00     0.190 C   
BRANCH  25  26
ATOM     26  C17 UNL     1       0.455   3.644  -3.580  1.00  0.00     0.063 A   
ATOM     27  C18 UNL     1       0.223   5.004  -3.426  1.00  0.00     0.064 A   
ATOM     28  N3  UNL     1       1.655   3.076  -3.278  1.00  0.00    -0.259 NA  
ATOM     29  C19 UNL     1       1.267   5.792  -2.964  1.00  0.00     0.126 A   
ATOM     30  C21 UNL     1       2.648   3.885  -2.838  1.00  0.00     0.114 A   
ATOM     31  C20 UNL     1       2.501   5.244  -2.664  1.00  0.00     0.059 A   
ATOM     32  F1  UNL     1       1.072   7.106  -2.799  1.00  0.00    -0.207 F   
ENDBRANCH  25  26
ENDBRANCH   3  25
TORSDOF 8
