REMARK SMILES Cc1nc(Cl)ccc1Cn1cc([C@@H]([NH2+]Cc2ccc3c(c2)OCO3)C2CCCCC2)nn1
REMARK SMILES IDX 10 1 11 2 12 3 31 4 32 5 9 7 8 8 2 9 3 10 4 11 7 12 6 13
REMARK SMILES IDX 1 14 5 15 13 16 14 17 15 20 16 21 17 22 21 23 18 24 20 25
REMARK SMILES IDX 19 26 22 27 24 28 23 29 25 30 26 31 30 32 27 33 29 34 28 35
REMARK H PARENT 11 6 14 18 14 19
ROOT
ATOM     1   N2  UNL     1      -1.543   0.331   1.375  1.00  0.00    -0.208 N   
ATOM     2   C8  UNL     1      -1.245   0.373   0.041  1.00  0.00     0.046 A   
ATOM     3   C9  UNL     1      -0.322  -0.636  -0.124  1.00  0.00     0.127 A   
ATOM     4   N4  UNL     1      -0.100  -1.247   1.084  1.00  0.00    -0.132 NA  
ATOM     5   N5  UNL     1      -0.863  -0.659   1.989  1.00  0.00    -0.076 NA  
ATOM     6   H8  UNL     1      -1.685   1.096  -0.632  1.00  0.00     0.083 HD  
ENDROOT
BRANCH   1   7
ATOM     7   C7  UNL     1      -2.485   1.152   2.116  1.00  0.00     0.171 C   
BRANCH   7   8
ATOM     8   C6  UNL     1      -1.803   2.339   2.749  1.00  0.00    -0.007 A   
ATOM     9   C2  UNL     1      -1.851   3.632   2.211  1.00  0.00     0.044 A   
ATOM     10  N1  UNL     1      -1.214   4.683   2.784  1.00  0.00    -0.241 NA  
ATOM     11  C3  UNL     1      -0.522   4.459   3.921  1.00  0.00     0.129 A   
ATOM     12  C5  UNL     1      -1.064   2.154   3.932  1.00  0.00     0.010 A   
ATOM     13  C4  UNL     1      -0.413   3.228   4.530  1.00  0.00     0.041 A   
ATOM     14  C1  UNL     1      -2.594   3.960   0.948  1.00  0.00     0.067 C   
ATOM     15  CL1 UNL     1       0.258   5.840   4.570  1.00  0.00    -0.062 Cl  
ENDBRANCH   7   8
ENDBRANCH   1   7
BRANCH   3  16
ATOM     16  C10 UNL     1       0.451  -1.089  -1.321  1.00  0.00     0.117 C   
BRANCH  16  17
ATOM     17  N3  UNL     1       1.822  -1.554  -0.887  1.00  0.00     0.249 N   
ATOM     18  H10 UNL     1       1.728  -1.815   0.109  1.00  0.00     0.199 HD  
ATOM     19  H11 UNL     1       2.096  -2.413  -1.373  1.00  0.00     0.199 HD  
BRANCH  17  20
ATOM     20  C11 UNL     1       2.926  -0.560  -1.006  1.00  0.00     0.164 C   
BRANCH  20  21
ATOM     21  C12 UNL     1       2.739   0.674  -0.167  1.00  0.00    -0.002 A   
ATOM     22  C13 UNL     1       2.915   0.619   1.237  1.00  0.00     0.012 A   
ATOM     23  C17 UNL     1       2.363   1.889  -0.766  1.00  0.00     0.045 A   
ATOM     24  C14 UNL     1       2.726   1.755   2.032  1.00  0.00     0.037 A   
ATOM     25  C16 UNL     1       2.178   2.988   0.047  1.00  0.00     0.109 A   
ATOM     26  C15 UNL     1       2.361   2.925   1.406  1.00  0.00     0.108 A   
ATOM     27  O1  UNL     1       1.811   4.227  -0.371  1.00  0.00    -0.316 OA  
ATOM     28  O2  UNL     1       2.152   4.121   2.014  1.00  0.00    -0.316 OA  
ATOM     29  C18 UNL     1       1.799   4.949   0.886  1.00  0.00     0.337 C   
ENDBRANCH  20  21
ENDBRANCH  17  20
ENDBRANCH  16  17
BRANCH  16  30
ATOM     30  C19 UNL     1      -0.283  -2.208  -2.109  1.00  0.00     0.043 C   
ATOM     31  C20 UNL     1      -0.428  -3.536  -1.338  1.00  0.00     0.010 C   
ATOM     32  C24 UNL     1       0.379  -2.453  -3.480  1.00  0.00     0.010 C   
ATOM     33  C21 UNL     1      -1.169  -4.590  -2.160  1.00  0.00     0.001 C   
ATOM     34  C23 UNL     1      -0.369  -3.511  -4.290  1.00  0.00     0.001 C   
ATOM     35  C22 UNL     1      -0.510  -4.816  -3.516  1.00  0.00     0.000 C   
ENDBRANCH  16  30
ENDBRANCH   3  16
TORSDOF 7
