REMARK SMILES Cn1nc(Cn2cc([C@@H]([NH2+]Cc3ccc4c(c3)OCO4)C3CCCC3)nn2)c2c1CCC2
REMARK SMILES IDX 6 1 7 2 8 3 26 4 27 5 5 7 4 8 2 9 3 10 29 11 28 12 30 13
REMARK SMILES IDX 32 14 31 15 1 16 9 17 10 18 11 21 12 22 13 23 17 24 14 25
REMARK SMILES IDX 16 26 15 27 18 28 20 29 19 30 21 31 22 32 25 33 23 34 24 35
REMARK H PARENT 7 6 10 19 10 20
ROOT
ATOM     1   N3  UNL     1      -0.663   1.464  -0.889  1.00  0.00    -0.206 N   
ATOM     2   C4  UNL     1       0.109   0.350  -1.077  1.00  0.00     0.046 A   
ATOM     3   C5  UNL     1      -0.803  -0.674  -1.183  1.00  0.00     0.127 A   
ATOM     4   N5  UNL     1      -2.072  -0.157  -1.106  1.00  0.00    -0.132 NA  
ATOM     5   N6  UNL     1      -1.974   1.151  -0.932  1.00  0.00    -0.076 NA  
ATOM     6   H6  UNL     1       1.190   0.391  -1.045  1.00  0.00     0.083 HD  
ENDROOT
BRANCH   1   7
ATOM     7   C3  UNL     1      -0.220   2.822  -0.629  1.00  0.00     0.192 C   
BRANCH   7   8
ATOM     8   C2  UNL     1       0.203   2.956   0.792  1.00  0.00     0.083 A   
ATOM     9   N1  UNL     1       1.426   2.741   2.549  1.00  0.00    -0.232 N   
ATOM     10  N2  UNL     1       1.335   2.365   1.243  1.00  0.00    -0.185 NA  
ATOM     11  C21 UNL     1       0.374   3.498   2.915  1.00  0.00     0.033 A   
ATOM     12  C20 UNL     1      -0.424   3.662   1.824  1.00  0.00    -0.004 A   
ATOM     13  C22 UNL     1      -0.080   4.185   4.133  1.00  0.00     0.054 C   
ATOM     14  C24 UNL     1      -1.590   4.510   2.123  1.00  0.00     0.039 C   
ATOM     15  C23 UNL     1      -1.529   4.594   3.692  1.00  0.00     0.011 C   
ATOM     16  C1  UNL     1       2.557   2.332   3.342  1.00  0.00     0.159 C   
ENDBRANCH   7   8
ENDBRANCH   1   7
BRANCH   3  17
ATOM     17  C6  UNL     1      -0.600  -2.149  -1.230  1.00  0.00     0.117 C   
BRANCH  17  18
ATOM     18  N4  UNL     1      -1.609  -2.842  -0.335  1.00  0.00     0.249 N   
ATOM     19  H8  UNL     1      -1.558  -3.855  -0.469  1.00  0.00     0.199 HD  
ATOM     20  H9  UNL     1      -2.537  -2.531  -0.652  1.00  0.00     0.199 HD  
BRANCH  18  21
ATOM     21  C7  UNL     1      -1.525  -2.528   1.125  1.00  0.00     0.164 C   
BRANCH  21  22
ATOM     22  C8  UNL     1      -0.229  -2.953   1.756  1.00  0.00    -0.002 A   
ATOM     23  C9  UNL     1       0.049  -4.325   1.972  1.00  0.00     0.012 A   
ATOM     24  C13 UNL     1       0.730  -1.988   2.115  1.00  0.00     0.045 A   
ATOM     25  C10 UNL     1       1.264  -4.732   2.533  1.00  0.00     0.037 A   
ATOM     26  C12 UNL     1       1.916  -2.423   2.667  1.00  0.00     0.109 A   
ATOM     27  C11 UNL     1       2.177  -3.757   2.868  1.00  0.00     0.108 A   
ATOM     28  O1  UNL     1       2.943  -1.628   3.068  1.00  0.00    -0.316 OA  
ATOM     29  O2  UNL     1       3.399  -3.969   3.420  1.00  0.00    -0.316 OA  
ATOM     30  C14 UNL     1       3.877  -2.615   3.562  1.00  0.00     0.337 C   
ENDBRANCH  21  22
ENDBRANCH  18  21
ENDBRANCH  17  18
BRANCH  17  31
ATOM     31  C15 UNL     1      -0.705  -2.776  -2.633  1.00  0.00     0.043 C   
ATOM     32  C16 UNL     1      -2.035  -2.606  -3.370  1.00  0.00     0.010 C   
ATOM     33  C19 UNL     1       0.298  -2.233  -3.654  1.00  0.00     0.010 C   
ATOM     34  C17 UNL     1      -1.711  -3.015  -4.804  1.00  0.00     0.001 C   
ATOM     35  C18 UNL     1      -0.216  -2.752  -4.994  1.00  0.00     0.001 C   
ENDBRANCH  17  31
ENDBRANCH   3  17
TORSDOF 7
