REMARK SMILES CC(C)[C@H]([NH2+]Cc1ccc2c(c1)OCO2)c1cn([C@H](CO)c2cccs2)nn1
REMARK SMILES IDX 16 1 17 2 18 3 27 4 28 5 4 7 2 8 1 9 3 10 5 11 6 14 7 15
REMARK SMILES IDX 8 16 12 17 9 18 11 19 10 20 13 21 15 22 14 23 19 24 20 25
REMARK SMILES IDX 21 26 22 28 23 29 26 30 24 31 25 32
REMARK H PARENT 17 6 5 12 5 13 21 27
ROOT
ATOM     1   C13 UNL     1      -1.090   0.741  -1.222  1.00  0.00     0.127 A   
ATOM     2   C14 UNL     1      -0.500  -0.455  -1.560  1.00  0.00     0.046 A   
ATOM     3   N2  UNL     1       0.817  -0.135  -1.759  1.00  0.00    -0.202 N   
ATOM     4   N3  UNL     1       1.019   1.186  -1.552  1.00  0.00    -0.075 NA  
ATOM     5   N4  UNL     1      -0.142   1.732  -1.232  1.00  0.00    -0.132 NA  
ATOM     6   H18 UNL     1      -0.876  -1.460  -1.687  1.00  0.00     0.083 HD  
ENDROOT
BRANCH   1   7
ATOM     7   C4  UNL     1      -2.494   1.074  -0.840  1.00  0.00     0.117 C   
BRANCH   7   8
ATOM     8   C2  UNL     1      -3.382   1.525  -2.029  1.00  0.00     0.037 C   
ATOM     9   C1  UNL     1      -3.622   0.379  -3.020  1.00  0.00     0.014 C   
ATOM     10  C3  UNL     1      -2.855   2.753  -2.780  1.00  0.00     0.014 C   
ENDBRANCH   7   8
BRANCH   7  11
ATOM     11  N1  UNL     1      -2.484   2.177   0.202  1.00  0.00     0.249 N   
ATOM     12  H9  UNL     1      -1.595   2.687   0.062  1.00  0.00     0.199 HD  
ATOM     13  H10 UNL     1      -3.230   2.854   0.018  1.00  0.00     0.199 HD  
BRANCH  11  14
ATOM     14  C5  UNL     1      -2.561   1.742   1.623  1.00  0.00     0.164 C   
BRANCH  14  15
ATOM     15  C6  UNL     1      -1.378   0.946   2.094  1.00  0.00    -0.002 A   
ATOM     16  C7  UNL     1      -1.499  -0.444   2.339  1.00  0.00     0.012 A   
ATOM     17  C11 UNL     1      -0.133   1.575   2.284  1.00  0.00     0.045 A   
ATOM     18  C8  UNL     1      -0.401  -1.197   2.770  1.00  0.00     0.037 A   
ATOM     19  C10 UNL     1       0.929   0.804   2.708  1.00  0.00     0.109 A   
ATOM     20  C9  UNL     1       0.798  -0.542   2.947  1.00  0.00     0.108 A   
ATOM     21  O1  UNL     1       2.190   1.257   2.945  1.00  0.00    -0.316 OA  
ATOM     22  O2  UNL     1       1.958  -1.109   3.370  1.00  0.00    -0.316 OA  
ATOM     23  C12 UNL     1       2.840   0.038   3.371  1.00  0.00     0.337 C   
ENDBRANCH  14  15
ENDBRANCH  11  14
ENDBRANCH   7  11
ENDBRANCH   1   7
BRANCH   3  24
ATOM     24  C15 UNL     1       1.924  -0.985  -2.197  1.00  0.00     0.162 C   
BRANCH  24  25
ATOM     25  C16 UNL     1       1.961  -1.100  -3.731  1.00  0.00     0.186 C   
BRANCH  25  26
ATOM     26  O3  UNL     1       0.756  -1.640  -4.284  1.00  0.00    -0.394 OA  
ATOM     27  H22 UNL     1       0.897  -1.719  -5.245  1.00  0.00     0.210 HD  
ENDBRANCH  25  26
ENDBRANCH  24  25
BRANCH  24  28
ATOM     28  C17 UNL     1       1.917  -2.317  -1.472  1.00  0.00     0.014 A   
ATOM     29  C18 UNL     1       1.334  -3.523  -1.825  1.00  0.00     0.013 A   
ATOM     30  S1  UNL     1       2.734  -2.449   0.038  1.00  0.00    -0.100 S   
ATOM     31  C19 UNL     1       1.549  -4.543  -0.851  1.00  0.00     0.008 A   
ATOM     32  C20 UNL     1       2.295  -4.090   0.213  1.00  0.00     0.046 A   
ENDBRANCH  24  28
ENDBRANCH   3  24
TORSDOF 9
