REMARK SMILES CC(C)[C@H]([NH2+]Cc1ccc2c(c1)OCO2)c1cn([C@@H](CO)c2cccs2)nn1
REMARK SMILES IDX 16 1 17 2 18 3 27 4 28 5 4 7 2 8 1 9 3 10 5 11 6 14 7 15
REMARK SMILES IDX 8 16 12 17 9 18 11 19 10 20 13 21 15 22 14 23 19 24 20 25
REMARK SMILES IDX 21 26 22 28 23 29 26 30 24 31 25 32
REMARK H PARENT 17 6 5 12 5 13 21 27
ROOT
ATOM     1   C13 UNL     1      -0.987  -0.511  -2.027  1.00  0.00     0.127 A   
ATOM     2   C14 UNL     1      -1.907  -1.076  -1.175  1.00  0.00     0.046 A   
ATOM     3   N2  UNL     1      -1.151  -1.860  -0.342  1.00  0.00    -0.202 N   
ATOM     4   N3  UNL     1       0.159  -1.772  -0.665  1.00  0.00    -0.075 NA  
ATOM     5   N4  UNL     1       0.270  -0.946  -1.691  1.00  0.00    -0.132 NA  
ATOM     6   H18 UNL     1      -2.981  -1.005  -1.081  1.00  0.00     0.083 HD  
ENDROOT
BRANCH   1   7
ATOM     7   C4  UNL     1      -1.151   0.459  -3.150  1.00  0.00     0.117 C   
BRANCH   7   8
ATOM     8   C2  UNL     1      -1.432  -0.248  -4.503  1.00  0.00     0.037 C   
ATOM     9   C1  UNL     1      -0.262  -1.089  -5.029  1.00  0.00     0.014 C   
ATOM     10  C3  UNL     1      -1.878   0.751  -5.578  1.00  0.00     0.014 C   
ENDBRANCH   7   8
BRANCH   7  11
ATOM     11  N1  UNL     1       0.072   1.340  -3.255  1.00  0.00     0.249 N   
ATOM     12  H9  UNL     1       0.843   0.800  -2.828  1.00  0.00     0.199 HD  
ATOM     13  H10 UNL     1       0.342   1.486  -4.230  1.00  0.00     0.199 HD  
BRANCH  11  14
ATOM     14  C5  UNL     1      -0.008   2.661  -2.571  1.00  0.00     0.164 C   
BRANCH  14  15
ATOM     15  C6  UNL     1      -0.073   2.570  -1.073  1.00  0.00    -0.002 A   
ATOM     16  C7  UNL     1      -1.297   2.771  -0.390  1.00  0.00     0.012 A   
ATOM     17  C11 UNL     1       1.085   2.263  -0.337  1.00  0.00     0.045 A   
ATOM     18  C8  UNL     1      -1.369   2.666   1.004  1.00  0.00     0.037 A   
ATOM     19  C10 UNL     1       0.981   2.176   1.036  1.00  0.00     0.109 A   
ATOM     20  C9  UNL     1      -0.211   2.371   1.688  1.00  0.00     0.108 A   
ATOM     21  O1  UNL     1       2.003   1.909   1.889  1.00  0.00    -0.316 OA  
ATOM     22  O2  UNL     1      -0.091   2.251   3.035  1.00  0.00    -0.316 OA  
ATOM     23  C12 UNL     1       1.322   1.984   3.161  1.00  0.00     0.337 C   
ENDBRANCH  14  15
ENDBRANCH  11  14
ENDBRANCH   7  11
ENDBRANCH   1   7
BRANCH   3  24
ATOM     24  C15 UNL     1      -1.624  -2.712   0.750  1.00  0.00     0.162 C   
BRANCH  24  25
ATOM     25  C16 UNL     1      -1.245  -4.184   0.525  1.00  0.00     0.186 C   
BRANCH  25  26
ATOM     26  O3  UNL     1      -2.017  -4.735  -0.546  1.00  0.00    -0.394 OA  
ATOM     27  H22 UNL     1      -1.760  -5.673  -0.629  1.00  0.00     0.210 HD  
ENDBRANCH  25  26
ENDBRANCH  24  25
BRANCH  24  28
ATOM     28  C17 UNL     1      -1.136  -2.178   2.076  1.00  0.00     0.014 A   
ATOM     29  C18 UNL     1       0.103  -2.317   2.678  1.00  0.00     0.013 A   
ATOM     30  S1  UNL     1      -2.199  -1.250   3.057  1.00  0.00    -0.100 S   
ATOM     31  C19 UNL     1       0.160  -1.694   3.958  1.00  0.00     0.008 A   
ATOM     32  C20 UNL     1      -1.026  -1.076   4.285  1.00  0.00     0.046 A   
ENDBRANCH  24  28
ENDBRANCH   3  24
TORSDOF 9
