REMARK SMILES COc1ccc(-n2cc([C@@H]([NH2+]Cc3ccc4c(c3)OCO4)C3CCCC3)nn2)c(C)c1
REMARK SMILES IDX 7 1 8 2 9 3 27 4 28 5 6 6 3 7 4 8 31 9 5 10 29 11 30 12 2 13
REMARK SMILES IDX 1 14 10 15 11 16 12 19 13 20 14 21 18 22 15 23 17 24 16 25
REMARK SMILES IDX 19 26 21 27 20 28 22 29 23 30 26 31 24 32 25 33
REMARK H PARENT 11 17 11 18
ROOT
ATOM     1   N1  UNL     1      -0.866   0.879   0.748  1.00  0.00    -0.180 N   
ATOM     2   C6  UNL     1       0.492   1.012   0.497  1.00  0.00     0.135 A   
ATOM     3   C7  UNL     1       0.770   0.117  -0.512  1.00  0.00     0.127 A   
ATOM     4   N3  UNL     1      -0.373  -0.554  -0.832  1.00  0.00    -0.131 NA  
ATOM     5   N4  UNL     1      -1.344  -0.099  -0.062  1.00  0.00    -0.071 NA  
ENDROOT
BRANCH   1   6
ATOM     6   C5  UNL     1      -1.675   1.593   1.684  1.00  0.00     0.061 A   
ATOM     7   C2  UNL     1      -3.159   3.092   3.577  1.00  0.00     0.075 A   
ATOM     8   C3  UNL     1      -1.811   3.357   3.383  1.00  0.00     0.035 A   
ATOM     9   C24 UNL     1      -3.762   2.081   2.827  1.00  0.00     0.038 A   
ATOM     10  C4  UNL     1      -1.076   2.617   2.447  1.00  0.00     0.029 A   
ATOM     11  C22 UNL     1      -3.048   1.319   1.877  1.00  0.00    -0.025 A   
ATOM     12  C23 UNL     1      -3.832   0.262   1.142  1.00  0.00     0.046 C   
BRANCH   7  13
ATOM     13  O1  UNL     1      -3.992   3.731   4.450  1.00  0.00    -0.349 OA  
ATOM     14  C1  UNL     1      -3.439   4.794   5.216  1.00  0.00     0.203 C   
ENDBRANCH   7  13
ENDBRANCH   1   6
BRANCH   3  15
ATOM     15  C8  UNL     1       2.049  -0.243  -1.198  1.00  0.00     0.117 C   
BRANCH  15  16
ATOM     16  N2  UNL     1       2.003  -1.685  -1.642  1.00  0.00     0.249 N   
ATOM     17  H8  UNL     1       2.698  -1.881  -2.370  1.00  0.00     0.199 HD  
ATOM     18  H9  UNL     1       1.080  -1.834  -2.079  1.00  0.00     0.199 HD  
BRANCH  16  19
ATOM     19  C9  UNL     1       2.143  -2.694  -0.555  1.00  0.00     0.164 C   
BRANCH  19  20
ATOM     20  C10 UNL     1       1.950  -4.081  -1.098  1.00  0.00    -0.002 A   
ATOM     21  C11 UNL     1       0.647  -4.620  -1.218  1.00  0.00     0.012 A   
ATOM     22  C15 UNL     1       3.054  -4.831  -1.537  1.00  0.00     0.045 A   
ATOM     23  C12 UNL     1       0.443  -5.894  -1.758  1.00  0.00     0.037 A   
ATOM     24  C14 UNL     1       2.817  -6.084  -2.064  1.00  0.00     0.109 A   
ATOM     25  C13 UNL     1       1.549  -6.601  -2.172  1.00  0.00     0.108 A   
ATOM     26  O2  UNL     1       3.767  -6.936  -2.530  1.00  0.00    -0.316 OA  
ATOM     27  O3  UNL     1       1.542  -7.845  -2.716  1.00  0.00    -0.316 OA  
ATOM     28  C16 UNL     1       2.953  -8.065  -2.923  1.00  0.00     0.337 C   
ENDBRANCH  19  20
ENDBRANCH  16  19
ENDBRANCH  15  16
BRANCH  15  29
ATOM     29  C17 UNL     1       2.383   0.613  -2.434  1.00  0.00     0.043 C   
ATOM     30  C18 UNL     1       2.543   2.111  -2.164  1.00  0.00     0.010 C   
ATOM     31  C21 UNL     1       1.359   0.600  -3.572  1.00  0.00     0.010 C   
ATOM     32  C19 UNL     1       2.582   2.721  -3.561  1.00  0.00     0.001 C   
ATOM     33  C20 UNL     1       1.749   1.792  -4.446  1.00  0.00     0.001 C   
ENDBRANCH  15  29
ENDBRANCH   3  15
TORSDOF 7
