REMARK SMILES CC(C)[C@H]([NH2+]Cc1ccc2c(c1)OCO2)c1cn(CCn2cccn2)nn1
REMARK SMILES IDX 16 1 17 2 18 3 26 4 27 5 4 7 2 8 1 9 3 10 5 11 6 14 7 15
REMARK SMILES IDX 8 16 12 17 9 18 11 19 10 20 13 21 15 22 14 23 19 24 20 25
REMARK SMILES IDX 21 26 22 27 25 28 23 29 24 30
REMARK H PARENT 17 6 5 12 5 13
ROOT
ATOM     1   C13 UNL     1       1.597  -0.589   1.157  1.00  0.00     0.127 A   
ATOM     2   C14 UNL     1       0.499  -1.235   1.677  1.00  0.00     0.045 A   
ATOM     3   N2  UNL     1       0.103  -0.433   2.708  1.00  0.00    -0.210 N   
ATOM     4   N5  UNL     1       0.923   0.627   2.839  1.00  0.00    -0.076 NA  
ATOM     5   N6  UNL     1       1.844   0.542   1.893  1.00  0.00    -0.132 NA  
ATOM     6   H18 UNL     1      -0.047  -2.125   1.395  1.00  0.00     0.083 HD  
ENDROOT
BRANCH   1   7
ATOM     7   C4  UNL     1       2.425  -0.899  -0.045  1.00  0.00     0.117 C   
BRANCH   7   8
ATOM     8   C2  UNL     1       3.634  -1.813   0.292  1.00  0.00     0.037 C   
ATOM     9   C1  UNL     1       4.271  -2.398  -0.975  1.00  0.00     0.014 C   
ATOM     10  C3  UNL     1       4.713  -1.140   1.147  1.00  0.00     0.014 C   
ENDBRANCH   7   8
BRANCH   7  11
ATOM     11  N1  UNL     1       2.898   0.369  -0.717  1.00  0.00     0.249 N   
ATOM     12  H9  UNL     1       3.363   0.928   0.011  1.00  0.00     0.199 HD  
ATOM     13  H10 UNL     1       3.592   0.157  -1.436  1.00  0.00     0.199 HD  
BRANCH  11  14
ATOM     14  C5  UNL     1       1.835   1.237  -1.312  1.00  0.00     0.164 C   
BRANCH  14  15
ATOM     15  C6  UNL     1       1.079   0.569  -2.425  1.00  0.00    -0.002 A   
ATOM     16  C7  UNL     1      -0.255   0.142  -2.218  1.00  0.00     0.012 A   
ATOM     17  C11 UNL     1       1.697   0.331  -3.664  1.00  0.00     0.045 A   
ATOM     18  C8  UNL     1      -0.964  -0.517  -3.228  1.00  0.00     0.037 A   
ATOM     19  C10 UNL     1       0.970  -0.323  -4.637  1.00  0.00     0.109 A   
ATOM     20  C9  UNL     1      -0.322  -0.736  -4.426  1.00  0.00     0.108 A   
ATOM     21  O1  UNL     1       1.420  -0.636  -5.880  1.00  0.00    -0.316 OA  
ATOM     22  O2  UNL     1      -0.850  -1.359  -5.511  1.00  0.00    -0.316 OA  
ATOM     23  C12 UNL     1       0.250  -1.275  -6.441  1.00  0.00     0.337 C   
ENDBRANCH  14  15
ENDBRANCH  11  14
ENDBRANCH   7  11
ENDBRANCH   1   7
BRANCH   3  24
ATOM     24  C15 UNL     1      -1.036  -0.597   3.584  1.00  0.00     0.155 C   
BRANCH  24  25
ATOM     25  C16 UNL     1      -2.096   0.479   3.388  1.00  0.00     0.153 C   
BRANCH  25  26
ATOM     26  N3  UNL     1      -2.732   0.490   2.083  1.00  0.00    -0.231 N   
ATOM     27  C17 UNL     1      -3.464   1.518   1.559  1.00  0.00     0.097 A   
ATOM     28  N4  UNL     1      -2.683  -0.588   1.274  1.00  0.00    -0.190 NA  
ATOM     29  C18 UNL     1      -3.963   1.062   0.362  1.00  0.00     0.039 A   
ATOM     30  C19 UNL     1      -3.465  -0.247   0.245  1.00  0.00     0.132 A   
ENDBRANCH  25  26
ENDBRANCH  24  25
ENDBRANCH   3  24
TORSDOF 8
