REMARK SMILES c1cn2ncc(Cn3cc([C@@H]([NH2+]Cc4ccc5c(c4)OCO5)C4CCCC4)nn3)c2[nH]1
REMARK SMILES IDX 8 1 9 2 10 3 28 4 29 5 7 7 6 8 1 9 2 10 31 11 3 12 30 13
REMARK SMILES IDX 4 14 5 15 11 17 12 18 13 21 14 22 15 23 19 24 16 25 18 26
REMARK SMILES IDX 17 27 20 28 22 29 21 30 23 31 24 32 27 33 25 34 26 35
REMARK H PARENT 9 6 31 16 12 19 12 20
ROOT
ATOM     1   N3  UNL     1      -1.074   2.236  -1.767  1.00  0.00    -0.208 N   
ATOM     2   C6  UNL     1      -0.316   1.206  -1.281  1.00  0.00     0.046 A   
ATOM     3   C7  UNL     1      -1.181   0.135  -1.269  1.00  0.00     0.127 A   
ATOM     4   N5  UNL     1      -2.389   0.524  -1.786  1.00  0.00    -0.132 NA  
ATOM     5   N6  UNL     1      -2.314   1.813  -2.078  1.00  0.00    -0.076 NA  
ATOM     6   H6  UNL     1       0.700   1.346  -0.935  1.00  0.00     0.083 HD  
ENDROOT
BRANCH   1   7
ATOM     7   C5  UNL     1      -0.739   3.651  -1.798  1.00  0.00     0.174 C   
BRANCH   7   8
ATOM     8   C4  UNL     1      -0.805   4.189  -0.419  1.00  0.00     0.030 A   
ATOM     9   C1  UNL     1       1.812   4.908   1.916  1.00  0.00     0.091 A   
ATOM     10  C2  UNL     1       0.650   5.183   2.545  1.00  0.00     0.118 A   
ATOM     11  N7  UNL     1       1.544   4.396   0.644  1.00  0.00    -0.306 N   
ATOM     12  N1  UNL     1      -0.362   4.883   1.650  1.00  0.00    -0.185 N   
ATOM     13  C22 UNL     1       0.199   4.426   0.474  1.00  0.00     0.120 A   
ATOM     14  N2  UNL     1      -1.700   4.910   1.597  1.00  0.00    -0.184 NA  
ATOM     15  C3  UNL     1      -1.966   4.527   0.339  1.00  0.00     0.140 A   
ATOM     16  H26 UNL     1       2.260   4.458  -0.074  1.00  0.00     0.154 HD  
ENDBRANCH   7   8
ENDBRANCH   1   7
BRANCH   3  17
ATOM     17  C8  UNL     1      -1.020  -1.238  -0.708  1.00  0.00     0.117 C   
BRANCH  17  18
ATOM     18  N4  UNL     1      -2.215  -1.598   0.154  1.00  0.00     0.249 N   
ATOM     19  H8  UNL     1      -2.125  -2.558   0.495  1.00  0.00     0.199 HD  
ATOM     20  H9  UNL     1      -3.040  -1.565  -0.460  1.00  0.00     0.199 HD  
BRANCH  18  21
ATOM     21  C9  UNL     1      -2.501  -0.699   1.318  1.00  0.00     0.164 C   
BRANCH  21  22
ATOM     22  C10 UNL     1      -1.341  -0.540   2.261  1.00  0.00    -0.002 A   
ATOM     23  C11 UNL     1      -0.728   0.726   2.421  1.00  0.00     0.012 A   
ATOM     24  C15 UNL     1      -0.844  -1.643   2.977  1.00  0.00     0.045 A   
ATOM     25  C12 UNL     1       0.375   0.893   3.264  1.00  0.00     0.037 A   
ATOM     26  C14 UNL     1       0.246  -1.444   3.800  1.00  0.00     0.109 A   
ATOM     27  C13 UNL     1       0.840  -0.214   3.938  1.00  0.00     0.108 A   
ATOM     28  O1  UNL     1       0.854  -2.402   4.548  1.00  0.00    -0.316 OA  
ATOM     29  O2  UNL     1       1.895  -0.242   4.792  1.00  0.00    -0.316 OA  
ATOM     30  C16 UNL     1       1.883  -1.626   5.203  1.00  0.00     0.337 C   
ENDBRANCH  21  22
ENDBRANCH  18  21
ENDBRANCH  17  18
BRANCH  17  31
ATOM     31  C17 UNL     1      -0.885  -2.303  -1.814  1.00  0.00     0.043 C   
ATOM     32  C18 UNL     1       0.355  -2.112  -2.694  1.00  0.00     0.010 C   
ATOM     33  C21 UNL     1      -0.690  -3.732  -1.293  1.00  0.00     0.010 C   
ATOM     34  C19 UNL     1       0.475  -3.442  -3.422  1.00  0.00     0.001 C   
ATOM     35  C20 UNL     1       0.015  -4.492  -2.416  1.00  0.00     0.001 C   
ENDBRANCH  17  31
ENDBRANCH   3  17
TORSDOF 7
