REMARK SMILES CC(C)[C@H]([NH2+]Cc1ccc2c(c1)OCO2)c1cn(C[C@@H](O)c2cncc(F)c2)nn1
REMARK SMILES IDX 16 1 17 2 18 3 29 4 30 5 4 7 2 8 1 9 3 10 5 11 6 14 7 15
REMARK SMILES IDX 8 16 12 17 9 18 11 19 10 20 13 21 15 22 14 23 19 24 20 25
REMARK SMILES IDX 21 26 22 28 23 29 28 30 24 31 26 32 25 33 27 34
REMARK H PARENT 17 6 5 12 5 13 21 27
ROOT
ATOM     1   C13 UNL     1       0.291   1.044   0.126  1.00  0.00     0.127 A   
ATOM     2   C14 UNL     1       0.130   2.144   0.940  1.00  0.00     0.045 A   
ATOM     3   N2  UNL     1      -0.367   1.624   2.102  1.00  0.00    -0.209 N   
ATOM     4   N4  UNL     1      -0.447   0.283   2.036  1.00  0.00    -0.076 NA  
ATOM     5   N5  UNL     1      -0.059  -0.085   0.826  1.00  0.00    -0.132 NA  
ATOM     6   H18 UNL     1       0.266   3.207   0.789  1.00  0.00     0.083 HD  
ENDROOT
BRANCH   1   7
ATOM     7   C4  UNL     1       0.740   0.925  -1.297  1.00  0.00     0.117 C   
BRANCH   7   8
ATOM     8   C2  UNL     1      -0.369   1.358  -2.293  1.00  0.00     0.037 C   
ATOM     9   C1  UNL     1       0.184   1.550  -3.710  1.00  0.00     0.014 C   
ATOM     10  C3  UNL     1      -1.573   0.408  -2.332  1.00  0.00     0.014 C   
ENDBRANCH   7   8
BRANCH   7  11
ATOM     11  N1  UNL     1       1.186  -0.482  -1.594  1.00  0.00     0.249 N   
ATOM     12  H9  UNL     1       1.170  -0.690  -2.596  1.00  0.00     0.199 HD  
ATOM     13  H10 UNL     1       0.493  -1.109  -1.159  1.00  0.00     0.199 HD  
BRANCH  11  14
ATOM     14  C5  UNL     1       2.519  -0.855  -1.044  1.00  0.00     0.164 C   
BRANCH  14  15
ATOM     15  C6  UNL     1       2.796  -2.311  -1.286  1.00  0.00    -0.002 A   
ATOM     16  C7  UNL     1       2.338  -3.282  -0.362  1.00  0.00     0.012 A   
ATOM     17  C11 UNL     1       3.458  -2.724  -2.454  1.00  0.00     0.045 A   
ATOM     18  C8  UNL     1       2.549  -4.646  -0.590  1.00  0.00     0.037 A   
ATOM     19  C10 UNL     1       3.649  -4.077  -2.648  1.00  0.00     0.109 A   
ATOM     20  C9  UNL     1       3.209  -5.011  -1.743  1.00  0.00     0.108 A   
ATOM     21  O1  UNL     1       4.268  -4.641  -3.718  1.00  0.00    -0.316 OA  
ATOM     22  O2  UNL     1       3.498  -6.281  -2.127  1.00  0.00    -0.316 OA  
ATOM     23  C12 UNL     1       4.194  -6.043  -3.369  1.00  0.00     0.337 C   
ENDBRANCH  14  15
ENDBRANCH  11  14
ENDBRANCH   7  11
ENDBRANCH   1   7
BRANCH   3  24
ATOM     24  C15 UNL     1      -0.895   2.336   3.244  1.00  0.00     0.170 C   
BRANCH  24  25
ATOM     25  C16 UNL     1      -2.426   2.257   3.337  1.00  0.00     0.165 C   
BRANCH  25  26
ATOM     26  O3  UNL     1      -2.844   2.964   4.506  1.00  0.00    -0.387 OA  
ATOM     27  H22 UNL     1      -3.818   2.934   4.540  1.00  0.00     0.211 HD  
ENDBRANCH  25  26
BRANCH  25  28
ATOM     28  C17 UNL     1      -3.110   2.841   2.123  1.00  0.00     0.003 A   
ATOM     29  C18 UNL     1      -3.513   2.012   1.074  1.00  0.00     0.117 A   
ATOM     30  C21 UNL     1      -3.298   4.219   1.960  1.00  0.00     0.049 A   
ATOM     31  N3  UNL     1      -4.047   2.457  -0.087  1.00  0.00    -0.261 NA  
ATOM     32  C20 UNL     1      -3.874   4.695   0.791  1.00  0.00     0.141 A   
ATOM     33  C19 UNL     1      -4.232   3.794  -0.195  1.00  0.00     0.150 A   
ATOM     34  F1  UNL     1      -4.058   6.008   0.617  1.00  0.00    -0.205 F   
ENDBRANCH  25  28
ENDBRANCH  24  25
ENDBRANCH   3  24
TORSDOF 9
