REMARK SMILES CC(C)[C@H]([NH2+]Cc1ccc2c(c1)OCO2)c1cn(C[C@H](O)c2cncc(F)c2)nn1
REMARK SMILES IDX 16 1 17 2 18 3 29 4 30 5 4 7 2 8 1 9 3 10 5 11 6 14 7 15
REMARK SMILES IDX 8 16 12 17 9 18 11 19 10 20 13 21 15 22 14 23 19 24 20 25
REMARK SMILES IDX 21 26 22 28 23 29 28 30 24 31 26 32 25 33 27 34
REMARK H PARENT 17 6 5 12 5 13 21 27
ROOT
ATOM     1   C13 UNL     1      -0.363   0.704   1.301  1.00  0.00     0.127 A   
ATOM     2   C14 UNL     1      -1.160  -0.179   2.000  1.00  0.00     0.045 A   
ATOM     3   N2  UNL     1      -2.317   0.525   2.197  1.00  0.00    -0.209 N   
ATOM     4   N4  UNL     1      -2.157   1.815   1.841  1.00  0.00    -0.076 NA  
ATOM     5   N5  UNL     1      -0.977   1.927   1.257  1.00  0.00    -0.132 NA  
ATOM     6   H18 UNL     1      -1.092  -1.242   2.202  1.00  0.00     0.083 HD  
ENDROOT
BRANCH   1   7
ATOM     7   C4  UNL     1       0.858   0.463   0.467  1.00  0.00     0.117 C   
BRANCH   7   8
ATOM     8   C2  UNL     1       2.155   1.084   1.040  1.00  0.00     0.037 C   
ATOM     9   C1  UNL     1       2.157   2.612   1.125  1.00  0.00     0.014 C   
ATOM     10  C3  UNL     1       2.490   0.492   2.416  1.00  0.00     0.014 C   
ENDBRANCH   7   8
BRANCH   7  11
ATOM     11  N1  UNL     1       0.551   0.979  -0.923  1.00  0.00     0.249 N   
ATOM     12  H9  UNL     1       0.312   1.975  -0.839  1.00  0.00     0.199 HD  
ATOM     13  H10 UNL     1      -0.350   0.559  -1.221  1.00  0.00     0.199 HD  
BRANCH  11  14
ATOM     14  C5  UNL     1       1.524   0.758  -2.018  1.00  0.00     0.164 C   
BRANCH  14  15
ATOM     15  C6  UNL     1       1.832  -0.692  -2.271  1.00  0.00    -0.002 A   
ATOM     16  C7  UNL     1       3.103  -1.225  -1.950  1.00  0.00     0.012 A   
ATOM     17  C11 UNL     1       0.850  -1.538  -2.816  1.00  0.00     0.045 A   
ATOM     18  C8  UNL     1       3.391  -2.579  -2.159  1.00  0.00     0.037 A   
ATOM     19  C10 UNL     1       1.166  -2.867  -3.010  1.00  0.00     0.109 A   
ATOM     20  C9  UNL     1       2.399  -3.374  -2.690  1.00  0.00     0.108 A   
ATOM     21  O1  UNL     1       0.334  -3.810  -3.524  1.00  0.00    -0.316 OA  
ATOM     22  O2  UNL     1       2.500  -4.701  -2.964  1.00  0.00    -0.316 OA  
ATOM     23  C12 UNL     1       1.196  -4.969  -3.521  1.00  0.00     0.337 C   
ENDBRANCH  14  15
ENDBRANCH  11  14
ENDBRANCH   7  11
ENDBRANCH   1   7
BRANCH   3  24
ATOM     24  C15 UNL     1      -3.658  -0.004   2.388  1.00  0.00     0.170 C   
BRANCH  24  25
ATOM     25  C16 UNL     1      -4.183  -0.795   1.165  1.00  0.00     0.165 C   
BRANCH  25  26
ATOM     26  O3  UNL     1      -3.657  -2.124   1.208  1.00  0.00    -0.387 OA  
ATOM     27  H22 UNL     1      -4.339  -2.718   0.840  1.00  0.00     0.211 HD  
ENDBRANCH  25  26
BRANCH  25  28
ATOM     28  C17 UNL     1      -3.836  -0.162  -0.166  1.00  0.00     0.003 A   
ATOM     29  C18 UNL     1      -2.680  -0.524  -0.869  1.00  0.00     0.117 A   
ATOM     30  C21 UNL     1      -4.584   0.901  -0.680  1.00  0.00     0.049 A   
ATOM     31  N3  UNL     1      -2.164   0.153  -1.928  1.00  0.00    -0.261 NA  
ATOM     32  C20 UNL     1      -4.141   1.550  -1.823  1.00  0.00     0.141 A   
ATOM     33  C19 UNL     1      -2.945   1.159  -2.404  1.00  0.00     0.150 A   
ATOM     34  F1  UNL     1      -4.853   2.555  -2.346  1.00  0.00    -0.205 F   
ENDBRANCH  25  28
ENDBRANCH  24  25
ENDBRANCH   3  24
TORSDOF 9
