REMARK SMILES Cc1ccc(F)cc1Cn1cc([C@@H]([NH2+]Cc2ccc3c(c2)OCO3)C(C)(C)C)nn1
REMARK SMILES IDX 10 1 11 2 12 3 29 4 30 5 9 7 8 8 2 9 3 10 4 11 7 12 5 13
REMARK SMILES IDX 1 14 6 15 13 16 14 17 15 20 16 21 17 22 21 23 18 24 20 25
REMARK SMILES IDX 19 26 22 27 24 28 23 29 25 30 26 31 27 32 28 33
REMARK H PARENT 11 6 14 18 14 19
ROOT
ATOM     1   N1  UNL     1      -1.315   1.575   1.994  1.00  0.00    -0.208 N   
ATOM     2   C9  UNL     1      -1.645   0.474   1.250  1.00  0.00     0.046 A   
ATOM     3   C10 UNL     1      -0.503  -0.296   1.269  1.00  0.00     0.127 A   
ATOM     4   N3  UNL     1       0.464   0.353   1.995  1.00  0.00    -0.132 NA  
ATOM     5   N4  UNL     1      -0.044   1.492   2.432  1.00  0.00    -0.076 NA  
ATOM     6   H9  UNL     1      -2.616   0.358   0.789  1.00  0.00     0.083 HD  
ENDROOT
BRANCH   1   7
ATOM     7   C8  UNL     1      -2.135   2.734   2.309  1.00  0.00     0.169 C   
BRANCH   7   8
ATOM     8   C7  UNL     1      -2.305   3.626   1.100  1.00  0.00    -0.023 A   
ATOM     9   C2  UNL     1      -3.537   3.772   0.421  1.00  0.00    -0.046 A   
ATOM     10  C3  UNL     1      -3.610   4.617  -0.702  1.00  0.00     0.007 A   
ATOM     11  C4  UNL     1      -2.486   5.307  -1.154  1.00  0.00     0.039 A   
ATOM     12  C6  UNL     1      -1.184   4.338   0.632  1.00  0.00     0.045 A   
ATOM     13  C5  UNL     1      -1.283   5.161  -0.483  1.00  0.00     0.123 A   
ATOM     14  C1  UNL     1      -4.789   3.066   0.868  1.00  0.00     0.044 C   
ATOM     15  F1  UNL     1      -0.198   5.813  -0.918  1.00  0.00    -0.207 F   
ENDBRANCH   7   8
ENDBRANCH   1   7
BRANCH   3  16
ATOM     16  C11 UNL     1      -0.163  -1.593   0.595  1.00  0.00     0.120 C   
BRANCH  16  17
ATOM     17  N2  UNL     1       1.293  -1.550   0.190  1.00  0.00     0.250 N   
ATOM     18  H11 UNL     1       1.695  -2.479   0.045  1.00  0.00     0.199 HD  
ATOM     19  H12 UNL     1       1.805  -1.140   0.988  1.00  0.00     0.199 HD  
BRANCH  17  20
ATOM     20  C12 UNL     1       1.598  -0.707  -1.000  1.00  0.00     0.164 C   
BRANCH  20  21
ATOM     21  C13 UNL     1       3.082  -0.630  -1.220  1.00  0.00    -0.002 A   
ATOM     22  C14 UNL     1       3.843   0.374  -0.572  1.00  0.00     0.012 A   
ATOM     23  C18 UNL     1       3.732  -1.584  -2.021  1.00  0.00     0.045 A   
ATOM     24  C15 UNL     1       5.231   0.437  -0.731  1.00  0.00     0.037 A   
ATOM     25  C17 UNL     1       5.103  -1.494  -2.154  1.00  0.00     0.109 A   
ATOM     26  C16 UNL     1       5.831  -0.512  -1.528  1.00  0.00     0.108 A   
ATOM     27  O1  UNL     1       5.882  -2.333  -2.886  1.00  0.00    -0.316 OA  
ATOM     28  O2  UNL     1       7.161  -0.605  -1.792  1.00  0.00    -0.316 OA  
ATOM     29  C19 UNL     1       7.189  -1.752  -2.668  1.00  0.00     0.337 C   
ENDBRANCH  20  21
ENDBRANCH  17  20
ENDBRANCH  16  17
BRANCH  16  30
ATOM     30  C20 UNL     1      -0.450  -2.865   1.465  1.00  0.00     0.010 C   
ATOM     31  C21 UNL     1       0.423  -2.928   2.734  1.00  0.00     0.017 C   
ATOM     32  C22 UNL     1      -1.935  -2.894   1.894  1.00  0.00     0.017 C   
ATOM     33  C23 UNL     1      -0.198  -4.149   0.638  1.00  0.00     0.017 C   
ENDBRANCH  16  30
ENDBRANCH   3  16
TORSDOF 7
