REMARK SMILES CC(C)(C)[C@H]([NH2+]Cc1ccc2c(c1)OCO2)c1cn(CCc2ccc(N([O-])[O-])cc2)nn1
REMARK SMILES IDX 17 1 18 2 19 3 31 4 32 5 5 7 2 8 1 9 3 10 4 11 6 12 7 15
REMARK SMILES IDX 8 16 9 17 13 18 10 19 12 20 11 21 14 22 16 23 15 24 20 25
REMARK SMILES IDX 21 26 22 27 23 28 30 29 24 30 29 31 25 32 26 33 27 34 28 35
REMARK H PARENT 18 6 6 13 6 14
ROOT
ATOM     1   C14 UNL     1      -1.336  -0.717  -2.040  1.00  0.00     0.127 A   
ATOM     2   C15 UNL     1      -1.274   0.650  -1.874  1.00  0.00     0.045 A   
ATOM     3   N2  UNL     1      -2.478   0.970  -1.317  1.00  0.00    -0.212 N   
ATOM     4   N4  UNL     1      -3.231  -0.129  -1.131  1.00  0.00    -0.076 NA  
ATOM     5   N5  UNL     1      -2.543  -1.170  -1.571  1.00  0.00    -0.132 NA  
ATOM     6   H20 UNL     1      -0.513   1.390  -2.084  1.00  0.00     0.083 HD  
ENDROOT
BRANCH   1   7
ATOM     7   C5  UNL     1      -0.312  -1.693  -2.536  1.00  0.00     0.120 C   
BRANCH   7   8
ATOM     8   C2  UNL     1      -0.467  -2.067  -4.055  1.00  0.00     0.010 C   
ATOM     9   C1  UNL     1       0.702  -2.970  -4.510  1.00  0.00     0.017 C   
ATOM     10  C3  UNL     1      -1.788  -2.800  -4.364  1.00  0.00     0.017 C   
ATOM     11  C4  UNL     1      -0.410  -0.787  -4.922  1.00  0.00     0.017 C   
ENDBRANCH   7   8
BRANCH   7  12
ATOM     12  N1  UNL     1      -0.342  -2.947  -1.681  1.00  0.00     0.250 N   
ATOM     13  H11 UNL     1       0.283  -3.660  -2.065  1.00  0.00     0.199 HD  
ATOM     14  H12 UNL     1      -1.302  -3.313  -1.731  1.00  0.00     0.199 HD  
BRANCH  12  15
ATOM     15  C6  UNL     1      -0.024  -2.782  -0.229  1.00  0.00     0.164 C   
BRANCH  15  16
ATOM     16  C7  UNL     1       1.359  -2.252   0.024  1.00  0.00    -0.002 A   
ATOM     17  C8  UNL     1       2.488  -3.099  -0.071  1.00  0.00     0.012 A   
ATOM     18  C12 UNL     1       1.540  -0.891   0.328  1.00  0.00     0.045 A   
ATOM     19  C9  UNL     1       3.778  -2.600   0.141  1.00  0.00     0.037 A   
ATOM     20  C11 UNL     1       2.824  -0.432   0.528  1.00  0.00     0.109 A   
ATOM     21  C10 UNL     1       3.912  -1.262   0.441  1.00  0.00     0.108 A   
ATOM     22  O1  UNL     1       3.167   0.849   0.820  1.00  0.00    -0.316 OA  
ATOM     23  O2  UNL     1       5.080  -0.610   0.677  1.00  0.00    -0.316 OA  
ATOM     24  C13 UNL     1       4.598   0.714   0.994  1.00  0.00     0.337 C   
ENDBRANCH  15  16
ENDBRANCH  12  15
ENDBRANCH   7  12
ENDBRANCH   1   7
BRANCH   3  25
ATOM     25  C16 UNL     1      -2.967   2.279  -0.935  1.00  0.00     0.139 C   
BRANCH  25  26
ATOM     26  C17 UNL     1      -3.129   2.453   0.577  1.00  0.00     0.057 C   
BRANCH  26  27
ATOM     27  C18 UNL     1      -1.838   2.302   1.353  1.00  0.00    -0.046 A   
ATOM     28  C19 UNL     1      -1.667   1.217   2.227  1.00  0.00     0.006 A   
ATOM     29  C23 UNL     1      -0.807   3.245   1.220  1.00  0.00     0.006 A   
ATOM     30  C20 UNL     1      -0.483   1.069   2.954  1.00  0.00     0.031 A   
ATOM     31  C22 UNL     1       0.384   3.101   1.938  1.00  0.00     0.031 A   
ATOM     32  C21 UNL     1       0.542   2.010   2.802  1.00  0.00     0.118 A   
BRANCH  32  33
ATOM     33  N3  UNL     1       1.801   1.838   3.537  1.00  0.00     0.092 N   
ATOM     34  O3  UNL     1       2.633   2.754   3.482  1.00  0.00    -0.138 OA  
ATOM     35  O4  UNL     1       1.964   0.773   4.150  1.00  0.00    -0.138 OA  
ENDBRANCH  32  33
ENDBRANCH  26  27
ENDBRANCH  25  26
ENDBRANCH   3  25
TORSDOF 9
