REMARK SMILES CC(C)C[C@H]([NH2+]Cc1ccc2c(c1)OCO2)c1cn(CCc2c3c(nn2C)CCC3)nn1
REMARK SMILES IDX 17 1 18 2 19 3 31 4 32 5 5 7 4 8 2 9 1 10 3 11 6 12 7 15
REMARK SMILES IDX 8 16 9 17 13 18 10 19 12 20 11 21 14 22 16 23 15 24 20 25
REMARK SMILES IDX 21 26 22 27 23 28 26 29 24 30 30 31 25 32 28 33 29 34 27 35
REMARK H PARENT 18 6 6 13 6 14
ROOT
ATOM     1   C14 UNL     1      -0.865   1.752  -1.062  1.00  0.00     0.127 A   
ATOM     2   C15 UNL     1      -2.239   1.707  -1.161  1.00  0.00     0.045 A   
ATOM     3   N2  UNL     1      -2.655   2.815  -0.472  1.00  0.00    -0.212 N   
ATOM     4   N5  UNL     1      -1.608   3.589  -0.135  1.00  0.00    -0.076 NA  
ATOM     5   N6  UNL     1      -0.504   2.944  -0.486  1.00  0.00    -0.132 NA  
ATOM     6   H20 UNL     1      -2.933   0.949  -1.496  1.00  0.00     0.083 HD  
ENDROOT
BRANCH   1   7
ATOM     7   C5  UNL     1       0.169   0.702  -1.315  1.00  0.00     0.114 C   
BRANCH   7   8
ATOM     8   C4  UNL     1      -0.279  -0.422  -2.272  1.00  0.00     0.064 C   
BRANCH   8   9
ATOM     9   C2  UNL     1      -0.561   0.024  -3.724  1.00  0.00    -0.012 C   
ATOM     10  C1  UNL     1       0.677   0.611  -4.403  1.00  0.00     0.007 C   
ATOM     11  C3  UNL     1      -1.079  -1.169  -4.534  1.00  0.00     0.007 C   
ENDBRANCH   8   9
ENDBRANCH   7   8
BRANCH   7  12
ATOM     12  N1  UNL     1       0.562   0.035  -0.009  1.00  0.00     0.249 N   
ATOM     13  H11 UNL     1      -0.285  -0.061   0.594  1.00  0.00     0.199 HD  
ATOM     14  H12 UNL     1       0.884  -0.922  -0.170  1.00  0.00     0.199 HD  
BRANCH  12  15
ATOM     15  C6  UNL     1       1.582   0.741   0.813  1.00  0.00     0.164 C   
BRANCH  15  16
ATOM     16  C7  UNL     1       2.951   0.717   0.191  1.00  0.00    -0.002 A   
ATOM     17  C8  UNL     1       3.703  -0.483   0.158  1.00  0.00     0.012 A   
ATOM     18  C12 UNL     1       3.481   1.881  -0.394  1.00  0.00     0.045 A   
ATOM     19  C9  UNL     1       4.959  -0.528  -0.456  1.00  0.00     0.037 A   
ATOM     20  C11 UNL     1       4.722   1.803  -0.990  1.00  0.00     0.109 A   
ATOM     21  C10 UNL     1       5.439   0.633  -1.022  1.00  0.00     0.108 A   
ATOM     22  O1  UNL     1       5.369   2.826  -1.607  1.00  0.00    -0.316 OA  
ATOM     23  O2  UNL     1       6.628   0.771  -1.662  1.00  0.00    -0.316 OA  
ATOM     24  C13 UNL     1       6.596   2.173  -2.005  1.00  0.00     0.337 C   
ENDBRANCH  15  16
ENDBRANCH  12  15
ENDBRANCH   7  12
ENDBRANCH   1   7
BRANCH   3  25
ATOM     25  C16 UNL     1      -3.946   2.990   0.169  1.00  0.00     0.140 C   
BRANCH  25  26
ATOM     26  C17 UNL     1      -3.945   2.529   1.641  1.00  0.00     0.075 C   
BRANCH  26  27
ATOM     27  C18 UNL     1      -3.286   1.193   1.811  1.00  0.00     0.034 A   
ATOM     28  C19 UNL     1      -3.681  -0.074   1.476  1.00  0.00    -0.006 A   
ATOM     29  N4  UNL     1      -1.999   1.021   2.301  1.00  0.00    -0.232 N   
ATOM     30  C20 UNL     1      -2.542  -0.871   1.601  1.00  0.00     0.064 A   
ATOM     31  C24 UNL     1      -4.827  -0.828   0.933  1.00  0.00     0.039 C   
ATOM     32  N3  UNL     1      -1.450  -0.189   1.937  1.00  0.00    -0.186 NA  
ATOM     33  C22 UNL     1      -2.768  -2.265   1.169  1.00  0.00     0.058 C   
ATOM     34  C23 UNL     1      -4.133  -2.134   0.414  1.00  0.00     0.011 C   
ATOM     35  C21 UNL     1      -1.211   1.973   3.054  1.00  0.00     0.159 C   
ENDBRANCH  26  27
ENDBRANCH  25  26
ENDBRANCH   3  25
TORSDOF 9
