REMARK SMILES Cc1cc([C@H](CO)n2cc([C@@H]([NH2+]Cc3ccc4c(c3)OCO4)C3CCCC3)nn2)c(C)o1
REMARK SMILES IDX 8 1 9 2 10 3 28 4 29 5 5 7 4 8 2 9 3 10 32 11 30 12 1 13
REMARK SMILES IDX 31 14 6 15 7 16 11 18 12 19 13 22 14 23 15 24 19 25 16 26
REMARK SMILES IDX 18 27 17 28 20 29 22 30 21 31 23 32 24 33 27 34 25 35 26 36
REMARK H PARENT 9 6 7 17 12 20 12 21
ROOT
ATOM     1   N1  UNL     1       0.581   2.166  -0.662  1.00  0.00    -0.202 N   
ATOM     2   C7  UNL     1       0.670   1.196   0.301  1.00  0.00     0.046 A   
ATOM     3   C8  UNL     1      -0.196   0.216  -0.125  1.00  0.00     0.127 A   
ATOM     4   N3  UNL     1      -0.804   0.626  -1.285  1.00  0.00    -0.132 NA  
ATOM     5   N4  UNL     1      -0.338   1.825  -1.593  1.00  0.00    -0.075 NA  
ATOM     6   H9  UNL     1       1.333   1.294   1.150  1.00  0.00     0.083 HD  
ENDROOT
BRANCH   1   7
ATOM     7   C5  UNL     1       1.333   3.414  -0.789  1.00  0.00     0.157 C   
BRANCH   7   8
ATOM     8   C4  UNL     1       2.814   3.143  -0.691  1.00  0.00     0.005 A   
ATOM     9   C2  UNL     1       4.952   2.986   0.010  1.00  0.00     0.056 A   
ATOM     10  C3  UNL     1       3.705   3.428   0.389  1.00  0.00     0.037 A   
ATOM     11  O4  UNL     1       4.892   2.438  -1.232  1.00  0.00    -0.319 OA  
ATOM     12  C23 UNL     1       3.605   2.540  -1.659  1.00  0.00     0.061 A   
ATOM     13  C1  UNL     1       6.279   2.992   0.658  1.00  0.00     0.073 C   
ATOM     14  C24 UNL     1       3.339   1.990  -3.008  1.00  0.00     0.073 C   
ENDBRANCH   7   8
BRANCH   7  15
ATOM     15  C6  UNL     1       0.788   4.499   0.156  1.00  0.00     0.186 C   
BRANCH  15  16
ATOM     16  O1  UNL     1       0.840   4.119   1.534  1.00  0.00    -0.394 OA  
ATOM     17  H8  UNL     1       0.581   4.904   2.053  1.00  0.00     0.210 HD  
ENDBRANCH  15  16
ENDBRANCH   7  15
ENDBRANCH   1   7
BRANCH   3  18
ATOM     18  C9  UNL     1      -0.543  -1.112   0.466  1.00  0.00     0.117 C   
BRANCH  18  19
ATOM     19  N2  UNL     1      -1.876  -1.581  -0.053  1.00  0.00     0.249 N   
ATOM     20  H11 UNL     1      -1.982  -2.599   0.004  1.00  0.00     0.199 HD  
ATOM     21  H12 UNL     1      -1.896  -1.347  -1.058  1.00  0.00     0.199 HD  
BRANCH  19  22
ATOM     22  C10 UNL     1      -3.063  -0.928   0.564  1.00  0.00     0.164 C   
BRANCH  22  23
ATOM     23  C11 UNL     1      -4.327  -1.435  -0.072  1.00  0.00    -0.002 A   
ATOM     24  C12 UNL     1      -5.071  -2.473   0.537  1.00  0.00     0.012 A   
ATOM     25  C16 UNL     1      -4.748  -0.915  -1.309  1.00  0.00     0.045 A   
ATOM     26  C13 UNL     1      -6.225  -2.982  -0.070  1.00  0.00     0.037 A   
ATOM     27  C15 UNL     1      -5.887  -1.443  -1.882  1.00  0.00     0.109 A   
ATOM     28  C14 UNL     1      -6.605  -2.446  -1.280  1.00  0.00     0.108 A   
ATOM     29  O2  UNL     1      -6.424  -1.060  -3.070  1.00  0.00    -0.316 OA  
ATOM     30  O3  UNL     1      -7.687  -2.818  -2.011  1.00  0.00    -0.316 OA  
ATOM     31  C17 UNL     1      -7.574  -1.934  -3.145  1.00  0.00     0.337 C   
ENDBRANCH  22  23
ENDBRANCH  19  22
ENDBRANCH  18  19
BRANCH  18  32
ATOM     32  C18 UNL     1       0.544  -2.166   0.174  1.00  0.00     0.043 C   
ATOM     33  C19 UNL     1       0.376  -3.486   0.950  1.00  0.00     0.010 C   
ATOM     34  C22 UNL     1       0.691  -2.596  -1.291  1.00  0.00     0.010 C   
ATOM     35  C20 UNL     1       0.799  -4.602  -0.007  1.00  0.00     0.001 C   
ATOM     36  C21 UNL     1       1.460  -3.902  -1.184  1.00  0.00     0.001 C   
ENDBRANCH  18  32
ENDBRANCH   3  18
TORSDOF 9
