REMARK SMILES Cc1cc([C@@H](CO)n2cc([C@@H]([NH2+]Cc3ccc4c(c3)OCO4)C3CCCC3)nn2)c(C)o1
REMARK SMILES IDX 8 1 9 2 10 3 28 4 29 5 5 7 4 8 2 9 3 10 32 11 30 12 1 13
REMARK SMILES IDX 31 14 6 15 7 16 11 18 12 19 13 22 14 23 15 24 19 25 16 26
REMARK SMILES IDX 18 27 17 28 20 29 22 30 21 31 23 32 24 33 27 34 25 35 26 36
REMARK H PARENT 9 6 7 17 12 20 12 21
ROOT
ATOM     1   N1  UNL     1       1.546   0.547   0.748  1.00  0.00    -0.202 N   
ATOM     2   C7  UNL     1       0.221   0.593   0.398  1.00  0.00     0.046 A   
ATOM     3   C8  UNL     1      -0.446   0.327   1.571  1.00  0.00     0.127 A   
ATOM     4   N3  UNL     1       0.468   0.119   2.572  1.00  0.00    -0.132 NA  
ATOM     5   N4  UNL     1       1.680   0.246   2.059  1.00  0.00    -0.075 NA  
ATOM     6   H9  UNL     1      -0.102   0.812  -0.610  1.00  0.00     0.083 HD  
ENDROOT
BRANCH   1   7
ATOM     7   C5  UNL     1       2.733   0.785  -0.074  1.00  0.00     0.157 C   
BRANCH   7   8
ATOM     8   C4  UNL     1       2.686  -0.029  -1.338  1.00  0.00     0.005 A   
ATOM     9   C2  UNL     1       2.350  -0.740  -3.447  1.00  0.00     0.056 A   
ATOM     10  C3  UNL     1       2.140   0.325  -2.606  1.00  0.00     0.037 A   
ATOM     11  O4  UNL     1       2.979  -1.732  -2.780  1.00  0.00    -0.319 OA  
ATOM     12  C23 UNL     1       3.187  -1.304  -1.506  1.00  0.00     0.061 A   
ATOM     13  C1  UNL     1       2.045  -0.991  -4.867  1.00  0.00     0.073 C   
ATOM     14  C24 UNL     1       3.892  -2.245  -0.611  1.00  0.00     0.073 C   
ENDBRANCH   7   8
BRANCH   7  15
ATOM     15  C6  UNL     1       2.996   2.289  -0.274  1.00  0.00     0.186 C   
BRANCH  15  16
ATOM     16  O1  UNL     1       1.898   2.965  -0.892  1.00  0.00    -0.394 OA  
ATOM     17  H8  UNL     1       2.188   3.884  -1.063  1.00  0.00     0.210 HD  
ENDBRANCH  15  16
ENDBRANCH   7  15
ENDBRANCH   1   7
BRANCH   3  18
ATOM     18  C9  UNL     1      -1.905   0.198   1.873  1.00  0.00     0.117 C   
BRANCH  18  19
ATOM     19  N2  UNL     1      -2.093  -0.767   3.023  1.00  0.00     0.249 N   
ATOM     20  H11 UNL     1      -2.768  -0.413   3.704  1.00  0.00     0.199 HD  
ATOM     21  H12 UNL     1      -1.186  -0.788   3.517  1.00  0.00     0.199 HD  
BRANCH  19  22
ATOM     22  C10 UNL     1      -2.449  -2.169   2.665  1.00  0.00     0.164 C   
BRANCH  22  23
ATOM     23  C11 UNL     1      -1.438  -2.855   1.793  1.00  0.00    -0.002 A   
ATOM     24  C12 UNL     1      -0.212  -3.311   2.335  1.00  0.00     0.012 A   
ATOM     25  C16 UNL     1      -1.681  -3.001   0.416  1.00  0.00     0.045 A   
ATOM     26  C13 UNL     1       0.763  -3.894   1.521  1.00  0.00     0.037 A   
ATOM     27  C15 UNL     1      -0.695  -3.570  -0.359  1.00  0.00     0.109 A   
ATOM     28  C14 UNL     1       0.493  -4.003   0.176  1.00  0.00     0.108 A   
ATOM     29  O2  UNL     1      -0.763  -3.756  -1.704  1.00  0.00    -0.316 OA  
ATOM     30  O3  UNL     1       1.325  -4.519  -0.762  1.00  0.00    -0.316 OA  
ATOM     31  C17 UNL     1       0.533  -4.340  -1.960  1.00  0.00     0.337 C   
ENDBRANCH  22  23
ENDBRANCH  19  22
ENDBRANCH  18  19
BRANCH  18  32
ATOM     32  C18 UNL     1      -2.547   1.563   2.181  1.00  0.00     0.043 C   
ATOM     33  C19 UNL     1      -4.067   1.526   2.352  1.00  0.00     0.010 C   
ATOM     34  C22 UNL     1      -2.088   2.262   3.463  1.00  0.00     0.010 C   
ATOM     35  C20 UNL     1      -4.404   2.875   2.978  1.00  0.00     0.001 C   
ATOM     36  C21 UNL     1      -3.134   3.348   3.684  1.00  0.00     0.001 C   
ENDBRANCH  18  32
ENDBRANCH   3  18
TORSDOF 9
