REMARK SMILES CC(C)[C@H]([NH2+]Cc1ccc2c(c1)OCO2)c1cn(Cc2cnn(C)c2)nn1
REMARK SMILES IDX 16 1 17 2 18 3 26 4 27 5 4 7 2 8 1 9 3 10 5 11 6 14 7 15
REMARK SMILES IDX 8 16 12 17 9 18 11 19 10 20 13 21 15 22 14 23 19 24 20 25
REMARK SMILES IDX 21 26 25 27 22 28 23 29 24 30
REMARK H PARENT 17 6 5 12 5 13
ROOT
ATOM     1   C13 UNL     1      -1.381   1.235   0.087  1.00  0.00     0.127 A   
ATOM     2   C14 UNL     1      -1.307   0.007   0.706  1.00  0.00     0.046 A   
ATOM     3   N2  UNL     1      -2.487  -0.602   0.371  1.00  0.00    -0.208 N   
ATOM     4   N5  UNL     1      -3.269   0.231  -0.345  1.00  0.00    -0.076 NA  
ATOM     5   N6  UNL     1      -2.600   1.358  -0.527  1.00  0.00    -0.132 NA  
ATOM     6   H18 UNL     1      -0.523  -0.508   1.245  1.00  0.00     0.083 HD  
ENDROOT
BRANCH   1   7
ATOM     7   C4  UNL     1      -0.338   2.281  -0.116  1.00  0.00     0.117 C   
BRANCH   7   8
ATOM     8   C2  UNL     1      -0.491   3.530   0.791  1.00  0.00     0.037 C   
ATOM     9   C1  UNL     1      -1.803   4.301   0.607  1.00  0.00     0.014 C   
ATOM     10  C3  UNL     1      -0.311   3.167   2.271  1.00  0.00     0.014 C   
ENDBRANCH   7   8
BRANCH   7  11
ATOM     11  N1  UNL     1      -0.314   2.730  -1.564  1.00  0.00     0.249 N   
ATOM     12  H9  UNL     1      -1.261   3.067  -1.783  1.00  0.00     0.199 HD  
ATOM     13  H10 UNL     1       0.328   3.519  -1.674  1.00  0.00     0.199 HD  
BRANCH  11  14
ATOM     14  C5  UNL     1       0.004   1.682  -2.587  1.00  0.00     0.164 C   
BRANCH  14  15
ATOM     15  C6  UNL     1       1.324   0.996  -2.365  1.00  0.00    -0.002 A   
ATOM     16  C7  UNL     1       2.541   1.704  -2.510  1.00  0.00     0.012 A   
ATOM     17  C11 UNL     1       1.354  -0.360  -1.988  1.00  0.00     0.045 A   
ATOM     18  C8  UNL     1       3.768   1.078  -2.267  1.00  0.00     0.037 A   
ATOM     19  C10 UNL     1       2.579  -0.946  -1.753  1.00  0.00     0.109 A   
ATOM     20  C9  UNL     1       3.753  -0.246  -1.887  1.00  0.00     0.108 A   
ATOM     21  O1  UNL     1       2.784  -2.234  -1.368  1.00  0.00    -0.316 OA  
ATOM     22  O2  UNL     1       4.844  -1.005  -1.609  1.00  0.00    -0.316 OA  
ATOM     23  C12 UNL     1       4.228  -2.277  -1.319  1.00  0.00     0.337 C   
ENDBRANCH  14  15
ENDBRANCH  11  14
ENDBRANCH   7  11
ENDBRANCH   1   7
BRANCH   3  24
ATOM     24  C15 UNL     1      -2.825  -2.011   0.504  1.00  0.00     0.172 C   
BRANCH  24  25
ATOM     25  C16 UNL     1      -2.061  -2.783  -0.514  1.00  0.00     0.007 A   
ATOM     26  C17 UNL     1      -2.257  -2.770  -1.915  1.00  0.00     0.138 A   
ATOM     27  C19 UNL     1      -0.984  -3.630  -0.335  1.00  0.00     0.102 A   
ATOM     28  N3  UNL     1      -1.343  -3.490  -2.564  1.00  0.00    -0.190 NA  
ATOM     29  N4  UNL     1      -0.606  -4.040  -1.583  1.00  0.00    -0.236 N   
ATOM     30  C18 UNL     1       0.472  -4.939  -1.918  1.00  0.00     0.159 C   
ENDBRANCH  24  25
ENDBRANCH   3  24
TORSDOF 7
