REMARK SMILES CC(C)C[C@H]([NH2+]Cc1ccc2c(c1)OCO2)c1cn(CCc2cnn(C)c2)nn1
REMARK SMILES IDX 17 1 18 2 19 3 28 4 29 5 5 7 4 8 2 9 1 10 3 11 6 12 7 15
REMARK SMILES IDX 8 16 9 17 13 18 10 19 12 20 11 21 14 22 16 23 15 24 20 25
REMARK SMILES IDX 21 26 22 27 23 28 27 29 24 30 25 31 26 32
REMARK H PARENT 18 6 6 13 6 14
ROOT
ATOM     1   C14 UNL     1      -0.379  -1.950  -0.507  1.00  0.00     0.127 A   
ATOM     2   C15 UNL     1      -1.304  -2.547  -1.339  1.00  0.00     0.045 A   
ATOM     3   N2  UNL     1      -2.390  -2.744  -0.528  1.00  0.00    -0.212 N   
ATOM     4   N5  UNL     1      -2.088  -2.462   0.753  1.00  0.00    -0.076 NA  
ATOM     5   N6  UNL     1      -0.857  -1.971   0.777  1.00  0.00    -0.132 NA  
ATOM     6   H20 UNL     1      -1.351  -2.687  -2.409  1.00  0.00     0.083 HD  
ENDROOT
BRANCH   1   7
ATOM     7   C5  UNL     1       0.864  -1.206  -0.862  1.00  0.00     0.114 C   
BRANCH   7   8
ATOM     8   C4  UNL     1       2.142  -1.693  -0.155  1.00  0.00     0.064 C   
BRANCH   8   9
ATOM     9   C2  UNL     1       2.817  -2.925  -0.799  1.00  0.00    -0.012 C   
ATOM     10  C1  UNL     1       4.175  -3.169  -0.131  1.00  0.00     0.007 C   
ATOM     11  C3  UNL     1       1.976  -4.198  -0.711  1.00  0.00     0.007 C   
ENDBRANCH   8   9
ENDBRANCH   7   8
BRANCH   7  12
ATOM     12  N1  UNL     1       0.689   0.281  -0.641  1.00  0.00     0.249 N   
ATOM     13  H11 UNL     1      -0.182   0.588  -1.125  1.00  0.00     0.199 HD  
ATOM     14  H12 UNL     1       1.446   0.791  -1.105  1.00  0.00     0.199 HD  
BRANCH  12  15
ATOM     15  C6  UNL     1       0.570   0.774   0.763  1.00  0.00     0.164 C   
BRANCH  15  16
ATOM     16  C7  UNL     1       0.903   2.242   0.834  1.00  0.00    -0.002 A   
ATOM     17  C8  UNL     1      -0.083   3.218   0.561  1.00  0.00     0.012 A   
ATOM     18  C12 UNL     1       2.219   2.650   1.117  1.00  0.00     0.045 A   
ATOM     19  C9  UNL     1       0.228   4.582   0.582  1.00  0.00     0.037 A   
ATOM     20  C11 UNL     1       2.493   4.002   1.129  1.00  0.00     0.109 A   
ATOM     21  C10 UNL     1       1.526   4.941   0.870  1.00  0.00     0.108 A   
ATOM     22  O1  UNL     1       3.705   4.560   1.383  1.00  0.00    -0.316 OA  
ATOM     23  O2  UNL     1       2.006   6.210   0.930  1.00  0.00    -0.316 OA  
ATOM     24  C13 UNL     1       3.384   5.966   1.286  1.00  0.00     0.337 C   
ENDBRANCH  15  16
ENDBRANCH  12  15
ENDBRANCH   7  12
ENDBRANCH   1   7
BRANCH   3  25
ATOM     25  C16 UNL     1      -3.773  -2.837  -0.963  1.00  0.00     0.139 C   
BRANCH  25  26
ATOM     26  C17 UNL     1      -4.486  -1.470  -0.971  1.00  0.00     0.060 C   
BRANCH  26  27
ATOM     27  C18 UNL     1      -3.654  -0.383  -1.579  1.00  0.00    -0.011 A   
ATOM     28  C19 UNL     1      -2.781   0.486  -0.885  1.00  0.00     0.136 A   
ATOM     29  C21 UNL     1      -3.475  -0.044  -2.903  1.00  0.00     0.100 A   
ATOM     30  N3  UNL     1      -1.955   1.149  -1.706  1.00  0.00    -0.190 NA  
ATOM     31  N4  UNL     1      -2.518   0.933  -2.922  1.00  0.00    -0.236 N   
ATOM     32  C20 UNL     1      -2.044   1.658  -4.078  1.00  0.00     0.159 C   
ENDBRANCH  26  27
ENDBRANCH  25  26
ENDBRANCH   3  25
TORSDOF 9
