REMARK SMILES CC(C)(C)[C@H]([NH2+]Cc1ccc2c(c1)OCO2)c1cn(-c2cccc(CCN)c2)nn1
REMARK SMILES IDX 20 1 21 2 22 3 23 4 24 5 28 6 19 7 17 8 18 9 30 10 29 11
REMARK SMILES IDX 5 12 2 13 1 14 3 15 4 16 6 17 7 20 8 21 9 22 13 23 10 24
REMARK SMILES IDX 12 25 11 26 14 27 16 28 15 29 25 30 26 31 27 32
REMARK H PARENT 6 18 6 19 27 33 27 34
ROOT
ATOM     1   C16 UNL     1      -1.161   0.835  -3.416  1.00  0.00     0.058 A   
ATOM     2   C17 UNL     1      -1.792   2.074  -3.581  1.00  0.00     0.026 A   
ATOM     3   C18 UNL     1      -1.874   2.647  -4.848  1.00  0.00     0.002 A   
ATOM     4   C19 UNL     1      -1.332   1.988  -5.953  1.00  0.00     0.004 A   
ATOM     5   C20 UNL     1      -0.712   0.737  -5.816  1.00  0.00    -0.045 A   
ATOM     6   C23 UNL     1      -0.624   0.174  -4.533  1.00  0.00     0.029 A   
ENDROOT
BRANCH   1   7
ATOM     7   N2  UNL     1      -1.063   0.266  -2.122  1.00  0.00    -0.181 N   
ATOM     8   C14 UNL     1      -0.667  -0.992  -0.373  1.00  0.00     0.128 A   
ATOM     9   C15 UNL     1      -0.480  -0.925  -1.734  1.00  0.00     0.135 A   
ATOM     10  N5  UNL     1      -1.318   0.135   0.044  1.00  0.00    -0.131 NA  
ATOM     11  N4  UNL     1      -1.548   0.891  -1.016  1.00  0.00    -0.071 NA  
BRANCH   8  12
ATOM     12  C5  UNL     1      -0.221  -2.005   0.639  1.00  0.00     0.120 C   
BRANCH  12  13
ATOM     13  C2  UNL     1      -1.284  -3.118   0.945  1.00  0.00     0.010 C   
ATOM     14  C1  UNL     1      -1.700  -3.836  -0.357  1.00  0.00     0.017 C   
ATOM     15  C3  UNL     1      -2.555  -2.558   1.614  1.00  0.00     0.017 C   
ATOM     16  C4  UNL     1      -0.680  -4.195   1.875  1.00  0.00     0.017 C   
ENDBRANCH  12  13
BRANCH  12  17
ATOM     17  N1  UNL     1       0.171  -1.288   1.910  1.00  0.00     0.250 N   
ATOM     18  H11 UNL     1       0.246  -1.921   2.710  1.00  0.00     0.199 HD  
ATOM     19  H12 UNL     1      -0.593  -0.632   2.132  1.00  0.00     0.199 HD  
BRANCH  17  20
ATOM     20  C6  UNL     1       1.425  -0.485   1.829  1.00  0.00     0.164 C   
BRANCH  20  21
ATOM     21  C7  UNL     1       1.691   0.209   3.134  1.00  0.00    -0.002 A   
ATOM     22  C8  UNL     1       1.022   1.418   3.446  1.00  0.00     0.012 A   
ATOM     23  C12 UNL     1       2.572  -0.357   4.071  1.00  0.00     0.045 A   
ATOM     24  C9  UNL     1       1.234   2.061   4.670  1.00  0.00     0.037 A   
ATOM     25  C11 UNL     1       2.762   0.305   5.266  1.00  0.00     0.109 A   
ATOM     26  C10 UNL     1       2.113   1.480   5.558  1.00  0.00     0.108 A   
ATOM     27  O1  UNL     1       3.580  -0.099   6.271  1.00  0.00    -0.316 OA  
ATOM     28  O2  UNL     1       2.443   1.964   6.783  1.00  0.00    -0.316 OA  
ATOM     29  C13 UNL     1       3.398   0.975   7.222  1.00  0.00     0.337 C   
ENDBRANCH  20  21
ENDBRANCH  17  20
ENDBRANCH  12  17
ENDBRANCH   8  12
ENDBRANCH   1   7
BRANCH   5  30
ATOM     30  C21 UNL     1      -0.119   0.086  -7.049  1.00  0.00     0.050 C   
BRANCH  30  31
ATOM     31  C22 UNL     1       0.040  -1.445  -7.051  1.00  0.00     0.082 C   
BRANCH  31  32
ATOM     32  N3  UNL     1       1.177  -1.923  -6.253  1.00  0.00    -0.330 NA  
ATOM     33  H28 UNL     1       2.030  -1.471  -6.593  1.00  0.00     0.118 HD  
ATOM     34  H29 UNL     1       1.307  -2.917  -6.444  1.00  0.00     0.118 HD  
ENDBRANCH  31  32
ENDBRANCH  30  31
ENDBRANCH   5  30
TORSDOF 9
