REMARK SMILES CN(CCn1cc([C@@H]([NH2+]Cc2ccc3c(c2)OCO3)C2CCCCC2)nn1)c1ccccc1
REMARK SMILES IDX 5 1 6 2 7 3 26 4 27 5 4 7 3 8 2 9 1 10 28 11 29 12 33 13
REMARK SMILES IDX 30 14 32 15 31 16 8 17 9 18 10 21 11 22 12 23 16 24 13 25
REMARK SMILES IDX 15 26 14 27 17 28 19 29 18 30 20 31 21 32 25 33 22 34 24 35
REMARK SMILES IDX 23 36
REMARK H PARENT 6 6 9 19 9 20
ROOT
ATOM     1   N2  UNL     1       0.878   2.420  -0.142  1.00  0.00    -0.211 N   
ATOM     2   C4  UNL     1       0.177   1.823   0.867  1.00  0.00     0.045 A   
ATOM     3   C5  UNL     1       0.121   0.500   0.493  1.00  0.00     0.127 A   
ATOM     4   N4  UNL     1       0.769   0.342  -0.705  1.00  0.00    -0.132 NA  
ATOM     5   N5  UNL     1       1.242   1.521  -1.076  1.00  0.00    -0.076 NA  
ATOM     6   H8  UNL     1      -0.214   2.384   1.704  1.00  0.00     0.083 HD  
ENDROOT
BRANCH   1   7
ATOM     7   C3  UNL     1       1.259   3.810  -0.265  1.00  0.00     0.153 C   
BRANCH   7   8
ATOM     8   C2  UNL     1       0.364   4.581  -1.237  1.00  0.00     0.126 C   
BRANCH   8   9
ATOM     9   N1  UNL     1      -1.059   4.617  -0.825  1.00  0.00    -0.332 N   
ATOM     10  C1  UNL     1      -1.961   5.063  -1.901  1.00  0.00     0.130 C   
BRANCH   9  11
ATOM     11  C21 UNL     1      -1.390   5.253   0.388  1.00  0.00     0.028 A   
ATOM     12  C22 UNL     1      -2.530   4.813   1.084  1.00  0.00     0.023 A   
ATOM     13  C26 UNL     1      -0.655   6.307   0.947  1.00  0.00     0.023 A   
ATOM     14  C23 UNL     1      -2.910   5.388   2.299  1.00  0.00     0.002 A   
ATOM     15  C25 UNL     1      -1.033   6.886   2.164  1.00  0.00     0.002 A   
ATOM     16  C24 UNL     1      -2.157   6.423   2.841  1.00  0.00     0.000 A   
ENDBRANCH   9  11
ENDBRANCH   8   9
ENDBRANCH   7   8
ENDBRANCH   1   7
BRANCH   3  17
ATOM     17  C6  UNL     1      -0.569  -0.667   1.122  1.00  0.00     0.117 C   
BRANCH  17  18
ATOM     18  N3  UNL     1      -1.206  -1.467   0.016  1.00  0.00     0.249 N   
ATOM     19  H10 UNL     1      -0.462  -1.807  -0.609  1.00  0.00     0.199 HD  
ATOM     20  H11 UNL     1      -1.713  -0.799  -0.582  1.00  0.00     0.199 HD  
BRANCH  18  21
ATOM     21  C7  UNL     1      -2.132  -2.560   0.387  1.00  0.00     0.164 C   
BRANCH  21  22
ATOM     22  C8  UNL     1      -2.789  -3.134  -0.836  1.00  0.00    -0.002 A   
ATOM     23  C9  UNL     1      -2.170  -4.189  -1.549  1.00  0.00     0.012 A   
ATOM     24  C13 UNL     1      -3.995  -2.591  -1.311  1.00  0.00     0.045 A   
ATOM     25  C10 UNL     1      -2.751  -4.707  -2.712  1.00  0.00     0.037 A   
ATOM     26  C12 UNL     1      -4.540  -3.125  -2.461  1.00  0.00     0.109 A   
ATOM     27  C11 UNL     1      -3.936  -4.153  -3.141  1.00  0.00     0.108 A   
ATOM     28  O1  UNL     1      -5.696  -2.720  -3.050  1.00  0.00    -0.316 OA  
ATOM     29  O2  UNL     1      -4.637  -4.528  -4.242  1.00  0.00    -0.316 OA  
ATOM     30  C14 UNL     1      -5.766  -3.630  -4.170  1.00  0.00     0.337 C   
ENDBRANCH  21  22
ENDBRANCH  18  21
ENDBRANCH  17  18
BRANCH  17  31
ATOM     31  C15 UNL     1       0.353  -1.556   2.001  1.00  0.00     0.043 C   
ATOM     32  C16 UNL     1       0.945  -0.759   3.183  1.00  0.00     0.010 C   
ATOM     33  C20 UNL     1       1.479  -2.272   1.230  1.00  0.00     0.010 C   
ATOM     34  C17 UNL     1       1.789  -1.645   4.099  1.00  0.00     0.001 C   
ATOM     35  C19 UNL     1       2.326  -3.150   2.151  1.00  0.00     0.001 C   
ATOM     36  C18 UNL     1       2.891  -2.360   3.325  1.00  0.00     0.000 C   
ENDBRANCH  17  31
ENDBRANCH   3  17
TORSDOF 9
