REMARK SMILES Cc1ccc(N([O-])[O-])cc1Cn1cc([C@@H]([NH2+]Cc2ccc3c(c2)OCO3)C(C)(C)C)nn1
REMARK SMILES IDX 12 1 13 2 14 3 31 4 32 5 11 7 10 8 2 9 3 10 4 11 9 12 5 13
REMARK SMILES IDX 1 14 6 15 7 16 8 17 15 18 16 19 17 22 18 23 19 24 23 25
REMARK SMILES IDX 20 26 22 27 21 28 24 29 26 30 25 31 27 32 28 33 29 34 30 35
REMARK H PARENT 13 6 16 20 16 21
ROOT
ATOM     1   N2  UNL     1       1.228   1.075   0.160  1.00  0.00    -0.208 N   
ATOM     2   C9  UNL     1       0.266   1.273   1.112  1.00  0.00     0.046 A   
ATOM     3   C10 UNL     1       0.313   0.129   1.878  1.00  0.00     0.127 A   
ATOM     4   N4  UNL     1       1.274  -0.710   1.373  1.00  0.00    -0.132 NA  
ATOM     5   N5  UNL     1       1.835  -0.116   0.332  1.00  0.00    -0.076 NA  
ATOM     6   H9  UNL     1      -0.338   2.169   1.150  1.00  0.00     0.083 HD  
ENDROOT
BRANCH   1   7
ATOM     7   C8  UNL     1       1.662   1.993  -0.881  1.00  0.00     0.169 C   
BRANCH   7   8
ATOM     8   C7  UNL     1       0.927   1.756  -2.183  1.00  0.00    -0.024 A   
ATOM     9   C2  UNL     1       1.532   1.125  -3.294  1.00  0.00    -0.046 A   
ATOM     10  C3  UNL     1       0.803   0.969  -4.488  1.00  0.00     0.006 A   
ATOM     11  C4  UNL     1      -0.521   1.398  -4.587  1.00  0.00     0.031 A   
ATOM     12  C6  UNL     1      -0.411   2.184  -2.292  1.00  0.00     0.037 A   
ATOM     13  C5  UNL     1      -1.127   1.993  -3.482  1.00  0.00     0.118 A   
ATOM     14  C1  UNL     1       2.954   0.629  -3.252  1.00  0.00     0.044 C   
BRANCH  13  15
ATOM     15  N1  UNL     1      -2.534   2.405  -3.552  1.00  0.00     0.092 N   
ATOM     16  O1  UNL     1      -3.080   2.416  -4.662  1.00  0.00    -0.138 OA  
ATOM     17  O2  UNL     1      -3.090   2.714  -2.486  1.00  0.00    -0.138 OA  
ENDBRANCH  13  15
ENDBRANCH   7   8
ENDBRANCH   1   7
BRANCH   3  18
ATOM     18  C11 UNL     1      -0.513  -0.321   3.045  1.00  0.00     0.120 C   
BRANCH  18  19
ATOM     19  N3  UNL     1      -0.724  -1.819   2.933  1.00  0.00     0.250 N   
ATOM     20  H11 UNL     1      -0.591  -2.287   3.832  1.00  0.00     0.199 HD  
ATOM     21  H12 UNL     1       0.043  -2.167   2.333  1.00  0.00     0.199 HD  
BRANCH  19  22
ATOM     22  C12 UNL     1      -2.017  -2.261   2.341  1.00  0.00     0.164 C   
BRANCH  22  23
ATOM     23  C13 UNL     1      -2.163  -1.925   0.884  1.00  0.00    -0.002 A   
ATOM     24  C14 UNL     1      -3.022  -0.879   0.468  1.00  0.00     0.012 A   
ATOM     25  C18 UNL     1      -1.430  -2.640  -0.078  1.00  0.00     0.045 A   
ATOM     26  C15 UNL     1      -3.150  -0.550  -0.886  1.00  0.00     0.037 A   
ATOM     27  C17 UNL     1      -1.585  -2.295  -1.404  1.00  0.00     0.109 A   
ATOM     28  C16 UNL     1      -2.419  -1.278  -1.798  1.00  0.00     0.108 A   
ATOM     29  O3  UNL     1      -0.967  -2.897  -2.453  1.00  0.00    -0.316 OA  
ATOM     30  O4  UNL     1      -2.425  -1.106  -3.145  1.00  0.00    -0.316 OA  
ATOM     31  C19 UNL     1      -1.543  -2.173  -3.561  1.00  0.00     0.337 C   
ENDBRANCH  22  23
ENDBRANCH  19  22
ENDBRANCH  18  19
BRANCH  18  32
ATOM     32  C20 UNL     1       0.093   0.047   4.444  1.00  0.00     0.010 C   
ATOM     33  C21 UNL     1       1.447  -0.641   4.708  1.00  0.00     0.017 C   
ATOM     34  C22 UNL     1      -0.889  -0.352   5.570  1.00  0.00     0.017 C   
ATOM     35  C23 UNL     1       0.299   1.575   4.550  1.00  0.00     0.017 C   
ENDBRANCH  18  32
ENDBRANCH   3  18
TORSDOF 8
