REMARK SMILES CC(C)[C@H]([NH2+]Cc1ccc2c(c1)OCO2)c1cn(C(=O)c2ccc3[nH]ncc3c2)nn1
REMARK SMILES IDX 16 1 17 2 18 3 30 4 31 5 4 6 2 7 1 8 3 9 5 10 6 13 7 14 8 15
REMARK SMILES IDX 12 16 9 17 11 18 10 19 13 20 15 21 14 22 19 23 20 24 21 25
REMARK SMILES IDX 22 26 29 27 23 28 28 29 24 30 27 31 25 32 26 33
REMARK H PARENT 5 11 5 12 25 34
ROOT
ATOM     1   C13 UNL     1       0.613   0.841   1.180  1.00  0.00     0.128 A   
ATOM     2   C14 UNL     1      -0.000   1.826   1.917  1.00  0.00     0.139 A   
ATOM     3   N2  UNL     1      -0.630   2.636   0.987  1.00  0.00    -0.143 N   
ATOM     4   N5  UNL     1      -0.421   2.125  -0.252  1.00  0.00    -0.068 NA  
ATOM     5   N6  UNL     1       0.343   1.049  -0.147  1.00  0.00    -0.131 NA  
ENDROOT
BRANCH   1   6
ATOM     6   C4  UNL     1       1.436  -0.337   1.603  1.00  0.00     0.117 C   
BRANCH   6   7
ATOM     7   C2  UNL     1       2.908   0.056   1.899  1.00  0.00     0.037 C   
ATOM     8   C1  UNL     1       3.702   0.473   0.655  1.00  0.00     0.014 C   
ATOM     9   C3  UNL     1       3.655  -1.059   2.639  1.00  0.00     0.014 C   
ENDBRANCH   6   7
BRANCH   6  10
ATOM     10  N1  UNL     1       1.385  -1.422   0.562  1.00  0.00     0.249 N   
ATOM     11  H9  UNL     1       1.502  -0.969  -0.357  1.00  0.00     0.199 HD  
ATOM     12  H10 UNL     1       2.165  -2.080   0.654  1.00  0.00     0.199 HD  
BRANCH  10  13
ATOM     13  C5  UNL     1       0.114  -2.199   0.512  1.00  0.00     0.164 C   
BRANCH  13  14
ATOM     14  C6  UNL     1       0.148  -3.181  -0.624  1.00  0.00    -0.002 A   
ATOM     15  C7  UNL     1      -0.268  -2.784  -1.918  1.00  0.00     0.012 A   
ATOM     16  C11 UNL     1       0.647  -4.479  -0.424  1.00  0.00     0.045 A   
ATOM     17  C8  UNL     1      -0.200  -3.671  -2.998  1.00  0.00     0.037 A   
ATOM     18  C10 UNL     1       0.701  -5.328  -1.510  1.00  0.00     0.109 A   
ATOM     19  C9  UNL     1       0.290  -4.937  -2.760  1.00  0.00     0.108 A   
ATOM     20  O1  UNL     1       1.155  -6.608  -1.489  1.00  0.00    -0.316 OA  
ATOM     21  O2  UNL     1       0.430  -5.922  -3.684  1.00  0.00    -0.316 OA  
ATOM     22  C12 UNL     1       0.957  -6.992  -2.870  1.00  0.00     0.337 C   
ENDBRANCH  13  14
ENDBRANCH  10  13
ENDBRANCH   6  10
ENDBRANCH   1   6
BRANCH   3  23
ATOM     23  C15 UNL     1      -1.424   3.770   1.220  1.00  0.00     0.271 C   
ATOM     24  O3  UNL     1      -1.629   4.041   2.403  1.00  0.00    -0.269 OA  
BRANCH  23  25
ATOM     25  C16 UNL     1      -2.043   4.629   0.174  1.00  0.00     0.040 A   
ATOM     26  C17 UNL     1      -1.429   4.861  -1.063  1.00  0.00     0.016 A   
ATOM     27  C22 UNL     1      -3.268   5.248   0.486  1.00  0.00     0.025 A   
ATOM     28  C18 UNL     1      -2.026   5.684  -2.029  1.00  0.00     0.027 A   
ATOM     29  C21 UNL     1      -3.878   6.073  -0.474  1.00  0.00     0.018 A   
ATOM     30  C19 UNL     1      -3.251   6.268  -1.699  1.00  0.00     0.056 A   
ATOM     31  C20 UNL     1      -5.062   6.839  -0.555  1.00  0.00     0.141 A   
ATOM     32  N3  UNL     1      -4.080   7.109  -2.398  1.00  0.00    -0.238 N   
ATOM     33  N4  UNL     1      -5.190   7.464  -1.728  1.00  0.00    -0.192 NA  
ATOM     34  H21 UNL     1      -3.947   7.478  -3.333  1.00  0.00     0.176 HD  
ENDBRANCH  23  25
ENDBRANCH   3  23
TORSDOF 7
