REMARK SMILES CCCC[C@H](CC)Cn1cc([C@H](CC(C)C)[NH2+]Cc2ccc3c(c2)OCO3)nn1
REMARK SMILES IDX 8 1 5 2 4 3 3 4 2 5 1 6 6 7 7 8 9 9 10 10 29 11 11 12 28 13
REMARK SMILES IDX 12 15 13 16 14 17 15 18 16 19 17 20 18 23 19 24 20 25 24 26
REMARK SMILES IDX 21 27 23 28 22 29 25 30 27 31 26 32
REMARK H PARENT 10 14 17 21 17 22
ROOT
ATOM     1   C8  UNL     1      -0.529   4.028  -1.935  1.00  0.00     0.137 C   
ENDROOT
BRANCH   1   2
ATOM     2   C5  UNL     1       0.548   4.738  -1.079  1.00  0.00     0.008 C   
BRANCH   2   3
ATOM     3   C4  UNL     1       2.006   4.418  -1.493  1.00  0.00     0.005 C   
BRANCH   3   4
ATOM     4   C3  UNL     1       2.299   4.660  -2.979  1.00  0.00     0.000 C   
BRANCH   4   5
ATOM     5   C2  UNL     1       3.783   4.466  -3.302  1.00  0.00    -0.003 C   
ATOM     6   C1  UNL     1       4.061   4.718  -4.777  1.00  0.00     0.004 C   
ENDBRANCH   4   5
ENDBRANCH   3   4
ENDBRANCH   2   3
BRANCH   2   7
ATOM     7   C6  UNL     1       0.315   4.464   0.426  1.00  0.00     0.002 C   
ATOM     8   C7  UNL     1       1.098   5.389   1.349  1.00  0.00     0.004 C   
ENDBRANCH   2   7
ENDBRANCH   1   2
BRANCH   1   9
ATOM     9   N1  UNL     1      -0.657   2.599  -1.742  1.00  0.00    -0.212 N   
ATOM     10  C9  UNL     1      -1.746   1.906  -1.286  1.00  0.00     0.045 A   
ATOM     11  N4  UNL     1       0.333   1.758  -2.087  1.00  0.00    -0.076 NA  
ATOM     12  C10 UNL     1      -1.355   0.586  -1.345  1.00  0.00     0.127 A   
ATOM     13  N3  UNL     1      -0.075   0.525  -1.840  1.00  0.00    -0.132 NA  
ATOM     14  H18 UNL     1      -2.662   2.399  -0.998  1.00  0.00     0.083 HD  
BRANCH  12  15
ATOM     15  C11 UNL     1      -2.053  -0.697  -1.020  1.00  0.00     0.114 C   
BRANCH  15  16
ATOM     16  C12 UNL     1      -3.191  -0.563   0.008  1.00  0.00     0.064 C   
BRANCH  16  17
ATOM     17  C13 UNL     1      -3.937  -1.870   0.359  1.00  0.00    -0.012 C   
ATOM     18  C14 UNL     1      -4.982  -1.595   1.445  1.00  0.00     0.007 C   
ATOM     19  C15 UNL     1      -4.617  -2.493  -0.862  1.00  0.00     0.007 C   
ENDBRANCH  16  17
ENDBRANCH  15  16
BRANCH  15  20
ATOM     20  N2  UNL     1      -1.058  -1.749  -0.606  1.00  0.00     0.249 N   
ATOM     21  H29 UNL     1      -0.335  -1.755  -1.344  1.00  0.00     0.199 HD  
ATOM     22  H30 UNL     1      -1.478  -2.684  -0.626  1.00  0.00     0.199 HD  
BRANCH  20  23
ATOM     23  C16 UNL     1      -0.323  -1.546   0.676  1.00  0.00     0.164 C   
BRANCH  23  24
ATOM     24  C17 UNL     1       0.601  -2.705   0.928  1.00  0.00    -0.002 A   
ATOM     25  C18 UNL     1       1.912  -2.706   0.391  1.00  0.00     0.012 A   
ATOM     26  C22 UNL     1       0.144  -3.824   1.647  1.00  0.00     0.045 A   
ATOM     27  C19 UNL     1       2.764  -3.801   0.574  1.00  0.00     0.037 A   
ATOM     28  C21 UNL     1       1.009  -4.885   1.813  1.00  0.00     0.109 A   
ATOM     29  C20 UNL     1       2.283  -4.874   1.295  1.00  0.00     0.108 A   
ATOM     30  O1  UNL     1       0.728  -6.038   2.473  1.00  0.00    -0.316 OA  
ATOM     31  O2  UNL     1       2.965  -6.017   1.570  1.00  0.00    -0.316 OA  
ATOM     32  C23 UNL     1       1.988  -6.741   2.347  1.00  0.00     0.337 C   
ENDBRANCH  23  24
ENDBRANCH  20  23
ENDBRANCH  15  20
ENDBRANCH  12  15
ENDBRANCH   1   9
TORSDOF 12
