REMARK SMILES OCc1ccc(-n2cc([C@@H]([NH2+]Cc3ccc4c(c3)OCO4)C3CCCCC3)nn2)c(F)c1
REMARK SMILES IDX 7 1 8 2 9 3 28 4 29 5 6 6 3 7 4 8 32 9 5 10 30 11 31 12 2 13
REMARK SMILES IDX 1 14 10 16 11 17 12 20 13 21 14 22 18 23 15 24 17 25 16 26
REMARK SMILES IDX 19 27 21 28 20 29 22 30 23 31 27 32 24 33 26 34 25 35
REMARK H PARENT 1 15 11 18 11 19
ROOT
ATOM     1   N1  UNL     1      -0.532   2.588  -1.521  1.00  0.00    -0.178 N   
ATOM     2   C6  UNL     1      -1.152   1.354  -1.459  1.00  0.00     0.135 A   
ATOM     3   C7  UNL     1      -0.562   0.703  -0.399  1.00  0.00     0.127 A   
ATOM     4   N3  UNL     1       0.414   1.498   0.125  1.00  0.00    -0.131 NA  
ATOM     5   N4  UNL     1       0.432   2.629  -0.560  1.00  0.00    -0.071 NA  
ENDROOT
BRANCH   1   6
ATOM     6   C5  UNL     1      -0.761   3.686  -2.384  1.00  0.00     0.093 A   
ATOM     7   C2  UNL     1      -1.200   5.909  -4.069  1.00  0.00    -0.020 A   
ATOM     8   C3  UNL     1      -0.254   5.971  -3.038  1.00  0.00     0.008 A   
ATOM     9   C24 UNL     1      -1.925   4.725  -4.247  1.00  0.00     0.047 A   
ATOM     10  C4  UNL     1      -0.030   4.870  -2.204  1.00  0.00     0.029 A   
ATOM     11  C23 UNL     1      -1.704   3.628  -3.411  1.00  0.00     0.147 A   
ATOM     12  F1  UNL     1      -2.420   2.522  -3.648  1.00  0.00    -0.205 F   
BRANCH   7  13
ATOM     13  C1  UNL     1      -1.442   7.106  -4.951  1.00  0.00     0.191 C   
BRANCH  13  14
ATOM     14  O1  UNL     1      -0.226   7.537  -5.543  1.00  0.00    -0.392 OA  
ATOM     15  H1  UNL     1       0.268   6.745  -5.814  1.00  0.00     0.211 HD  
ENDBRANCH  13  14
ENDBRANCH   7  13
ENDBRANCH   1   6
BRANCH   3  16
ATOM     16  C8  UNL     1      -0.787  -0.664   0.174  1.00  0.00     0.117 C   
BRANCH  16  17
ATOM     17  N2  UNL     1       0.560  -1.272   0.490  1.00  0.00     0.249 N   
ATOM     18  H8  UNL     1       1.101  -0.555   1.000  1.00  0.00     0.199 HD  
ATOM     19  H9  UNL     1       0.491  -2.073   1.123  1.00  0.00     0.199 HD  
BRANCH  17  20
ATOM     20  C9  UNL     1       1.367  -1.689  -0.692  1.00  0.00     0.164 C   
BRANCH  20  21
ATOM     21  C10 UNL     1       2.690  -2.249  -0.251  1.00  0.00    -0.002 A   
ATOM     22  C11 UNL     1       3.808  -1.395  -0.100  1.00  0.00     0.012 A   
ATOM     23  C15 UNL     1       2.810  -3.613   0.067  1.00  0.00     0.045 A   
ATOM     24  C12 UNL     1       5.036  -1.893   0.350  1.00  0.00     0.037 A   
ATOM     25  C14 UNL     1       4.035  -4.070   0.507  1.00  0.00     0.109 A   
ATOM     26  C13 UNL     1       5.117  -3.236   0.644  1.00  0.00     0.108 A   
ATOM     27  O2  UNL     1       4.320  -5.352   0.855  1.00  0.00    -0.316 OA  
ATOM     28  O3  UNL     1       6.221  -3.888   1.092  1.00  0.00    -0.316 OA  
ATOM     29  C16 UNL     1       5.721  -5.239   1.194  1.00  0.00     0.337 C   
ENDBRANCH  20  21
ENDBRANCH  17  20
ENDBRANCH  16  17
BRANCH  16  30
ATOM     30  C17 UNL     1      -1.659  -0.638   1.466  1.00  0.00     0.043 C   
ATOM     31  C18 UNL     1      -1.916  -2.056   2.026  1.00  0.00     0.010 C   
ATOM     32  C22 UNL     1      -3.016   0.060   1.209  1.00  0.00     0.010 C   
ATOM     33  C19 UNL     1      -2.833  -2.050   3.247  1.00  0.00     0.001 C   
ATOM     34  C21 UNL     1      -3.924   0.056   2.436  1.00  0.00     0.001 C   
ATOM     35  C20 UNL     1      -4.155  -1.354   2.960  1.00  0.00     0.000 C   
ENDBRANCH  16  30
ENDBRANCH   3  16
TORSDOF 8
