REMARK SMILES CN(C)c1ncccc1Cn1cc([C@@H]([NH2+]Cc2ccc3c(c2)OCO3)C(C)(C)C)nn1
REMARK SMILES IDX 11 1 12 2 13 3 30 4 31 5 10 7 9 8 4 9 5 10 6 11 8 12 7 13
REMARK SMILES IDX 2 14 1 15 3 16 14 17 15 18 16 21 17 22 18 23 22 24 19 25
REMARK SMILES IDX 21 26 20 27 23 28 25 29 24 30 26 31 27 32 28 33 29 34
REMARK H PARENT 12 6 15 19 15 20
ROOT
ATOM     1   N3  UNL     1       0.309   2.385  -0.242  1.00  0.00    -0.208 N   
ATOM     2   C9  UNL     1       0.258   1.460   0.765  1.00  0.00     0.046 A   
ATOM     3   C10 UNL     1       1.412   0.729   0.606  1.00  0.00     0.127 A   
ATOM     4   N5  UNL     1       2.114   1.221  -0.466  1.00  0.00    -0.132 NA  
ATOM     5   N6  UNL     1       1.436   2.238  -0.971  1.00  0.00    -0.076 NA  
ATOM     6   H12 UNL     1      -0.574   1.408   1.454  1.00  0.00     0.083 HD  
ENDROOT
BRANCH   1   7
ATOM     7   C8  UNL     1      -0.631   3.453  -0.531  1.00  0.00     0.173 C   
BRANCH   7   8
ATOM     8   C7  UNL     1      -1.760   2.964  -1.394  1.00  0.00     0.012 A   
ATOM     9   C3  UNL     1      -2.924   2.404  -0.846  1.00  0.00     0.124 A   
ATOM     10  N2  UNL     1      -3.916   1.921  -1.626  1.00  0.00    -0.241 NA  
ATOM     11  C4  UNL     1      -3.773   2.001  -2.967  1.00  0.00     0.113 A   
ATOM     12  C6  UNL     1      -1.639   3.014  -2.791  1.00  0.00     0.010 A   
ATOM     13  C5  UNL     1      -2.663   2.531  -3.592  1.00  0.00     0.021 A   
BRANCH   9  14
ATOM     14  N1  UNL     1      -3.075   2.366   0.568  1.00  0.00    -0.322 N   
ATOM     15  C1  UNL     1      -3.851   3.551   0.973  1.00  0.00     0.131 C   
ATOM     16  C2  UNL     1      -3.736   1.118   0.978  1.00  0.00     0.131 C   
ENDBRANCH   9  14
ENDBRANCH   7   8
ENDBRANCH   1   7
BRANCH   3  17
ATOM     17  C11 UNL     1       1.928  -0.479   1.324  1.00  0.00     0.120 C   
BRANCH  17  18
ATOM     18  N4  UNL     1       2.635  -1.361   0.308  1.00  0.00     0.250 N   
ATOM     19  H14 UNL     1       2.868  -0.738  -0.483  1.00  0.00     0.199 HD  
ATOM     20  H15 UNL     1       3.535  -1.694   0.659  1.00  0.00     0.199 HD  
BRANCH  18  21
ATOM     21  C12 UNL     1       1.859  -2.516  -0.219  1.00  0.00     0.164 C   
BRANCH  21  22
ATOM     22  C13 UNL     1       0.620  -2.137  -0.981  1.00  0.00    -0.002 A   
ATOM     23  C14 UNL     1       0.718  -1.485  -2.234  1.00  0.00     0.012 A   
ATOM     24  C18 UNL     1      -0.650  -2.424  -0.453  1.00  0.00     0.045 A   
ATOM     25  C15 UNL     1      -0.428  -1.127  -2.952  1.00  0.00     0.037 A   
ATOM     26  C17 UNL     1      -1.760  -2.059  -1.188  1.00  0.00     0.109 A   
ATOM     27  C16 UNL     1      -1.653  -1.434  -2.405  1.00  0.00     0.108 A   
ATOM     28  O1  UNL     1      -3.052  -2.269  -0.823  1.00  0.00    -0.316 OA  
ATOM     29  O2  UNL     1      -2.863  -1.187  -2.971  1.00  0.00    -0.316 OA  
ATOM     30  C19 UNL     1      -3.750  -1.716  -1.964  1.00  0.00     0.337 C   
ENDBRANCH  21  22
ENDBRANCH  18  21
ENDBRANCH  17  18
BRANCH  17  31
ATOM     31  C20 UNL     1       2.880  -0.157   2.529  1.00  0.00     0.010 C   
ATOM     32  C21 UNL     1       3.263  -1.461   3.266  1.00  0.00     0.017 C   
ATOM     33  C22 UNL     1       4.174   0.561   2.095  1.00  0.00     0.017 C   
ATOM     34  C23 UNL     1       2.153   0.742   3.555  1.00  0.00     0.017 C   
ENDBRANCH  17  31
ENDBRANCH   3  17
TORSDOF 8
