REMARK SMILES Fc1cncc(Cl)c1Cn1cc([C@@H]([NH2+]Cc2ccc3c(c2)OCO3)C2CCCCC2)nn1
REMARK SMILES IDX 10 1 11 2 12 3 31 4 32 5 9 7 8 8 2 9 3 10 4 11 6 12 5 13
REMARK SMILES IDX 1 14 7 15 13 16 14 17 15 20 16 21 17 22 21 23 18 24 20 25
REMARK SMILES IDX 19 26 22 27 24 28 23 29 25 30 26 31 30 32 27 33 29 34 28 35
REMARK H PARENT 11 6 14 18 14 19
ROOT
ATOM     1   N2  UNL     1      -1.053  -1.994   1.236  1.00  0.00    -0.208 N   
ATOM     2   C7  UNL     1      -0.963  -0.661   1.531  1.00  0.00     0.046 A   
ATOM     3   C8  UNL     1      -1.526  -0.040   0.440  1.00  0.00     0.127 A   
ATOM     4   N4  UNL     1      -1.945  -0.992  -0.454  1.00  0.00    -0.132 NA  
ATOM     5   N5  UNL     1      -1.644  -2.180   0.039  1.00  0.00    -0.076 NA  
ATOM     6   H5  UNL     1      -0.484  -0.295   2.430  1.00  0.00     0.083 HD  
ENDROOT
BRANCH   1   7
ATOM     7   C6  UNL     1      -0.573  -3.130   2.010  1.00  0.00     0.174 C   
BRANCH   7   8
ATOM     8   C5  UNL     1       0.602  -3.781   1.336  1.00  0.00     0.029 A   
ATOM     9   C1  UNL     1       0.392  -4.934   0.574  1.00  0.00     0.147 A   
ATOM     10  C2  UNL     1       1.447  -5.513  -0.114  1.00  0.00     0.150 A   
ATOM     11  N1  UNL     1       2.704  -5.015  -0.102  1.00  0.00    -0.260 NA  
ATOM     12  C4  UNL     1       1.901  -3.265   1.377  1.00  0.00     0.067 A   
ATOM     13  C3  UNL     1       2.903  -3.906   0.649  1.00  0.00     0.132 A   
ATOM     14  F1  UNL     1      -0.830  -5.484   0.506  1.00  0.00    -0.205 F   
ATOM     15  CL1 UNL     1       2.306  -1.870   2.300  1.00  0.00    -0.082 Cl  
ENDBRANCH   7   8
ENDBRANCH   1   7
BRANCH   3  16
ATOM     16  C9  UNL     1      -1.660   1.405   0.068  1.00  0.00     0.117 C   
BRANCH  16  17
ATOM     17  N3  UNL     1      -1.489   1.500  -1.441  1.00  0.00     0.249 N   
ATOM     18  H7  UNL     1      -2.287   1.968  -1.880  1.00  0.00     0.199 HD  
ATOM     19  H8  UNL     1      -1.555   0.526  -1.791  1.00  0.00     0.199 HD  
BRANCH  17  20
ATOM     20  C10 UNL     1      -0.211   2.081  -1.930  1.00  0.00     0.164 C   
BRANCH  20  21
ATOM     21  C11 UNL     1       1.000   1.264  -1.579  1.00  0.00    -0.002 A   
ATOM     22  C12 UNL     1       1.225   0.009  -2.197  1.00  0.00     0.012 A   
ATOM     23  C16 UNL     1       1.919   1.737  -0.629  1.00  0.00     0.045 A   
ATOM     24  C13 UNL     1       2.352  -0.760  -1.883  1.00  0.00     0.037 A   
ATOM     25  C15 UNL     1       3.020   0.956  -0.345  1.00  0.00     0.109 A   
ATOM     26  C14 UNL     1       3.235  -0.255  -0.957  1.00  0.00     0.108 A   
ATOM     27  O1  UNL     1       4.002   1.271   0.542  1.00  0.00    -0.316 OA  
ATOM     28  O2  UNL     1       4.380  -0.855  -0.537  1.00  0.00    -0.316 OA  
ATOM     29  C17 UNL     1       4.899   0.150   0.367  1.00  0.00     0.337 C   
ENDBRANCH  20  21
ENDBRANCH  17  20
ENDBRANCH  16  17
BRANCH  16  30
ATOM     30  C18 UNL     1      -3.027   2.028   0.467  1.00  0.00     0.043 C   
ATOM     31  C19 UNL     1      -3.098   3.526   0.089  1.00  0.00     0.010 C   
ATOM     32  C23 UNL     1      -3.306   1.869   1.978  1.00  0.00     0.010 C   
ATOM     33  C20 UNL     1      -4.416   4.169   0.516  1.00  0.00     0.001 C   
ATOM     34  C22 UNL     1      -4.614   2.527   2.405  1.00  0.00     0.001 C   
ATOM     35  C21 UNL     1      -4.666   3.996   2.007  1.00  0.00     0.000 C   
ENDBRANCH  16  30
ENDBRANCH   3  16
TORSDOF 7
