REMARK SMILES c1cc2c(cc1C[NH2+][C@H](c1cn(Cc3cnoc3)nn1)C1CCCC1)OCO2
REMARK SMILES IDX 9 1 8 2 7 5 6 6 1 7 2 8 3 9 5 10 4 11 28 12 26 13 27 14
REMARK SMILES IDX 10 15 11 16 20 17 12 18 19 19 13 21 14 22 15 23 18 24 16 25
REMARK SMILES IDX 17 26 21 27 22 28 25 29 23 30 24 31
REMARK H PARENT 8 3 8 4 11 20
ROOT
ATOM     1   C8  UNL     1       0.799   0.351  -1.482  1.00  0.00     0.117 C   
ENDROOT
BRANCH   1   2
ATOM     2   N1  UNL     1       0.849  -0.992  -2.177  1.00  0.00     0.249 N   
ATOM     3   H6  UNL     1       1.086  -0.886  -3.167  1.00  0.00     0.199 HD  
ATOM     4   H7  UNL     1      -0.117  -1.355  -2.157  1.00  0.00     0.199 HD  
BRANCH   2   5
ATOM     5   C7  UNL     1       1.748  -2.017  -1.575  1.00  0.00     0.164 C   
BRANCH   5   6
ATOM     6   C6  UNL     1       1.395  -2.393  -0.164  1.00  0.00    -0.002 A   
ATOM     7   C1  UNL     1       0.240  -3.165   0.106  1.00  0.00     0.012 A   
ATOM     8   C2  UNL     1      -0.115  -3.495   1.419  1.00  0.00     0.037 A   
ATOM     9   C3  UNL     1       0.697  -3.046   2.437  1.00  0.00     0.108 A   
ATOM     10  C5  UNL     1       2.198  -1.957   0.904  1.00  0.00     0.045 A   
ATOM     11  C4  UNL     1       1.820  -2.299   2.186  1.00  0.00     0.109 A   
ATOM     12  O3  UNL     1       0.508  -3.270   3.763  1.00  0.00    -0.316 OA  
ATOM     13  O2  UNL     1       2.481  -1.954   3.322  1.00  0.00    -0.316 OA  
ATOM     14  C20 UNL     1       1.655  -2.593   4.323  1.00  0.00     0.337 C   
ENDBRANCH   5   6
ENDBRANCH   2   5
ENDBRANCH   1   2
BRANCH   1  15
ATOM     15  C9  UNL     1      -0.367   0.393  -0.546  1.00  0.00     0.127 A   
ATOM     16  C10 UNL     1      -0.552   1.038   0.656  1.00  0.00     0.046 A   
ATOM     17  N5  UNL     1      -1.490  -0.337  -0.843  1.00  0.00    -0.132 NA  
ATOM     18  N2  UNL     1      -1.803   0.648   1.051  1.00  0.00    -0.208 N   
ATOM     19  N4  UNL     1      -2.359  -0.174   0.140  1.00  0.00    -0.076 NA  
ATOM     20  H9  UNL     1       0.067   1.694   1.252  1.00  0.00     0.083 HD  
BRANCH  18  21
ATOM     21  C11 UNL     1      -2.540   1.043   2.241  1.00  0.00     0.173 C   
BRANCH  21  22
ATOM     22  C12 UNL     1      -1.946   0.438   3.454  1.00  0.00     0.018 A   
ATOM     23  C13 UNL     1      -1.092   1.042   4.404  1.00  0.00     0.149 A   
ATOM     24  C14 UNL     1      -2.099  -0.841   3.938  1.00  0.00     0.171 A   
ATOM     25  N3  UNL     1      -0.734   0.196   5.371  1.00  0.00    -0.137 NA  
ATOM     26  O1  UNL     1      -1.383  -0.990   5.079  1.00  0.00    -0.222 OA  
ENDBRANCH  21  22
ENDBRANCH  18  21
ENDBRANCH   1  15
BRANCH   1  27
ATOM     27  C15 UNL     1       0.734   1.491  -2.518  1.00  0.00     0.043 C   
ATOM     28  C16 UNL     1      -0.433   1.433  -3.513  1.00  0.00     0.010 C   
ATOM     29  C19 UNL     1       1.993   1.621  -3.396  1.00  0.00     0.010 C   
ATOM     30  C17 UNL     1       0.038   2.333  -4.644  1.00  0.00     0.001 C   
ATOM     31  C18 UNL     1       1.502   1.954  -4.803  1.00  0.00     0.001 C   
ENDBRANCH   1  27
TORSDOF 7
