REMARK SMILES Cc1cn[nH]c1Cn1cc([C@@H]([NH2+]Cc2ccc3c(c2)OCO3)C2CCCCC2)nn1
REMARK SMILES IDX 8 1 9 2 10 3 29 4 30 5 7 7 6 8 2 9 3 10 4 11 5 12 1 13 11 15
REMARK SMILES IDX 12 16 13 19 14 20 15 21 19 22 16 23 18 24 17 25 20 26 22 27
REMARK SMILES IDX 21 28 23 29 24 30 28 31 25 32 27 33 26 34
REMARK H PARENT 9 6 5 14 12 17 12 18
ROOT
ATOM     1   N3  UNL     1      -1.888   1.470   2.103  1.00  0.00    -0.206 N   
ATOM     2   C6  UNL     1      -0.702   0.804   2.254  1.00  0.00     0.046 A   
ATOM     3   C7  UNL     1      -0.241   0.653   0.964  1.00  0.00     0.127 A   
ATOM     4   N5  UNL     1      -1.174   1.156   0.092  1.00  0.00    -0.132 NA  
ATOM     5   N6  UNL     1      -2.179   1.644   0.798  1.00  0.00    -0.076 NA  
ATOM     6   H8  UNL     1      -0.290   0.568   3.227  1.00  0.00     0.083 HD  
ENDROOT
BRANCH   1   7
ATOM     7   C5  UNL     1      -2.728   2.070   3.130  1.00  0.00     0.187 C   
BRANCH   7   8
ATOM     8   C4  UNL     1      -2.253   3.445   3.444  1.00  0.00     0.049 A   
ATOM     9   C2  UNL     1      -1.910   4.068   4.632  1.00  0.00    -0.011 A   
ATOM     10  C3  UNL     1      -1.509   5.364   4.237  1.00  0.00     0.136 A   
ATOM     11  N1  UNL     1      -1.584   5.544   2.920  1.00  0.00    -0.192 NA  
ATOM     12  N2  UNL     1      -2.084   4.391   2.464  1.00  0.00    -0.241 N   
ATOM     13  C1  UNL     1      -1.940   3.520   6.008  1.00  0.00     0.048 C   
ATOM     14  H5  UNL     1      -2.260   4.303   1.465  1.00  0.00     0.175 HD  
ENDBRANCH   7   8
ENDBRANCH   1   7
BRANCH   3  15
ATOM     15  C8  UNL     1       1.017   0.049   0.411  1.00  0.00     0.117 C   
BRANCH  15  16
ATOM     16  N4  UNL     1       0.672  -0.604  -0.908  1.00  0.00     0.249 N   
ATOM     17  H10 UNL     1       1.475  -0.707  -1.532  1.00  0.00     0.199 HD  
ATOM     18  H11 UNL     1       0.028   0.045  -1.390  1.00  0.00     0.199 HD  
BRANCH  16  19
ATOM     19  C9  UNL     1      -0.020  -1.919  -0.808  1.00  0.00     0.164 C   
BRANCH  19  20
ATOM     20  C10 UNL     1      -0.499  -2.362  -2.162  1.00  0.00    -0.002 A   
ATOM     21  C11 UNL     1       0.342  -3.116  -3.013  1.00  0.00     0.012 A   
ATOM     22  C15 UNL     1      -1.773  -1.974  -2.612  1.00  0.00     0.045 A   
ATOM     23  C12 UNL     1      -0.082  -3.488  -4.294  1.00  0.00     0.037 A   
ATOM     24  C14 UNL     1      -2.160  -2.358  -3.879  1.00  0.00     0.109 A   
ATOM     25  C13 UNL     1      -1.338  -3.092  -4.698  1.00  0.00     0.108 A   
ATOM     26  O1  UNL     1      -3.354  -2.071  -4.463  1.00  0.00    -0.316 OA  
ATOM     27  O2  UNL     1      -1.908  -3.357  -5.902  1.00  0.00    -0.316 OA  
ATOM     28  C16 UNL     1      -3.193  -2.716  -5.748  1.00  0.00     0.337 C   
ENDBRANCH  19  20
ENDBRANCH  16  19
ENDBRANCH  15  16
BRANCH  15  29
ATOM     29  C17 UNL     1       2.143   1.105   0.187  1.00  0.00     0.043 C   
ATOM     30  C18 UNL     1       2.469   1.863   1.496  1.00  0.00     0.010 C   
ATOM     31  C22 UNL     1       3.438   0.468  -0.367  1.00  0.00     0.010 C   
ATOM     32  C19 UNL     1       3.613   2.860   1.337  1.00  0.00     0.001 C   
ATOM     33  C21 UNL     1       4.573   1.479  -0.520  1.00  0.00     0.001 C   
ATOM     34  C20 UNL     1       4.868   2.197   0.787  1.00  0.00     0.000 C   
ENDBRANCH  15  29
ENDBRANCH   3  15
TORSDOF 7
