REMARK SMILES Cc1ccc(-n2cc([C@@H]([NH2+]Cc3ccc4c(c3)OCO4)C(C)C)nn2)cc1N([O-])[O-]
REMARK SMILES IDX 6 1 7 2 8 3 24 4 25 5 5 6 2 7 3 8 27 9 4 10 26 11 1 12 28 13
REMARK SMILES IDX 29 14 30 15 9 16 10 17 11 20 12 21 13 22 17 23 14 24 16 25
REMARK SMILES IDX 15 26 18 27 20 28 19 29 21 30 22 31 23 32
REMARK H PARENT 10 18 10 19
ROOT
ATOM     1   N1  UNL     1      -0.362  -1.296  -1.490  1.00  0.00    -0.181 N   
ATOM     2   C6  UNL     1      -0.390  -1.663  -0.158  1.00  0.00     0.135 A   
ATOM     3   C7  UNL     1      -0.640  -0.496   0.530  1.00  0.00     0.127 A   
ATOM     4   N3  UNL     1      -0.744   0.533  -0.362  1.00  0.00    -0.131 NA  
ATOM     5   N4  UNL     1      -0.563   0.043  -1.577  1.00  0.00    -0.071 NA  
ENDROOT
BRANCH   1   6
ATOM     6   C5  UNL     1      -0.149  -2.102  -2.638  1.00  0.00     0.060 A   
ATOM     7   C2  UNL     1       0.303  -3.666  -4.965  1.00  0.00    -0.022 A   
ATOM     8   C3  UNL     1       0.072  -2.285  -5.055  1.00  0.00     0.007 A   
ATOM     9   C21 UNL     1       0.276  -4.248  -3.686  1.00  0.00     0.122 A   
ATOM     10  C4  UNL     1      -0.148  -1.510  -3.909  1.00  0.00     0.026 A   
ATOM     11  C20 UNL     1       0.059  -3.480  -2.525  1.00  0.00     0.057 A   
ATOM     12  C1  UNL     1       0.544  -4.447  -6.228  1.00  0.00     0.046 C   
BRANCH   9  13
ATOM     13  N5  UNL     1       0.481  -5.684  -3.499  1.00  0.00     0.092 N   
ATOM     14  O3  UNL     1      -0.135  -6.457  -4.241  1.00  0.00    -0.138 OA  
ATOM     15  O4  UNL     1       1.231  -6.022  -2.571  1.00  0.00    -0.138 OA  
ENDBRANCH   9  13
ENDBRANCH   1   6
BRANCH   3  16
ATOM     16  C8  UNL     1      -0.781  -0.222   1.997  1.00  0.00     0.117 C   
BRANCH  16  17
ATOM     17  N2  UNL     1      -0.520   1.231   2.292  1.00  0.00     0.249 N   
ATOM     18  H8  UNL     1      -1.005   1.777   1.564  1.00  0.00     0.199 HD  
ATOM     19  H9  UNL     1      -0.928   1.524   3.185  1.00  0.00     0.199 HD  
BRANCH  17  20
ATOM     20  C9  UNL     1       0.912   1.641   2.265  1.00  0.00     0.164 C   
BRANCH  20  21
ATOM     21  C10 UNL     1       1.036   3.121   2.488  1.00  0.00    -0.002 A   
ATOM     22  C11 UNL     1       1.255   3.636   3.788  1.00  0.00     0.012 A   
ATOM     23  C15 UNL     1       0.880   4.008   1.408  1.00  0.00     0.045 A   
ATOM     24  C12 UNL     1       1.328   5.016   4.010  1.00  0.00     0.037 A   
ATOM     25  C14 UNL     1       0.957   5.361   1.662  1.00  0.00     0.109 A   
ATOM     26  C13 UNL     1       1.175   5.852   2.926  1.00  0.00     0.108 A   
ATOM     27  O1  UNL     1       0.828   6.348   0.737  1.00  0.00    -0.316 OA  
ATOM     28  O2  UNL     1       1.213   7.209   2.955  1.00  0.00    -0.316 OA  
ATOM     29  C16 UNL     1       1.014   7.522   1.560  1.00  0.00     0.337 C   
ENDBRANCH  20  21
ENDBRANCH  17  20
ENDBRANCH  16  17
BRANCH  16  30
ATOM     30  C17 UNL     1      -2.176  -0.637   2.536  1.00  0.00     0.037 C   
ATOM     31  C18 UNL     1      -3.327   0.229   2.011  1.00  0.00     0.014 C   
ATOM     32  C19 UNL     1      -2.207  -0.665   4.069  1.00  0.00     0.014 C   
ENDBRANCH  16  30
ENDBRANCH   3  16
TORSDOF 7
