REMARK SMILES COc1ccccc1[C@H](O)Cn1cc([C@@H]([NH2+]Cc2ccc3c(c2)OCO3)C(C)C)nn1
REMARK SMILES IDX 12 1 13 2 14 3 30 4 31 5 11 7 9 8 8 9 3 10 4 11 5 12 7 13
REMARK SMILES IDX 6 14 2 15 1 16 10 17 15 19 16 20 17 23 18 24 19 25 23 26
REMARK SMILES IDX 20 27 22 28 21 29 24 30 26 31 25 32 27 33 28 34 29 35
REMARK H PARENT 13 6 10 18 16 21 16 22
ROOT
ATOM     1   N1  UNL     1       1.729   1.382  -0.749  1.00  0.00    -0.209 N   
ATOM     2   C10 UNL     1       0.445   1.092  -1.119  1.00  0.00     0.045 A   
ATOM     3   C11 UNL     1      -0.296   1.372   0.006  1.00  0.00     0.127 A   
ATOM     4   N3  UNL     1       0.540   1.823   0.996  1.00  0.00    -0.132 NA  
ATOM     5   N4  UNL     1       1.776   1.818   0.524  1.00  0.00    -0.076 NA  
ATOM     6   H12 UNL     1       0.202   0.709  -2.101  1.00  0.00     0.083 HD  
ENDROOT
BRANCH   1   7
ATOM     7   C9  UNL     1       2.936   1.274  -1.544  1.00  0.00     0.170 C   
BRANCH   7   8
ATOM     8   C8  UNL     1       3.565  -0.114  -1.420  1.00  0.00     0.166 C   
BRANCH   8   9
ATOM     9   C7  UNL     1       4.943  -0.137  -2.058  1.00  0.00     0.012 A   
ATOM     10  C2  UNL     1       6.091   0.133  -1.286  1.00  0.00     0.080 A   
ATOM     11  C3  UNL     1       7.351   0.124  -1.893  1.00  0.00     0.034 A   
ATOM     12  C4  UNL     1       7.477  -0.134  -3.259  1.00  0.00     0.003 A   
ATOM     13  C6  UNL     1       5.087  -0.376  -3.437  1.00  0.00     0.009 A   
ATOM     14  C5  UNL     1       6.347  -0.379  -4.032  1.00  0.00     0.001 A   
BRANCH  10  15
ATOM     15  O1  UNL     1       5.866   0.402   0.039  1.00  0.00    -0.349 OA  
ATOM     16  C1  UNL     1       7.000   0.687   0.852  1.00  0.00     0.203 C   
ENDBRANCH  10  15
ENDBRANCH   8   9
BRANCH   8  17
ATOM     17  O2  UNL     1       2.714  -1.090  -2.047  1.00  0.00    -0.387 OA  
ATOM     18  H9  UNL     1       3.255  -1.896  -2.150  1.00  0.00     0.211 HD  
ENDBRANCH   8  17
ENDBRANCH   7   8
ENDBRANCH   1   7
BRANCH   3  19
ATOM     19  C12 UNL     1      -1.756   1.218   0.286  1.00  0.00     0.117 C   
BRANCH  19  20
ATOM     20  N2  UNL     1      -1.985   1.013   1.766  1.00  0.00     0.249 N   
ATOM     21  H14 UNL     1      -2.959   1.194   2.017  1.00  0.00     0.199 HD  
ATOM     22  H15 UNL     1      -1.408   1.721   2.242  1.00  0.00     0.199 HD  
BRANCH  20  23
ATOM     23  C13 UNL     1      -1.577  -0.316   2.311  1.00  0.00     0.164 C   
BRANCH  23  24
ATOM     24  C14 UNL     1      -2.473  -1.433   1.852  1.00  0.00    -0.002 A   
ATOM     25  C15 UNL     1      -2.008  -2.376   0.904  1.00  0.00     0.012 A   
ATOM     26  C19 UNL     1      -3.787  -1.533   2.340  1.00  0.00     0.045 A   
ATOM     27  C16 UNL     1      -2.840  -3.403   0.443  1.00  0.00     0.037 A   
ATOM     28  C18 UNL     1      -4.580  -2.558   1.865  1.00  0.00     0.109 A   
ATOM     29  C17 UNL     1      -4.121  -3.465   0.943  1.00  0.00     0.108 A   
ATOM     30  O3  UNL     1      -5.867  -2.794   2.232  1.00  0.00    -0.316 OA  
ATOM     31  O4  UNL     1      -5.061  -4.388   0.611  1.00  0.00    -0.316 OA  
ATOM     32  C20 UNL     1      -6.157  -3.983   1.461  1.00  0.00     0.337 C   
ENDBRANCH  23  24
ENDBRANCH  20  23
ENDBRANCH  19  20
BRANCH  19  33
ATOM     33  C21 UNL     1      -2.583   2.429  -0.222  1.00  0.00     0.037 C   
ATOM     34  C22 UNL     1      -4.086   2.124  -0.229  1.00  0.00     0.014 C   
ATOM     35  C23 UNL     1      -2.323   3.730   0.545  1.00  0.00     0.014 C   
ENDBRANCH  19  33
ENDBRANCH   3  19
TORSDOF 10
