REMARK SMILES COc1ccccc1[C@@H](O)Cn1cc([C@@H]([NH2+]Cc2ccc3c(c2)OCO3)C(C)C)nn1
REMARK SMILES IDX 12 1 13 2 14 3 30 4 31 5 11 7 9 8 8 9 3 10 4 11 5 12 7 13
REMARK SMILES IDX 6 14 2 15 1 16 10 17 15 19 16 20 17 23 18 24 19 25 23 26
REMARK SMILES IDX 20 27 22 28 21 29 24 30 26 31 25 32 27 33 28 34 29 35
REMARK H PARENT 13 6 10 18 16 21 16 22
ROOT
ATOM     1   N1  UNL     1       2.078  -0.557  -0.117  1.00  0.00    -0.209 N   
ATOM     2   C10 UNL     1       0.953  -0.020   0.441  1.00  0.00     0.045 A   
ATOM     3   C11 UNL     1      -0.076  -0.711  -0.158  1.00  0.00     0.127 A   
ATOM     4   N3  UNL     1       0.444  -1.573  -1.090  1.00  0.00    -0.132 NA  
ATOM     5   N4  UNL     1       1.762  -1.472  -1.050  1.00  0.00    -0.076 NA  
ATOM     6   H12 UNL     1       0.995   0.745   1.201  1.00  0.00     0.083 HD  
ENDROOT
BRANCH   1   7
ATOM     7   C9  UNL     1       3.461  -0.242   0.184  1.00  0.00     0.170 C   
BRANCH   7   8
ATOM     8   C8  UNL     1       4.024  -1.174   1.257  1.00  0.00     0.166 C   
BRANCH   8   9
ATOM     9   C7  UNL     1       5.519  -0.963   1.419  1.00  0.00     0.012 A   
ATOM     10  C2  UNL     1       6.428  -1.685   0.624  1.00  0.00     0.080 A   
ATOM     11  C3  UNL     1       7.802  -1.460   0.753  1.00  0.00     0.034 A   
ATOM     12  C4  UNL     1       8.281  -0.530   1.677  1.00  0.00     0.003 A   
ATOM     13  C6  UNL     1       6.019  -0.015   2.332  1.00  0.00     0.009 A   
ATOM     14  C5  UNL     1       7.391   0.192   2.464  1.00  0.00     0.001 A   
BRANCH  10  15
ATOM     15  O1  UNL     1       5.880  -2.544  -0.298  1.00  0.00    -0.349 OA  
ATOM     16  C1  UNL     1       6.699  -3.647  -0.675  1.00  0.00     0.203 C   
ENDBRANCH  10  15
ENDBRANCH   8   9
BRANCH   8  17
ATOM     17  O2  UNL     1       3.355  -0.927   2.505  1.00  0.00    -0.387 OA  
ATOM     18  H9  UNL     1       3.856  -1.424   3.181  1.00  0.00     0.211 HD  
ENDBRANCH   8  17
ENDBRANCH   7   8
ENDBRANCH   1   7
BRANCH   3  19
ATOM     19  C12 UNL     1      -1.556  -0.623   0.017  1.00  0.00     0.117 C   
BRANCH  19  20
ATOM     20  N2  UNL     1      -2.245  -0.899  -1.303  1.00  0.00     0.249 N   
ATOM     21  H14 UNL     1      -3.228  -1.144  -1.151  1.00  0.00     0.199 HD  
ATOM     22  H15 UNL     1      -1.778  -1.730  -1.694  1.00  0.00     0.199 HD  
BRANCH  20  23
ATOM     23  C13 UNL     1      -2.154   0.181  -2.329  1.00  0.00     0.164 C   
BRANCH  23  24
ATOM     24  C14 UNL     1      -2.962   1.396  -1.968  1.00  0.00    -0.002 A   
ATOM     25  C15 UNL     1      -4.373   1.380  -2.084  1.00  0.00     0.012 A   
ATOM     26  C19 UNL     1      -2.324   2.546  -1.471  1.00  0.00     0.045 A   
ATOM     27  C16 UNL     1      -5.138   2.491  -1.708  1.00  0.00     0.037 A   
ATOM     28  C18 UNL     1      -3.108   3.621  -1.106  1.00  0.00     0.109 A   
ATOM     29  C17 UNL     1      -4.476   3.595  -1.220  1.00  0.00     0.108 A   
ATOM     30  O3  UNL     1      -2.651   4.798  -0.602  1.00  0.00    -0.316 OA  
ATOM     31  O4  UNL     1      -5.053   4.753  -0.804  1.00  0.00    -0.316 OA  
ATOM     32  C20 UNL     1      -3.892   5.522  -0.428  1.00  0.00     0.337 C   
ENDBRANCH  23  24
ENDBRANCH  20  23
ENDBRANCH  19  20
BRANCH  19  33
ATOM     33  C21 UNL     1      -2.128  -1.597   1.082  1.00  0.00     0.037 C   
ATOM     34  C22 UNL     1      -1.859  -3.079   0.792  1.00  0.00     0.014 C   
ATOM     35  C23 UNL     1      -1.627  -1.252   2.490  1.00  0.00     0.014 C   
ENDBRANCH  19  33
ENDBRANCH   3  19
TORSDOF 10
