REMARK SMILES Cc1ccc([C@@H](CO)n2cc([C@@H]([NH2+]Cc3ccc4c(c3)OCO4)C3CCCC3)nn2)cc1C
REMARK SMILES IDX 9 1 10 2 11 3 29 4 30 5 6 7 5 8 2 9 3 10 32 11 4 12 31 13
REMARK SMILES IDX 1 14 33 15 7 16 8 17 12 19 13 20 14 23 15 24 16 25 20 26
REMARK SMILES IDX 17 27 19 28 18 29 21 30 23 31 22 32 24 33 25 34 28 35 26 36
REMARK SMILES IDX 27 37
REMARK H PARENT 10 6 8 18 13 21 13 22
ROOT
ATOM     1   N1  UNL     1      -2.570   0.429  -0.860  1.00  0.00    -0.202 N   
ATOM     2   C8  UNL     1      -1.254   0.770  -1.035  1.00  0.00     0.046 A   
ATOM     3   C9  UNL     1      -0.662  -0.389  -1.478  1.00  0.00     0.127 A   
ATOM     4   N3  UNL     1      -1.609  -1.377  -1.562  1.00  0.00    -0.132 NA  
ATOM     5   N4  UNL     1      -2.767  -0.871  -1.169  1.00  0.00    -0.075 NA  
ATOM     6   H10 UNL     1      -0.887   1.766  -0.827  1.00  0.00     0.083 HD  
ENDROOT
BRANCH   1   7
ATOM     7   C6  UNL     1      -3.667   1.241  -0.336  1.00  0.00     0.155 C   
BRANCH   7   8
ATOM     8   C5  UNL     1      -3.300   1.796   1.036  1.00  0.00    -0.023 A   
ATOM     9   C2  UNL     1      -2.584   2.713   3.621  1.00  0.00    -0.048 A   
ATOM     10  C3  UNL     1      -3.007   1.393   3.420  1.00  0.00     0.004 A   
ATOM     11  C25 UNL     1      -2.529   3.589   2.521  1.00  0.00    -0.048 A   
ATOM     12  C4  UNL     1      -3.356   0.940   2.148  1.00  0.00     0.006 A   
ATOM     13  C24 UNL     1      -2.879   3.119   1.242  1.00  0.00     0.009 A   
ATOM     14  C1  UNL     1      -2.244   3.170   5.014  1.00  0.00     0.044 C   
ATOM     15  C26 UNL     1      -2.107   5.026   2.685  1.00  0.00     0.044 C   
ENDBRANCH   7   8
BRANCH   7  16
ATOM     16  C7  UNL     1      -4.192   2.233  -1.394  1.00  0.00     0.185 C   
BRANCH  16  17
ATOM     17  O1  UNL     1      -3.181   3.102  -1.912  1.00  0.00    -0.394 OA  
ATOM     18  H9  UNL     1      -3.619   3.685  -2.562  1.00  0.00     0.210 HD  
ENDBRANCH  16  17
ENDBRANCH   7  16
ENDBRANCH   1   7
BRANCH   3  19
ATOM     19  C10 UNL     1       0.764  -0.701  -1.786  1.00  0.00     0.117 C   
BRANCH  19  20
ATOM     20  N2  UNL     1       1.099  -2.094  -1.293  1.00  0.00     0.249 N   
ATOM     21  H12 UNL     1       0.403  -2.723  -1.715  1.00  0.00     0.199 HD  
ATOM     22  H13 UNL     1       2.021  -2.383  -1.626  1.00  0.00     0.199 HD  
BRANCH  20  23
ATOM     23  C11 UNL     1       1.040  -2.299   0.188  1.00  0.00     0.164 C   
BRANCH  23  24
ATOM     24  C12 UNL     1       2.050  -1.475   0.936  1.00  0.00    -0.002 A   
ATOM     25  C13 UNL     1       1.630  -0.374   1.722  1.00  0.00     0.012 A   
ATOM     26  C17 UNL     1       3.421  -1.769   0.832  1.00  0.00     0.045 A   
ATOM     27  C14 UNL     1       2.562   0.432   2.385  1.00  0.00     0.037 A   
ATOM     28  C16 UNL     1       4.312  -0.951   1.494  1.00  0.00     0.109 A   
ATOM     29  C15 UNL     1       3.896   0.119   2.247  1.00  0.00     0.108 A   
ATOM     30  O2  UNL     1       5.663  -1.087   1.484  1.00  0.00    -0.316 OA  
ATOM     31  O3  UNL     1       4.934   0.795   2.801  1.00  0.00    -0.316 OA  
ATOM     32  C18 UNL     1       6.055   0.012   2.338  1.00  0.00     0.337 C   
ENDBRANCH  23  24
ENDBRANCH  20  23
ENDBRANCH  19  20
BRANCH  19  33
ATOM     33  C19 UNL     1       1.050  -0.633  -3.300  1.00  0.00     0.043 C   
ATOM     34  C20 UNL     1       0.875   0.777  -3.880  1.00  0.00     0.010 C   
ATOM     35  C23 UNL     1       2.497  -0.948  -3.691  1.00  0.00     0.010 C   
ATOM     36  C21 UNL     1       1.633   0.756  -5.203  1.00  0.00     0.001 C   
ATOM     37  C22 UNL     1       2.626  -0.401  -5.108  1.00  0.00     0.001 C   
ENDBRANCH  19  33
ENDBRANCH   3  19
TORSDOF 9
