REMARK SMILES Cc1ccc([C@H](CO)n2cc([C@@H]([NH2+]Cc3ccc4c(c3)OCO4)C3CCCC3)nn2)cc1C
REMARK SMILES IDX 9 1 10 2 11 3 29 4 30 5 6 7 5 8 2 9 3 10 32 11 4 12 31 13
REMARK SMILES IDX 1 14 33 15 7 16 8 17 12 19 13 20 14 23 15 24 16 25 20 26
REMARK SMILES IDX 17 27 19 28 18 29 21 30 23 31 22 32 24 33 25 34 28 35 26 36
REMARK SMILES IDX 27 37
REMARK H PARENT 10 6 8 18 13 21 13 22
ROOT
ATOM     1   N1  UNL     1      -0.441  -2.487  -0.556  1.00  0.00    -0.202 N   
ATOM     2   C8  UNL     1      -0.519  -2.010   0.729  1.00  0.00     0.046 A   
ATOM     3   C9  UNL     1      -0.815  -0.673   0.576  1.00  0.00     0.127 A   
ATOM     4   N3  UNL     1      -0.885  -0.380  -0.762  1.00  0.00    -0.132 NA  
ATOM     5   N4  UNL     1      -0.629  -1.485  -1.443  1.00  0.00    -0.075 NA  
ATOM     6   H10 UNL     1      -0.387  -2.651   1.588  1.00  0.00     0.083 HD  
ENDROOT
BRANCH   1   7
ATOM     7   C6  UNL     1      -0.126  -3.854  -0.975  1.00  0.00     0.155 C   
BRANCH   7   8
ATOM     8   C5  UNL     1       1.381  -4.024  -1.084  1.00  0.00    -0.023 A   
ATOM     9   C2  UNL     1       4.185  -4.355  -1.237  1.00  0.00    -0.048 A   
ATOM     10  C3  UNL     1       3.503  -3.566  -2.174  1.00  0.00     0.004 A   
ATOM     11  C25 UNL     1       3.457  -4.996  -0.217  1.00  0.00    -0.048 A   
ATOM     12  C4  UNL     1       2.119  -3.398  -2.097  1.00  0.00     0.006 A   
ATOM     13  C24 UNL     1       2.064  -4.822  -0.150  1.00  0.00     0.009 A   
ATOM     14  C1  UNL     1       5.676  -4.523  -1.362  1.00  0.00     0.044 C   
ATOM     15  C26 UNL     1       4.141  -5.859   0.809  1.00  0.00     0.044 C   
ENDBRANCH   7   8
BRANCH   7  16
ATOM     16  C7  UNL     1      -0.876  -4.292  -2.247  1.00  0.00     0.185 C   
BRANCH  16  17
ATOM     17  O1  UNL     1      -2.262  -4.500  -1.956  1.00  0.00    -0.394 OA  
ATOM     18  H9  UNL     1      -2.688  -4.770  -2.791  1.00  0.00     0.210 HD  
ENDBRANCH  16  17
ENDBRANCH   7  16
ENDBRANCH   1   7
BRANCH   3  19
ATOM     19  C10 UNL     1      -1.042   0.408   1.587  1.00  0.00     0.117 C   
BRANCH  19  20
ATOM     20  N2  UNL     1      -1.086   1.754   0.916  1.00  0.00     0.249 N   
ATOM     21  H12 UNL     1      -1.597   2.451   1.465  1.00  0.00     0.199 HD  
ATOM     22  H13 UNL     1      -1.617   1.632   0.041  1.00  0.00     0.199 HD  
BRANCH  20  23
ATOM     23  C11 UNL     1       0.242   2.317   0.536  1.00  0.00     0.164 C   
BRANCH  23  24
ATOM     24  C12 UNL     1       0.064   3.622  -0.189  1.00  0.00    -0.002 A   
ATOM     25  C13 UNL     1      -0.141   3.630  -1.591  1.00  0.00     0.012 A   
ATOM     26  C17 UNL     1       0.036   4.834   0.522  1.00  0.00     0.045 A   
ATOM     27  C14 UNL     1      -0.358   4.829  -2.279  1.00  0.00     0.037 A   
ATOM     28  C16 UNL     1      -0.181   5.998  -0.187  1.00  0.00     0.109 A   
ATOM     29  C15 UNL     1      -0.370   5.996  -1.548  1.00  0.00     0.108 A   
ATOM     30  O2  UNL     1      -0.242   7.248   0.343  1.00  0.00    -0.316 OA  
ATOM     31  O3  UNL     1      -0.571   7.244  -2.046  1.00  0.00    -0.316 OA  
ATOM     32  C18 UNL     1      -0.471   8.040  -0.845  1.00  0.00     0.337 C   
ENDBRANCH  23  24
ENDBRANCH  20  23
ENDBRANCH  19  20
BRANCH  19  33
ATOM     33  C19 UNL     1      -2.327   0.160   2.403  1.00  0.00     0.043 C   
ATOM     34  C20 UNL     1      -2.530   1.097   3.597  1.00  0.00     0.010 C   
ATOM     35  C23 UNL     1      -3.649   0.303   1.645  1.00  0.00     0.010 C   
ATOM     36  C21 UNL     1      -4.005   0.933   3.970  1.00  0.00     0.001 C   
ATOM     37  C22 UNL     1      -4.689   0.301   2.758  1.00  0.00     0.001 C   
ENDBRANCH  19  33
ENDBRANCH   3  19
TORSDOF 9
