REMARK SMILES COCc1cccc(-n2cc([C@H](CC(C)C)[NH2+]Cc3ccc4c(c3)OCO4)nn2)c1
REMARK SMILES IDX 9 1 10 2 11 3 28 4 29 5 8 6 4 7 5 8 30 9 6 10 7 11 3 12 2 13
REMARK SMILES IDX 1 14 12 15 13 16 14 17 15 18 16 19 17 20 18 23 19 24 20 25
REMARK SMILES IDX 24 26 21 27 23 28 22 29 25 30 27 31 26 32
REMARK H PARENT 17 21 17 22
ROOT
ATOM     1   N1  UNL     1      -1.652   0.338   0.995  1.00  0.00    -0.181 N   
ATOM     2   C8  UNL     1      -0.795   0.576  -0.063  1.00  0.00     0.135 A   
ATOM     3   C9  UNL     1      -1.564   0.398  -1.190  1.00  0.00     0.127 A   
ATOM     4   N3  UNL     1      -2.849   0.120  -0.820  1.00  0.00    -0.131 NA  
ATOM     5   N4  UNL     1      -2.898   0.103   0.502  1.00  0.00    -0.071 NA  
ENDROOT
BRANCH   1   6
ATOM     6   C7  UNL     1      -1.364   0.279   2.380  1.00  0.00     0.058 A   
ATOM     7   C3  UNL     1       0.232   0.357   4.224  1.00  0.00    -0.020 A   
ATOM     8   C4  UNL     1      -0.818   0.107   5.119  1.00  0.00     0.006 A   
ATOM     9   C23 UNL     1      -0.056   0.460   2.852  1.00  0.00     0.032 A   
ATOM     10  C5  UNL     1      -2.122  -0.065   4.655  1.00  0.00     0.002 A   
ATOM     11  C6  UNL     1      -2.397   0.015   3.290  1.00  0.00     0.026 A   
BRANCH   7  12
ATOM     12  C2  UNL     1       1.632   0.568   4.751  1.00  0.00     0.195 C   
BRANCH  12  13
ATOM     13  O1  UNL     1       2.591   0.107   3.796  1.00  0.00    -0.380 OA  
ATOM     14  C1  UNL     1       3.919   0.270   4.280  1.00  0.00     0.195 C   
ENDBRANCH  12  13
ENDBRANCH   7  12
ENDBRANCH   1   6
BRANCH   3  15
ATOM     15  C10 UNL     1      -1.197   0.357  -2.636  1.00  0.00     0.114 C   
BRANCH  15  16
ATOM     16  C11 UNL     1      -1.745   1.567  -3.418  1.00  0.00     0.064 C   
BRANCH  16  17
ATOM     17  C12 UNL     1      -1.208   2.940  -2.959  1.00  0.00    -0.012 C   
ATOM     18  C13 UNL     1      -1.880   4.052  -3.769  1.00  0.00     0.007 C   
ATOM     19  C14 UNL     1       0.311   3.048  -3.096  1.00  0.00     0.007 C   
ENDBRANCH  16  17
ENDBRANCH  15  16
BRANCH  15  20
ATOM     20  N2  UNL     1      -1.790  -0.893  -3.265  1.00  0.00     0.249 N   
ATOM     21  H20 UNL     1      -2.668  -1.079  -2.756  1.00  0.00     0.199 HD  
ATOM     22  H21 UNL     1      -2.061  -0.709  -4.236  1.00  0.00     0.199 HD  
BRANCH  20  23
ATOM     23  C15 UNL     1      -0.947  -2.126  -3.227  1.00  0.00     0.164 C   
BRANCH  23  24
ATOM     24  C16 UNL     1      -0.614  -2.598  -1.840  1.00  0.00    -0.002 A   
ATOM     25  C17 UNL     1      -1.607  -3.198  -1.029  1.00  0.00     0.012 A   
ATOM     26  C21 UNL     1       0.672  -2.386  -1.312  1.00  0.00     0.045 A   
ATOM     27  C18 UNL     1      -1.334  -3.560   0.295  1.00  0.00     0.037 A   
ATOM     28  C20 UNL     1       0.903  -2.744   0.001  1.00  0.00     0.109 A   
ATOM     29  C19 UNL     1      -0.071  -3.312   0.782  1.00  0.00     0.108 A   
ATOM     30  O2  UNL     1       2.070  -2.563   0.673  1.00  0.00    -0.316 OA  
ATOM     31  O3  UNL     1       0.361  -3.571   2.043  1.00  0.00    -0.316 OA  
ATOM     32  C22 UNL     1       1.721  -3.091   1.974  1.00  0.00     0.337 C   
ENDBRANCH  23  24
ENDBRANCH  20  23
ENDBRANCH  15  20
ENDBRANCH   3  15
TORSDOF 9
