REMARK SMILES CC(C)C[C@H]([NH2+]Cc1ccc2c(c1)OCO2)c1cn(CCc2cccc(N([O-])[O-])c2)nn1
REMARK SMILES IDX 17 1 18 2 19 3 31 4 32 5 5 7 4 8 2 9 1 10 3 11 6 12 7 15
REMARK SMILES IDX 8 16 9 17 13 18 10 19 12 20 11 21 14 22 16 23 15 24 20 25
REMARK SMILES IDX 21 26 22 27 23 28 30 29 24 30 26 31 25 32 27 33 28 34 29 35
REMARK H PARENT 18 6 6 13 6 14
ROOT
ATOM     1   C14 UNL     1       1.298  -1.076  -0.445  1.00  0.00     0.127 A   
ATOM     2   C15 UNL     1       2.184  -0.373  -1.239  1.00  0.00     0.045 A   
ATOM     3   N2  UNL     1       3.301  -1.164  -1.285  1.00  0.00    -0.212 N   
ATOM     4   N4  UNL     1       3.120  -2.284  -0.564  1.00  0.00    -0.076 NA  
ATOM     5   N5  UNL     1       1.902  -2.243  -0.047  1.00  0.00    -0.132 NA  
ATOM     6   H20 UNL     1       2.136   0.585  -1.739  1.00  0.00     0.083 HD  
ENDROOT
BRANCH   1   7
ATOM     7   C5  UNL     1      -0.071  -0.753   0.076  1.00  0.00     0.114 C   
BRANCH   7   8
ATOM     8   C4  UNL     1      -0.801   0.392  -0.661  1.00  0.00     0.064 C   
BRANCH   8   9
ATOM     9   C2  UNL     1      -1.164   0.100  -2.138  1.00  0.00    -0.012 C   
ATOM     10  C1  UNL     1      -2.048  -1.150  -2.293  1.00  0.00     0.007 C   
ATOM     11  C3  UNL     1      -1.889   1.312  -2.744  1.00  0.00     0.007 C   
ENDBRANCH   8   9
ENDBRANCH   7   8
BRANCH   7  12
ATOM     12  N1  UNL     1       0.001  -0.379   1.544  1.00  0.00     0.249 N   
ATOM     13  H11 UNL     1      -0.712   0.320   1.788  1.00  0.00     0.199 HD  
ATOM     14  H12 UNL     1       0.905   0.096   1.732  1.00  0.00     0.199 HD  
BRANCH  12  15
ATOM     15  C6  UNL     1      -0.095  -1.516   2.513  1.00  0.00     0.164 C   
BRANCH  15  16
ATOM     16  C7  UNL     1      -1.499  -2.053   2.614  1.00  0.00    -0.002 A   
ATOM     17  C8  UNL     1      -1.833  -3.312   2.054  1.00  0.00     0.012 A   
ATOM     18  C12 UNL     1      -2.504  -1.282   3.231  1.00  0.00     0.045 A   
ATOM     19  C9  UNL     1      -3.152  -3.790   2.090  1.00  0.00     0.037 A   
ATOM     20  C11 UNL     1      -3.794  -1.782   3.247  1.00  0.00     0.109 A   
ATOM     21  C10 UNL     1      -4.111  -2.998   2.688  1.00  0.00     0.108 A   
ATOM     22  O1  UNL     1      -4.877  -1.156   3.784  1.00  0.00    -0.316 OA  
ATOM     23  O2  UNL     1      -5.436  -3.289   2.799  1.00  0.00    -0.316 OA  
ATOM     24  C13 UNL     1      -5.923  -2.112   3.486  1.00  0.00     0.337 C   
ENDBRANCH  15  16
ENDBRANCH  12  15
ENDBRANCH   7  12
ENDBRANCH   1   7
BRANCH   3  25
ATOM     25  C16 UNL     1       4.590  -0.872  -1.883  1.00  0.00     0.139 C   
BRANCH  25  26
ATOM     26  C17 UNL     1       5.693  -0.594  -0.854  1.00  0.00     0.057 C   
BRANCH  26  27
ATOM     27  C18 UNL     1       5.440   0.660  -0.047  1.00  0.00    -0.044 A   
ATOM     28  C19 UNL     1       6.029   1.881  -0.407  1.00  0.00     0.004 A   
ATOM     29  C23 UNL     1       4.550   0.630   1.035  1.00  0.00     0.035 A   
ATOM     30  C20 UNL     1       5.727   3.056   0.296  1.00  0.00     0.002 A   
ATOM     31  C22 UNL     1       4.218   1.821   1.694  1.00  0.00     0.118 A   
ATOM     32  C21 UNL     1       4.808   3.037   1.344  1.00  0.00     0.031 A   
BRANCH  31  33
ATOM     33  N3  UNL     1       3.139   1.804   2.669  1.00  0.00     0.092 N   
ATOM     34  O3  UNL     1       3.207   2.574   3.636  1.00  0.00    -0.138 OA  
ATOM     35  O4  UNL     1       2.180   1.038   2.430  1.00  0.00    -0.138 OA  
ENDBRANCH  31  33
ENDBRANCH  26  27
ENDBRANCH  25  26
ENDBRANCH   3  25
TORSDOF 10
