REMARK SMILES Cc1cccc(N([O-])[O-])c1-n1cc([C@H](CC(C)C)[NH2+]Cc2ccc3c(c2)OCO3)nn1
REMARK SMILES IDX 11 1 12 2 13 3 30 4 31 5 10 6 2 7 3 8 4 9 6 10 5 11 1 12
REMARK SMILES IDX 7 13 8 14 9 15 14 16 15 17 16 18 17 19 18 20 19 21 20 24
REMARK SMILES IDX 21 25 22 26 26 27 23 28 25 29 24 30 27 31 29 32 28 33
REMARK H PARENT 19 22 19 23
ROOT
ATOM     1   N2  UNL     1      -0.410  -0.007  -3.049  1.00  0.00    -0.178 N   
ATOM     2   C8  UNL     1       0.130   0.185  -1.790  1.00  0.00     0.135 A   
ATOM     3   C9  UNL     1       0.752  -1.003  -1.482  1.00  0.00     0.127 A   
ATOM     4   N4  UNL     1       0.655  -1.846  -2.550  1.00  0.00    -0.131 NA  
ATOM     5   N5  UNL     1      -0.010  -1.219  -3.506  1.00  0.00    -0.071 NA  
ENDROOT
BRANCH   1   6
ATOM     6   C7  UNL     1      -1.283   0.834  -3.790  1.00  0.00     0.089 A   
ATOM     7   C2  UNL     1      -1.189   0.910  -5.201  1.00  0.00    -0.025 A   
ATOM     8   C3  UNL     1      -2.058   1.778  -5.895  1.00  0.00     0.005 A   
ATOM     9   C4  UNL     1      -2.993   2.570  -5.227  1.00  0.00     0.003 A   
ATOM     10  C6  UNL     1      -2.261   1.621  -3.141  1.00  0.00     0.141 A   
ATOM     11  C5  UNL     1      -3.102   2.493  -3.845  1.00  0.00     0.033 A   
ATOM     12  C1  UNL     1      -0.190   0.138  -6.027  1.00  0.00     0.046 C   
BRANCH  10  13
ATOM     13  N1  UNL     1      -2.552   1.464  -1.726  1.00  0.00     0.094 N   
ATOM     14  O1  UNL     1      -2.463   2.473  -1.017  1.00  0.00    -0.138 OA  
ATOM     15  O2  UNL     1      -2.814   0.322  -1.321  1.00  0.00    -0.138 OA  
ENDBRANCH  10  13
ENDBRANCH   1   6
BRANCH   3  16
ATOM     16  C10 UNL     1       1.399  -1.472  -0.223  1.00  0.00     0.114 C   
BRANCH  16  17
ATOM     17  C11 UNL     1       2.930  -1.589  -0.351  1.00  0.00     0.064 C   
BRANCH  17  18
ATOM     18  C12 UNL     1       3.665  -0.261  -0.632  1.00  0.00    -0.012 C   
ATOM     19  C13 UNL     1       3.452   0.771   0.477  1.00  0.00     0.007 C   
ATOM     20  C14 UNL     1       5.163  -0.528  -0.807  1.00  0.00     0.007 C   
ENDBRANCH  17  18
ENDBRANCH  16  17
BRANCH  16  21
ATOM     21  N3  UNL     1       0.878  -2.851   0.131  1.00  0.00     0.249 N   
ATOM     22  H18 UNL     1       1.471  -3.275   0.851  1.00  0.00     0.199 HD  
ATOM     23  H19 UNL     1       0.972  -3.426  -0.718  1.00  0.00     0.199 HD  
BRANCH  21  24
ATOM     24  C15 UNL     1      -0.548  -2.923   0.574  1.00  0.00     0.164 C   
BRANCH  24  25
ATOM     25  C16 UNL     1      -0.769  -2.290   1.919  1.00  0.00    -0.002 A   
ATOM     26  C17 UNL     1      -0.301  -2.925   3.095  1.00  0.00     0.012 A   
ATOM     27  C21 UNL     1      -1.414  -1.045   2.017  1.00  0.00     0.045 A   
ATOM     28  C18 UNL     1      -0.464  -2.326   4.349  1.00  0.00     0.037 A   
ATOM     29  C20 UNL     1      -1.556  -0.482   3.267  1.00  0.00     0.109 A   
ATOM     30  C19 UNL     1      -1.093  -1.103   4.401  1.00  0.00     0.108 A   
ATOM     31  O3  UNL     1      -2.142   0.714   3.534  1.00  0.00    -0.316 OA  
ATOM     32  O4  UNL     1      -1.333  -0.378   5.524  1.00  0.00    -0.316 OA  
ATOM     33  C22 UNL     1      -2.030   0.761   4.974  1.00  0.00     0.337 C   
ENDBRANCH  24  25
ENDBRANCH  21  24
ENDBRANCH  16  21
ENDBRANCH   3  16
TORSDOF 8
