REMARK SMILES CC(C)[C@H]([NH2+]Cc1ccc2c(c1)OCO2)c1cn(Cc2ncoc2C(C)(C)C)nn1
REMARK SMILES IDX 16 1 17 2 18 3 29 4 30 5 4 7 2 8 1 9 3 10 5 11 6 14 7 15
REMARK SMILES IDX 8 16 12 17 9 18 11 19 10 20 13 21 15 22 14 23 19 24 20 25
REMARK SMILES IDX 21 26 24 27 22 28 23 29 25 30 26 31 27 32 28 33
REMARK H PARENT 17 6 5 12 5 13
ROOT
ATOM     1   C13 UNL     1      -0.263  -0.432  -0.548  1.00  0.00     0.127 A   
ATOM     2   C14 UNL     1      -0.077  -1.461   0.344  1.00  0.00     0.046 A   
ATOM     3   N2  UNL     1       0.868  -0.984   1.214  1.00  0.00    -0.206 N   
ATOM     4   N4  UNL     1       1.176   0.297   0.925  1.00  0.00    -0.076 NA  
ATOM     5   N5  UNL     1       0.508   0.637  -0.164  1.00  0.00    -0.132 NA  
ATOM     6   H18 UNL     1      -0.475  -2.462   0.426  1.00  0.00     0.083 HD  
ENDROOT
BRANCH   1   7
ATOM     7   C4  UNL     1      -1.148  -0.302  -1.747  1.00  0.00     0.117 C   
BRANCH   7   8
ATOM     8   C2  UNL     1      -0.525  -0.849  -3.059  1.00  0.00     0.037 C   
ATOM     9   C1  UNL     1      -0.348  -2.371  -3.015  1.00  0.00     0.014 C   
ATOM     10  C3  UNL     1       0.801  -0.186  -3.449  1.00  0.00     0.014 C   
ENDBRANCH   7   8
BRANCH   7  11
ATOM     11  N1  UNL     1      -1.503   1.150  -1.962  1.00  0.00     0.249 N   
ATOM     12  H9  UNL     1      -0.629   1.685  -1.837  1.00  0.00     0.199 HD  
ATOM     13  H10 UNL     1      -1.816   1.326  -2.921  1.00  0.00     0.199 HD  
BRANCH  11  14
ATOM     14  C5  UNL     1      -2.496   1.716  -1.008  1.00  0.00     0.164 C   
BRANCH  14  15
ATOM     15  C6  UNL     1      -2.640   3.195  -1.223  1.00  0.00    -0.002 A   
ATOM     16  C7  UNL     1      -3.670   3.706  -2.044  1.00  0.00     0.012 A   
ATOM     17  C11 UNL     1      -1.705   4.078  -0.652  1.00  0.00     0.045 A   
ATOM     18  C8  UNL     1      -3.777   5.079  -2.288  1.00  0.00     0.037 A   
ATOM     19  C10 UNL     1      -1.840   5.426  -0.914  1.00  0.00     0.109 A   
ATOM     20  C9  UNL     1      -2.846   5.912  -1.710  1.00  0.00     0.108 A   
ATOM     21  O1  UNL     1      -1.025   6.407  -0.448  1.00  0.00    -0.316 OA  
ATOM     22  O2  UNL     1      -2.792   7.263  -1.844  1.00  0.00    -0.316 OA  
ATOM     23  C12 UNL     1      -1.644   7.578  -1.028  1.00  0.00     0.337 C   
ENDBRANCH  14  15
ENDBRANCH  11  14
ENDBRANCH   7  11
ENDBRANCH   1   7
BRANCH   3  24
ATOM     24  C15 UNL     1       1.472  -1.662   2.348  1.00  0.00     0.192 C   
BRANCH  24  25
ATOM     25  C16 UNL     1       2.605  -2.505   1.891  1.00  0.00     0.089 A   
ATOM     26  N3  UNL     1       2.353  -3.657   1.163  1.00  0.00    -0.232 NA  
ATOM     27  C18 UNL     1       3.972  -2.362   2.079  1.00  0.00     0.089 A   
ATOM     28  C17 UNL     1       3.547  -4.154   0.944  1.00  0.00     0.247 A   
ATOM     29  O3  UNL     1       4.571  -3.430   1.461  1.00  0.00    -0.300 OA  
BRANCH  27  30
ATOM     30  C19 UNL     1       4.875  -1.372   2.777  1.00  0.00     0.011 C   
ATOM     31  C20 UNL     1       6.365  -1.702   2.535  1.00  0.00     0.018 C   
ATOM     32  C21 UNL     1       4.614  -1.418   4.295  1.00  0.00     0.018 C   
ATOM     33  C22 UNL     1       4.617   0.053   2.251  1.00  0.00     0.018 C   
ENDBRANCH  27  30
ENDBRANCH  24  25
ENDBRANCH   3  24
TORSDOF 8
