REMARK SMILES CC(C)[C@H]([NH2+]Cc1ccc2c(c1)OCO2)c1cn(Cc2cnccc2Cl)nn1
REMARK SMILES IDX 16 1 17 2 18 3 27 4 28 5 4 7 2 8 1 9 3 10 5 11 6 14 7 15
REMARK SMILES IDX 8 16 12 17 9 18 11 19 10 20 13 21 15 22 14 23 19 24 20 25
REMARK SMILES IDX 21 26 25 27 22 28 24 29 23 30 26 31
REMARK H PARENT 17 6 5 12 5 13
ROOT
ATOM     1   C13 UNL     1      -2.000  -1.629  -0.105  1.00  0.00     0.127 A   
ATOM     2   C14 UNL     1      -0.982  -1.877  -0.999  1.00  0.00     0.046 A   
ATOM     3   N2  UNL     1      -1.424  -1.315  -2.165  1.00  0.00    -0.208 N   
ATOM     4   N4  UNL     1      -2.646  -0.770  -2.004  1.00  0.00    -0.076 NA  
ATOM     5   N5  UNL     1      -3.003  -0.943  -0.744  1.00  0.00    -0.132 NA  
ATOM     6   H18 UNL     1      -0.017  -2.357  -0.914  1.00  0.00     0.083 HD  
ENDROOT
BRANCH   1   7
ATOM     7   C4  UNL     1      -2.130  -1.895   1.360  1.00  0.00     0.117 C   
BRANCH   7   8
ATOM     8   C2  UNL     1      -2.912  -3.189   1.702  1.00  0.00     0.037 C   
ATOM     9   C1  UNL     1      -4.337  -3.238   1.137  1.00  0.00     0.014 C   
ATOM     10  C3  UNL     1      -2.141  -4.440   1.263  1.00  0.00     0.014 C   
ENDBRANCH   7   8
BRANCH   7  11
ATOM     11  N1  UNL     1      -2.833  -0.714   2.007  1.00  0.00     0.249 N   
ATOM     12  H9  UNL     1      -3.544  -1.034   2.671  1.00  0.00     0.199 HD  
ATOM     13  H10 UNL     1      -3.353  -0.246   1.248  1.00  0.00     0.199 HD  
BRANCH  11  14
ATOM     14  C5  UNL     1      -1.966   0.294   2.679  1.00  0.00     0.164 C   
BRANCH  14  15
ATOM     15  C6  UNL     1      -0.877   0.869   1.817  1.00  0.00    -0.002 A   
ATOM     16  C7  UNL     1      -1.184   1.699   0.713  1.00  0.00     0.012 A   
ATOM     17  C11 UNL     1       0.468   0.572   2.101  1.00  0.00     0.045 A   
ATOM     18  C8  UNL     1      -0.171   2.222  -0.100  1.00  0.00     0.037 A   
ATOM     19  C10 UNL     1       1.441   1.105   1.283  1.00  0.00     0.109 A   
ATOM     20  C9  UNL     1       1.133   1.909   0.214  1.00  0.00     0.108 A   
ATOM     21  O1  UNL     1       2.779   0.912   1.421  1.00  0.00    -0.316 OA  
ATOM     22  O2  UNL     1       2.240   2.332  -0.450  1.00  0.00    -0.316 OA  
ATOM     23  C12 UNL     1       3.285   1.720   0.336  1.00  0.00     0.337 C   
ENDBRANCH  14  15
ENDBRANCH  11  14
ENDBRANCH   7  11
ENDBRANCH   1   7
BRANCH   3  24
ATOM     24  C15 UNL     1      -0.764  -1.266  -3.458  1.00  0.00     0.172 C   
BRANCH  24  25
ATOM     25  C16 UNL     1      -0.104   0.063  -3.679  1.00  0.00     0.008 A   
ATOM     26  C17 UNL     1      -0.848   1.122  -4.190  1.00  0.00     0.118 A   
ATOM     27  C20 UNL     1       1.231   0.336  -3.369  1.00  0.00     0.048 A   
ATOM     28  N3  UNL     1      -0.358   2.360  -4.411  1.00  0.00    -0.264 NA  
ATOM     29  C19 UNL     1       1.771   1.597  -3.607  1.00  0.00     0.041 A   
ATOM     30  C18 UNL     1       0.942   2.570  -4.126  1.00  0.00     0.112 A   
ATOM     31  CL1 UNL     1       2.262  -0.859  -2.667  1.00  0.00    -0.084 Cl  
ENDBRANCH  24  25
ENDBRANCH   3  24
TORSDOF 7
