REMARK SMILES CC(C)[C@H]([NH2+]Cc1ccc2c(c1)OCO2)c1cn(Cc2cc(C(F)(F)F)n[nH]2)nn1
REMARK SMILES IDX 16 1 17 2 18 3 29 4 30 5 4 7 2 8 1 9 3 10 5 11 6 14 7 15
REMARK SMILES IDX 8 16 12 17 9 18 11 19 10 20 13 21 15 22 14 23 19 24 20 25
REMARK SMILES IDX 21 26 28 27 22 28 27 29 23 31 24 32 25 33 26 34
REMARK H PARENT 17 6 5 12 5 13 28 30
ROOT
ATOM     1   C13 UNL     1       0.514   1.505  -0.547  1.00  0.00     0.127 A   
ATOM     2   C14 UNL     1      -0.504   1.573   0.378  1.00  0.00     0.046 A   
ATOM     3   N2  UNL     1      -1.640   1.547  -0.381  1.00  0.00    -0.206 N   
ATOM     4   N5  UNL     1      -1.343   1.465  -1.694  1.00  0.00    -0.076 NA  
ATOM     5   N6  UNL     1      -0.026   1.426  -1.806  1.00  0.00    -0.132 NA  
ATOM     6   H18 UNL     1      -0.529   1.625   1.458  1.00  0.00     0.083 HD  
ENDROOT
BRANCH   1   7
ATOM     7   C4  UNL     1       1.998   1.448  -0.382  1.00  0.00     0.117 C   
BRANCH   7   8
ATOM     8   C2  UNL     1       2.700   2.826  -0.508  1.00  0.00     0.037 C   
ATOM     9   C1  UNL     1       2.309   3.764   0.640  1.00  0.00     0.014 C   
ATOM     10  C3  UNL     1       2.469   3.531  -1.851  1.00  0.00     0.014 C   
ENDBRANCH   7   8
BRANCH   7  11
ATOM     11  N1  UNL     1       2.592   0.507  -1.411  1.00  0.00     0.249 N   
ATOM     12  H9  UNL     1       3.462   0.892  -1.792  1.00  0.00     0.199 HD  
ATOM     13  H10 UNL     1       1.925   0.483  -2.199  1.00  0.00     0.199 HD  
BRANCH  11  14
ATOM     14  C5  UNL     1       2.845  -0.889  -0.961  1.00  0.00     0.164 C   
BRANCH  14  15
ATOM     15  C6  UNL     1       1.599  -1.677  -0.670  1.00  0.00    -0.002 A   
ATOM     16  C7  UNL     1       1.187  -1.909   0.664  1.00  0.00     0.012 A   
ATOM     17  C11 UNL     1       0.828  -2.187  -1.729  1.00  0.00     0.045 A   
ATOM     18  C8  UNL     1       0.028  -2.642   0.943  1.00  0.00     0.037 A   
ATOM     19  C10 UNL     1      -0.301  -2.918  -1.419  1.00  0.00     0.109 A   
ATOM     20  C9  UNL     1      -0.690  -3.139  -0.122  1.00  0.00     0.108 A   
ATOM     21  O1  UNL     1      -1.130  -3.507  -2.319  1.00  0.00    -0.316 OA  
ATOM     22  O2  UNL     1      -1.816  -3.893  -0.040  1.00  0.00    -0.316 OA  
ATOM     23  C12 UNL     1      -2.057  -4.181  -1.436  1.00  0.00     0.337 C   
ENDBRANCH  14  15
ENDBRANCH  11  14
ENDBRANCH   7  11
ENDBRANCH   1   7
BRANCH   3  24
ATOM     24  C15 UNL     1      -3.025   1.585   0.062  1.00  0.00     0.186 C   
BRANCH  24  25
ATOM     25  C16 UNL     1      -3.617   0.223   0.049  1.00  0.00     0.047 A   
ATOM     26  C17 UNL     1      -4.021  -0.625   1.057  1.00  0.00     0.057 A   
ATOM     27  N4  UNL     1      -3.870  -0.445  -1.119  1.00  0.00    -0.240 N   
ATOM     28  C18 UNL     1      -4.505  -1.792   0.405  1.00  0.00     0.164 A   
ATOM     29  N3  UNL     1      -4.414  -1.655  -0.933  1.00  0.00    -0.179 NA  
ATOM     30  H22 UNL     1      -3.687  -0.140  -2.072  1.00  0.00     0.175 HD  
BRANCH  28  31
ATOM     31  C19 UNL     1      -5.053  -3.029   1.074  1.00  0.00     0.434 C   
ATOM     32  F1  UNL     1      -6.384  -2.919   1.323  1.00  0.00    -0.164 F   
ATOM     33  F2  UNL     1      -4.875  -4.160   0.343  1.00  0.00    -0.164 F   
ATOM     34  F3  UNL     1      -4.453  -3.245   2.278  1.00  0.00    -0.164 F   
ENDBRANCH  28  31
ENDBRANCH  24  25
ENDBRANCH   3  24
TORSDOF 8
