REMARK SMILES CC(C)[C@H]([NH2+]Cc1ccc2c(c1)OCO2)c1cn(Cc2ccccc2N)nn1
REMARK SMILES IDX 16 1 17 2 18 3 27 4 28 5 4 7 2 8 1 9 3 10 5 11 6 14 7 15
REMARK SMILES IDX 8 16 12 17 9 18 11 19 10 20 13 21 15 22 14 23 19 24 20 25
REMARK SMILES IDX 21 26 25 27 22 28 24 29 23 30 26 31
REMARK H PARENT 17 6 5 12 5 13 26 32 26 33
ROOT
ATOM     1   C13 UNL     1      -0.064   0.789  -0.536  1.00  0.00     0.127 A   
ATOM     2   C14 UNL     1      -1.073   1.713  -0.681  1.00  0.00     0.046 A   
ATOM     3   N2  UNL     1      -1.969   1.099  -1.513  1.00  0.00    -0.208 N   
ATOM     4   N4  UNL     1      -1.526  -0.123  -1.875  1.00  0.00    -0.076 NA  
ATOM     5   N5  UNL     1      -0.360  -0.323  -1.284  1.00  0.00    -0.132 NA  
ATOM     6   H18 UNL     1      -1.251   2.700  -0.277  1.00  0.00     0.083 HD  
ENDROOT
BRANCH   1   7
ATOM     7   C4  UNL     1       1.183   0.813   0.287  1.00  0.00     0.117 C   
BRANCH   7   8
ATOM     8   C2  UNL     1       2.325   1.603  -0.403  1.00  0.00     0.037 C   
ATOM     9   C1  UNL     1       2.875   0.928  -1.665  1.00  0.00     0.014 C   
ATOM     10  C3  UNL     1       3.476   1.900   0.566  1.00  0.00     0.014 C   
ENDBRANCH   7   8
BRANCH   7  11
ATOM     11  N1  UNL     1       1.631  -0.590   0.597  1.00  0.00     0.249 N   
ATOM     12  H9  UNL     1       2.617  -0.632   0.871  1.00  0.00     0.199 HD  
ATOM     13  H10 UNL     1       1.549  -1.124  -0.281  1.00  0.00     0.199 HD  
BRANCH  11  14
ATOM     14  C5  UNL     1       0.812  -1.307   1.615  1.00  0.00     0.164 C   
BRANCH  14  15
ATOM     15  C6  UNL     1       1.314  -2.712   1.793  1.00  0.00    -0.002 A   
ATOM     16  C7  UNL     1       2.206  -3.030   2.844  1.00  0.00     0.012 A   
ATOM     17  C11 UNL     1       0.936  -3.711   0.878  1.00  0.00     0.045 A   
ATOM     18  C8  UNL     1       2.710  -4.327   2.990  1.00  0.00     0.037 A   
ATOM     19  C10 UNL     1       1.454  -4.978   1.049  1.00  0.00     0.109 A   
ATOM     20  C9  UNL     1       2.315  -5.278   2.075  1.00  0.00     0.108 A   
ATOM     21  O1  UNL     1       1.196  -6.051   0.257  1.00  0.00    -0.316 OA  
ATOM     22  O2  UNL     1       2.704  -6.579   2.061  1.00  0.00    -0.316 OA  
ATOM     23  C12 UNL     1       1.979  -7.073   0.914  1.00  0.00     0.337 C   
ENDBRANCH  14  15
ENDBRANCH  11  14
ENDBRANCH   7  11
ENDBRANCH   1   7
BRANCH   3  24
ATOM     24  C15 UNL     1      -3.235   1.609  -2.011  1.00  0.00     0.171 C   
BRANCH  24  25
ATOM     25  C16 UNL     1      -4.306   1.520  -0.952  1.00  0.00    -0.008 A   
ATOM     26  C17 UNL     1      -5.041   0.327  -0.823  1.00  0.00     0.007 A   
ATOM     27  C21 UNL     1      -4.548   2.577  -0.057  1.00  0.00     0.028 A   
ATOM     28  C18 UNL     1      -6.033   0.203   0.149  1.00  0.00     0.000 A   
ATOM     29  C20 UNL     1      -5.577   2.455   0.886  1.00  0.00     0.023 A   
ATOM     30  C19 UNL     1      -6.306   1.270   0.999  1.00  0.00     0.002 A   
BRANCH  27  31
ATOM     31  N3  UNL     1      -3.915   3.826  -0.232  1.00  0.00    -0.358 N   
ATOM     32  H25 UNL     1      -4.387   4.344  -0.976  1.00  0.00     0.143 HD  
ATOM     33  H26 UNL     1      -3.980   4.394   0.613  1.00  0.00     0.143 HD  
ENDBRANCH  27  31
ENDBRANCH  24  25
ENDBRANCH   3  24
TORSDOF 8
