REMARK SMILES c1cc2c(cc1C[NH2+][C@H](c1cn(Cc3n[nH]c4c3CCC4)nn1)C1CCCCC1)OCO2
REMARK SMILES IDX 10 1 11 2 12 3 22 4 23 5 9 7 8 8 7 11 6 12 1 13 2 14 3 15
REMARK SMILES IDX 5 16 4 17 32 18 30 19 31 20 24 21 25 22 29 23 26 24 28 25
REMARK SMILES IDX 27 26 13 27 14 28 15 29 18 30 16 31 17 32 19 33 21 34 20 35
REMARK H PARENT 11 6 8 9 8 10 16 36
ROOT
ATOM     1   C9  UNL     1      -1.003   0.333   0.125  1.00  0.00     0.127 A   
ATOM     2   C10 UNL     1      -0.579  -0.953   0.367  1.00  0.00     0.046 A   
ATOM     3   N2  UNL     1      -0.148  -1.402  -0.854  1.00  0.00    -0.206 N   
ATOM     4   N5  UNL     1      -0.254  -0.426  -1.781  1.00  0.00    -0.076 NA  
ATOM     5   N6  UNL     1      -0.787   0.634  -1.197  1.00  0.00    -0.132 NA  
ATOM     6   H9  UNL     1      -0.553  -1.587   1.245  1.00  0.00     0.083 HD  
ENDROOT
BRANCH   1   7
ATOM     7   C8  UNL     1      -1.572   1.376   1.033  1.00  0.00     0.117 C   
BRANCH   7   8
ATOM     8   N1  UNL     1      -1.290   2.758   0.487  1.00  0.00     0.249 N   
ATOM     9   H6  UNL     1      -1.455   2.716  -0.531  1.00  0.00     0.199 HD  
ATOM     10  H7  UNL     1      -1.958   3.438   0.863  1.00  0.00     0.199 HD  
BRANCH   8  11
ATOM     11  C7  UNL     1       0.104   3.248   0.681  1.00  0.00     0.164 C   
BRANCH  11  12
ATOM     12  C6  UNL     1       0.300   4.612   0.080  1.00  0.00    -0.002 A   
ATOM     13  C1  UNL     1       1.228   4.792  -0.975  1.00  0.00     0.012 A   
ATOM     14  C2  UNL     1       1.446   6.054  -1.542  1.00  0.00     0.037 A   
ATOM     15  C3  UNL     1       0.711   7.114  -1.054  1.00  0.00     0.108 A   
ATOM     16  C5  UNL     1      -0.436   5.720   0.544  1.00  0.00     0.045 A   
ATOM     17  C4  UNL     1      -0.212   6.947  -0.050  1.00  0.00     0.109 A   
ATOM     18  O2  UNL     1       0.800   8.402  -1.466  1.00  0.00    -0.316 OA  
ATOM     19  O1  UNL     1      -0.844   8.107   0.277  1.00  0.00    -0.316 OA  
ATOM     20  C24 UNL     1      -0.225   9.024  -0.656  1.00  0.00     0.337 C   
ENDBRANCH  11  12
ENDBRANCH   8  11
ENDBRANCH   7   8
BRANCH   7  21
ATOM     21  C18 UNL     1      -3.103   1.263   1.265  1.00  0.00     0.043 C   
ATOM     22  C19 UNL     1      -3.945   1.308  -0.028  1.00  0.00     0.010 C   
ATOM     23  C23 UNL     1      -3.473   0.012   2.087  1.00  0.00     0.010 C   
ATOM     24  C20 UNL     1      -5.441   1.272   0.283  1.00  0.00     0.001 C   
ATOM     25  C22 UNL     1      -4.968  -0.015   2.405  1.00  0.00     0.001 C   
ATOM     26  C21 UNL     1      -5.818   0.070   1.140  1.00  0.00     0.000 C   
ENDBRANCH   7  21
ENDBRANCH   1   7
BRANCH   3  27
ATOM     27  C11 UNL     1       0.297  -2.735  -1.220  1.00  0.00     0.192 C   
BRANCH  27  28
ATOM     28  C12 UNL     1       1.693  -2.965  -0.768  1.00  0.00     0.083 A   
ATOM     29  N3  UNL     1       1.948  -3.517   0.441  1.00  0.00    -0.187 NA  
ATOM     30  C14 UNL     1       2.885  -2.737  -1.461  1.00  0.00    -0.004 A   
ATOM     31  N4  UNL     1       3.297  -3.680   0.470  1.00  0.00    -0.242 N   
ATOM     32  C13 UNL     1       3.871  -3.205  -0.651  1.00  0.00     0.030 A   
ATOM     33  C15 UNL     1       3.428  -2.222  -2.732  1.00  0.00     0.039 C   
ATOM     34  C17 UNL     1       5.232  -3.122  -1.195  1.00  0.00     0.054 C   
ATOM     35  C16 UNL     1       4.970  -2.172  -2.421  1.00  0.00     0.011 C   
ATOM     36  H12 UNL     1       3.721  -4.130   1.279  1.00  0.00     0.175 HD  
ENDBRANCH  27  28
ENDBRANCH   3  27
TORSDOF 7
