REMARK SMILES CC(C)(C)[C@H]([NH2+]Cc1ccc2c(c1)OCO2)c1cn(CCc2cccc(Cl)n2)nn1
REMARK SMILES IDX 17 1 18 2 19 3 29 4 30 5 5 7 2 8 1 9 3 10 4 11 6 12 7 15
REMARK SMILES IDX 8 16 9 17 13 18 10 19 12 20 11 21 14 22 16 23 15 24 20 25
REMARK SMILES IDX 21 26 22 27 23 28 28 29 24 30 26 31 25 32 27 33
REMARK H PARENT 18 6 6 13 6 14
ROOT
ATOM     1   C14 UNL     1       0.479  -1.940   0.395  1.00  0.00     0.127 A   
ATOM     2   C15 UNL     1       1.420  -1.733   1.377  1.00  0.00     0.045 A   
ATOM     3   N2  UNL     1       2.445  -1.113   0.721  1.00  0.00    -0.212 N   
ATOM     4   N4  UNL     1       2.190  -1.021  -0.598  1.00  0.00    -0.076 NA  
ATOM     5   N5  UNL     1       0.978  -1.508  -0.808  1.00  0.00    -0.132 NA  
ATOM     6   H20 UNL     1       1.427  -1.885   2.447  1.00  0.00     0.083 HD  
ENDROOT
BRANCH   1   7
ATOM     7   C5  UNL     1      -0.942  -2.400   0.485  1.00  0.00     0.120 C   
BRANCH   7   8
ATOM     8   C2  UNL     1      -1.157  -3.910   0.125  1.00  0.00     0.010 C   
ATOM     9   C1  UNL     1      -0.267  -4.800   1.022  1.00  0.00     0.017 C   
ATOM     10  C3  UNL     1      -2.623  -4.321   0.397  1.00  0.00     0.017 C   
ATOM     11  C4  UNL     1      -0.833  -4.227  -1.348  1.00  0.00     0.017 C   
ENDBRANCH   7   8
BRANCH   7  12
ATOM     12  N1  UNL     1      -1.781  -1.515  -0.407  1.00  0.00     0.250 N   
ATOM     13  H11 UNL     1      -1.273  -1.434  -1.301  1.00  0.00     0.199 HD  
ATOM     14  H12 UNL     1      -2.691  -1.926  -0.626  1.00  0.00     0.199 HD  
BRANCH  12  15
ATOM     15  C6  UNL     1      -1.988  -0.128   0.101  1.00  0.00     0.164 C   
BRANCH  15  16
ATOM     16  C7  UNL     1      -2.772   0.680  -0.895  1.00  0.00    -0.002 A   
ATOM     17  C8  UNL     1      -2.099   1.396  -1.914  1.00  0.00     0.012 A   
ATOM     18  C12 UNL     1      -4.176   0.682  -0.857  1.00  0.00     0.045 A   
ATOM     19  C9  UNL     1      -2.813   2.119  -2.876  1.00  0.00     0.037 A   
ATOM     20  C11 UNL     1      -4.849   1.402  -1.823  1.00  0.00     0.109 A   
ATOM     21  C10 UNL     1      -4.188   2.101  -2.802  1.00  0.00     0.108 A   
ATOM     22  O1  UNL     1      -6.200   1.505  -1.933  1.00  0.00    -0.316 OA  
ATOM     23  O2  UNL     1      -5.039   2.737  -3.649  1.00  0.00    -0.316 OA  
ATOM     24  C13 UNL     1      -6.316   2.373  -3.083  1.00  0.00     0.337 C   
ENDBRANCH  15  16
ENDBRANCH  12  15
ENDBRANCH   7  12
ENDBRANCH   1   7
BRANCH   3  25
ATOM     25  C16 UNL     1       3.662  -0.563   1.280  1.00  0.00     0.140 C   
BRANCH  25  26
ATOM     26  C17 UNL     1       3.757   0.961   1.175  1.00  0.00     0.077 C   
BRANCH  26  27
ATOM     27  C18 UNL     1       2.840   1.714   2.113  1.00  0.00     0.044 A   
ATOM     28  C19 UNL     1       3.244   2.939   2.643  1.00  0.00     0.024 A   
ATOM     29  N3  UNL     1       1.611   1.199   2.355  1.00  0.00    -0.241 NA  
ATOM     30  C20 UNL     1       2.373   3.642   3.475  1.00  0.00     0.005 A   
ATOM     31  C22 UNL     1       0.794   1.907   3.165  1.00  0.00     0.129 A   
ATOM     32  C21 UNL     1       1.117   3.115   3.749  1.00  0.00     0.041 A   
ATOM     33  CL1 UNL     1      -0.740   1.176   3.410  1.00  0.00    -0.062 Cl  
ENDBRANCH  26  27
ENDBRANCH  25  26
ENDBRANCH   3  25
TORSDOF 8
