REMARK SMILES Cc1ccc(O)c(Cn2cc([C@H](CC(C)C)[NH2+]Cc3ccc4c(c3)OCO4)nn2)c1
REMARK SMILES IDX 9 1 10 2 11 3 28 4 29 5 8 7 7 8 2 9 3 10 30 11 4 12 5 13
REMARK SMILES IDX 1 14 6 15 12 17 13 18 14 19 15 20 16 21 17 22 18 25 19 26
REMARK SMILES IDX 20 27 24 28 21 29 23 30 22 31 25 32 27 33 26 34
REMARK H PARENT 10 6 6 16 17 23 17 24
ROOT
ATOM     1   N1  UNL     1      -1.292  -2.692   0.871  1.00  0.00    -0.208 N   
ATOM     2   C8  UNL     1      -1.383  -1.741  -0.108  1.00  0.00     0.046 A   
ATOM     3   C9  UNL     1      -0.789  -2.327  -1.202  1.00  0.00     0.127 A   
ATOM     4   N3  UNL     1      -0.360  -3.584  -0.862  1.00  0.00    -0.132 NA  
ATOM     5   N4  UNL     1      -0.658  -3.792   0.410  1.00  0.00    -0.076 NA  
ATOM     6   H9  UNL     1      -1.834  -0.774   0.068  1.00  0.00     0.083 HD  
ENDROOT
BRANCH   1   7
ATOM     7   C7  UNL     1      -1.789  -2.635   2.235  1.00  0.00     0.172 C   
BRANCH   7   8
ATOM     8   C6  UNL     1      -1.069  -1.580   3.037  1.00  0.00     0.002 A   
ATOM     9   C2  UNL     1       0.841  -0.909   4.407  1.00  0.00    -0.051 A   
ATOM     10  C3  UNL     1       0.286   0.370   4.537  1.00  0.00     0.006 A   
ATOM     11  C23 UNL     1       0.155  -1.879   3.661  1.00  0.00     0.011 A   
ATOM     12  C4  UNL     1      -0.923   0.686   3.912  1.00  0.00     0.034 A   
ATOM     13  C5  UNL     1      -1.587  -0.286   3.168  1.00  0.00     0.076 A   
ATOM     14  C1  UNL     1       2.117  -1.261   5.119  1.00  0.00     0.044 C   
BRANCH  13  15
ATOM     15  O1  UNL     1      -2.769   0.015   2.550  1.00  0.00    -0.361 OA  
ATOM     16  H6  UNL     1      -3.091   0.869   2.892  1.00  0.00     0.218 HD  
ENDBRANCH  13  15
ENDBRANCH   7   8
ENDBRANCH   1   7
BRANCH   3  17
ATOM     17  C10 UNL     1      -0.515  -1.798  -2.568  1.00  0.00     0.114 C   
BRANCH  17  18
ATOM     18  C11 UNL     1      -1.600  -2.199  -3.587  1.00  0.00     0.064 C   
BRANCH  18  19
ATOM     19  C12 UNL     1      -3.006  -1.621  -3.312  1.00  0.00    -0.012 C   
ATOM     20  C13 UNL     1      -3.988  -2.141  -4.367  1.00  0.00     0.007 C   
ATOM     21  C14 UNL     1      -3.022  -0.091  -3.305  1.00  0.00     0.007 C   
ENDBRANCH  18  19
ENDBRANCH  17  18
BRANCH  17  22
ATOM     22  N2  UNL     1       0.798  -2.355  -3.085  1.00  0.00     0.249 N   
ATOM     23  H20 UNL     1       0.894  -2.160  -4.085  1.00  0.00     0.199 HD  
ATOM     24  H21 UNL     1       0.736  -3.377  -2.973  1.00  0.00     0.199 HD  
BRANCH  22  25
ATOM     25  C15 UNL     1       2.034  -1.907  -2.377  1.00  0.00     0.164 C   
BRANCH  25  26
ATOM     26  C16 UNL     1       2.308  -0.439  -2.548  1.00  0.00    -0.002 A   
ATOM     27  C17 UNL     1       2.805   0.061  -3.776  1.00  0.00     0.012 A   
ATOM     28  C21 UNL     1       2.038   0.455  -1.496  1.00  0.00     0.045 A   
ATOM     29  C18 UNL     1       3.026   1.432  -3.958  1.00  0.00     0.037 A   
ATOM     30  C20 UNL     1       2.268   1.798  -1.708  1.00  0.00     0.109 A   
ATOM     31  C19 UNL     1       2.745   2.274  -2.905  1.00  0.00     0.108 A   
ATOM     32  O2  UNL     1       2.055   2.790  -0.804  1.00  0.00    -0.316 OA  
ATOM     33  O3  UNL     1       2.898   3.624  -2.903  1.00  0.00    -0.316 OA  
ATOM     34  C22 UNL     1       2.500   3.944  -1.552  1.00  0.00     0.337 C   
ENDBRANCH  25  26
ENDBRANCH  22  25
ENDBRANCH  17  22
ENDBRANCH   3  17
TORSDOF 9
