REMARK SMILES Cc1cnn(C)c1CCn1cc([C@@H]([NH2+]Cc2ccc3c(c2)OCO3)C2CCCC2)nn1
REMARK SMILES IDX 10 1 11 2 12 3 30 4 31 5 9 7 8 8 7 9 2 10 3 11 4 12 5 13
REMARK SMILES IDX 1 14 6 15 13 16 14 17 15 20 16 21 17 22 21 23 18 24 20 25
REMARK SMILES IDX 19 26 22 27 24 28 23 29 25 30 26 31 29 32 27 33 28 34
REMARK H PARENT 11 6 14 18 14 19
ROOT
ATOM     1   N3  UNL     1      -0.629   1.867   2.158  1.00  0.00    -0.212 N   
ATOM     2   C8  UNL     1       0.263   1.670   1.138  1.00  0.00     0.045 A   
ATOM     3   C9  UNL     1       0.730   0.390   1.349  1.00  0.00     0.127 A   
ATOM     4   N5  UNL     1       0.239  -0.067   2.546  1.00  0.00    -0.132 NA  
ATOM     5   N6  UNL     1      -0.585   0.848   3.035  1.00  0.00    -0.076 NA  
ATOM     6   H12 UNL     1       0.353   2.365   0.315  1.00  0.00     0.083 HD  
ENDROOT
BRANCH   1   7
ATOM     7   C7  UNL     1      -1.746   2.794   2.148  1.00  0.00     0.140 C   
BRANCH   7   8
ATOM     8   C6  UNL     1      -3.054   2.143   1.656  1.00  0.00     0.075 C   
BRANCH   8   9
ATOM     9   C5  UNL     1      -2.839   1.300   0.429  1.00  0.00     0.034 A   
ATOM     10  C2  UNL     1      -2.627   1.651  -0.895  1.00  0.00    -0.012 A   
ATOM     11  C3  UNL     1      -2.196   0.451  -1.506  1.00  0.00     0.136 A   
ATOM     12  N1  UNL     1      -2.087  -0.557  -0.631  1.00  0.00    -0.190 NA  
ATOM     13  N2  UNL     1      -2.743  -0.072   0.455  1.00  0.00    -0.232 N   
ATOM     14  C1  UNL     1      -2.745   2.989  -1.524  1.00  0.00     0.048 C   
ATOM     15  C4  UNL     1      -3.171  -0.986   1.489  1.00  0.00     0.159 C   
ENDBRANCH   8   9
ENDBRANCH   7   8
ENDBRANCH   1   7
BRANCH   3  16
ATOM     16  C10 UNL     1       1.485  -0.539   0.449  1.00  0.00     0.117 C   
BRANCH  16  17
ATOM     17  N4  UNL     1       0.531  -1.549  -0.150  1.00  0.00     0.249 N   
ATOM     18  H14 UNL     1      -0.427  -1.135  -0.213  1.00  0.00     0.199 HD  
ATOM     19  H15 UNL     1       0.751  -1.757  -1.125  1.00  0.00     0.199 HD  
BRANCH  17  20
ATOM     20  C11 UNL     1       0.425  -2.823   0.610  1.00  0.00     0.164 C   
BRANCH  20  21
ATOM     21  C12 UNL     1      -0.468  -3.824  -0.071  1.00  0.00    -0.002 A   
ATOM     22  C13 UNL     1      -1.636  -4.292   0.578  1.00  0.00     0.012 A   
ATOM     23  C17 UNL     1      -0.147  -4.318  -1.348  1.00  0.00     0.045 A   
ATOM     24  C14 UNL     1      -2.485  -5.217  -0.039  1.00  0.00     0.037 A   
ATOM     25  C16 UNL     1      -1.008  -5.224  -1.932  1.00  0.00     0.109 A   
ATOM     26  C15 UNL     1      -2.144  -5.660  -1.297  1.00  0.00     0.108 A   
ATOM     27  O1  UNL     1      -0.851  -5.784  -3.161  1.00  0.00    -0.316 OA  
ATOM     28  O2  UNL     1      -2.845  -6.553  -2.043  1.00  0.00    -0.316 OA  
ATOM     29  C18 UNL     1      -2.024  -6.626  -3.229  1.00  0.00     0.337 C   
ENDBRANCH  20  21
ENDBRANCH  17  20
ENDBRANCH  16  17
BRANCH  16  30
ATOM     30  C19 UNL     1       2.256   0.159  -0.690  1.00  0.00     0.043 C   
ATOM     31  C20 UNL     1       3.369   1.086  -0.187  1.00  0.00     0.010 C   
ATOM     32  C23 UNL     1       3.039  -0.799  -1.602  1.00  0.00     0.010 C   
ATOM     33  C21 UNL     1       4.209   1.339  -1.430  1.00  0.00     0.001 C   
ATOM     34  C22 UNL     1       4.163   0.034  -2.216  1.00  0.00     0.001 C   
ENDBRANCH  16  30
ENDBRANCH   3  16
TORSDOF 8
