REMARK SMILES Cc1ccc(C)c([C@@H](CO)n2cc([C@@H]([NH2+]Cc3ccc4c(c3)OCO4)C(C)(C)C)nn2)c1
REMARK SMILES IDX 11 1 12 2 13 3 30 4 31 5 8 7 7 8 2 9 3 10 32 11 4 12 5 13
REMARK SMILES IDX 1 14 6 15 9 16 10 17 14 19 15 20 16 23 17 24 18 25 22 26
REMARK SMILES IDX 19 27 21 28 20 29 23 30 25 31 24 32 26 33 27 34 28 35 29 36
REMARK H PARENT 12 6 10 18 15 21 15 22
ROOT
ATOM     1   N1  UNL     1      -1.614  -0.958   0.958  1.00  0.00    -0.202 N   
ATOM     2   C10 UNL     1      -0.703  -0.213   1.659  1.00  0.00     0.046 A   
ATOM     3   C11 UNL     1      -0.906   1.074   1.220  1.00  0.00     0.127 A   
ATOM     4   N3  UNL     1      -1.892   1.073   0.268  1.00  0.00    -0.132 NA  
ATOM     5   N4  UNL     1      -2.320  -0.169   0.118  1.00  0.00    -0.075 NA  
ATOM     6   H13 UNL     1      -0.033  -0.657   2.382  1.00  0.00     0.083 HD  
ENDROOT
BRANCH   1   7
ATOM     7   C8  UNL     1      -1.862  -2.399   1.000  1.00  0.00     0.155 C   
BRANCH   7   8
ATOM     8   C7  UNL     1      -0.607  -3.175   0.594  1.00  0.00    -0.020 A   
ATOM     9   C2  UNL     1       1.504  -4.269   1.223  1.00  0.00    -0.051 A   
ATOM     10  C3  UNL     1       1.733  -4.590  -0.113  1.00  0.00     0.004 A   
ATOM     11  C25 UNL     1       0.334  -3.576   1.565  1.00  0.00     0.009 A   
ATOM     12  C4  UNL     1       0.823  -4.201  -1.094  1.00  0.00     0.004 A   
ATOM     13  C5  UNL     1      -0.341  -3.488  -0.763  1.00  0.00    -0.046 A   
ATOM     14  C1  UNL     1       2.460  -4.719   2.288  1.00  0.00     0.044 C   
ATOM     15  C6  UNL     1      -1.282  -3.118  -1.882  1.00  0.00     0.045 C   
ENDBRANCH   7   8
BRANCH   7  16
ATOM     16  C9  UNL     1      -2.555  -2.825   2.315  1.00  0.00     0.185 C   
BRANCH  16  17
ATOM     17  O1  UNL     1      -1.853  -2.427   3.493  1.00  0.00    -0.394 OA  
ATOM     18  H12 UNL     1      -2.340  -2.802   4.251  1.00  0.00     0.210 HD  
ENDBRANCH  16  17
ENDBRANCH   7  16
ENDBRANCH   1   7
BRANCH   3  19
ATOM     19  C12 UNL     1      -0.200   2.355   1.547  1.00  0.00     0.120 C   
BRANCH  19  20
ATOM     20  N2  UNL     1      -0.117   3.175   0.279  1.00  0.00     0.250 N   
ATOM     21  H15 UNL     1      -0.004   4.176   0.453  1.00  0.00     0.199 HD  
ATOM     22  H16 UNL     1      -1.032   3.070  -0.188  1.00  0.00     0.199 HD  
BRANCH  20  23
ATOM     23  C13 UNL     1       0.921   2.728  -0.692  1.00  0.00     0.164 C   
BRANCH  23  24
ATOM     24  C14 UNL     1       0.744   3.424  -2.011  1.00  0.00    -0.002 A   
ATOM     25  C15 UNL     1       1.400   4.649  -2.275  1.00  0.00     0.012 A   
ATOM     26  C19 UNL     1      -0.123   2.878  -2.974  1.00  0.00     0.045 A   
ATOM     27  C16 UNL     1       1.208   5.317  -3.490  1.00  0.00     0.037 A   
ATOM     28  C18 UNL     1      -0.286   3.559  -4.162  1.00  0.00     0.109 A   
ATOM     29  C17 UNL     1       0.359   4.745  -4.413  1.00  0.00     0.108 A   
ATOM     30  O2  UNL     1      -1.074   3.167  -5.197  1.00  0.00    -0.316 OA  
ATOM     31  O3  UNL     1       0.057   5.250  -5.637  1.00  0.00    -0.316 OA  
ATOM     32  C20 UNL     1      -0.823   4.225  -6.149  1.00  0.00     0.337 C   
ENDBRANCH  23  24
ENDBRANCH  20  23
ENDBRANCH  19  20
BRANCH  19  33
ATOM     33  C21 UNL     1      -0.869   3.186   2.696  1.00  0.00     0.010 C   
ATOM     34  C22 UNL     1      -2.276   3.693   2.322  1.00  0.00     0.017 C   
ATOM     35  C23 UNL     1      -0.986   2.327   3.976  1.00  0.00     0.017 C   
ATOM     36  C24 UNL     1       0.009   4.407   3.054  1.00  0.00     0.017 C   
ENDBRANCH  19  33
ENDBRANCH   3  19
TORSDOF 9
