REMARK SMILES Cc1ccc(C)c([C@H](CO)n2cc([C@@H]([NH2+]Cc3ccc4c(c3)OCO4)C(C)(C)C)nn2)c1
REMARK SMILES IDX 11 1 12 2 13 3 30 4 31 5 8 7 7 8 2 9 3 10 32 11 4 12 5 13
REMARK SMILES IDX 1 14 6 15 9 16 10 17 14 19 15 20 16 23 17 24 18 25 22 26
REMARK SMILES IDX 19 27 21 28 20 29 23 30 25 31 24 32 26 33 27 34 28 35 29 36
REMARK H PARENT 12 6 10 18 15 21 15 22
ROOT
ATOM     1   N1  UNL     1       2.476  -1.313   0.798  1.00  0.00    -0.202 N   
ATOM     2   C10 UNL     1       1.163  -1.633   0.566  1.00  0.00     0.046 A   
ATOM     3   C11 UNL     1       0.572  -1.577   1.810  1.00  0.00     0.127 A   
ATOM     4   N3  UNL     1       1.516  -1.224   2.734  1.00  0.00    -0.132 NA  
ATOM     5   N4  UNL     1       2.674  -1.069   2.109  1.00  0.00    -0.075 NA  
ATOM     6   H13 UNL     1       0.802  -1.848  -0.429  1.00  0.00     0.083 HD  
ENDROOT
BRANCH   1   7
ATOM     7   C8  UNL     1       3.564  -1.143  -0.166  1.00  0.00     0.155 C   
BRANCH   7   8
ATOM     8   C7  UNL     1       3.135  -0.188  -1.288  1.00  0.00    -0.020 A   
ATOM     9   C2  UNL     1       2.208   0.167  -3.537  1.00  0.00    -0.051 A   
ATOM     10  C3  UNL     1       2.243   1.544  -3.335  1.00  0.00     0.004 A   
ATOM     11  C25 UNL     1       2.639  -0.685  -2.511  1.00  0.00     0.009 A   
ATOM     12  C4  UNL     1       2.723   2.062  -2.135  1.00  0.00     0.004 A   
ATOM     13  C5  UNL     1       3.175   1.217  -1.107  1.00  0.00    -0.046 A   
ATOM     14  C1  UNL     1       1.665  -0.396  -4.819  1.00  0.00     0.044 C   
ATOM     15  C6  UNL     1       3.704   1.861   0.150  1.00  0.00     0.045 C   
ENDBRANCH   7   8
BRANCH   7  16
ATOM     16  C9  UNL     1       4.154  -2.510  -0.578  1.00  0.00     0.185 C   
BRANCH  16  17
ATOM     17  O1  UNL     1       3.179  -3.418  -1.097  1.00  0.00    -0.394 OA  
ATOM     18  H12 UNL     1       3.654  -4.245  -1.310  1.00  0.00     0.210 HD  
ENDBRANCH  16  17
ENDBRANCH   7  16
ENDBRANCH   1   7
BRANCH   3  19
ATOM     19  C12 UNL     1      -0.861  -1.712   2.226  1.00  0.00     0.120 C   
BRANCH  19  20
ATOM     20  N2  UNL     1      -1.710  -0.690   1.508  1.00  0.00     0.250 N   
ATOM     21  H15 UNL     1      -1.584  -0.796   0.496  1.00  0.00     0.199 HD  
ATOM     22  H16 UNL     1      -2.703  -0.848   1.694  1.00  0.00     0.199 HD  
BRANCH  20  23
ATOM     23  C13 UNL     1      -1.405   0.731   1.861  1.00  0.00     0.164 C   
BRANCH  23  24
ATOM     24  C14 UNL     1      -2.345   1.654   1.138  1.00  0.00    -0.002 A   
ATOM     25  C15 UNL     1      -3.581   2.023   1.723  1.00  0.00     0.012 A   
ATOM     26  C19 UNL     1      -2.029   2.111  -0.153  1.00  0.00     0.045 A   
ATOM     27  C16 UNL     1      -4.484   2.844   1.037  1.00  0.00     0.037 A   
ATOM     28  C18 UNL     1      -2.938   2.927  -0.798  1.00  0.00     0.109 A   
ATOM     29  C17 UNL     1      -4.131   3.282  -0.222  1.00  0.00     0.108 A   
ATOM     30  O2  UNL     1      -2.778   3.470  -2.036  1.00  0.00    -0.316 OA  
ATOM     31  O3  UNL     1      -4.876   4.084  -1.028  1.00  0.00    -0.316 OA  
ATOM     32  C20 UNL     1      -4.002   4.228  -2.167  1.00  0.00     0.337 C   
ENDBRANCH  23  24
ENDBRANCH  20  23
ENDBRANCH  19  20
BRANCH  19  33
ATOM     33  C21 UNL     1      -1.470  -3.149   2.076  1.00  0.00     0.010 C   
ATOM     34  C22 UNL     1      -0.566  -4.179   2.789  1.00  0.00     0.017 C   
ATOM     35  C23 UNL     1      -1.647  -3.587   0.609  1.00  0.00     0.017 C   
ATOM     36  C24 UNL     1      -2.858  -3.214   2.761  1.00  0.00     0.017 C   
ENDBRANCH  19  33
ENDBRANCH   3  19
TORSDOF 9
