REMARK SMILES Cn1ccc2ccc(Cn3cc([C@@H]([NH2+]Cc4ccc5c(c4)OCO5)C4CCCC4)nn3)cc21
REMARK SMILES IDX 10 1 11 2 12 3 30 4 31 5 9 7 8 8 2 9 3 10 33 11 4 12 5 13
REMARK SMILES IDX 32 14 6 15 7 16 1 17 13 18 14 19 15 22 16 23 17 24 21 25
REMARK SMILES IDX 18 26 20 27 19 28 22 29 24 30 23 31 25 32 26 33 29 34 27 35
REMARK SMILES IDX 28 36
REMARK H PARENT 11 6 14 20 14 21
ROOT
ATOM     1   N2  UNL     1      -0.370  -0.881  -2.269  1.00  0.00    -0.208 N   
ATOM     2   C9  UNL     1      -0.485   0.417  -1.852  1.00  0.00     0.046 A   
ATOM     3   C10 UNL     1       0.747   0.969  -2.125  1.00  0.00     0.127 A   
ATOM     4   N4  UNL     1       1.559   0.008  -2.669  1.00  0.00    -0.132 NA  
ATOM     5   N5  UNL     1       0.865  -1.116  -2.756  1.00  0.00    -0.076 NA  
ATOM     6   H10 UNL     1      -1.400   0.805  -1.430  1.00  0.00     0.083 HD  
ENDROOT
BRANCH   1   7
ATOM     7   C8  UNL     1      -1.403  -1.902  -2.325  1.00  0.00     0.169 C   
BRANCH   7   8
ATOM     8   C7  UNL     1      -1.675  -2.492  -0.964  1.00  0.00    -0.027 A   
ATOM     9   N1  UNL     1      -0.327  -4.814   1.658  1.00  0.00    -0.310 N   
ATOM     10  C2  UNL     1      -1.004  -5.057   2.827  1.00  0.00     0.075 A   
ATOM     11  C26 UNL     1      -1.036  -3.934   0.868  1.00  0.00     0.040 A   
ATOM     12  C3  UNL     1      -2.171  -4.325   2.799  1.00  0.00     0.025 A   
ATOM     13  C4  UNL     1      -2.199  -3.606   1.573  1.00  0.00    -0.003 A   
ATOM     14  C25 UNL     1      -0.753  -3.393  -0.398  1.00  0.00     0.030 A   
ATOM     15  C5  UNL     1      -3.112  -2.703   0.997  1.00  0.00     0.010 A   
ATOM     16  C6  UNL     1      -2.841  -2.154  -0.264  1.00  0.00     0.006 A   
ATOM     17  C1  UNL     1       0.951  -5.397   1.313  1.00  0.00     0.136 C   
ENDBRANCH   7   8
ENDBRANCH   1   7
BRANCH   3  18
ATOM     18  C11 UNL     1       1.287   2.349  -1.913  1.00  0.00     0.117 C   
BRANCH  18  19
ATOM     19  N3  UNL     1       2.790   2.274  -1.723  1.00  0.00     0.249 N   
ATOM     20  H12 UNL     1       3.083   1.376  -2.138  1.00  0.00     0.199 HD  
ATOM     21  H13 UNL     1       3.259   2.998  -2.268  1.00  0.00     0.199 HD  
BRANCH  19  22
ATOM     22  C12 UNL     1       3.282   2.331  -0.320  1.00  0.00     0.164 C   
BRANCH  22  23
ATOM     23  C13 UNL     1       2.919   1.125   0.501  1.00  0.00    -0.002 A   
ATOM     24  C14 UNL     1       3.655  -0.079   0.364  1.00  0.00     0.012 A   
ATOM     25  C18 UNL     1       1.822   1.171   1.379  1.00  0.00     0.045 A   
ATOM     26  C15 UNL     1       3.310  -1.220   1.097  1.00  0.00     0.037 A   
ATOM     27  C17 UNL     1       1.501   0.026   2.077  1.00  0.00     0.109 A   
ATOM     28  C16 UNL     1       2.227  -1.135   1.944  1.00  0.00     0.108 A   
ATOM     29  O1  UNL     1       0.464  -0.100   2.950  1.00  0.00    -0.316 OA  
ATOM     30  O2  UNL     1       1.748  -2.135   2.726  1.00  0.00    -0.316 OA  
ATOM     31  C19 UNL     1       0.641  -1.469   3.381  1.00  0.00     0.337 C   
ENDBRANCH  22  23
ENDBRANCH  19  22
ENDBRANCH  18  19
BRANCH  18  32
ATOM     32  C20 UNL     1       0.992   3.280  -3.107  1.00  0.00     0.043 C   
ATOM     33  C21 UNL     1       1.466   4.724  -2.914  1.00  0.00     0.010 C   
ATOM     34  C24 UNL     1      -0.507   3.476  -3.388  1.00  0.00     0.010 C   
ATOM     35  C22 UNL     1       0.744   5.475  -4.025  1.00  0.00     0.001 C   
ATOM     36  C23 UNL     1      -0.625   4.813  -4.126  1.00  0.00     0.001 C   
ENDBRANCH  18  32
ENDBRANCH   3  18
TORSDOF 7
