REMARK SMILES Cc1cc(F)cc([C@H](CO)n2cc([C@@H]([NH2+]Cc3ccc4c(c3)OCO4)C3CCCC3)nn2)c1
REMARK SMILES IDX 11 1 12 2 13 3 31 4 32 5 8 7 7 8 2 9 3 10 33 11 4 12 6 13
REMARK SMILES IDX 1 14 5 15 9 16 10 17 14 19 15 20 16 23 17 24 18 25 22 26
REMARK SMILES IDX 19 27 21 28 20 29 23 30 25 31 24 32 26 33 27 34 30 35 28 36
REMARK SMILES IDX 29 37
REMARK H PARENT 12 6 10 18 15 21 15 22
ROOT
ATOM     1   N1  UNL     1       0.502  -3.013   0.190  1.00  0.00    -0.202 N   
ATOM     2   C9  UNL     1       1.171  -1.819   0.113  1.00  0.00     0.046 A   
ATOM     3   C10 UNL     1       0.623  -1.062   1.125  1.00  0.00     0.127 A   
ATOM     4   N3  UNL     1      -0.361  -1.785   1.747  1.00  0.00    -0.132 NA  
ATOM     5   N4  UNL     1      -0.428  -2.972   1.170  1.00  0.00    -0.075 NA  
ATOM     6   H10 UNL     1       1.956  -1.642  -0.607  1.00  0.00     0.083 HD  
ENDROOT
BRANCH   1   7
ATOM     7   C7  UNL     1       0.701  -4.209  -0.634  1.00  0.00     0.155 C   
BRANCH   7   8
ATOM     8   C6  UNL     1      -0.516  -4.466  -1.511  1.00  0.00    -0.020 A   
ATOM     9   C2  UNL     1      -1.576  -4.390  -3.720  1.00  0.00    -0.048 A   
ATOM     10  C3  UNL     1      -2.736  -4.947  -3.176  1.00  0.00     0.042 A   
ATOM     11  C25 UNL     1      -0.470  -4.162  -2.885  1.00  0.00     0.009 A   
ATOM     12  C4  UNL     1      -2.790  -5.242  -1.821  1.00  0.00     0.123 A   
ATOM     13  C5  UNL     1      -1.701  -5.007  -0.989  1.00  0.00     0.045 A   
ATOM     14  C1  UNL     1      -1.492  -4.106  -5.191  1.00  0.00     0.044 C   
ATOM     15  F1  UNL     1      -3.909  -5.766  -1.304  1.00  0.00    -0.207 F   
ENDBRANCH   7   8
BRANCH   7  16
ATOM     16  C8  UNL     1       1.122  -5.418   0.219  1.00  0.00     0.185 C   
BRANCH  16  17
ATOM     17  O1  UNL     1       2.464  -5.248   0.679  1.00  0.00    -0.394 OA  
ATOM     18  H9  UNL     1       2.708  -6.061   1.156  1.00  0.00     0.210 HD  
ENDBRANCH  16  17
ENDBRANCH   7  16
ENDBRANCH   1   7
BRANCH   3  19
ATOM     19  C11 UNL     1       0.885   0.340   1.567  1.00  0.00     0.117 C   
BRANCH  19  20
ATOM     20  N2  UNL     1      -0.421   0.982   1.988  1.00  0.00     0.249 N   
ATOM     21  H12 UNL     1      -0.882   0.301   2.610  1.00  0.00     0.199 HD  
ATOM     22  H13 UNL     1      -0.257   1.828   2.538  1.00  0.00     0.199 HD  
BRANCH  20  23
ATOM     23  C12 UNL     1      -1.378   1.304   0.886  1.00  0.00     0.164 C   
BRANCH  23  24
ATOM     24  C13 UNL     1      -0.861   2.377  -0.034  1.00  0.00    -0.002 A   
ATOM     25  C14 UNL     1      -0.479   2.057  -1.359  1.00  0.00     0.012 A   
ATOM     26  C18 UNL     1      -0.717   3.697   0.428  1.00  0.00     0.045 A   
ATOM     27  C15 UNL     1       0.048   3.034  -2.212  1.00  0.00     0.037 A   
ATOM     28  C17 UNL     1      -0.188   4.634  -0.436  1.00  0.00     0.109 A   
ATOM     29  C16 UNL     1       0.184   4.312  -1.719  1.00  0.00     0.108 A   
ATOM     30  O2  UNL     1       0.029   5.942  -0.145  1.00  0.00    -0.316 OA  
ATOM     31  O3  UNL     1       0.680   5.380  -2.397  1.00  0.00    -0.316 OA  
ATOM     32  C19 UNL     1       0.550   6.421  -1.406  1.00  0.00     0.337 C   
ENDBRANCH  23  24
ENDBRANCH  20  23
ENDBRANCH  19  20
BRANCH  19  33
ATOM     33  C20 UNL     1       1.867   0.398   2.755  1.00  0.00     0.043 C   
ATOM     34  C21 UNL     1       3.269  -0.109   2.400  1.00  0.00     0.010 C   
ATOM     35  C24 UNL     1       2.171   1.815   3.252  1.00  0.00     0.010 C   
ATOM     36  C22 UNL     1       4.157   0.421   3.518  1.00  0.00     0.001 C   
ATOM     37  C23 UNL     1       3.474   1.685   4.034  1.00  0.00     0.001 C   
ENDBRANCH  19  33
ENDBRANCH   3  19
TORSDOF 9
