REMARK SMILES Cc1cc(F)cc([C@@H](CO)n2cc([C@@H]([NH2+]Cc3ccc4c(c3)OCO4)C3CCCC3)nn2)c1
REMARK SMILES IDX 11 1 12 2 13 3 31 4 32 5 8 7 7 8 2 9 3 10 33 11 4 12 6 13
REMARK SMILES IDX 1 14 5 15 9 16 10 17 14 19 15 20 16 23 17 24 18 25 22 26
REMARK SMILES IDX 19 27 21 28 20 29 23 30 25 31 24 32 26 33 27 34 30 35 28 36
REMARK SMILES IDX 29 37
REMARK H PARENT 12 6 10 18 15 21 15 22
ROOT
ATOM     1   N1  UNL     1       1.937  -1.524   1.824  1.00  0.00    -0.202 N   
ATOM     2   C9  UNL     1       1.736  -0.574   0.855  1.00  0.00     0.046 A   
ATOM     3   C10 UNL     1       1.327   0.538   1.552  1.00  0.00     0.127 A   
ATOM     4   N3  UNL     1       1.274   0.236   2.891  1.00  0.00    -0.132 NA  
ATOM     5   N4  UNL     1       1.631  -1.029   3.043  1.00  0.00    -0.075 NA  
ATOM     6   H10 UNL     1       1.918  -0.772  -0.193  1.00  0.00     0.083 HD  
ENDROOT
BRANCH   1   7
ATOM     7   C7  UNL     1       2.377  -2.913   1.680  1.00  0.00     0.155 C   
BRANCH   7   8
ATOM     8   C6  UNL     1       1.444  -3.667   0.734  1.00  0.00    -0.020 A   
ATOM     9   C2  UNL     1      -0.718  -4.786   0.383  1.00  0.00    -0.048 A   
ATOM     10  C3  UNL     1      -0.371  -5.026  -0.949  1.00  0.00     0.042 A   
ATOM     11  C25 UNL     1       0.197  -4.120   1.217  1.00  0.00     0.009 A   
ATOM     12  C4  UNL     1       0.856  -4.583  -1.432  1.00  0.00     0.123 A   
ATOM     13  C5  UNL     1       1.755  -3.907  -0.611  1.00  0.00     0.045 A   
ATOM     14  C1  UNL     1      -2.023  -5.294   0.926  1.00  0.00     0.044 C   
ATOM     15  F1  UNL     1       1.179  -4.801  -2.713  1.00  0.00    -0.207 F   
ENDBRANCH   7   8
BRANCH   7  16
ATOM     16  C8  UNL     1       3.894  -2.997   1.404  1.00  0.00     0.185 C   
BRANCH  16  17
ATOM     17  O1  UNL     1       4.296  -2.273   0.241  1.00  0.00    -0.394 OA  
ATOM     18  H9  UNL     1       5.257  -2.414   0.137  1.00  0.00     0.210 HD  
ENDBRANCH  16  17
ENDBRANCH   7  16
ENDBRANCH   1   7
BRANCH   3  19
ATOM     19  C11 UNL     1       0.934   1.903   1.088  1.00  0.00     0.117 C   
BRANCH  19  20
ATOM     20  N2  UNL     1      -0.127   2.457   2.018  1.00  0.00     0.249 N   
ATOM     21  H12 UNL     1      -0.222   3.469   1.908  1.00  0.00     0.199 HD  
ATOM     22  H13 UNL     1       0.219   2.281   2.972  1.00  0.00     0.199 HD  
BRANCH  20  23
ATOM     23  C12 UNL     1      -1.479   1.834   1.911  1.00  0.00     0.164 C   
BRANCH  23  24
ATOM     24  C13 UNL     1      -2.211   2.262   0.669  1.00  0.00    -0.002 A   
ATOM     25  C14 UNL     1      -2.746   3.571   0.567  1.00  0.00     0.012 A   
ATOM     26  C18 UNL     1      -2.345   1.371  -0.414  1.00  0.00     0.045 A   
ATOM     27  C15 UNL     1      -3.402   3.990  -0.595  1.00  0.00     0.037 A   
ATOM     28  C17 UNL     1      -2.997   1.817  -1.544  1.00  0.00     0.109 A   
ATOM     29  C16 UNL     1      -3.511   3.089  -1.633  1.00  0.00     0.108 A   
ATOM     30  O2  UNL     1      -3.205   1.089  -2.674  1.00  0.00    -0.316 OA  
ATOM     31  O3  UNL     1      -4.112   3.322  -2.828  1.00  0.00    -0.316 OA  
ATOM     32  C19 UNL     1      -3.938   2.043  -3.479  1.00  0.00     0.337 C   
ENDBRANCH  23  24
ENDBRANCH  20  23
ENDBRANCH  19  20
BRANCH  19  33
ATOM     33  C20 UNL     1       2.135   2.873   1.077  1.00  0.00     0.043 C   
ATOM     34  C21 UNL     1       1.801   4.291   0.603  1.00  0.00     0.010 C   
ATOM     35  C24 UNL     1       3.223   2.468   0.074  1.00  0.00     0.010 C   
ATOM     36  C22 UNL     1       3.152   4.899   0.241  1.00  0.00     0.001 C   
ATOM     37  C23 UNL     1       4.058   3.729  -0.127  1.00  0.00     0.001 C   
ENDBRANCH  19  33
ENDBRANCH   3  19
TORSDOF 9
