REMARK SMILES Cc1cccc(CCn2cc([C@H](CC(C)C)[NH2+]Cc3ccc4c(c3)OCO4)nn2)n1
REMARK SMILES IDX 9 1 10 2 11 3 28 4 29 5 8 7 7 8 6 9 2 10 3 11 30 12 4 13
REMARK SMILES IDX 5 14 1 15 12 16 13 17 14 18 15 19 16 20 17 21 18 24 19 25
REMARK SMILES IDX 20 26 24 27 21 28 23 29 22 30 25 31 27 32 26 33
REMARK H PARENT 10 6 17 22 17 23
ROOT
ATOM     1   N1  UNL     1      -0.505   2.909  -0.104  1.00  0.00    -0.212 N   
ATOM     2   C9  UNL     1       0.246   1.862   0.346  1.00  0.00     0.045 A   
ATOM     3   C10 UNL     1      -0.679   0.991   0.874  1.00  0.00     0.127 A   
ATOM     4   N3  UNL     1      -1.923   1.569   0.815  1.00  0.00    -0.132 NA  
ATOM     5   N4  UNL     1      -1.801   2.748   0.226  1.00  0.00    -0.076 NA  
ATOM     6   H11 UNL     1       1.316   1.816   0.195  1.00  0.00     0.083 HD  
ENDROOT
BRANCH   1   7
ATOM     7   C8  UNL     1      -0.067   4.074  -0.844  1.00  0.00     0.140 C   
BRANCH   7   8
ATOM     8   C7  UNL     1      -0.429   4.002  -2.327  1.00  0.00     0.077 C   
BRANCH   8   9
ATOM     9   C6  UNL     1       0.272   2.898  -3.085  1.00  0.00     0.042 A   
ATOM     10  C2  UNL     1       2.099   1.472  -3.296  1.00  0.00     0.038 A   
ATOM     11  C3  UNL     1       1.617   0.966  -4.497  1.00  0.00     0.023 A   
ATOM     12  N5  UNL     1       1.441   2.424  -2.587  1.00  0.00    -0.258 NA  
ATOM     13  C4  UNL     1       0.419   1.462  -4.997  1.00  0.00     0.004 A   
ATOM     14  C5  UNL     1      -0.262   2.445  -4.288  1.00  0.00     0.024 A   
ATOM     15  C1  UNL     1       3.399   0.973  -2.740  1.00  0.00     0.067 C   
ENDBRANCH   8   9
ENDBRANCH   7   8
ENDBRANCH   1   7
BRANCH   3  16
ATOM     16  C11 UNL     1      -0.523  -0.362   1.486  1.00  0.00     0.114 C   
BRANCH  16  17
ATOM     17  C12 UNL     1      -0.454  -1.491   0.439  1.00  0.00     0.064 C   
BRANCH  17  18
ATOM     18  C13 UNL     1       0.799  -1.486  -0.464  1.00  0.00    -0.012 C   
ATOM     19  C14 UNL     1       2.095  -1.636   0.335  1.00  0.00     0.007 C   
ATOM     20  C15 UNL     1       0.697  -2.613  -1.496  1.00  0.00     0.007 C   
ENDBRANCH  17  18
ENDBRANCH  16  17
BRANCH  16  21
ATOM     21  N2  UNL     1      -1.725  -0.627   2.377  1.00  0.00     0.249 N   
ATOM     22  H22 UNL     1      -2.255   0.259   2.409  1.00  0.00     0.199 HD  
ATOM     23  H23 UNL     1      -2.363  -1.283   1.915  1.00  0.00     0.199 HD  
BRANCH  21  24
ATOM     24  C16 UNL     1      -1.444  -1.064   3.768  1.00  0.00     0.164 C   
BRANCH  24  25
ATOM     25  C17 UNL     1      -0.887  -2.458   3.838  1.00  0.00    -0.002 A   
ATOM     26  C18 UNL     1      -1.742  -3.577   3.678  1.00  0.00     0.012 A   
ATOM     27  C22 UNL     1       0.492  -2.663   4.017  1.00  0.00     0.045 A   
ATOM     28  C19 UNL     1      -1.231  -4.879   3.690  1.00  0.00     0.037 A   
ATOM     29  C21 UNL     1       0.963  -3.959   4.019  1.00  0.00     0.109 A   
ATOM     30  C20 UNL     1       0.127  -5.037   3.860  1.00  0.00     0.108 A   
ATOM     31  O1  UNL     1       2.262  -4.327   4.165  1.00  0.00    -0.316 OA  
ATOM     32  O2  UNL     1       0.793  -6.219   3.890  1.00  0.00    -0.316 OA  
ATOM     33  C23 UNL     1       2.147  -5.768   4.111  1.00  0.00     0.337 C   
ENDBRANCH  24  25
ENDBRANCH  21  24
ENDBRANCH  16  21
ENDBRANCH   3  16
TORSDOF 9
