REMARK SMILES CC(C)C[C@H]([NH2+]Cc1ccc2c(c1)OCO2)c1cn(Cc2ccc(F)cc2F)nn1
REMARK SMILES IDX 17 1 18 2 19 3 29 4 30 5 5 7 4 8 2 9 1 10 3 11 6 12 7 15
REMARK SMILES IDX 8 16 9 17 13 18 10 19 12 20 11 21 14 22 16 23 15 24 20 25
REMARK SMILES IDX 21 26 22 27 27 28 23 29 26 30 24 31 28 32 25 33
REMARK H PARENT 18 6 6 13 6 14
ROOT
ATOM     1   C14 UNL     1      -1.449   0.082  -0.237  1.00  0.00     0.127 A   
ATOM     2   C15 UNL     1      -2.159   1.258  -0.132  1.00  0.00     0.046 A   
ATOM     3   N2  UNL     1      -2.642   1.246   1.147  1.00  0.00    -0.208 N   
ATOM     4   N3  UNL     1      -2.219   0.149   1.805  1.00  0.00    -0.076 NA  
ATOM     5   N4  UNL     1      -1.497  -0.575   0.966  1.00  0.00    -0.132 NA  
ATOM     6   H20 UNL     1      -2.378   2.061  -0.825  1.00  0.00     0.083 HD  
ENDROOT
BRANCH   1   7
ATOM     7   C5  UNL     1      -0.673  -0.508  -1.369  1.00  0.00     0.114 C   
BRANCH   7   8
ATOM     8   C4  UNL     1      -1.545  -1.367  -2.310  1.00  0.00     0.064 C   
BRANCH   8   9
ATOM     9   C2  UNL     1      -2.663  -0.611  -3.064  1.00  0.00    -0.012 C   
ATOM     10  C1  UNL     1      -3.470  -1.597  -3.914  1.00  0.00     0.007 C   
ATOM     11  C3  UNL     1      -2.115   0.507  -3.955  1.00  0.00     0.007 C   
ENDBRANCH   8   9
ENDBRANCH   7   8
BRANCH   7  12
ATOM     12  N1  UNL     1       0.405  -1.422  -0.833  1.00  0.00     0.249 N   
ATOM     13  H11 UNL     1       0.754  -2.059  -1.556  1.00  0.00     0.199 HD  
ATOM     14  H12 UNL     1      -0.042  -2.011  -0.115  1.00  0.00     0.199 HD  
BRANCH  12  15
ATOM     15  C6  UNL     1       1.564  -0.747  -0.183  1.00  0.00     0.164 C   
BRANCH  15  16
ATOM     16  C7  UNL     1       2.512  -1.776   0.367  1.00  0.00    -0.002 A   
ATOM     17  C8  UNL     1       2.287  -2.331   1.652  1.00  0.00     0.012 A   
ATOM     18  C12 UNL     1       3.585  -2.244  -0.411  1.00  0.00     0.045 A   
ATOM     19  C9  UNL     1       3.119  -3.337   2.155  1.00  0.00     0.037 A   
ATOM     20  C11 UNL     1       4.388  -3.237   0.117  1.00  0.00     0.109 A   
ATOM     21  C10 UNL     1       4.158  -3.772   1.361  1.00  0.00     0.108 A   
ATOM     22  O1  UNL     1       5.462  -3.798  -0.500  1.00  0.00    -0.316 OA  
ATOM     23  O2  UNL     1       5.058  -4.738   1.686  1.00  0.00    -0.316 OA  
ATOM     24  C13 UNL     1       5.893  -4.745   0.506  1.00  0.00     0.337 C   
ENDBRANCH  15  16
ENDBRANCH  12  15
ENDBRANCH   7  12
ENDBRANCH   1   7
BRANCH   3  25
ATOM     25  C16 UNL     1      -3.540   2.194   1.787  1.00  0.00     0.172 C   
BRANCH  25  26
ATOM     26  C17 UNL     1      -2.821   3.457   2.179  1.00  0.00     0.007 A   
ATOM     27  C18 UNL     1      -2.263   3.606   3.459  1.00  0.00     0.011 A   
ATOM     28  C22 UNL     1      -2.678   4.505   1.257  1.00  0.00     0.130 A   
ATOM     29  C19 UNL     1      -1.600   4.788   3.799  1.00  0.00     0.040 A   
ATOM     30  C21 UNL     1      -2.022   5.683   1.588  1.00  0.00     0.078 A   
ATOM     31  C20 UNL     1      -1.490   5.814   2.862  1.00  0.00     0.126 A   
ATOM     32  F2  UNL     1      -3.169   4.365   0.016  1.00  0.00    -0.207 F   
ATOM     33  F1  UNL     1      -0.855   6.945   3.196  1.00  0.00    -0.207 F   
ENDBRANCH  25  26
ENDBRANCH   3  25
TORSDOF 8
