REMARK SMILES COCc1ccoc1Cn1cc([C@@H]([NH2+]Cc2ccc3c(c2)OCO3)C2CCCCC2)nn1
REMARK SMILES IDX 10 1 11 2 12 3 31 4 32 5 9 7 8 8 4 9 5 10 6 11 7 12 3 13
REMARK SMILES IDX 2 14 1 15 13 16 14 17 15 20 16 21 17 22 21 23 18 24 20 25
REMARK SMILES IDX 19 26 22 27 24 28 23 29 25 30 26 31 30 32 27 33 29 34 28 35
REMARK H PARENT 11 6 14 18 14 19
ROOT
ATOM     1   N1  UNL     1      -1.370   2.578   1.723  1.00  0.00    -0.206 N   
ATOM     2   C8  UNL     1      -0.806   2.610   0.474  1.00  0.00     0.046 A   
ATOM     3   C9  UNL     1      -1.380   1.531  -0.162  1.00  0.00     0.127 A   
ATOM     4   N3  UNL     1      -2.355   0.997   0.637  1.00  0.00    -0.132 NA  
ATOM     5   N4  UNL     1      -2.361   1.667   1.779  1.00  0.00    -0.076 NA  
ATOM     6   H10 UNL     1       0.032   3.254   0.239  1.00  0.00     0.083 HD  
ENDROOT
BRANCH   1   7
ATOM     7   C7  UNL     1      -0.807   3.130   2.944  1.00  0.00     0.196 C   
BRANCH   7   8
ATOM     8   C6  UNL     1       0.546   2.539   3.161  1.00  0.00     0.083 A   
ATOM     9   C3  UNL     1       1.020   1.242   3.316  1.00  0.00     0.008 A   
ATOM     10  C4  UNL     1       2.433   1.370   3.464  1.00  0.00     0.034 A   
ATOM     11  C5  UNL     1       2.719   2.711   3.374  1.00  0.00     0.136 A   
ATOM     12  O2  UNL     1       1.583   3.424   3.179  1.00  0.00    -0.320 OA  
BRANCH   9  13
ATOM     13  C2  UNL     1       0.237  -0.027   3.359  1.00  0.00     0.197 C   
BRANCH  13  14
ATOM     14  O1  UNL     1       0.115  -0.621   2.049  1.00  0.00    -0.380 OA  
ATOM     15  C1  UNL     1      -0.561  -1.879   2.174  1.00  0.00     0.195 C   
ENDBRANCH  13  14
ENDBRANCH   9  13
ENDBRANCH   7   8
ENDBRANCH   1   7
BRANCH   3  16
ATOM     16  C10 UNL     1      -0.909   0.802  -1.377  1.00  0.00     0.117 C   
BRANCH  16  17
ATOM     17  N2  UNL     1      -0.004  -0.308  -0.887  1.00  0.00     0.249 N   
ATOM     18  H12 UNL     1      -0.444  -1.224  -1.023  1.00  0.00     0.199 HD  
ATOM     19  H13 UNL     1       0.063  -0.241   0.151  1.00  0.00     0.199 HD  
BRANCH  17  20
ATOM     20  C11 UNL     1       1.380  -0.300  -1.415  1.00  0.00     0.164 C   
BRANCH  20  21
ATOM     21  C12 UNL     1       2.171  -1.453  -0.866  1.00  0.00    -0.002 A   
ATOM     22  C13 UNL     1       2.215  -2.689  -1.554  1.00  0.00     0.012 A   
ATOM     23  C17 UNL     1       2.829  -1.325   0.370  1.00  0.00     0.045 A   
ATOM     24  C14 UNL     1       2.913  -3.780  -1.024  1.00  0.00     0.037 A   
ATOM     25  C16 UNL     1       3.502  -2.421   0.867  1.00  0.00     0.109 A   
ATOM     26  C15 UNL     1       3.546  -3.614   0.189  1.00  0.00     0.108 A   
ATOM     27  O3  UNL     1       4.177  -2.466   2.045  1.00  0.00    -0.316 OA  
ATOM     28  O4  UNL     1       4.260  -4.560   0.851  1.00  0.00    -0.316 OA  
ATOM     29  C18 UNL     1       4.686  -3.820   2.016  1.00  0.00     0.337 C   
ENDBRANCH  20  21
ENDBRANCH  17  20
ENDBRANCH  16  17
BRANCH  16  30
ATOM     30  C19 UNL     1      -2.049   0.215  -2.250  1.00  0.00     0.043 C   
ATOM     31  C20 UNL     1      -1.506  -0.559  -3.470  1.00  0.00     0.010 C   
ATOM     32  C24 UNL     1      -3.004   1.329  -2.733  1.00  0.00     0.010 C   
ATOM     33  C21 UNL     1      -2.626  -1.095  -4.360  1.00  0.00     0.001 C   
ATOM     34  C23 UNL     1      -4.122   0.785  -3.620  1.00  0.00     0.001 C   
ATOM     35  C22 UNL     1      -3.570   0.012  -4.810  1.00  0.00     0.000 C   
ENDBRANCH  16  30
ENDBRANCH   3  16
TORSDOF 9
