REMARK SMILES Cc1nn(C)c(Cl)c1CCn1cc([C@@H]([NH2+]Cc2ccc3c(c2)OCO3)C(C)(C)C)nn1
REMARK SMILES IDX 11 1 12 2 13 3 30 4 31 5 10 7 9 8 8 9 2 10 3 11 4 12 6 13
REMARK SMILES IDX 1 14 5 15 7 16 14 17 15 18 16 21 17 22 18 23 22 24 19 25
REMARK SMILES IDX 21 26 20 27 23 28 25 29 24 30 26 31 27 32 28 33 29 34
REMARK H PARENT 12 6 15 19 15 20
ROOT
ATOM     1   N3  UNL     1      -0.262  -2.651   2.760  1.00  0.00    -0.212 N   
ATOM     2   C8  UNL     1       0.211  -1.368   2.812  1.00  0.00     0.045 A   
ATOM     3   C9  UNL     1      -0.763  -0.631   2.176  1.00  0.00     0.127 A   
ATOM     4   N5  UNL     1      -1.785  -1.468   1.797  1.00  0.00    -0.132 NA  
ATOM     5   N6  UNL     1      -1.469  -2.699   2.168  1.00  0.00    -0.076 NA  
ATOM     6   H11 UNL     1       1.179  -1.122   3.228  1.00  0.00     0.083 HD  
ENDROOT
BRANCH   1   7
ATOM     7   C7  UNL     1       0.444  -3.867   3.109  1.00  0.00     0.139 C   
BRANCH   7   8
ATOM     8   C6  UNL     1       0.957  -4.630   1.883  1.00  0.00     0.062 C   
BRANCH   8   9
ATOM     9   C5  UNL     1       1.750  -3.775   0.945  1.00  0.00     0.011 A   
ATOM     10  C2  UNL     1       1.366  -3.298  -0.344  1.00  0.00     0.062 A   
ATOM     11  N1  UNL     1       2.262  -2.436  -0.845  1.00  0.00    -0.185 NA  
ATOM     12  N2  UNL     1       3.300  -2.506   0.017  1.00  0.00    -0.217 N   
ATOM     13  C4  UNL     1       2.999  -3.234   1.127  1.00  0.00     0.121 A   
ATOM     14  C1  UNL     1       0.139  -3.626  -1.115  1.00  0.00     0.069 C   
ATOM     15  C3  UNL     1       4.533  -1.820  -0.291  1.00  0.00     0.161 C   
ATOM     16  CL1 UNL     1       4.088  -3.339   2.428  1.00  0.00    -0.065 Cl  
ENDBRANCH   8   9
ENDBRANCH   7   8
ENDBRANCH   1   7
BRANCH   3  17
ATOM     17  C10 UNL     1      -0.799   0.811   1.774  1.00  0.00     0.120 C   
BRANCH  17  18
ATOM     18  N4  UNL     1      -1.416   0.910   0.401  1.00  0.00     0.250 N   
ATOM     19  H13 UNL     1      -2.238   0.286   0.400  1.00  0.00     0.199 HD  
ATOM     20  H14 UNL     1      -1.773   1.845   0.194  1.00  0.00     0.199 HD  
BRANCH  18  21
ATOM     21  C11 UNL     1      -0.537   0.475  -0.723  1.00  0.00     0.164 C   
BRANCH  21  22
ATOM     22  C12 UNL     1      -1.262   0.623  -2.031  1.00  0.00    -0.002 A   
ATOM     23  C13 UNL     1      -1.230   1.852  -2.733  1.00  0.00     0.012 A   
ATOM     24  C17 UNL     1      -2.027  -0.442  -2.534  1.00  0.00     0.045 A   
ATOM     25  C14 UNL     1      -1.949   2.017  -3.923  1.00  0.00     0.037 A   
ATOM     26  C16 UNL     1      -2.715  -0.249  -3.714  1.00  0.00     0.109 A   
ATOM     27  C15 UNL     1      -2.681   0.946  -4.387  1.00  0.00     0.108 A   
ATOM     28  O1  UNL     1      -3.490  -1.174  -4.338  1.00  0.00    -0.316 OA  
ATOM     29  O2  UNL     1      -3.433   0.928  -5.518  1.00  0.00    -0.316 OA  
ATOM     30  C18 UNL     1      -3.915  -0.433  -5.504  1.00  0.00     0.337 C   
ENDBRANCH  21  22
ENDBRANCH  18  21
ENDBRANCH  17  18
BRANCH  17  31
ATOM     31  C19 UNL     1      -1.549   1.744   2.786  1.00  0.00     0.010 C   
ATOM     32  C20 UNL     1      -3.051   1.418   2.897  1.00  0.00     0.017 C   
ATOM     33  C21 UNL     1      -0.916   1.618   4.191  1.00  0.00     0.017 C   
ATOM     34  C22 UNL     1      -1.409   3.225   2.361  1.00  0.00     0.017 C   
ENDBRANCH  17  31
ENDBRANCH   3  17
TORSDOF 8
