REMARK SMILES COc1cnc(Cn2cc([C@H](CC(C)C)[NH2+]Cc3ccc4c(c3)OCO4)nn2)c(C)c1
REMARK SMILES IDX 8 1 9 2 10 3 27 4 28 5 7 7 6 8 3 9 4 10 31 11 5 12 29 13
REMARK SMILES IDX 30 14 2 15 1 16 11 17 12 18 13 19 14 20 15 21 16 22 17 25
REMARK SMILES IDX 18 26 19 27 23 28 20 29 22 30 21 31 24 32 26 33 25 34
REMARK H PARENT 9 6 16 23 16 24
ROOT
ATOM     1   N2  UNL     1       0.768   2.717  -0.221  1.00  0.00    -0.206 N   
ATOM     2   C6  UNL     1       1.517   1.630  -0.585  1.00  0.00     0.046 A   
ATOM     3   C7  UNL     1       0.604   0.770  -1.149  1.00  0.00     0.127 A   
ATOM     4   N4  UNL     1      -0.637   1.354  -1.130  1.00  0.00    -0.132 NA  
ATOM     5   N5  UNL     1      -0.524   2.544  -0.563  1.00  0.00    -0.076 NA  
ATOM     6   H7  UNL     1       2.578   1.572  -0.382  1.00  0.00     0.083 HD  
ENDROOT
BRANCH   1   7
ATOM     7   C5  UNL     1       1.212   3.929   0.441  1.00  0.00     0.190 C   
BRANCH   7   8
ATOM     8   C4  UNL     1       1.284   3.708   1.930  1.00  0.00     0.063 A   
ATOM     9   C2  UNL     1       1.576   3.211   4.641  1.00  0.00     0.093 A   
ATOM     10  C3  UNL     1       2.500   2.807   3.691  1.00  0.00     0.144 A   
ATOM     11  C23 UNL     1       0.453   3.891   4.184  1.00  0.00     0.040 A   
ATOM     12  N1  UNL     1       2.381   3.028   2.359  1.00  0.00    -0.257 NA  
ATOM     13  C21 UNL     1       0.286   4.149   2.811  1.00  0.00    -0.025 A   
ATOM     14  C22 UNL     1      -0.932   4.896   2.346  1.00  0.00     0.046 C   
BRANCH   9  15
ATOM     15  O1  UNL     1       1.865   2.889   5.934  1.00  0.00    -0.348 OA  
ATOM     16  C1  UNL     1       0.983   3.385   6.935  1.00  0.00     0.203 C   
ENDBRANCH   9  15
ENDBRANCH   7   8
ENDBRANCH   1   7
BRANCH   3  17
ATOM     17  C8  UNL     1       0.757  -0.620  -1.676  1.00  0.00     0.114 C   
BRANCH  17  18
ATOM     18  C9  UNL     1       0.969  -0.603  -3.202  1.00  0.00     0.064 C   
BRANCH  18  19
ATOM     19  C10 UNL     1       1.202  -1.970  -3.881  1.00  0.00    -0.012 C   
ATOM     20  C11 UNL     1       2.382  -2.733  -3.279  1.00  0.00     0.007 C   
ATOM     21  C12 UNL     1       1.433  -1.765  -5.382  1.00  0.00     0.007 C   
ENDBRANCH  18  19
ENDBRANCH  17  18
BRANCH  17  22
ATOM     22  N3  UNL     1      -0.471  -1.425  -1.351  1.00  0.00     0.249 N   
ATOM     23  H18 UNL     1      -0.534  -2.279  -1.911  1.00  0.00     0.199 HD  
ATOM     24  H19 UNL     1      -1.283  -0.845  -1.612  1.00  0.00     0.199 HD  
BRANCH  22  25
ATOM     25  C13 UNL     1      -0.626  -1.787   0.086  1.00  0.00     0.164 C   
BRANCH  25  26
ATOM     26  C14 UNL     1      -1.916  -2.525   0.304  1.00  0.00    -0.002 A   
ATOM     27  C15 UNL     1      -1.952  -3.939   0.258  1.00  0.00     0.012 A   
ATOM     28  C19 UNL     1      -3.108  -1.807   0.503  1.00  0.00     0.045 A   
ATOM     29  C16 UNL     1      -3.157  -4.631   0.419  1.00  0.00     0.037 A   
ATOM     30  C18 UNL     1      -4.278  -2.521   0.659  1.00  0.00     0.109 A   
ATOM     31  C17 UNL     1      -4.302  -3.893   0.618  1.00  0.00     0.108 A   
ATOM     32  O2  UNL     1      -5.510  -1.985   0.860  1.00  0.00    -0.316 OA  
ATOM     33  O3  UNL     1      -5.553  -4.394   0.790  1.00  0.00    -0.316 OA  
ATOM     34  C20 UNL     1      -6.315  -3.181   0.969  1.00  0.00     0.337 C   
ENDBRANCH  25  26
ENDBRANCH  22  25
ENDBRANCH  17  22
ENDBRANCH   3  17
TORSDOF 9
