REMARK SMILES CCOc1cccc(Cn2cc([C@@H]([NH2+]Cc3ccc4c(c3)OCO4)C(C)C)nn2)c1
REMARK SMILES IDX 10 1 11 2 12 3 28 4 29 5 9 7 8 8 4 9 5 10 30 11 6 12 7 13
REMARK SMILES IDX 3 14 2 15 1 16 13 17 14 18 15 21 16 22 17 23 21 24 18 25
REMARK SMILES IDX 20 26 19 27 22 28 24 29 23 30 25 31 26 32 27 33
REMARK H PARENT 11 6 14 19 14 20
ROOT
ATOM     1   N1  UNL     1       0.804   2.098   2.362  1.00  0.00    -0.208 N   
ATOM     2   C9  UNL     1       1.468   1.071   1.746  1.00  0.00     0.046 A   
ATOM     3   C10 UNL     1       1.551   1.471   0.431  1.00  0.00     0.127 A   
ATOM     4   N3  UNL     1       0.964   2.704   0.298  1.00  0.00    -0.132 NA  
ATOM     5   N4  UNL     1       0.510   3.076   1.483  1.00  0.00    -0.076 NA  
ATOM     6   H11 UNL     1       1.784   0.186   2.279  1.00  0.00     0.083 HD  
ENDROOT
BRANCH   1   7
ATOM     7   C8  UNL     1       0.424   2.214   3.760  1.00  0.00     0.169 C   
BRANCH   7   8
ATOM     8   C7  UNL     1      -0.795   1.379   4.056  1.00  0.00    -0.026 A   
ATOM     9   C3  UNL     1      -1.788  -0.692   4.880  1.00  0.00     0.075 A   
ATOM     10  C4  UNL     1      -3.057  -0.199   4.580  1.00  0.00     0.033 A   
ATOM     11  C23 UNL     1      -0.665   0.098   4.614  1.00  0.00     0.038 A   
ATOM     12  C5  UNL     1      -3.200   1.073   4.021  1.00  0.00     0.003 A   
ATOM     13  C6  UNL     1      -2.077   1.859   3.758  1.00  0.00     0.005 A   
BRANCH   9  14
ATOM     14  O1  UNL     1      -1.504  -1.916   5.419  1.00  0.00    -0.346 OA  
BRANCH  14  15
ATOM     15  C2  UNL     1      -2.612  -2.701   5.860  1.00  0.00     0.164 C   
ATOM     16  C1  UNL     1      -2.064  -3.957   6.514  1.00  0.00     0.035 C   
ENDBRANCH  14  15
ENDBRANCH   9  14
ENDBRANCH   7   8
ENDBRANCH   1   7
BRANCH   3  17
ATOM     17  C11 UNL     1       2.105   0.787  -0.778  1.00  0.00     0.117 C   
BRANCH  17  18
ATOM     18  N2  UNL     1       1.412   1.283  -2.019  1.00  0.00     0.249 N   
ATOM     19  H13 UNL     1       1.958   1.107  -2.867  1.00  0.00     0.199 HD  
ATOM     20  H14 UNL     1       1.343   2.308  -1.926  1.00  0.00     0.199 HD  
BRANCH  18  21
ATOM     21  C12 UNL     1       0.027   0.771  -2.218  1.00  0.00     0.164 C   
BRANCH  21  22
ATOM     22  C13 UNL     1      -0.590   1.392  -3.439  1.00  0.00    -0.002 A   
ATOM     23  C14 UNL     1      -0.528   0.733  -4.689  1.00  0.00     0.012 A   
ATOM     24  C18 UNL     1      -1.188   2.661  -3.352  1.00  0.00     0.045 A   
ATOM     25  C15 UNL     1      -1.065   1.323  -5.839  1.00  0.00     0.037 A   
ATOM     26  C17 UNL     1      -1.706   3.215  -4.504  1.00  0.00     0.109 A   
ATOM     27  C16 UNL     1      -1.647   2.566  -5.712  1.00  0.00     0.108 A   
ATOM     28  O2  UNL     1      -2.316   4.426  -4.595  1.00  0.00    -0.316 OA  
ATOM     29  O3  UNL     1      -2.214   3.285  -6.716  1.00  0.00    -0.316 OA  
ATOM     30  C19 UNL     1      -2.656   4.458  -6.000  1.00  0.00     0.337 C   
ENDBRANCH  21  22
ENDBRANCH  18  21
ENDBRANCH  17  18
BRANCH  17  31
ATOM     31  C20 UNL     1       3.640   0.973  -0.906  1.00  0.00     0.037 C   
ATOM     32  C21 UNL     1       4.241   0.018  -1.945  1.00  0.00     0.014 C   
ATOM     33  C22 UNL     1       4.069   2.412  -1.219  1.00  0.00     0.014 C   
ENDBRANCH  17  31
ENDBRANCH   3  17
TORSDOF 9
