REMARK SMILES CCc1cccc([C@@H](CO)n2cc([C@@H]([NH2+]Cc3ccc4c(c3)OCO4)C(C)(C)C)nn2)c1
REMARK SMILES IDX 11 1 12 2 13 3 30 4 31 5 8 7 7 8 3 9 4 10 32 11 5 12 6 13
REMARK SMILES IDX 2 14 1 15 9 16 10 17 14 19 15 20 16 23 17 24 18 25 22 26
REMARK SMILES IDX 19 27 21 28 20 29 23 30 25 31 24 32 26 33 27 34 28 35 29 36
REMARK H PARENT 12 6 10 18 15 21 15 22
ROOT
ATOM     1   N1  UNL     1       1.771   1.014  -2.116  1.00  0.00    -0.202 N   
ATOM     2   C10 UNL     1       1.393   0.010  -1.263  1.00  0.00     0.046 A   
ATOM     3   C11 UNL     1       0.296  -0.555  -1.868  1.00  0.00     0.127 A   
ATOM     4   N3  UNL     1       0.027   0.118  -3.030  1.00  0.00    -0.132 NA  
ATOM     5   N4  UNL     1       0.925   1.084  -3.165  1.00  0.00    -0.075 NA  
ATOM     6   H13 UNL     1       1.908  -0.175  -0.328  1.00  0.00     0.083 HD  
ENDROOT
BRANCH   1   7
ATOM     7   C8  UNL     1       2.776   2.056  -1.903  1.00  0.00     0.155 C   
BRANCH   7   8
ATOM     8   C7  UNL     1       2.407   2.878  -0.670  1.00  0.00    -0.023 A   
ATOM     9   C3  UNL     1       0.975   4.607   0.321  1.00  0.00    -0.048 A   
ATOM     10  C4  UNL     1       1.587   4.395   1.559  1.00  0.00     0.004 A   
ATOM     11  C25 UNL     1       1.386   3.844  -0.782  1.00  0.00     0.009 A   
ATOM     12  C5  UNL     1       2.596   3.442   1.689  1.00  0.00     0.001 A   
ATOM     13  C6  UNL     1       3.002   2.688   0.586  1.00  0.00     0.006 A   
BRANCH   9  14
ATOM     14  C2  UNL     1      -0.123   5.631   0.174  1.00  0.00     0.032 C   
ATOM     15  C1  UNL     1      -1.504   4.996   0.254  1.00  0.00     0.009 C   
ENDBRANCH   9  14
ENDBRANCH   7   8
BRANCH   7  16
ATOM     16  C9  UNL     1       4.210   1.499  -1.989  1.00  0.00     0.185 C   
BRANCH  16  17
ATOM     17  O1  UNL     1       4.470   0.444  -1.061  1.00  0.00    -0.394 OA  
ATOM     18  H12 UNL     1       5.417   0.223  -1.144  1.00  0.00     0.210 HD  
ENDBRANCH  16  17
ENDBRANCH   7  16
ENDBRANCH   1   7
BRANCH   3  19
ATOM     19  C12 UNL     1      -0.626  -1.629  -1.386  1.00  0.00     0.120 C   
BRANCH  19  20
ATOM     20  N2  UNL     1      -2.065  -1.215  -1.637  1.00  0.00     0.250 N   
ATOM     21  H15 UNL     1      -2.702  -1.970  -1.382  1.00  0.00     0.199 HD  
ATOM     22  H16 UNL     1      -2.157  -1.054  -2.647  1.00  0.00     0.199 HD  
BRANCH  20  23
ATOM     23  C13 UNL     1      -2.525   0.037  -0.951  1.00  0.00     0.164 C   
BRANCH  23  24
ATOM     24  C14 UNL     1      -2.414  -0.026   0.548  1.00  0.00    -0.002 A   
ATOM     25  C15 UNL     1      -1.493   0.807   1.230  1.00  0.00     0.012 A   
ATOM     26  C19 UNL     1      -3.200  -0.934   1.280  1.00  0.00     0.045 A   
ATOM     27  C16 UNL     1      -1.345   0.729   2.621  1.00  0.00     0.037 A   
ATOM     28  C18 UNL     1      -3.026  -0.987   2.648  1.00  0.00     0.109 A   
ATOM     29  C17 UNL     1      -2.125  -0.180   3.300  1.00  0.00     0.108 A   
ATOM     30  O2  UNL     1      -3.688  -1.817   3.498  1.00  0.00    -0.316 OA  
ATOM     31  O3  UNL     1      -2.112  -0.397   4.642  1.00  0.00    -0.316 OA  
ATOM     32  C20 UNL     1      -3.162  -1.378   4.771  1.00  0.00     0.337 C   
ENDBRANCH  23  24
ENDBRANCH  20  23
ENDBRANCH  19  20
BRANCH  19  33
ATOM     33  C21 UNL     1      -0.341  -3.045  -2.004  1.00  0.00     0.010 C   
ATOM     34  C22 UNL     1      -0.535  -3.087  -3.532  1.00  0.00     0.017 C   
ATOM     35  C23 UNL     1       1.113  -3.468  -1.685  1.00  0.00     0.017 C   
ATOM     36  C24 UNL     1      -1.270  -4.107  -1.373  1.00  0.00     0.017 C   
ENDBRANCH  19  33
ENDBRANCH   3  19
TORSDOF 10
