REMARK SMILES CCc1cccc([C@H](CO)n2cc([C@@H]([NH2+]Cc3ccc4c(c3)OCO4)C(C)(C)C)nn2)c1
REMARK SMILES IDX 11 1 12 2 13 3 30 4 31 5 8 7 7 8 3 9 4 10 32 11 5 12 6 13
REMARK SMILES IDX 2 14 1 15 9 16 10 17 14 19 15 20 16 23 17 24 18 25 22 26
REMARK SMILES IDX 19 27 21 28 20 29 23 30 25 31 24 32 26 33 27 34 28 35 29 36
REMARK H PARENT 12 6 10 18 15 21 15 22
ROOT
ATOM     1   N1  UNL     1      -1.276  -0.041  -1.466  1.00  0.00    -0.202 N   
ATOM     2   C10 UNL     1      -0.390  -0.007  -0.422  1.00  0.00     0.046 A   
ATOM     3   C11 UNL     1       0.626  -0.847  -0.813  1.00  0.00     0.127 A   
ATOM     4   N3  UNL     1       0.313  -1.395  -2.031  1.00  0.00    -0.132 NA  
ATOM     5   N4  UNL     1      -0.853  -0.902  -2.417  1.00  0.00    -0.075 NA  
ATOM     6   H13 UNL     1      -0.563   0.596   0.459  1.00  0.00     0.083 HD  
ENDROOT
BRANCH   1   7
ATOM     7   C8  UNL     1      -2.534   0.688  -1.635  1.00  0.00     0.155 C   
BRANCH   7   8
ATOM     8   C7  UNL     1      -2.350   2.165  -1.304  1.00  0.00    -0.023 A   
ATOM     9   C3  UNL     1      -1.449   4.346  -1.972  1.00  0.00    -0.048 A   
ATOM     10  C4  UNL     1      -1.925   4.898  -0.779  1.00  0.00     0.004 A   
ATOM     11  C25 UNL     1      -1.671   2.986  -2.228  1.00  0.00     0.009 A   
ATOM     12  C5  UNL     1      -2.597   4.101   0.146  1.00  0.00     0.001 A   
ATOM     13  C6  UNL     1      -2.804   2.745  -0.111  1.00  0.00     0.006 A   
BRANCH   9  14
ATOM     14  C2  UNL     1      -0.737   5.210  -2.982  1.00  0.00     0.032 C   
ATOM     15  C1  UNL     1      -1.702   5.795  -4.001  1.00  0.00     0.009 C   
ENDBRANCH   9  14
ENDBRANCH   7   8
BRANCH   7  16
ATOM     16  C9  UNL     1      -3.696  -0.055  -0.945  1.00  0.00     0.185 C   
BRANCH  16  17
ATOM     17  O1  UNL     1      -3.458  -0.302   0.444  1.00  0.00    -0.394 OA  
ATOM     18  H12 UNL     1      -4.278  -0.690   0.804  1.00  0.00     0.210 HD  
ENDBRANCH  16  17
ENDBRANCH   7  16
ENDBRANCH   1   7
BRANCH   3  19
ATOM     19  C12 UNL     1       1.876  -1.269  -0.106  1.00  0.00     0.120 C   
BRANCH  19  20
ATOM     20  N2  UNL     1       2.115  -2.743  -0.378  1.00  0.00     0.250 N   
ATOM     21  H15 UNL     1       2.019  -2.860  -1.397  1.00  0.00     0.199 HD  
ATOM     22  H16 UNL     1       3.065  -3.019  -0.126  1.00  0.00     0.199 HD  
BRANCH  20  23
ATOM     23  C13 UNL     1       1.155  -3.692   0.262  1.00  0.00     0.164 C   
BRANCH  23  24
ATOM     24  C14 UNL     1       1.323  -3.770   1.754  1.00  0.00    -0.002 A   
ATOM     25  C15 UNL     1       2.420  -4.467   2.315  1.00  0.00     0.012 A   
ATOM     26  C19 UNL     1       0.408  -3.121   2.603  1.00  0.00     0.045 A   
ATOM     27  C16 UNL     1       2.606  -4.518   3.700  1.00  0.00     0.037 A   
ATOM     28  C18 UNL     1       0.623  -3.187   3.964  1.00  0.00     0.109 A   
ATOM     29  C17 UNL     1       1.691  -3.866   4.497  1.00  0.00     0.108 A   
ATOM     30  O2  UNL     1      -0.155  -2.611   4.917  1.00  0.00    -0.316 OA  
ATOM     31  O3  UNL     1       1.716  -3.809   5.854  1.00  0.00    -0.316 OA  
ATOM     32  C20 UNL     1       0.532  -3.025   6.119  1.00  0.00     0.337 C   
ENDBRANCH  23  24
ENDBRANCH  20  23
ENDBRANCH  19  20
BRANCH  19  33
ATOM     33  C21 UNL     1       3.146  -0.430  -0.494  1.00  0.00     0.010 C   
ATOM     34  C22 UNL     1       4.346  -0.835   0.394  1.00  0.00     0.017 C   
ATOM     35  C23 UNL     1       3.555  -0.609  -1.970  1.00  0.00     0.017 C   
ATOM     36  C24 UNL     1       2.888   1.073  -0.242  1.00  0.00     0.017 C   
ENDBRANCH  19  33
ENDBRANCH   3  19
TORSDOF 10
