REMARK SMILES [O-]N([O-])c1ccc(Cn2cc([C@@H]([NH2+]Cc3ccc4c(c3)OCO4)C3CCCCC3)nn2)c(F)c1
REMARK SMILES IDX 9 1 10 2 11 3 30 4 31 5 8 7 7 8 4 9 5 10 34 11 6 12 32 13
REMARK SMILES IDX 33 14 2 15 1 16 3 17 12 18 13 19 14 22 15 23 16 24 20 25
REMARK SMILES IDX 17 26 19 27 18 28 21 29 23 30 22 31 24 32 25 33 29 34 26 35
REMARK SMILES IDX 28 36 27 37
REMARK H PARENT 10 6 13 20 13 21
ROOT
ATOM     1   N2  UNL     1      -1.773   0.510  -0.414  1.00  0.00    -0.208 N   
ATOM     2   C6  UNL     1      -0.820   0.137  -1.319  1.00  0.00     0.046 A   
ATOM     3   C7  UNL     1      -0.895  -1.237  -1.331  1.00  0.00     0.127 A   
ATOM     4   N4  UNL     1      -1.871  -1.642  -0.456  1.00  0.00    -0.132 NA  
ATOM     5   N5  UNL     1      -2.400  -0.567   0.100  1.00  0.00    -0.076 NA  
ATOM     6   H5  UNL     1      -0.189   0.855  -1.825  1.00  0.00     0.083 HD  
ENDROOT
BRANCH   1   7
ATOM     7   C5  UNL     1      -2.125   1.849   0.022  1.00  0.00     0.172 C   
BRANCH   7   8
ATOM     8   C4  UNL     1      -1.267   2.274   1.177  1.00  0.00     0.007 A   
ATOM     9   C1  UNL     1       0.405   3.018   3.297  1.00  0.00     0.121 A   
ATOM     10  C2  UNL     1      -0.811   2.373   3.563  1.00  0.00     0.032 A   
ATOM     11  C24 UNL     1       0.786   3.299   1.983  1.00  0.00     0.070 A   
ATOM     12  C3  UNL     1      -1.643   2.001   2.503  1.00  0.00     0.010 A   
ATOM     13  C23 UNL     1      -0.046   2.911   0.943  1.00  0.00     0.130 A   
ATOM     14  F1  UNL     1       0.350   3.123  -0.314  1.00  0.00    -0.207 F   
BRANCH   9  15
ATOM     15  N1  UNL     1       1.303   3.370   4.401  1.00  0.00     0.092 N   
ATOM     16  O1  UNL     1       2.338   3.979   4.122  1.00  0.00    -0.138 OA  
ATOM     17  O2  UNL     1       0.972   3.030   5.542  1.00  0.00    -0.138 OA  
ENDBRANCH   9  15
ENDBRANCH   7   8
ENDBRANCH   1   7
BRANCH   3  18
ATOM     18  C8  UNL     1      -0.064  -2.275  -2.018  1.00  0.00     0.117 C   
BRANCH  18  19
ATOM     19  N3  UNL     1       0.144  -3.409  -1.025  1.00  0.00     0.249 N   
ATOM     20  H7  UNL     1      -0.564  -3.268  -0.288  1.00  0.00     0.199 HD  
ATOM     21  H8  UNL     1      -0.100  -4.312  -1.434  1.00  0.00     0.199 HD  
BRANCH  19  22
ATOM     22  C9  UNL     1       1.485  -3.495  -0.394  1.00  0.00     0.164 C   
BRANCH  22  23
ATOM     23  C10 UNL     1       1.865  -2.284   0.411  1.00  0.00    -0.002 A   
ATOM     24  C11 UNL     1       1.208  -1.979   1.626  1.00  0.00     0.012 A   
ATOM     25  C15 UNL     1       2.890  -1.437  -0.047  1.00  0.00     0.045 A   
ATOM     26  C12 UNL     1       1.571  -0.855   2.381  1.00  0.00     0.037 A   
ATOM     27  C14 UNL     1       3.224  -0.338   0.717  1.00  0.00     0.109 A   
ATOM     28  C13 UNL     1       2.588  -0.059   1.901  1.00  0.00     0.108 A   
ATOM     29  O3  UNL     1       4.197   0.566   0.418  1.00  0.00    -0.316 OA  
ATOM     30  O4  UNL     1       3.090   1.052   2.503  1.00  0.00    -0.316 OA  
ATOM     31  C16 UNL     1       4.138   1.423   1.581  1.00  0.00     0.337 C   
ENDBRANCH  22  23
ENDBRANCH  19  22
ENDBRANCH  18  19
BRANCH  18  32
ATOM     32  C17 UNL     1      -0.721  -2.845  -3.307  1.00  0.00     0.043 C   
ATOM     33  C18 UNL     1      -1.080  -1.752  -4.338  1.00  0.00     0.010 C   
ATOM     34  C22 UNL     1       0.159  -3.901  -4.017  1.00  0.00     0.010 C   
ATOM     35  C19 UNL     1       0.150  -1.109  -4.976  1.00  0.00     0.001 C   
ATOM     36  C21 UNL     1       1.398  -3.291  -4.668  1.00  0.00     0.001 C   
ATOM     37  C20 UNL     1       1.044  -2.159  -5.627  1.00  0.00     0.000 C   
ENDBRANCH  18  32
ENDBRANCH   3  18
TORSDOF 8
