REMARK SMILES COc1cccc([C@H](O)Cn2cc([C@@H]([NH2+]Cc3ccc4c(c3)OCO4)C(C)(C)C)nn2)c1
REMARK SMILES IDX 11 1 12 2 13 3 30 4 31 5 10 7 8 8 7 9 3 10 4 11 32 12 5 13
REMARK SMILES IDX 6 14 2 15 1 16 9 17 14 19 15 20 16 23 17 24 18 25 22 26
REMARK SMILES IDX 19 27 21 28 20 29 23 30 25 31 24 32 26 33 27 34 28 35 29 36
REMARK H PARENT 12 6 9 18 15 21 15 22
ROOT
ATOM     1   N1  UNL     1      -0.910   2.623   0.663  1.00  0.00    -0.209 N   
ATOM     2   C9  UNL     1      -0.810   1.788  -0.415  1.00  0.00     0.046 A   
ATOM     3   C10 UNL     1      -0.010   0.762   0.034  1.00  0.00     0.127 A   
ATOM     4   N3  UNL     1       0.402   1.044   1.314  1.00  0.00    -0.132 NA  
ATOM     5   N4  UNL     1      -0.140   2.194   1.678  1.00  0.00    -0.076 NA  
ATOM     6   H11 UNL     1      -1.341   1.969  -1.339  1.00  0.00     0.083 HD  
ENDROOT
BRANCH   1   7
ATOM     7   C8  UNL     1      -1.754   3.786   0.817  1.00  0.00     0.170 C   
BRANCH   7   8
ATOM     8   C7  UNL     1      -2.917   3.552   1.788  1.00  0.00     0.164 C   
BRANCH   8   9
ATOM     9   C6  UNL     1      -3.849   2.445   1.334  1.00  0.00    -0.015 A   
ATOM     10  C2  UNL     1      -4.522   0.097   1.438  1.00  0.00     0.075 A   
ATOM     11  C3  UNL     1      -5.497   0.338   0.471  1.00  0.00     0.033 A   
ATOM     12  C24 UNL     1      -3.706   1.150   1.862  1.00  0.00     0.040 A   
ATOM     13  C4  UNL     1      -5.649   1.620  -0.066  1.00  0.00     0.003 A   
ATOM     14  C5  UNL     1      -4.828   2.666   0.357  1.00  0.00     0.006 A   
BRANCH  10  15
ATOM     15  O1  UNL     1      -4.245  -1.113   2.014  1.00  0.00    -0.349 OA  
ATOM     16  C1  UNL     1      -5.205  -2.148   1.819  1.00  0.00     0.203 C   
ENDBRANCH  10  15
ENDBRANCH   8   9
BRANCH   8  17
ATOM     17  O2  UNL     1      -3.652   4.771   1.926  1.00  0.00    -0.387 OA  
ATOM     18  H8  UNL     1      -4.466   4.563   2.419  1.00  0.00     0.211 HD  
ENDBRANCH   8  17
ENDBRANCH   7   8
ENDBRANCH   1   7
BRANCH   3  19
ATOM     19  C11 UNL     1       0.477  -0.492  -0.631  1.00  0.00     0.120 C   
BRANCH  19  20
ATOM     20  N2  UNL     1       1.804  -0.877  -0.003  1.00  0.00     0.250 N   
ATOM     21  H13 UNL     1       2.022  -1.863  -0.150  1.00  0.00     0.199 HD  
ATOM     22  H14 UNL     1       1.676  -0.745   1.011  1.00  0.00     0.199 HD  
BRANCH  20  23
ATOM     23  C12 UNL     1       2.984  -0.056  -0.403  1.00  0.00     0.164 C   
BRANCH  23  24
ATOM     24  C13 UNL     1       3.441  -0.347  -1.806  1.00  0.00    -0.002 A   
ATOM     25  C14 UNL     1       4.104  -1.562  -2.107  1.00  0.00     0.012 A   
ATOM     26  C18 UNL     1       3.189   0.577  -2.835  1.00  0.00     0.045 A   
ATOM     27  C15 UNL     1       4.507  -1.856  -3.414  1.00  0.00     0.037 A   
ATOM     28  C17 UNL     1       3.597   0.256  -4.113  1.00  0.00     0.109 A   
ATOM     29  C16 UNL     1       4.237  -0.926  -4.394  1.00  0.00     0.108 A   
ATOM     30  O3  UNL     1       3.426   1.031  -5.218  1.00  0.00    -0.316 OA  
ATOM     31  O4  UNL     1       4.551  -1.043  -5.711  1.00  0.00    -0.316 OA  
ATOM     32  C19 UNL     1       4.069   0.215  -6.225  1.00  0.00     0.337 C   
ENDBRANCH  23  24
ENDBRANCH  20  23
ENDBRANCH  19  20
BRANCH  19  33
ATOM     33  C20 UNL     1      -0.529  -1.696  -0.551  1.00  0.00     0.010 C   
ATOM     34  C21 UNL     1       0.010  -2.902  -1.356  1.00  0.00     0.017 C   
ATOM     35  C22 UNL     1      -0.789  -2.151   0.899  1.00  0.00     0.017 C   
ATOM     36  C23 UNL     1      -1.884  -1.309  -1.188  1.00  0.00     0.017 C   
ENDBRANCH  19  33
ENDBRANCH   3  19
TORSDOF 10
