REMARK SMILES COc1cccc([C@@H](O)Cn2cc([C@@H]([NH2+]Cc3ccc4c(c3)OCO4)C(C)(C)C)nn2)c1
REMARK SMILES IDX 11 1 12 2 13 3 30 4 31 5 10 7 8 8 7 9 3 10 4 11 32 12 5 13
REMARK SMILES IDX 6 14 2 15 1 16 9 17 14 19 15 20 16 23 17 24 18 25 22 26
REMARK SMILES IDX 19 27 21 28 20 29 23 30 25 31 24 32 26 33 27 34 28 35 29 36
REMARK H PARENT 12 6 9 18 15 21 15 22
ROOT
ATOM     1   N1  UNL     1      -1.613  -2.144   0.705  1.00  0.00    -0.209 N   
ATOM     2   C9  UNL     1      -1.475  -2.000  -0.647  1.00  0.00     0.046 A   
ATOM     3   C10 UNL     1      -0.111  -1.996  -0.840  1.00  0.00     0.127 A   
ATOM     4   N3  UNL     1       0.515  -2.183   0.365  1.00  0.00    -0.132 NA  
ATOM     5   N4  UNL     1      -0.414  -2.287   1.300  1.00  0.00    -0.076 NA  
ATOM     6   H11 UNL     1      -2.326  -1.855  -1.300  1.00  0.00     0.083 HD  
ENDROOT
BRANCH   1   7
ATOM     7   C8  UNL     1      -2.824  -2.099   1.499  1.00  0.00     0.170 C   
BRANCH   7   8
ATOM     8   C7  UNL     1      -3.469  -0.705   1.566  1.00  0.00     0.164 C   
BRANCH   8   9
ATOM     9   C6  UNL     1      -2.518   0.410   1.958  1.00  0.00    -0.015 A   
ATOM     10  C2  UNL     1      -0.990   2.223   1.355  1.00  0.00     0.075 A   
ATOM     11  C3  UNL     1      -0.698   2.422   2.703  1.00  0.00     0.033 A   
ATOM     12  C24 UNL     1      -1.892   1.219   0.993  1.00  0.00     0.040 A   
ATOM     13  C4  UNL     1      -1.311   1.629   3.675  1.00  0.00     0.003 A   
ATOM     14  C5  UNL     1      -2.213   0.628   3.307  1.00  0.00     0.006 A   
BRANCH  10  15
ATOM     15  O1  UNL     1      -0.435   2.908   0.307  1.00  0.00    -0.349 OA  
ATOM     16  C1  UNL     1       0.178   4.155   0.635  1.00  0.00     0.203 C   
ENDBRANCH  10  15
ENDBRANCH   8   9
BRANCH   8  17
ATOM     17  O2  UNL     1      -4.112  -0.406   0.321  1.00  0.00    -0.387 OA  
ATOM     18  H8  UNL     1      -4.525   0.473   0.435  1.00  0.00     0.211 HD  
ENDBRANCH   8  17
ENDBRANCH   7   8
ENDBRANCH   1   7
BRANCH   3  19
ATOM     19  C11 UNL     1       0.715  -1.701  -2.054  1.00  0.00     0.120 C   
BRANCH  19  20
ATOM     20  N2  UNL     1       1.859  -0.804  -1.638  1.00  0.00     0.250 N   
ATOM     21  H13 UNL     1       2.614  -0.782  -2.325  1.00  0.00     0.199 HD  
ATOM     22  H14 UNL     1       2.256  -1.213  -0.779  1.00  0.00     0.199 HD  
BRANCH  20  23
ATOM     23  C12 UNL     1       1.470   0.597  -1.305  1.00  0.00     0.164 C   
BRANCH  23  24
ATOM     24  C13 UNL     1       2.664   1.383  -0.842  1.00  0.00    -0.002 A   
ATOM     25  C14 UNL     1       3.518   2.008  -1.781  1.00  0.00     0.012 A   
ATOM     26  C18 UNL     1       2.962   1.462   0.530  1.00  0.00     0.045 A   
ATOM     27  C15 UNL     1       4.652   2.710  -1.362  1.00  0.00     0.037 A   
ATOM     28  C17 UNL     1       4.082   2.171   0.910  1.00  0.00     0.109 A   
ATOM     29  C16 UNL     1       4.905   2.773  -0.009  1.00  0.00     0.108 A   
ATOM     30  O3  UNL     1       4.503   2.363   2.189  1.00  0.00    -0.316 OA  
ATOM     31  O4  UNL     1       5.954   3.410   0.573  1.00  0.00    -0.316 OA  
ATOM     32  C19 UNL     1       5.683   3.167   1.971  1.00  0.00     0.337 C   
ENDBRANCH  23  24
ENDBRANCH  20  23
ENDBRANCH  19  20
BRANCH  19  33
ATOM     33  C20 UNL     1       1.250  -2.972  -2.798  1.00  0.00     0.010 C   
ATOM     34  C21 UNL     1       2.223  -3.806  -1.940  1.00  0.00     0.017 C   
ATOM     35  C22 UNL     1       0.068  -3.879  -3.209  1.00  0.00     0.017 C   
ATOM     36  C23 UNL     1       1.982  -2.565  -4.099  1.00  0.00     0.017 C   
ENDBRANCH  19  33
ENDBRANCH   3  19
TORSDOF 10
