REMARK SMILES CC(C)[C@H]([NH2+]Cc1ccc2c(c1)OCO2)c1cn(Cc2ccc3[nH]cnc3c2)nn1
REMARK SMILES IDX 16 1 17 2 18 3 29 4 30 5 4 7 2 8 1 9 3 10 5 11 6 14 7 15
REMARK SMILES IDX 8 16 12 17 9 18 11 19 10 20 13 21 15 22 14 23 19 24 20 25
REMARK SMILES IDX 21 26 28 27 22 28 27 29 23 30 26 31 24 32 25 33
REMARK H PARENT 17 6 5 12 5 13 24 34
ROOT
ATOM     1   C13 UNL     1       1.994  -0.144   1.531  1.00  0.00     0.127 A   
ATOM     2   C14 UNL     1       2.510   0.212   0.304  1.00  0.00     0.046 A   
ATOM     3   N2  UNL     1       3.207  -0.896  -0.094  1.00  0.00    -0.208 N   
ATOM     4   N5  UNL     1       3.175  -1.850   0.858  1.00  0.00    -0.076 NA  
ATOM     5   N6  UNL     1       2.435  -1.400   1.858  1.00  0.00    -0.132 NA  
ATOM     6   H18 UNL     1       2.393   1.083  -0.326  1.00  0.00     0.083 HD  
ENDROOT
BRANCH   1   7
ATOM     7   C4  UNL     1       1.004   0.552   2.403  1.00  0.00     0.117 C   
BRANCH   7   8
ATOM     8   C2  UNL     1       1.631   1.339   3.584  1.00  0.00     0.037 C   
ATOM     9   C1  UNL     1       2.491   2.506   3.083  1.00  0.00     0.014 C   
ATOM     10  C3  UNL     1       2.445   0.484   4.561  1.00  0.00     0.014 C   
ENDBRANCH   7   8
BRANCH   7  11
ATOM     11  N1  UNL     1      -0.006  -0.431   2.960  1.00  0.00     0.249 N   
ATOM     12  H9  UNL     1       0.527  -1.139   3.481  1.00  0.00     0.199 HD  
ATOM     13  H10 UNL     1      -0.623   0.044   3.624  1.00  0.00     0.199 HD  
BRANCH  11  14
ATOM     14  C5  UNL     1      -0.836  -1.180   1.963  1.00  0.00     0.164 C   
BRANCH  14  15
ATOM     15  C6  UNL     1      -1.606  -0.299   1.020  1.00  0.00    -0.002 A   
ATOM     16  C7  UNL     1      -1.278  -0.279  -0.357  1.00  0.00     0.012 A   
ATOM     17  C11 UNL     1      -2.641   0.524   1.495  1.00  0.00     0.045 A   
ATOM     18  C8  UNL     1      -1.959   0.555  -1.250  1.00  0.00     0.037 A   
ATOM     19  C10 UNL     1      -3.292   1.335   0.588  1.00  0.00     0.109 A   
ATOM     20  C9  UNL     1      -2.961   1.353  -0.745  1.00  0.00     0.108 A   
ATOM     21  O1  UNL     1      -4.304   2.193   0.883  1.00  0.00    -0.316 OA  
ATOM     22  O2  UNL     1      -3.724   2.221  -1.456  1.00  0.00    -0.316 OA  
ATOM     23  C12 UNL     1      -4.594   2.735  -0.426  1.00  0.00     0.337 C   
ENDBRANCH  14  15
ENDBRANCH  11  14
ENDBRANCH   7  11
ENDBRANCH   1   7
BRANCH   3  24
ATOM     24  C15 UNL     1       3.806  -1.153  -1.393  1.00  0.00     0.169 C   
BRANCH  24  25
ATOM     25  C16 UNL     1       2.759  -1.669  -2.352  1.00  0.00    -0.026 A   
ATOM     26  C17 UNL     1       2.622  -3.050  -2.580  1.00  0.00     0.007 A   
ATOM     27  C22 UNL     1       1.874  -0.770  -2.978  1.00  0.00     0.035 A   
ATOM     28  C18 UNL     1       1.627  -3.566  -3.422  1.00  0.00     0.026 A   
ATOM     29  C21 UNL     1       0.854  -1.272  -3.798  1.00  0.00     0.086 A   
ATOM     30  C19 UNL     1       0.760  -2.642  -4.006  1.00  0.00     0.057 A   
ATOM     31  N4  UNL     1      -0.141  -0.602  -4.460  1.00  0.00    -0.239 NA  
ATOM     32  N3  UNL     1      -0.306  -2.779  -4.860  1.00  0.00    -0.304 N   
ATOM     33  C20 UNL     1      -0.814  -1.532  -5.100  1.00  0.00     0.186 A   
ATOM     34  H23 UNL     1      -0.653  -3.645  -5.248  1.00  0.00     0.154 HD  
ENDBRANCH  24  25
ENDBRANCH   3  24
TORSDOF 7
