REMARK SMILES Cc1cc(Cn2cc([C@@H]([NH2+]Cc3ccc4c(c3)OCO4)C3CCCC3)nn2)c(C)[nH]1
REMARK SMILES IDX 6 1 7 2 8 3 26 4 27 5 5 7 4 8 2 9 3 10 30 11 28 12 1 13
REMARK SMILES IDX 29 15 9 16 10 17 11 20 12 21 13 22 17 23 14 24 16 25 15 26
REMARK SMILES IDX 18 27 20 28 19 29 21 30 22 31 25 32 23 33 24 34
REMARK H PARENT 7 6 30 14 10 18 10 19
ROOT
ATOM     1   N1  UNL     1       0.620  -1.647   1.595  1.00  0.00    -0.208 N   
ATOM     2   C6  UNL     1       1.439  -1.101   0.643  1.00  0.00     0.046 A   
ATOM     3   C7  UNL     1       0.867   0.122   0.374  1.00  0.00     0.127 A   
ATOM     4   N3  UNL     1      -0.244   0.284   1.161  1.00  0.00    -0.132 NA  
ATOM     5   N4  UNL     1      -0.386  -0.802   1.902  1.00  0.00    -0.076 NA  
ATOM     6   H7  UNL     1       2.298  -1.629   0.252  1.00  0.00     0.083 HD  
ENDROOT
BRANCH   1   7
ATOM     7   C5  UNL     1       0.738  -2.941   2.249  1.00  0.00     0.171 C   
BRANCH   7   8
ATOM     8   C4  UNL     1       0.435  -4.045   1.287  1.00  0.00    -0.010 A   
ATOM     9   C2  UNL     1       0.713  -5.768  -0.162  1.00  0.00     0.004 A   
ATOM     10  C3  UNL     1       1.394  -4.867   0.628  1.00  0.00     0.025 A   
ATOM     11  N5  UNL     1      -0.628  -5.531   0.002  1.00  0.00    -0.322 N   
ATOM     12  C22 UNL     1      -0.814  -4.485   0.873  1.00  0.00     0.008 A   
ATOM     13  C1  UNL     1       1.208  -6.856  -1.044  1.00  0.00     0.061 C   
ATOM     14  H30 UNL     1      -1.368  -6.061  -0.442  1.00  0.00     0.152 HD  
ATOM     15  C23 UNL     1      -2.179  -4.013   1.231  1.00  0.00     0.062 C   
ENDBRANCH   7   8
ENDBRANCH   1   7
BRANCH   3  16
ATOM     16  C8  UNL     1       1.215   1.178  -0.623  1.00  0.00     0.117 C   
BRANCH  16  17
ATOM     17  N2  UNL     1      -0.057   1.741  -1.210  1.00  0.00     0.249 N   
ATOM     18  H9  UNL     1       0.102   2.626  -1.700  1.00  0.00     0.199 HD  
ATOM     19  H10 UNL     1      -0.677   1.956  -0.414  1.00  0.00     0.199 HD  
BRANCH  17  20
ATOM     20  C9  UNL     1      -0.799   0.819  -2.115  1.00  0.00     0.164 C   
BRANCH  20  21
ATOM     21  C10 UNL     1      -2.077   1.456  -2.583  1.00  0.00    -0.002 A   
ATOM     22  C11 UNL     1      -2.127   2.144  -3.818  1.00  0.00     0.012 A   
ATOM     23  C15 UNL     1      -3.221   1.410  -1.767  1.00  0.00     0.045 A   
ATOM     24  C12 UNL     1      -3.304   2.769  -4.243  1.00  0.00     0.037 A   
ATOM     25  C14 UNL     1      -4.365   2.037  -2.217  1.00  0.00     0.109 A   
ATOM     26  C13 UNL     1      -4.405   2.697  -3.419  1.00  0.00     0.108 A   
ATOM     27  O1  UNL     1      -5.551   2.085  -1.557  1.00  0.00    -0.316 OA  
ATOM     28  O2  UNL     1      -5.623   3.244  -3.669  1.00  0.00    -0.316 OA  
ATOM     29  C16 UNL     1      -6.358   2.830  -2.497  1.00  0.00     0.337 C   
ENDBRANCH  20  21
ENDBRANCH  17  20
ENDBRANCH  16  17
BRANCH  16  30
ATOM     30  C17 UNL     1       2.016   2.331   0.011  1.00  0.00     0.043 C   
ATOM     31  C18 UNL     1       3.376   1.893   0.563  1.00  0.00     0.010 C   
ATOM     32  C21 UNL     1       2.420   3.436  -0.973  1.00  0.00     0.010 C   
ATOM     33  C19 UNL     1       4.124   3.204   0.765  1.00  0.00     0.001 C   
ATOM     34  C20 UNL     1       3.607   4.143  -0.321  1.00  0.00     0.001 C   
ENDBRANCH  16  30
ENDBRANCH   3  16
TORSDOF 7
