REMARK SMILES ClCc1cncc(-n2cc([C@@H]([NH2+]Cc3ccc4c(c3)OCO4)C3CCCC3)nn2)c1
REMARK SMILES IDX 8 1 9 2 10 3 28 4 29 5 7 6 3 7 4 8 30 9 5 10 6 11 2 12 1 13
REMARK SMILES IDX 11 14 12 15 13 18 14 19 15 20 19 21 16 22 18 23 17 24 20 25
REMARK SMILES IDX 22 26 21 27 23 28 24 29 27 30 25 31 26 32
REMARK H PARENT 12 16 12 17
ROOT
ATOM     1   N2  UNL     1       0.011  -1.516   0.026  1.00  0.00    -0.179 N   
ATOM     2   C6  UNL     1      -0.688  -0.410   0.473  1.00  0.00     0.135 A   
ATOM     3   C7  UNL     1      -0.687   0.462  -0.592  1.00  0.00     0.127 A   
ATOM     4   N4  UNL     1      -0.075  -0.132  -1.658  1.00  0.00    -0.131 NA  
ATOM     5   N5  UNL     1       0.322  -1.336  -1.282  1.00  0.00    -0.071 NA  
ENDROOT
BRANCH   1   6
ATOM     6   C5  UNL     1       0.434  -2.649   0.748  1.00  0.00     0.076 A   
ATOM     7   C2  UNL     1       0.641  -3.934   2.794  1.00  0.00    -0.013 A   
ATOM     8   C3  UNL     1       1.339  -4.881   2.051  1.00  0.00     0.116 A   
ATOM     9   C22 UNL     1       0.192  -2.789   2.119  1.00  0.00     0.034 A   
ATOM     10  N1  UNL     1       1.604  -4.760   0.732  1.00  0.00    -0.262 NA  
ATOM     11  C4  UNL     1       1.141  -3.655   0.104  1.00  0.00     0.136 A   
BRANCH   7  12
ATOM     12  C1  UNL     1       0.426  -4.129   4.266  1.00  0.00     0.146 C   
ATOM     13  CL1 UNL     1      -1.302  -4.055   4.678  1.00  0.00    -0.122 Cl  
ENDBRANCH   7  12
ENDBRANCH   1   6
BRANCH   3  14
ATOM     14  C8  UNL     1      -1.106   1.893  -0.699  1.00  0.00     0.117 C   
BRANCH  14  15
ATOM     15  N3  UNL     1       0.042   2.691  -1.294  1.00  0.00     0.249 N   
ATOM     16  H7  UNL     1       0.547   2.041  -1.918  1.00  0.00     0.199 HD  
ATOM     17  H8  UNL     1      -0.307   3.436  -1.903  1.00  0.00     0.199 HD  
BRANCH  15  18
ATOM     18  C9  UNL     1       1.020   3.282  -0.330  1.00  0.00     0.164 C   
BRANCH  18  19
ATOM     19  C10 UNL     1       1.690   2.278   0.569  1.00  0.00    -0.002 A   
ATOM     20  C11 UNL     1       1.376   2.232   1.949  1.00  0.00     0.012 A   
ATOM     21  C15 UNL     1       2.594   1.341   0.038  1.00  0.00     0.045 A   
ATOM     22  C12 UNL     1       1.922   1.247   2.781  1.00  0.00     0.037 A   
ATOM     23  C14 UNL     1       3.108   0.378   0.883  1.00  0.00     0.109 A   
ATOM     24  C13 UNL     1       2.775   0.327   2.214  1.00  0.00     0.108 A   
ATOM     25  O1  UNL     1       3.951  -0.622   0.520  1.00  0.00    -0.316 OA  
ATOM     26  O2  UNL     1       3.363  -0.715   2.856  1.00  0.00    -0.316 OA  
ATOM     27  C16 UNL     1       4.137  -1.300   1.783  1.00  0.00     0.337 C   
ENDBRANCH  18  19
ENDBRANCH  15  18
ENDBRANCH  14  15
BRANCH  14  28
ATOM     28  C17 UNL     1      -2.348   2.068  -1.593  1.00  0.00     0.043 C   
ATOM     29  C18 UNL     1      -2.845   3.518  -1.701  1.00  0.00     0.010 C   
ATOM     30  C21 UNL     1      -3.583   1.328  -1.068  1.00  0.00     0.010 C   
ATOM     31  C19 UNL     1      -4.356   3.437  -1.928  1.00  0.00     0.001 C   
ATOM     32  C20 UNL     1      -4.721   1.961  -1.852  1.00  0.00     0.001 C   
ENDBRANCH  14  28
ENDBRANCH   3  14
TORSDOF 7
