REMARK SMILES Cc1c(Cn2cc([C@H](CC(C)C)[NH2+]Cc3ccc4c(c3)OCO4)nn2)cnn1C
REMARK SMILES IDX 5 1 6 2 7 3 24 4 25 5 4 7 3 8 2 9 28 10 26 11 27 12 1 13
REMARK SMILES IDX 29 14 8 15 9 16 10 17 11 18 12 19 13 20 14 23 15 24 16 25
REMARK SMILES IDX 20 26 17 27 19 28 18 29 21 30 23 31 22 32
REMARK H PARENT 6 6 13 21 13 22
ROOT
ATOM     1   N1  UNL     1       0.161  -1.046  -2.518  1.00  0.00    -0.208 N   
ATOM     2   C5  UNL     1       0.321  -1.095  -1.159  1.00  0.00     0.046 A   
ATOM     3   C6  UNL     1      -0.829  -1.701  -0.706  1.00  0.00     0.127 A   
ATOM     4   N3  UNL     1      -1.629  -2.006  -1.777  1.00  0.00    -0.132 NA  
ATOM     5   N4  UNL     1      -1.013  -1.606  -2.877  1.00  0.00    -0.076 NA  
ATOM     6   H6  UNL     1       1.195  -0.696  -0.663  1.00  0.00     0.083 HD  
ENDROOT
BRANCH   1   7
ATOM     7   C4  UNL     1       1.080  -0.562  -3.540  1.00  0.00     0.172 C   
BRANCH   7   8
ATOM     8   C3  UNL     1       1.767   0.691  -3.125  1.00  0.00     0.010 A   
ATOM     9   C2  UNL     1       3.077   0.879  -2.705  1.00  0.00     0.031 A   
ATOM     10  N6  UNL     1       3.202   2.227  -2.467  1.00  0.00    -0.233 N   
ATOM     11  C20 UNL     1       1.201   1.985  -3.090  1.00  0.00     0.138 A   
ATOM     12  N5  UNL     1       2.058   2.905  -2.654  1.00  0.00    -0.190 NA  
ATOM     13  C1  UNL     1       4.204  -0.074  -2.530  1.00  0.00     0.064 C   
ATOM     14  C21 UNL     1       4.385   2.941  -2.042  1.00  0.00     0.159 C   
ENDBRANCH   7   8
ENDBRANCH   1   7
BRANCH   3  15
ATOM     15  C7  UNL     1      -1.315  -2.004   0.672  1.00  0.00     0.114 C   
BRANCH  15  16
ATOM     16  C8  UNL     1      -1.032  -3.461   1.091  1.00  0.00     0.064 C   
BRANCH  16  17
ATOM     17  C9  UNL     1       0.462  -3.841   1.188  1.00  0.00    -0.012 C   
ATOM     18  C10 UNL     1       0.593  -5.324   1.551  1.00  0.00     0.007 C   
ATOM     19  C11 UNL     1       1.216  -2.992   2.212  1.00  0.00     0.007 C   
ENDBRANCH  16  17
ENDBRANCH  15  16
BRANCH  15  20
ATOM     20  N2  UNL     1      -2.821  -1.812   0.719  1.00  0.00     0.249 N   
ATOM     21  H17 UNL     1      -3.149  -1.925  -0.255  1.00  0.00     0.199 HD  
ATOM     22  H18 UNL     1      -3.267  -2.565   1.250  1.00  0.00     0.199 HD  
BRANCH  20  23
ATOM     23  C12 UNL     1      -3.306  -0.500   1.232  1.00  0.00     0.164 C   
BRANCH  23  24
ATOM     24  C13 UNL     1      -2.865   0.683   0.418  1.00  0.00    -0.002 A   
ATOM     25  C14 UNL     1      -3.397   0.902  -0.876  1.00  0.00     0.012 A   
ATOM     26  C18 UNL     1      -1.905   1.573   0.929  1.00  0.00     0.045 A   
ATOM     27  C15 UNL     1      -2.978   1.988  -1.652  1.00  0.00     0.037 A   
ATOM     28  C17 UNL     1      -1.516   2.635   0.139  1.00  0.00     0.109 A   
ATOM     29  C16 UNL     1      -2.037   2.837  -1.115  1.00  0.00     0.108 A   
ATOM     30  O1  UNL     1      -0.604   3.581   0.482  1.00  0.00    -0.316 OA  
ATOM     31  O2  UNL     1      -1.521   3.938  -1.720  1.00  0.00    -0.316 OA  
ATOM     32  C19 UNL     1      -0.625   4.423  -0.695  1.00  0.00     0.337 C   
ENDBRANCH  23  24
ENDBRANCH  20  23
ENDBRANCH  15  20
ENDBRANCH   3  15
TORSDOF 8
