REMARK SMILES Cc1cc(CCn2cc([C@@H]([NH2+]Cc3ccc4c(c3)OCO4)C3CCCCC3)nn2)cnc1Cl
REMARK SMILES IDX 7 1 8 2 9 3 28 4 29 5 6 7 5 8 4 9 2 10 3 11 32 12 31 13
REMARK SMILES IDX 30 14 1 15 33 16 10 17 11 18 12 21 13 22 14 23 18 24 15 25
REMARK SMILES IDX 17 26 16 27 19 28 21 29 20 30 22 31 23 32 27 33 24 34 26 35
REMARK SMILES IDX 25 36
REMARK H PARENT 8 6 11 19 11 20
ROOT
ATOM     1   N1  UNL     1       2.341   2.021  -2.113  1.00  0.00    -0.212 N   
ATOM     2   C7  UNL     1       1.346   2.304  -1.214  1.00  0.00     0.045 A   
ATOM     3   C8  UNL     1       1.315   1.192  -0.398  1.00  0.00     0.127 A   
ATOM     4   N3  UNL     1       2.370   0.378  -0.715  1.00  0.00    -0.132 NA  
ATOM     5   N4  UNL     1       2.990   0.894  -1.766  1.00  0.00    -0.076 NA  
ATOM     6   H9  UNL     1       0.687   3.153  -1.331  1.00  0.00     0.083 HD  
ENDROOT
BRANCH   1   7
ATOM     7   C6  UNL     1       2.468   2.557  -3.458  1.00  0.00     0.139 C   
BRANCH   7   8
ATOM     8   C5  UNL     1       1.792   1.665  -4.522  1.00  0.00     0.058 C   
BRANCH   8   9
ATOM     9   C4  UNL     1       0.369   1.302  -4.155  1.00  0.00    -0.028 A   
ATOM     10  C2  UNL     1      -1.968   1.878  -3.871  1.00  0.00    -0.013 A   
ATOM     11  C3  UNL     1      -0.704   2.160  -4.406  1.00  0.00     0.012 A   
ATOM     12  C25 UNL     1      -2.071   0.754  -3.056  1.00  0.00     0.131 A   
ATOM     13  N5  UNL     1      -1.053  -0.096  -2.769  1.00  0.00    -0.244 NA  
ATOM     14  C24 UNL     1       0.117   0.159  -3.398  1.00  0.00     0.116 A   
ATOM     15  C1  UNL     1      -3.126   2.793  -4.134  1.00  0.00     0.048 C   
ATOM     16  CL1 UNL     1      -3.497   0.359  -2.182  1.00  0.00    -0.062 Cl  
ENDBRANCH   8   9
ENDBRANCH   7   8
ENDBRANCH   1   7
BRANCH   3  17
ATOM     17  C9  UNL     1       0.273   0.760   0.587  1.00  0.00     0.117 C   
BRANCH  17  18
ATOM     18  N2  UNL     1      -0.448  -0.478   0.108  1.00  0.00     0.249 N   
ATOM     19  H11 UNL     1      -0.811  -0.291  -0.846  1.00  0.00     0.199 HD  
ATOM     20  H12 UNL     1      -1.287  -0.642   0.673  1.00  0.00     0.199 HD  
BRANCH  18  21
ATOM     21  C10 UNL     1       0.319  -1.752  -0.012  1.00  0.00     0.164 C   
BRANCH  21  22
ATOM     22  C11 UNL     1      -0.616  -2.932   0.018  1.00  0.00    -0.002 A   
ATOM     23  C12 UNL     1      -1.373  -3.281  -1.126  1.00  0.00     0.012 A   
ATOM     24  C16 UNL     1      -0.783  -3.665   1.207  1.00  0.00     0.045 A   
ATOM     25  C13 UNL     1      -2.279  -4.348  -1.091  1.00  0.00     0.037 A   
ATOM     26  C15 UNL     1      -1.683  -4.710   1.206  1.00  0.00     0.109 A   
ATOM     27  C14 UNL     1      -2.410  -5.044   0.090  1.00  0.00     0.108 A   
ATOM     28  O1  UNL     1      -1.961  -5.513   2.268  1.00  0.00    -0.316 OA  
ATOM     29  O2  UNL     1      -3.237  -6.100   0.306  1.00  0.00    -0.316 OA  
ATOM     30  C17 UNL     1      -2.933  -6.411   1.684  1.00  0.00     0.337 C   
ENDBRANCH  21  22
ENDBRANCH  18  21
ENDBRANCH  17  18
BRANCH  17  31
ATOM     31  C18 UNL     1       0.812   0.607   2.039  1.00  0.00     0.043 C   
ATOM     32  C19 UNL     1       1.391   1.933   2.586  1.00  0.00     0.010 C   
ATOM     33  C23 UNL     1      -0.234   0.089   3.048  1.00  0.00     0.010 C   
ATOM     34  C20 UNL     1       0.315   2.978   2.881  1.00  0.00     0.001 C   
ATOM     35  C22 UNL     1      -1.335   1.109   3.333  1.00  0.00     0.001 C   
ATOM     36  C21 UNL     1      -0.758   2.435   3.820  1.00  0.00     0.000 C   
ENDBRANCH  17  31
ENDBRANCH   3  17
TORSDOF 8
