REMARK SMILES CC(F)(F)c1cccc(Cn2cc([C@@H]([NH2+]Cc3ccc4c(c3)OCO4)C3CCCC3)nn2)n1
REMARK SMILES IDX 11 1 12 2 13 3 31 4 32 5 10 7 9 8 5 9 6 10 33 11 7 12 8 13
REMARK SMILES IDX 2 14 1 15 3 16 4 17 14 18 15 19 16 22 17 23 18 24 22 25
REMARK SMILES IDX 19 26 21 27 20 28 23 29 25 30 24 31 26 32 27 33 30 34 28 35
REMARK SMILES IDX 29 36
REMARK H PARENT 12 6 15 20 15 21
ROOT
ATOM     1   N1  UNL     1      -2.994   2.553  -1.163  1.00  0.00    -0.206 N   
ATOM     2   C9  UNL     1      -2.272   1.827  -2.077  1.00  0.00     0.046 A   
ATOM     3   C10 UNL     1      -0.985   2.292  -1.917  1.00  0.00     0.127 A   
ATOM     4   N3  UNL     1      -1.010   3.391  -1.095  1.00  0.00    -0.132 NA  
ATOM     5   N4  UNL     1      -2.246   3.545  -0.645  1.00  0.00    -0.076 NA  
ATOM     6   H9  UNL     1      -2.697   0.966  -2.571  1.00  0.00     0.083 HD  
ENDROOT
BRANCH   1   7
ATOM     7   C8  UNL     1      -4.243   2.158  -0.528  1.00  0.00     0.190 C   
BRANCH   7   8
ATOM     8   C7  UNL     1      -3.952   1.118   0.535  1.00  0.00     0.060 A   
ATOM     9   C3  UNL     1      -2.757  -0.806   1.152  1.00  0.00     0.109 A   
ATOM     10  C4  UNL     1      -3.297  -0.770   2.433  1.00  0.00     0.030 A   
ATOM     11  N5  UNL     1      -3.099   0.110   0.204  1.00  0.00    -0.250 NA  
ATOM     12  C5  UNL     1      -4.197   0.242   2.750  1.00  0.00     0.004 A   
ATOM     13  C6  UNL     1      -4.529   1.201   1.795  1.00  0.00     0.025 A   
BRANCH   9  14
ATOM     14  C2  UNL     1      -1.729  -1.852   0.756  1.00  0.00     0.286 C   
ATOM     15  C1  UNL     1      -2.373  -2.998  -0.002  1.00  0.00     0.094 C   
ATOM     16  F1  UNL     1      -0.754  -1.311  -0.058  1.00  0.00    -0.200 F   
ATOM     17  F2  UNL     1      -1.049  -2.374   1.815  1.00  0.00    -0.200 F   
ENDBRANCH   9  14
ENDBRANCH   7   8
ENDBRANCH   1   7
BRANCH   3  18
ATOM     18  C11 UNL     1       0.333   1.687  -2.291  1.00  0.00     0.117 C   
BRANCH  18  19
ATOM     19  N2  UNL     1       0.818   0.826  -1.147  1.00  0.00     0.249 N   
ATOM     20  H11 UNL     1       1.417   0.057  -1.459  1.00  0.00     0.199 HD  
ATOM     21  H12 UNL     1      -0.006   0.356  -0.730  1.00  0.00     0.199 HD  
BRANCH  19  22
ATOM     22  C12 UNL     1       1.510   1.569  -0.054  1.00  0.00     0.164 C   
BRANCH  22  23
ATOM     23  C13 UNL     1       1.250   0.936   1.283  1.00  0.00    -0.002 A   
ATOM     24  C14 UNL     1       0.179   1.404   2.083  1.00  0.00     0.012 A   
ATOM     25  C18 UNL     1       2.022  -0.151   1.722  1.00  0.00     0.045 A   
ATOM     26  C15 UNL     1      -0.113   0.807   3.312  1.00  0.00     0.037 A   
ATOM     27  C17 UNL     1       1.703  -0.721   2.937  1.00  0.00     0.109 A   
ATOM     28  C16 UNL     1       0.665  -0.259   3.709  1.00  0.00     0.108 A   
ATOM     29  O1  UNL     1       2.340  -1.780   3.505  1.00  0.00    -0.316 OA  
ATOM     30  O2  UNL     1       0.512  -0.972   4.855  1.00  0.00    -0.316 OA  
ATOM     31  C19 UNL     1       1.594  -1.921   4.733  1.00  0.00     0.337 C   
ENDBRANCH  22  23
ENDBRANCH  19  22
ENDBRANCH  18  19
BRANCH  18  32
ATOM     32  C20 UNL     1       0.321   0.888  -3.608  1.00  0.00     0.043 C   
ATOM     33  C21 UNL     1      -0.360  -0.495  -3.586  1.00  0.00     0.010 C   
ATOM     34  C24 UNL     1       1.732   0.619  -4.156  1.00  0.00     0.010 C   
ATOM     35  C22 UNL     1       0.580  -1.451  -4.318  1.00  0.00     0.001 C   
ATOM     36  C23 UNL     1       1.529  -0.557  -5.096  1.00  0.00     0.001 C   
ENDBRANCH  18  32
ENDBRANCH   3  18
TORSDOF 8
