REMARK SMILES Cc1ccc(-n2cc([C@H](CC(C)C)[NH2+]Cc3ccc4c(c3)OCO4)nn2)c(Cl)n1
REMARK SMILES IDX 9 1 8 2 6 3 7 4 26 5 25 6 5 7 2 8 3 9 29 10 4 11 27 12 1 13
REMARK SMILES IDX 28 14 10 15 11 16 12 17 13 18 14 19 15 22 16 23 17 24 21 25
REMARK SMILES IDX 18 26 20 27 19 28 22 29 24 30 23 31
REMARK H PARENT 14 20 14 21
ROOT
ATOM     1   C8  UNL     1       1.563   0.020   1.970  1.00  0.00     0.114 C   
ENDROOT
BRANCH   1   2
ATOM     2   C7  UNL     1       0.851   0.588   0.787  1.00  0.00     0.127 A   
ATOM     3   N1  UNL     1      -0.562   1.155  -0.795  1.00  0.00    -0.177 N   
ATOM     4   C6  UNL     1      -0.490   0.756   0.525  1.00  0.00     0.135 A   
ATOM     5   N4  UNL     1       0.715   1.334  -1.245  1.00  0.00    -0.071 NA  
ATOM     6   N3  UNL     1       1.569   0.955  -0.311  1.00  0.00    -0.131 NA  
BRANCH   3   7
ATOM     7   C5  UNL     1      -1.660   1.376  -1.662  1.00  0.00     0.095 A   
ATOM     8   C2  UNL     1      -3.741   1.858  -3.430  1.00  0.00     0.039 A   
ATOM     9   C3  UNL     1      -2.457   2.225  -3.796  1.00  0.00     0.025 A   
ATOM     10  N5  UNL     1      -4.003   1.254  -2.251  1.00  0.00    -0.239 NA  
ATOM     11  C4  UNL     1      -1.412   1.982  -2.907  1.00  0.00     0.031 A   
ATOM     12  C21 UNL     1      -2.977   1.022  -1.397  1.00  0.00     0.152 A   
ATOM     13  C1  UNL     1      -4.895   2.091  -4.359  1.00  0.00     0.067 C   
ATOM     14  CL1 UNL     1      -3.553   0.159  -0.026  1.00  0.00    -0.060 Cl  
ENDBRANCH   3   7
ENDBRANCH   1   2
BRANCH   1  15
ATOM     15  C9  UNL     1       2.327   1.092   2.770  1.00  0.00     0.064 C   
BRANCH  15  16
ATOM     16  C10 UNL     1       1.445   2.195   3.394  1.00  0.00    -0.012 C   
ATOM     17  C11 UNL     1       0.416   1.634   4.377  1.00  0.00     0.007 C   
ATOM     18  C12 UNL     1       2.330   3.223   4.105  1.00  0.00     0.007 C   
ENDBRANCH  15  16
ENDBRANCH   1  15
BRANCH   1  19
ATOM     19  N2  UNL     1       2.585  -0.998   1.489  1.00  0.00     0.249 N   
ATOM     20  H17 UNL     1       2.894  -0.677   0.558  1.00  0.00     0.199 HD  
ATOM     21  H18 UNL     1       3.420  -0.973   2.083  1.00  0.00     0.199 HD  
BRANCH  19  22
ATOM     22  C13 UNL     1       2.120  -2.414   1.377  1.00  0.00     0.164 C   
BRANCH  22  23
ATOM     23  C14 UNL     1       0.937  -2.612   0.471  1.00  0.00    -0.002 A   
ATOM     24  C15 UNL     1      -0.323  -2.967   1.013  1.00  0.00     0.012 A   
ATOM     25  C19 UNL     1       1.056  -2.405  -0.915  1.00  0.00     0.045 A   
ATOM     26  C16 UNL     1      -1.450  -3.090   0.195  1.00  0.00     0.037 A   
ATOM     27  C18 UNL     1      -0.079  -2.525  -1.692  1.00  0.00     0.109 A   
ATOM     28  C17 UNL     1      -1.296  -2.854  -1.153  1.00  0.00     0.108 A   
ATOM     29  O1  UNL     1      -0.145  -2.317  -3.033  1.00  0.00    -0.316 OA  
ATOM     30  O2  UNL     1      -2.282  -2.900  -2.085  1.00  0.00    -0.316 OA  
ATOM     31  C20 UNL     1      -1.544  -2.581  -3.284  1.00  0.00     0.337 C   
ENDBRANCH  22  23
ENDBRANCH  19  22
ENDBRANCH   1  19
TORSDOF 7
