REMARK SMILES COc1cccc(Cn2cc([C@@H]([NH2+]Cc3ccc4c(c3)OCO4)C3CCCCC3)nn2)c1O
REMARK SMILES IDX 9 1 10 2 11 3 30 4 31 5 8 7 7 8 3 9 4 10 32 11 5 12 6 13
REMARK SMILES IDX 2 14 1 15 33 16 12 18 13 19 14 22 15 23 16 24 20 25 17 26
REMARK SMILES IDX 19 27 18 28 21 29 23 30 22 31 24 32 25 33 29 34 26 35 28 36
REMARK SMILES IDX 27 37
REMARK H PARENT 10 6 33 17 13 20 13 21
ROOT
ATOM     1   N1  UNL     1      -1.750  -0.919  -0.800  1.00  0.00    -0.208 N   
ATOM     2   C8  UNL     1      -0.741  -0.132  -0.316  1.00  0.00     0.046 A   
ATOM     3   C9  UNL     1      -0.845  -0.260   1.050  1.00  0.00     0.127 A   
ATOM     4   N3  UNL     1      -1.930  -1.044   1.348  1.00  0.00    -0.132 NA  
ATOM     5   N4  UNL     1      -2.484  -1.429   0.210  1.00  0.00    -0.076 NA  
ATOM     6   H9  UNL     1      -0.058   0.393  -0.970  1.00  0.00     0.083 HD  
ENDROOT
BRANCH   1   7
ATOM     7   C7  UNL     1      -2.104  -1.183  -2.184  1.00  0.00     0.172 C   
BRANCH   7   8
ATOM     8   C6  UNL     1      -1.150  -2.163  -2.811  1.00  0.00     0.004 A   
ATOM     9   C2  UNL     1       0.895  -2.638  -4.072  1.00  0.00     0.105 A   
ATOM     10  C3  UNL     1       0.639  -4.003  -3.977  1.00  0.00     0.036 A   
ATOM     11  C25 UNL     1      -0.002  -1.735  -3.482  1.00  0.00     0.106 A   
ATOM     12  C4  UNL     1      -0.497  -4.452  -3.297  1.00  0.00     0.003 A   
ATOM     13  C5  UNL     1      -1.383  -3.542  -2.717  1.00  0.00     0.008 A   
BRANCH   9  14
ATOM     14  O1  UNL     1       1.969  -2.056  -4.694  1.00  0.00    -0.347 OA  
ATOM     15  C1  UNL     1       2.868  -2.933  -5.366  1.00  0.00     0.203 C   
ENDBRANCH   9  14
BRANCH  11  16
ATOM     16  O4  UNL     1       0.258  -0.389  -3.568  1.00  0.00    -0.358 OA  
ATOM     17  H31 UNL     1       1.054  -0.328  -4.138  1.00  0.00     0.218 HD  
ENDBRANCH  11  16
ENDBRANCH   7   8
ENDBRANCH   1   7
BRANCH   3  18
ATOM     18  C10 UNL     1      -0.043   0.340   2.157  1.00  0.00     0.117 C   
BRANCH  18  19
ATOM     19  N2  UNL     1      -0.940   0.635   3.341  1.00  0.00     0.249 N   
ATOM     20  H11 UNL     1      -1.504  -0.214   3.490  1.00  0.00     0.199 HD  
ATOM     21  H12 UNL     1      -0.380   0.783   4.186  1.00  0.00     0.199 HD  
BRANCH  19  22
ATOM     22  C11 UNL     1      -1.897   1.769   3.175  1.00  0.00     0.164 C   
BRANCH  22  23
ATOM     23  C12 UNL     1      -1.214   3.106   3.104  1.00  0.00    -0.002 A   
ATOM     24  C13 UNL     1      -1.151   3.813   1.878  1.00  0.00     0.012 A   
ATOM     25  C17 UNL     1      -0.607   3.653   4.248  1.00  0.00     0.045 A   
ATOM     26  C14 UNL     1      -0.485   5.041   1.789  1.00  0.00     0.037 A   
ATOM     27  C16 UNL     1       0.041   4.865   4.125  1.00  0.00     0.109 A   
ATOM     28  C15 UNL     1       0.103   5.539   2.930  1.00  0.00     0.108 A   
ATOM     29  O2  UNL     1       0.682   5.523   5.126  1.00  0.00    -0.316 OA  
ATOM     30  O3  UNL     1       0.788   6.707   3.029  1.00  0.00    -0.316 OA  
ATOM     31  C18 UNL     1       1.140   6.705   4.429  1.00  0.00     0.337 C   
ENDBRANCH  22  23
ENDBRANCH  19  22
ENDBRANCH  18  19
BRANCH  18  32
ATOM     32  C19 UNL     1       1.134  -0.549   2.647  1.00  0.00     0.043 C   
ATOM     33  C20 UNL     1       2.208  -0.720   1.554  1.00  0.00     0.010 C   
ATOM     34  C24 UNL     1       0.707  -1.926   3.192  1.00  0.00     0.010 C   
ATOM     35  C21 UNL     1       3.405  -1.522   2.061  1.00  0.00     0.001 C   
ATOM     36  C23 UNL     1       1.907  -2.734   3.689  1.00  0.00     0.001 C   
ATOM     37  C22 UNL     1       2.976  -2.879   2.611  1.00  0.00     0.000 C   
ENDBRANCH  18  32
ENDBRANCH   3  18
TORSDOF 9
