REMARK SMILES CC(C)[C@H]([NH2+]Cc1ccc2c(c1)OCO2)c1cn(Cc2cn(C)nc2Cl)nn1
REMARK SMILES IDX 16 1 17 2 18 3 27 4 28 5 4 7 2 8 1 9 3 10 5 11 6 14 7 15
REMARK SMILES IDX 8 16 12 17 9 18 11 19 10 20 13 21 15 22 14 23 19 24 20 25
REMARK SMILES IDX 21 26 25 27 22 28 24 29 26 30 23 31
REMARK H PARENT 17 6 5 12 5 13
ROOT
ATOM     1   C13 UNL     1       1.407  -0.026  -0.990  1.00  0.00     0.127 A   
ATOM     2   C14 UNL     1       1.672   1.010  -0.122  1.00  0.00     0.046 A   
ATOM     3   N2  UNL     1       2.216   1.980  -0.923  1.00  0.00    -0.208 N   
ATOM     4   N5  UNL     1       2.340   1.539  -2.189  1.00  0.00    -0.076 NA  
ATOM     5   N6  UNL     1       1.839   0.316  -2.244  1.00  0.00    -0.132 NA  
ATOM     6   H18 UNL     1       1.476   1.167   0.930  1.00  0.00     0.083 HD  
ENDROOT
BRANCH   1   7
ATOM     7   C4  UNL     1       0.676  -1.313  -0.789  1.00  0.00     0.117 C   
BRANCH   7   8
ATOM     8   C2  UNL     1       1.594  -2.531  -0.505  1.00  0.00     0.037 C   
ATOM     9   C1  UNL     1       2.617  -2.830  -1.609  1.00  0.00     0.014 C   
ATOM     10  C3  UNL     1       2.316  -2.387   0.839  1.00  0.00     0.014 C   
ENDBRANCH   7   8
BRANCH   7  11
ATOM     11  N1  UNL     1      -0.170  -1.621  -2.008  1.00  0.00     0.249 N   
ATOM     12  H9  UNL     1       0.449  -1.517  -2.825  1.00  0.00     0.199 HD  
ATOM     13  H10 UNL     1      -0.489  -2.593  -1.984  1.00  0.00     0.199 HD  
BRANCH  11  14
ATOM     14  C5  UNL     1      -1.345  -0.723  -2.239  1.00  0.00     0.164 C   
BRANCH  14  15
ATOM     15  C6  UNL     1      -2.404  -0.861  -1.180  1.00  0.00    -0.002 A   
ATOM     16  C7  UNL     1      -2.638   0.192  -0.262  1.00  0.00     0.012 A   
ATOM     17  C11 UNL     1      -3.152  -2.046  -1.076  1.00  0.00     0.045 A   
ATOM     18  C8  UNL     1      -3.591   0.065   0.754  1.00  0.00     0.037 A   
ATOM     19  C10 UNL     1      -4.082  -2.141  -0.060  1.00  0.00     0.109 A   
ATOM     20  C9  UNL     1      -4.292  -1.117   0.831  1.00  0.00     0.108 A   
ATOM     21  O1  UNL     1      -4.870  -3.220   0.191  1.00  0.00    -0.316 OA  
ATOM     22  O2  UNL     1      -5.238  -1.424   1.756  1.00  0.00    -0.316 OA  
ATOM     23  C12 UNL     1      -5.650  -2.733   1.308  1.00  0.00     0.337 C   
ENDBRANCH  14  15
ENDBRANCH  11  14
ENDBRANCH   7  11
ENDBRANCH   1   7
BRANCH   3  24
ATOM     24  C15 UNL     1       2.566   3.355  -0.585  1.00  0.00     0.174 C   
BRANCH  24  25
ATOM     25  C16 UNL     1       1.476   4.027   0.176  1.00  0.00     0.026 A   
ATOM     26  C17 UNL     1       1.555   4.647   1.412  1.00  0.00     0.104 A   
ATOM     27  C19 UNL     1       0.117   4.194  -0.195  1.00  0.00     0.153 A   
ATOM     28  N3  UNL     1       0.298   5.101   1.701  1.00  0.00    -0.234 N   
ATOM     29  N4  UNL     1      -0.605   4.788   0.756  1.00  0.00    -0.170 NA  
ATOM     30  CL1 UNL     1      -0.626   3.675  -1.631  1.00  0.00    -0.060 Cl  
ATOM     31  C18 UNL     1      -0.116   5.844   2.871  1.00  0.00     0.159 C   
ENDBRANCH  24  25
ENDBRANCH   3  24
TORSDOF 7
