REMARK SMILES COc1cc(F)cc(F)c1Cn1cc([C@@H]([NH2+]Cc2ccc3c(c2)OCO3)C2CCCC2)nn1
REMARK SMILES IDX 12 1 13 2 14 3 32 4 33 5 11 7 10 8 3 9 4 10 5 11 8 12 7 13
REMARK SMILES IDX 6 14 9 15 2 16 1 17 15 18 16 19 17 22 18 23 19 24 23 25
REMARK SMILES IDX 20 26 22 27 21 28 24 29 26 30 25 31 27 32 28 33 31 34 29 35
REMARK SMILES IDX 30 36
REMARK H PARENT 13 6 16 20 16 21
ROOT
ATOM     1   N1  UNL     1       0.843  -1.988   1.869  1.00  0.00    -0.208 N   
ATOM     2   C9  UNL     1       0.174  -0.796   1.817  1.00  0.00     0.046 A   
ATOM     3   C10 UNL     1      -1.043  -1.119   1.261  1.00  0.00     0.127 A   
ATOM     4   N3  UNL     1      -1.089  -2.469   1.031  1.00  0.00    -0.132 NA  
ATOM     5   N4  UNL     1       0.072  -2.987   1.397  1.00  0.00    -0.076 NA  
ATOM     6   H8  UNL     1       0.623   0.135   2.136  1.00  0.00     0.083 HD  
ENDROOT
BRANCH   1   7
ATOM     7   C8  UNL     1       2.201  -2.240   2.320  1.00  0.00     0.175 C   
BRANCH   7   8
ATOM     8   C7  UNL     1       3.187  -2.026   1.200  1.00  0.00     0.038 A   
ATOM     9   C2  UNL     1       3.730  -0.759   0.913  1.00  0.00     0.085 A   
ATOM     10  C3  UNL     1       4.617  -0.615  -0.156  1.00  0.00     0.073 A   
ATOM     11  C4  UNL     1       4.963  -1.723  -0.926  1.00  0.00     0.128 A   
ATOM     12  C6  UNL     1       3.557  -3.116   0.401  1.00  0.00     0.133 A   
ATOM     13  C5  UNL     1       4.442  -2.977  -0.658  1.00  0.00     0.079 A   
ATOM     14  F1  UNL     1       5.809  -1.566  -1.953  1.00  0.00    -0.207 F   
ATOM     15  F2  UNL     1       3.046  -4.329   0.655  1.00  0.00    -0.206 F   
BRANCH   9  16
ATOM     16  O1  UNL     1       3.310   0.269   1.716  1.00  0.00    -0.349 OA  
ATOM     17  C1  UNL     1       4.054   1.484   1.649  1.00  0.00     0.203 C   
ENDBRANCH   9  16
ENDBRANCH   7   8
ENDBRANCH   1   7
BRANCH   3  18
ATOM     18  C11 UNL     1      -2.186  -0.257   0.839  1.00  0.00     0.117 C   
BRANCH  18  19
ATOM     19  N2  UNL     1      -2.748  -0.730  -0.487  1.00  0.00     0.249 N   
ATOM     20  H10 UNL     1      -3.076  -1.694  -0.338  1.00  0.00     0.199 HD  
ATOM     21  H11 UNL     1      -3.559  -0.164  -0.747  1.00  0.00     0.199 HD  
BRANCH  19  22
ATOM     22  C12 UNL     1      -1.800  -0.768  -1.646  1.00  0.00     0.164 C   
BRANCH  22  23
ATOM     23  C13 UNL     1      -1.124   0.547  -1.918  1.00  0.00    -0.002 A   
ATOM     24  C14 UNL     1       0.265   0.691  -1.682  1.00  0.00     0.012 A   
ATOM     25  C18 UNL     1      -1.865   1.648  -2.380  1.00  0.00     0.045 A   
ATOM     26  C15 UNL     1       0.909   1.914  -1.891  1.00  0.00     0.037 A   
ATOM     27  C17 UNL     1      -1.199   2.841  -2.574  1.00  0.00     0.109 A   
ATOM     28  C16 UNL     1       0.147   2.971  -2.335  1.00  0.00     0.108 A   
ATOM     29  O2  UNL     1      -1.765   3.998  -3.005  1.00  0.00    -0.316 OA  
ATOM     30  O3  UNL     1       0.598   4.227  -2.586  1.00  0.00    -0.316 OA  
ATOM     31  C19 UNL     1      -0.613   4.871  -3.040  1.00  0.00     0.337 C   
ENDBRANCH  22  23
ENDBRANCH  19  22
ENDBRANCH  18  19
BRANCH  18  32
ATOM     32  C20 UNL     1      -3.324  -0.265   1.881  1.00  0.00     0.043 C   
ATOM     33  C21 UNL     1      -4.535   0.595   1.509  1.00  0.00     0.010 C   
ATOM     34  C24 UNL     1      -2.907   0.336   3.232  1.00  0.00     0.010 C   
ATOM     35  C22 UNL     1      -5.284   0.735   2.826  1.00  0.00     0.001 C   
ATOM     36  C23 UNL     1      -4.203   0.798   3.899  1.00  0.00     0.001 C   
ENDBRANCH  18  32
ENDBRANCH   3  18
TORSDOF 8
