REMARK SMILES COc1cncc(CCn2cc([C@H](CC(C)C)[NH2+]Cc3ccc4c(c3)OCO4)nn2)c1
REMARK SMILES IDX 10 1 11 2 12 3 29 4 30 5 9 7 8 8 7 9 3 10 4 11 31 12 5 13
REMARK SMILES IDX 6 14 2 15 1 16 13 17 14 18 15 19 16 20 17 21 18 22 19 25
REMARK SMILES IDX 20 26 21 27 25 28 22 29 24 30 23 31 26 32 28 33 27 34
REMARK H PARENT 11 6 18 23 18 24
ROOT
ATOM     1   N2  UNL     1      -2.539   0.623   2.812  1.00  0.00    -0.212 N   
ATOM     2   C8  UNL     1      -1.620   1.236   2.003  1.00  0.00     0.045 A   
ATOM     3   C9  UNL     1      -0.497   0.441   2.114  1.00  0.00     0.127 A   
ATOM     4   N4  UNL     1      -0.728  -0.518   3.066  1.00  0.00    -0.132 NA  
ATOM     5   N5  UNL     1      -1.979  -0.398   3.487  1.00  0.00    -0.076 NA  
ATOM     6   H10 UNL     1      -1.885   2.056   1.349  1.00  0.00     0.083 HD  
ENDROOT
BRANCH   1   7
ATOM     7   C7  UNL     1      -3.985   0.728   2.710  1.00  0.00     0.139 C   
BRANCH   7   8
ATOM     8   C6  UNL     1      -4.594  -0.383   1.833  1.00  0.00     0.058 C   
BRANCH   8   9
ATOM     9   C5  UNL     1      -3.940  -0.471   0.474  1.00  0.00    -0.025 A   
ATOM     10  C2  UNL     1      -3.604   0.344  -1.779  1.00  0.00     0.093 A   
ATOM     11  C3  UNL     1      -2.492  -0.484  -1.855  1.00  0.00     0.144 A   
ATOM     12  C23 UNL     1      -4.315   0.365  -0.578  1.00  0.00     0.040 A   
ATOM     13  N1  UNL     1      -2.051  -1.272  -0.834  1.00  0.00    -0.262 NA  
ATOM     14  C4  UNL     1      -2.843  -1.305   0.269  1.00  0.00     0.114 A   
BRANCH  10  15
ATOM     15  O1  UNL     1      -4.066   1.184  -2.750  1.00  0.00    -0.348 OA  
ATOM     16  C1  UNL     1      -3.533   1.016  -4.063  1.00  0.00     0.203 C   
ENDBRANCH  10  15
ENDBRANCH   8   9
ENDBRANCH   7   8
ENDBRANCH   1   7
BRANCH   3  17
ATOM     17  C10 UNL     1       0.752   0.383   1.289  1.00  0.00     0.114 C   
BRANCH  17  18
ATOM     18  C11 UNL     1       1.084   1.726   0.607  1.00  0.00     0.064 C   
BRANCH  18  19
ATOM     19  C12 UNL     1       2.497   1.824  -0.011  1.00  0.00    -0.012 C   
ATOM     20  C13 UNL     1       2.622   3.130  -0.803  1.00  0.00     0.007 C   
ATOM     21  C14 UNL     1       3.601   1.768   1.049  1.00  0.00     0.007 C   
ENDBRANCH  18  19
ENDBRANCH  17  18
BRANCH  17  22
ATOM     22  N3  UNL     1       0.607  -0.678   0.222  1.00  0.00     0.249 N   
ATOM     23  H21 UNL     1       1.148  -0.444  -0.613  1.00  0.00     0.199 HD  
ATOM     24  H22 UNL     1      -0.380  -0.707  -0.097  1.00  0.00     0.199 HD  
BRANCH  22  25
ATOM     25  C15 UNL     1       0.955  -2.071   0.627  1.00  0.00     0.164 C   
BRANCH  25  26
ATOM     26  C16 UNL     1       2.441  -2.301   0.617  1.00  0.00    -0.002 A   
ATOM     27  C17 UNL     1       3.178  -2.325   1.825  1.00  0.00     0.012 A   
ATOM     28  C21 UNL     1       3.117  -2.452  -0.608  1.00  0.00     0.045 A   
ATOM     29  C18 UNL     1       4.569  -2.485   1.816  1.00  0.00     0.037 A   
ATOM     30  C20 UNL     1       4.487  -2.605  -0.581  1.00  0.00     0.109 A   
ATOM     31  C19 UNL     1       5.195  -2.619   0.597  1.00  0.00     0.108 A   
ATOM     32  O2  UNL     1       5.286  -2.753  -1.669  1.00  0.00    -0.316 OA  
ATOM     33  O3  UNL     1       6.530  -2.776   0.398  1.00  0.00    -0.316 OA  
ATOM     34  C22 UNL     1       6.582  -2.892  -1.040  1.00  0.00     0.337 C   
ENDBRANCH  25  26
ENDBRANCH  22  25
ENDBRANCH  17  22
ENDBRANCH   3  17
TORSDOF 10
