REMARK SMILES Clc1ccc(CCn2cc([C@@H]([NH2+]Cc3ccc4c(c3)OCO4)C3CCCCC3)nn2)nc1
REMARK SMILES IDX 8 1 9 2 10 3 29 4 30 5 7 7 6 8 5 9 2 10 3 11 32 12 4 13
REMARK SMILES IDX 31 14 1 15 11 16 12 17 13 20 14 21 15 22 19 23 16 24 18 25
REMARK SMILES IDX 17 26 20 27 22 28 21 29 23 30 24 31 28 32 25 33 27 34 26 35
REMARK H PARENT 9 6 12 18 12 19
ROOT
ATOM     1   N1  UNL     1       2.942   1.575   0.630  1.00  0.00    -0.212 N   
ATOM     2   C7  UNL     1       2.670   0.351   1.171  1.00  0.00     0.045 A   
ATOM     3   C8  UNL     1       1.360   0.448   1.585  1.00  0.00     0.127 A   
ATOM     4   N3  UNL     1       0.927   1.734   1.374  1.00  0.00    -0.132 NA  
ATOM     5   N4  UNL     1       1.898   2.411   0.784  1.00  0.00    -0.076 NA  
ATOM     6   H7  UNL     1       3.395  -0.451   1.153  1.00  0.00     0.083 HD  
ENDROOT
BRANCH   1   7
ATOM     7   C6  UNL     1       4.140   2.001  -0.062  1.00  0.00     0.140 C   
BRANCH   7   8
ATOM     8   C5  UNL     1       3.917   2.199  -1.563  1.00  0.00     0.077 C   
BRANCH   8   9
ATOM     9   C4  UNL     1       3.490   0.946  -2.295  1.00  0.00     0.042 A   
ATOM     10  C1  UNL     1       2.767  -1.343  -3.643  1.00  0.00     0.059 A   
ATOM     11  C2  UNL     1       2.364  -0.113  -4.140  1.00  0.00     0.024 A   
ATOM     12  C24 UNL     1       3.532  -1.363  -2.488  1.00  0.00     0.131 A   
ATOM     13  C3  UNL     1       2.740   1.051  -3.465  1.00  0.00     0.025 A   
ATOM     14  N5  UNL     1       3.893  -0.250  -1.798  1.00  0.00    -0.260 NA  
ATOM     15  CL1 UNL     1       2.310  -2.800  -4.425  1.00  0.00    -0.083 Cl  
ENDBRANCH   8   9
ENDBRANCH   7   8
ENDBRANCH   1   7
BRANCH   3  16
ATOM     16  C9  UNL     1       0.440  -0.550   2.218  1.00  0.00     0.117 C   
BRANCH  16  17
ATOM     17  N2  UNL     1      -0.878   0.084   2.602  1.00  0.00     0.249 N   
ATOM     18  H9  UNL     1      -0.623   0.992   3.019  1.00  0.00     0.199 HD  
ATOM     19  H10 UNL     1      -1.330  -0.448   3.352  1.00  0.00     0.199 HD  
BRANCH  17  20
ATOM     20  C10 UNL     1      -1.877   0.395   1.543  1.00  0.00     0.164 C   
BRANCH  20  21
ATOM     21  C11 UNL     1      -2.937   1.320   2.077  1.00  0.00    -0.002 A   
ATOM     22  C12 UNL     1      -4.157   0.808   2.581  1.00  0.00     0.012 A   
ATOM     23  C16 UNL     1      -2.694   2.705   2.122  1.00  0.00     0.045 A   
ATOM     24  C13 UNL     1      -5.128   1.665   3.114  1.00  0.00     0.037 A   
ATOM     25  C15 UNL     1      -3.673   3.520   2.654  1.00  0.00     0.109 A   
ATOM     26  C14 UNL     1      -4.856   3.015   3.134  1.00  0.00     0.108 A   
ATOM     27  O1  UNL     1      -3.599   4.872   2.771  1.00  0.00    -0.316 OA  
ATOM     28  O2  UNL     1      -5.680   3.987   3.611  1.00  0.00    -0.316 OA  
ATOM     29  C17 UNL     1      -4.883   5.167   3.365  1.00  0.00     0.337 C   
ENDBRANCH  20  21
ENDBRANCH  17  20
ENDBRANCH  16  17
BRANCH  16  30
ATOM     30  C18 UNL     1       0.222  -1.886   1.454  1.00  0.00     0.043 C   
ATOM     31  C19 UNL     1       1.342  -2.895   1.798  1.00  0.00     0.010 C   
ATOM     32  C23 UNL     1       0.096  -1.753  -0.080  1.00  0.00     0.010 C   
ATOM     33  C20 UNL     1       1.132  -4.245   1.114  1.00  0.00     0.001 C   
ATOM     34  C22 UNL     1      -0.104  -3.109  -0.759  1.00  0.00     0.001 C   
ATOM     35  C21 UNL     1       1.002  -4.093  -0.396  1.00  0.00     0.000 C   
ENDBRANCH  16  30
ENDBRANCH   3  16
TORSDOF 8
