REMARK SMILES CC(C)(C)[C@H]([NH2+]Cc1ccc2c(c1)OCO2)c1cn(Cc2c(F)cccc2N([O-])[O-])nn1
REMARK SMILES IDX 17 1 18 2 19 3 31 4 32 5 5 7 2 8 1 9 3 10 4 11 6 12 7 15
REMARK SMILES IDX 8 16 9 17 13 18 10 19 12 20 11 21 14 22 16 23 15 24 20 25
REMARK SMILES IDX 21 26 22 27 27 28 24 29 26 30 25 31 23 32 28 33 29 34 30 35
REMARK H PARENT 18 6 6 13 6 14
ROOT
ATOM     1   C14 UNL     1      -0.248  -2.000   0.265  1.00  0.00     0.127 A   
ATOM     2   C15 UNL     1      -0.953  -2.656  -0.721  1.00  0.00     0.046 A   
ATOM     3   N2  UNL     1      -2.166  -2.022  -0.740  1.00  0.00    -0.208 N   
ATOM     4   N4  UNL     1      -2.217  -1.058   0.199  1.00  0.00    -0.076 NA  
ATOM     5   N5  UNL     1      -1.046  -1.028   0.814  1.00  0.00    -0.132 NA  
ATOM     6   H20 UNL     1      -0.699  -3.446  -1.416  1.00  0.00     0.083 HD  
ENDROOT
BRANCH   1   7
ATOM     7   C5  UNL     1       1.182  -2.110   0.704  1.00  0.00     0.120 C   
BRANCH   7   8
ATOM     8   C2  UNL     1       1.403  -3.033   1.952  1.00  0.00     0.010 C   
ATOM     9   C1  UNL     1       0.829  -4.442   1.681  1.00  0.00     0.017 C   
ATOM     10  C3  UNL     1       0.743  -2.477   3.229  1.00  0.00     0.017 C   
ATOM     11  C4  UNL     1       2.917  -3.207   2.223  1.00  0.00     0.017 C   
ENDBRANCH   7   8
BRANCH   7  12
ATOM     12  N1  UNL     1       1.699  -0.717   0.979  1.00  0.00     0.250 N   
ATOM     13  H11 UNL     1       0.950  -0.225   1.492  1.00  0.00     0.199 HD  
ATOM     14  H12 UNL     1       2.514  -0.709   1.595  1.00  0.00     0.199 HD  
BRANCH  12  15
ATOM     15  C6  UNL     1       2.001   0.104  -0.229  1.00  0.00     0.164 C   
BRANCH  15  16
ATOM     16  C7  UNL     1       2.291   1.523   0.170  1.00  0.00    -0.002 A   
ATOM     17  C8  UNL     1       1.247   2.478   0.183  1.00  0.00     0.012 A   
ATOM     18  C12 UNL     1       3.577   1.893   0.604  1.00  0.00     0.045 A   
ATOM     19  C9  UNL     1       1.479   3.789   0.613  1.00  0.00     0.037 A   
ATOM     20  C11 UNL     1       3.770   3.192   1.026  1.00  0.00     0.109 A   
ATOM     21  C10 UNL     1       2.752   4.113   1.030  1.00  0.00     0.108 A   
ATOM     22  O1  UNL     1       4.940   3.708   1.484  1.00  0.00    -0.316 OA  
ATOM     23  O2  UNL     1       3.154   5.327   1.485  1.00  0.00    -0.316 OA  
ATOM     24  C13 UNL     1       4.547   5.070   1.765  1.00  0.00     0.337 C   
ENDBRANCH  15  16
ENDBRANCH  12  15
ENDBRANCH   7  12
ENDBRANCH   1   7
BRANCH   3  25
ATOM     25  C16 UNL     1      -3.264  -2.212  -1.679  1.00  0.00     0.174 C   
BRANCH  25  26
ATOM     26  C17 UNL     1      -3.705  -0.927  -2.341  1.00  0.00     0.036 A   
ATOM     27  C18 UNL     1      -5.054  -0.563  -2.251  1.00  0.00     0.130 A   
ATOM     28  C22 UNL     1      -2.864  -0.050  -3.056  1.00  0.00     0.125 A   
ATOM     29  C19 UNL     1      -5.547   0.610  -2.825  1.00  0.00     0.040 A   
ATOM     30  C21 UNL     1      -3.339   1.136  -3.638  1.00  0.00     0.032 A   
ATOM     31  C20 UNL     1      -4.690   1.461  -3.521  1.00  0.00     0.005 A   
ATOM     32  F1  UNL     1      -5.909  -1.353  -1.586  1.00  0.00    -0.207 F   
BRANCH  28  33
ATOM     33  N3  UNL     1      -1.448  -0.338  -3.212  1.00  0.00     0.092 N   
ATOM     34  O3  UNL     1      -0.641   0.515  -2.812  1.00  0.00    -0.138 OA  
ATOM     35  O4  UNL     1      -1.141  -1.438  -3.690  1.00  0.00    -0.138 OA  
ENDBRANCH  28  33
ENDBRANCH  25  26
ENDBRANCH   3  25
TORSDOF 8
