REMARK SMILES COc1ccc(Cn2cc([C@@H]([NH2+]Cc3ccc4c(c3)OCO4)C(C)(C)C)nn2)cc1OC
REMARK SMILES IDX 8 1 9 2 10 3 27 4 28 5 7 7 6 8 3 9 4 10 30 11 5 12 29 13
REMARK SMILES IDX 2 14 1 15 31 16 32 17 11 18 12 19 13 22 14 23 15 24 19 25
REMARK SMILES IDX 16 26 18 27 17 28 20 29 22 30 21 31 23 32 24 33 25 34 26 35
REMARK H PARENT 9 6 12 20 12 21
ROOT
ATOM     1   N1  UNL     1      -1.862  -1.740   1.923  1.00  0.00    -0.208 N   
ATOM     2   C7  UNL     1      -1.915  -0.894   0.850  1.00  0.00     0.046 A   
ATOM     3   C8  UNL     1      -1.685  -1.714  -0.233  1.00  0.00     0.127 A   
ATOM     4   N3  UNL     1      -1.563  -3.007   0.202  1.00  0.00    -0.132 NA  
ATOM     5   N4  UNL     1      -1.670  -3.011   1.521  1.00  0.00    -0.076 NA  
ATOM     6   H8  UNL     1      -2.032   0.175   0.957  1.00  0.00     0.083 HD  
ENDROOT
BRANCH   1   7
ATOM     7   C6  UNL     1      -1.837  -1.391   3.334  1.00  0.00     0.169 C   
BRANCH   7   8
ATOM     8   C5  UNL     1      -0.462  -0.890   3.708  1.00  0.00    -0.026 A   
ATOM     9   C2  UNL     1       2.179  -0.006   4.182  1.00  0.00     0.105 A   
ATOM     10  C3  UNL     1       1.833  -1.344   4.386  1.00  0.00     0.036 A   
ATOM     11  C23 UNL     1       1.185   0.894   3.770  1.00  0.00     0.105 A   
ATOM     12  C4  UNL     1       0.525  -1.783   4.149  1.00  0.00     0.008 A   
ATOM     13  C22 UNL     1      -0.122   0.459   3.529  1.00  0.00     0.041 A   
BRANCH   9  14
ATOM     14  O1  UNL     1       3.433   0.517   4.342  1.00  0.00    -0.347 OA  
ATOM     15  C1  UNL     1       4.449  -0.349   4.832  1.00  0.00     0.203 C   
ENDBRANCH   9  14
BRANCH  11  16
ATOM     16  O4  UNL     1       1.542   2.192   3.499  1.00  0.00    -0.347 OA  
ATOM     17  C24 UNL     1       0.815   3.131   4.291  1.00  0.00     0.203 C   
ENDBRANCH  11  16
ENDBRANCH   7   8
ENDBRANCH   1   7
BRANCH   3  18
ATOM     18  C9  UNL     1      -1.438  -1.377  -1.670  1.00  0.00     0.120 C   
BRANCH  18  19
ATOM     19  N2  UNL     1      -0.270  -2.192  -2.194  1.00  0.00     0.250 N   
ATOM     20  H10 UNL     1      -0.133  -2.024  -3.193  1.00  0.00     0.199 HD  
ATOM     21  H11 UNL     1      -0.522  -3.182  -2.075  1.00  0.00     0.199 HD  
BRANCH  19  22
ATOM     22  C10 UNL     1       1.047  -2.007  -1.498  1.00  0.00     0.164 C   
BRANCH  22  23
ATOM     23  C11 UNL     1       1.533  -0.585  -1.471  1.00  0.00    -0.002 A   
ATOM     24  C12 UNL     1       1.674   0.090  -0.234  1.00  0.00     0.012 A   
ATOM     25  C16 UNL     1       1.845   0.088  -2.664  1.00  0.00     0.045 A   
ATOM     26  C13 UNL     1       2.107   1.418  -0.182  1.00  0.00     0.037 A   
ATOM     27  C15 UNL     1       2.267   1.399  -2.577  1.00  0.00     0.109 A   
ATOM     28  C14 UNL     1       2.392   2.047  -1.373  1.00  0.00     0.108 A   
ATOM     29  O2  UNL     1       2.601   2.190  -3.630  1.00  0.00    -0.316 OA  
ATOM     30  O3  UNL     1       2.818   3.328  -1.516  1.00  0.00    -0.316 OA  
ATOM     31  C17 UNL     1       2.980   3.408  -2.948  1.00  0.00     0.337 C   
ENDBRANCH  22  23
ENDBRANCH  19  22
ENDBRANCH  18  19
BRANCH  18  32
ATOM     32  C18 UNL     1      -2.693  -1.557  -2.598  1.00  0.00     0.010 C   
ATOM     33  C19 UNL     1      -3.866  -0.700  -2.068  1.00  0.00     0.017 C   
ATOM     34  C20 UNL     1      -3.170  -3.020  -2.691  1.00  0.00     0.017 C   
ATOM     35  C21 UNL     1      -2.380  -1.059  -4.028  1.00  0.00     0.017 C   
ENDBRANCH  18  32
ENDBRANCH   3  18
TORSDOF 9
