REMARK SMILES CC(C)c1[nH]ncc1Cn1cc([C@@H]([NH2+]Cc2ccc3c(c2)OCO3)C2CCCC2)nn1
REMARK SMILES IDX 10 1 11 2 12 3 30 4 31 5 9 7 8 8 4 9 5 10 6 11 7 12 2 14
REMARK SMILES IDX 1 15 3 16 13 17 14 18 15 21 16 22 17 23 21 24 18 25 20 26
REMARK SMILES IDX 19 27 22 28 24 29 23 30 25 31 26 32 29 33 27 34 28 35
REMARK H PARENT 11 6 5 13 14 19 14 20
ROOT
ATOM     1   N3  UNL     1       3.003  -0.476  -0.220  1.00  0.00    -0.208 N   
ATOM     2   C8  UNL     1       1.689  -0.525   0.161  1.00  0.00     0.046 A   
ATOM     3   C9  UNL     1       1.294  -1.799  -0.179  1.00  0.00     0.127 A   
ATOM     4   N5  UNL     1       2.368  -2.490  -0.673  1.00  0.00    -0.132 NA  
ATOM     5   N6  UNL     1       3.408  -1.672  -0.692  1.00  0.00    -0.076 NA  
ATOM     6   H12 UNL     1       1.160   0.341   0.534  1.00  0.00     0.083 HD  
ENDROOT
BRANCH   1   7
ATOM     7   C7  UNL     1       3.841   0.707  -0.371  1.00  0.00     0.172 C   
BRANCH   7   8
ATOM     8   C6  UNL     1       3.390   1.469  -1.572  1.00  0.00     0.010 A   
ATOM     9   C4  UNL     1       2.854   2.745  -1.684  1.00  0.00     0.034 A   
ATOM     10  N1  UNL     1       2.572   2.909  -3.020  1.00  0.00    -0.242 N   
ATOM     11  N2  UNL     1       2.852   1.831  -3.765  1.00  0.00    -0.192 NA  
ATOM     12  C5  UNL     1       3.407   0.984  -2.904  1.00  0.00     0.138 A   
ATOM     13  H8  UNL     1       2.179   3.723  -3.483  1.00  0.00     0.175 HD  
BRANCH   9  14
ATOM     14  C2  UNL     1       2.576   3.855  -0.711  1.00  0.00     0.029 C   
ATOM     15  C1  UNL     1       3.863   4.358  -0.058  1.00  0.00     0.014 C   
ATOM     16  C3  UNL     1       1.547   3.445   0.341  1.00  0.00     0.014 C   
ENDBRANCH   9  14
ENDBRANCH   7   8
ENDBRANCH   1   7
BRANCH   3  17
ATOM     17  C10 UNL     1      -0.062  -2.418  -0.207  1.00  0.00     0.117 C   
BRANCH  17  18
ATOM     18  N4  UNL     1      -0.324  -3.031  -1.570  1.00  0.00     0.249 N   
ATOM     19  H14 UNL     1       0.413  -3.735  -1.718  1.00  0.00     0.199 HD  
ATOM     20  H15 UNL     1      -1.220  -3.523  -1.570  1.00  0.00     0.199 HD  
BRANCH  18  21
ATOM     21  C11 UNL     1      -0.282  -2.102  -2.744  1.00  0.00     0.164 C   
BRANCH  21  22
ATOM     22  C12 UNL     1      -1.249  -0.955  -2.641  1.00  0.00    -0.002 A   
ATOM     23  C13 UNL     1      -2.646  -1.183  -2.649  1.00  0.00     0.012 A   
ATOM     24  C17 UNL     1      -0.764   0.360  -2.516  1.00  0.00     0.045 A   
ATOM     25  C14 UNL     1      -3.547  -0.120  -2.515  1.00  0.00     0.037 A   
ATOM     26  C16 UNL     1      -1.678   1.384  -2.386  1.00  0.00     0.109 A   
ATOM     27  C15 UNL     1      -3.031   1.150  -2.383  1.00  0.00     0.108 A   
ATOM     28  O1  UNL     1      -1.378   2.703  -2.245  1.00  0.00    -0.316 OA  
ATOM     29  O2  UNL     1      -3.754   2.291  -2.242  1.00  0.00    -0.316 OA  
ATOM     30  C18 UNL     1      -2.703   3.280  -2.194  1.00  0.00     0.337 C   
ENDBRANCH  21  22
ENDBRANCH  18  21
ENDBRANCH  17  18
BRANCH  17  31
ATOM     31  C19 UNL     1      -0.220  -3.519   0.859  1.00  0.00     0.043 C   
ATOM     32  C20 UNL     1      -0.079  -2.999   2.293  1.00  0.00     0.010 C   
ATOM     33  C23 UNL     1      -1.607  -4.176   0.885  1.00  0.00     0.010 C   
ATOM     34  C21 UNL     1      -0.642  -4.136   3.131  1.00  0.00     0.001 C   
ATOM     35  C22 UNL     1      -1.798  -4.696   2.310  1.00  0.00     0.001 C   
ENDBRANCH  17  31
ENDBRANCH   3  17
TORSDOF 8
