REMARK SMILES COc1c(C)cccc1CCn1cc([C@H](CC(C)C)[NH2+]Cc2ccc3c(c2)OCO3)nn1
REMARK SMILES IDX 12 1 13 2 14 3 31 4 32 5 11 7 10 8 9 9 3 10 4 11 6 12 8 13
REMARK SMILES IDX 7 14 5 15 2 16 1 17 15 18 16 19 17 20 18 21 19 22 20 23
REMARK SMILES IDX 21 26 22 27 23 28 27 29 24 30 26 31 25 32 28 33 30 34 29 35
REMARK H PARENT 13 6 20 24 20 25
ROOT
ATOM     1   N1  UNL     1      -2.212   1.141  -0.242  1.00  0.00    -0.212 N   
ATOM     2   C11 UNL     1      -1.341   0.519   0.606  1.00  0.00     0.045 A   
ATOM     3   C12 UNL     1      -0.298   1.410   0.716  1.00  0.00     0.127 A   
ATOM     4   N3  UNL     1      -0.569   2.520  -0.042  1.00  0.00    -0.132 NA  
ATOM     5   N4  UNL     1      -1.742   2.341  -0.627  1.00  0.00    -0.076 NA  
ATOM     6   H14 UNL     1      -1.526  -0.469   1.003  1.00  0.00     0.083 HD  
ENDROOT
BRANCH   1   7
ATOM     7   C10 UNL     1      -3.465   0.632  -0.759  1.00  0.00     0.139 C   
BRANCH   7   8
ATOM     8   C9  UNL     1      -3.373   0.178  -2.218  1.00  0.00     0.059 C   
BRANCH   8   9
ATOM     9   C8  UNL     1      -2.286  -0.839  -2.504  1.00  0.00    -0.016 A   
ATOM     10  C2  UNL     1      -2.262  -2.106  -1.895  1.00  0.00     0.081 A   
ATOM     11  C3  UNL     1      -1.204  -3.002  -2.119  1.00  0.00    -0.021 A   
ATOM     12  C5  UNL     1      -0.209  -2.652  -3.042  1.00  0.00     0.006 A   
ATOM     13  C7  UNL     1      -1.267  -0.513  -3.412  1.00  0.00     0.006 A   
ATOM     14  C6  UNL     1      -0.242  -1.417  -3.687  1.00  0.00     0.001 A   
ATOM     15  C4  UNL     1      -1.133  -4.337  -1.432  1.00  0.00     0.047 C   
BRANCH  10  16
ATOM     16  O1  UNL     1      -3.257  -2.431  -1.007  1.00  0.00    -0.349 OA  
ATOM     17  C1  UNL     1      -4.288  -3.177  -1.663  1.00  0.00     0.203 C   
ENDBRANCH  10  16
ENDBRANCH   8   9
ENDBRANCH   7   8
ENDBRANCH   1   7
BRANCH   3  18
ATOM     18  C13 UNL     1       1.014   1.300   1.412  1.00  0.00     0.114 C   
BRANCH  18  19
ATOM     19  C14 UNL     1       1.071   2.135   2.706  1.00  0.00     0.064 C   
BRANCH  19  20
ATOM     20  C15 UNL     1       0.095   1.686   3.816  1.00  0.00    -0.012 C   
ATOM     21  C16 UNL     1       0.189   2.647   5.005  1.00  0.00     0.007 C   
ATOM     22  C17 UNL     1       0.367   0.256   4.287  1.00  0.00     0.007 C   
ENDBRANCH  19  20
ENDBRANCH  18  19
BRANCH  18  23
ATOM     23  N2  UNL     1       2.112   1.820   0.504  1.00  0.00     0.249 N   
ATOM     24  H25 UNL     1       2.982   1.933   1.032  1.00  0.00     0.199 HD  
ATOM     25  H26 UNL     1       1.808   2.755   0.200  1.00  0.00     0.199 HD  
BRANCH  23  26
ATOM     26  C18 UNL     1       2.382   1.017  -0.726  1.00  0.00     0.164 C   
BRANCH  26  27
ATOM     27  C19 UNL     1       3.024  -0.309  -0.428  1.00  0.00    -0.002 A   
ATOM     28  C20 UNL     1       4.404  -0.386  -0.126  1.00  0.00     0.012 A   
ATOM     29  C24 UNL     1       2.247  -1.481  -0.415  1.00  0.00     0.045 A   
ATOM     30  C21 UNL     1       5.005  -1.611   0.181  1.00  0.00     0.037 A   
ATOM     31  C23 UNL     1       2.870  -2.672  -0.108  1.00  0.00     0.109 A   
ATOM     32  C22 UNL     1       4.210  -2.736   0.182  1.00  0.00     0.108 A   
ATOM     33  O2  UNL     1       2.267  -3.889  -0.047  1.00  0.00    -0.316 OA  
ATOM     34  O3  UNL     1       4.622  -4.001   0.455  1.00  0.00    -0.316 OA  
ATOM     35  C25 UNL     1       3.390  -4.735   0.291  1.00  0.00     0.337 C   
ENDBRANCH  26  27
ENDBRANCH  23  26
ENDBRANCH  18  23
ENDBRANCH   3  18
TORSDOF 10
