REMARK SMILES CC(C)[C@H]([NH2+]Cc1ccc2c(c1)OCO2)c1cn([C@H](CO)c2cn[nH]c2)nn1
REMARK SMILES IDX 16 1 17 2 18 3 27 4 28 5 4 7 2 8 1 9 3 10 5 11 6 14 7 15
REMARK SMILES IDX 8 16 12 17 9 18 11 19 10 20 13 21 15 22 14 23 19 24 20 25
REMARK SMILES IDX 21 26 22 28 23 29 26 30 24 31 25 32
REMARK H PARENT 17 6 5 12 5 13 21 27 25 33
ROOT
ATOM     1   C13 UNL     1      -0.573   0.478  -0.197  1.00  0.00     0.127 A   
ATOM     2   C14 UNL     1      -0.586   1.558  -1.048  1.00  0.00     0.046 A   
ATOM     3   N2  UNL     1       0.403   2.379  -0.572  1.00  0.00    -0.202 N   
ATOM     4   N5  UNL     1       0.985   1.829   0.518  1.00  0.00    -0.075 NA  
ATOM     5   N6  UNL     1       0.405   0.663   0.748  1.00  0.00    -0.132 NA  
ATOM     6   H18 UNL     1      -1.189   1.821  -1.907  1.00  0.00     0.083 HD  
ENDROOT
BRANCH   1   7
ATOM     7   C4  UNL     1      -1.392  -0.774  -0.179  1.00  0.00     0.117 C   
BRANCH   7   8
ATOM     8   C2  UNL     1      -2.794  -0.550   0.445  1.00  0.00     0.037 C   
ATOM     9   C1  UNL     1      -3.723  -1.744   0.194  1.00  0.00     0.014 C   
ATOM     10  C3  UNL     1      -2.763  -0.223   1.942  1.00  0.00     0.014 C   
ENDBRANCH   7   8
BRANCH   7  11
ATOM     11  N1  UNL     1      -0.658  -1.862   0.558  1.00  0.00     0.249 N   
ATOM     12  H9  UNL     1      -0.223  -1.415   1.380  1.00  0.00     0.199 HD  
ATOM     13  H10 UNL     1      -1.288  -2.581   0.922  1.00  0.00     0.199 HD  
BRANCH  11  14
ATOM     14  C5  UNL     1       0.436  -2.516  -0.213  1.00  0.00     0.164 C   
BRANCH  14  15
ATOM     15  C6  UNL     1       1.186  -3.485   0.657  1.00  0.00    -0.002 A   
ATOM     16  C7  UNL     1       0.789  -4.842   0.730  1.00  0.00     0.012 A   
ATOM     17  C11 UNL     1       2.258  -3.031   1.446  1.00  0.00     0.045 A   
ATOM     18  C8  UNL     1       1.463  -5.742   1.565  1.00  0.00     0.037 A   
ATOM     19  C10 UNL     1       2.900  -3.943   2.257  1.00  0.00     0.109 A   
ATOM     20  C9  UNL     1       2.515  -5.262   2.315  1.00  0.00     0.108 A   
ATOM     21  O1  UNL     1       3.955  -3.675   3.071  1.00  0.00    -0.316 OA  
ATOM     22  O2  UNL     1       3.278  -5.988   3.174  1.00  0.00    -0.316 OA  
ATOM     23  C12 UNL     1       4.201  -4.981   3.643  1.00  0.00     0.337 C   
ENDBRANCH  14  15
ENDBRANCH  11  14
ENDBRANCH   7  11
ENDBRANCH   1   7
BRANCH   3  24
ATOM     24  C15 UNL     1       0.842   3.688  -1.057  1.00  0.00     0.158 C   
BRANCH  24  25
ATOM     25  C16 UNL     1      -0.186   4.789  -0.736  1.00  0.00     0.186 C   
BRANCH  25  26
ATOM     26  O3  UNL     1      -1.454   4.565  -1.357  1.00  0.00    -0.394 OA  
ATOM     27  H22 UNL     1      -1.996   5.360  -1.191  1.00  0.00     0.210 HD  
ENDBRANCH  25  26
ENDBRANCH  24  25
BRANCH  24  28
ATOM     28  C17 UNL     1       1.257   3.613  -2.499  1.00  0.00     0.012 A   
ATOM     29  C18 UNL     1       0.446   3.665  -3.659  1.00  0.00     0.138 A   
ATOM     30  C19 UNL     1       2.538   3.485  -3.007  1.00  0.00     0.099 A   
ATOM     31  N3  UNL     1       1.149   3.552  -4.786  1.00  0.00    -0.193 NA  
ATOM     32  N4  UNL     1       2.421   3.475  -4.368  1.00  0.00    -0.246 N   
ATOM     33  H24 UNL     1       3.157   3.422  -5.066  1.00  0.00     0.175 HD  
ENDBRANCH  24  28
ENDBRANCH   3  24
TORSDOF 9
