REMARK SMILES CC(C)[C@H]([NH2+]Cc1ccc2c(c1)OCO2)c1cn([C@@H](CO)c2cn[nH]c2)nn1
REMARK SMILES IDX 16 1 17 2 18 3 27 4 28 5 4 7 2 8 1 9 3 10 5 11 6 14 7 15
REMARK SMILES IDX 8 16 12 17 9 18 11 19 10 20 13 21 15 22 14 23 19 24 20 25
REMARK SMILES IDX 21 26 22 28 23 29 26 30 24 31 25 32
REMARK H PARENT 17 6 5 12 5 13 21 27 25 33
ROOT
ATOM     1   C13 UNL     1      -0.162   0.197  -1.623  1.00  0.00     0.127 A   
ATOM     2   C14 UNL     1       0.995   0.586  -2.260  1.00  0.00     0.046 A   
ATOM     3   N2  UNL     1       1.453   1.639  -1.511  1.00  0.00    -0.202 N   
ATOM     4   N5  UNL     1       0.639   1.856  -0.454  1.00  0.00    -0.075 NA  
ATOM     5   N6  UNL     1      -0.355   0.987  -0.519  1.00  0.00    -0.132 NA  
ATOM     6   H18 UNL     1       1.515   0.237  -3.141  1.00  0.00     0.083 HD  
ENDROOT
BRANCH   1   7
ATOM     7   C4  UNL     1      -1.121  -0.915  -1.900  1.00  0.00     0.117 C   
BRANCH   7   8
ATOM     8   C2  UNL     1      -2.268  -0.539  -2.874  1.00  0.00     0.037 C   
ATOM     9   C1  UNL     1      -3.147   0.621  -2.392  1.00  0.00     0.014 C   
ATOM     10  C3  UNL     1      -1.741  -0.239  -4.282  1.00  0.00     0.014 C   
ENDBRANCH   7   8
BRANCH   7  11
ATOM     11  N1  UNL     1      -1.736  -1.395  -0.607  1.00  0.00     0.249 N   
ATOM     12  H9  UNL     1      -1.998  -0.551  -0.075  1.00  0.00     0.199 HD  
ATOM     13  H10 UNL     1      -2.603  -1.916  -0.769  1.00  0.00     0.199 HD  
BRANCH  11  14
ATOM     14  C5  UNL     1      -0.837  -2.196   0.271  1.00  0.00     0.164 C   
BRANCH  14  15
ATOM     15  C6  UNL     1      -1.536  -2.543   1.555  1.00  0.00    -0.002 A   
ATOM     16  C7  UNL     1      -2.201  -3.783   1.700  1.00  0.00     0.012 A   
ATOM     17  C11 UNL     1      -1.577  -1.606   2.603  1.00  0.00     0.045 A   
ATOM     18  C8  UNL     1      -2.891  -4.093   2.878  1.00  0.00     0.037 A   
ATOM     19  C10 UNL     1      -2.267  -1.943   3.749  1.00  0.00     0.109 A   
ATOM     20  C9  UNL     1      -2.906  -3.151   3.883  1.00  0.00     0.108 A   
ATOM     21  O1  UNL     1      -2.407  -1.157   4.848  1.00  0.00    -0.316 OA  
ATOM     22  O2  UNL     1      -3.526  -3.279   5.084  1.00  0.00    -0.316 OA  
ATOM     23  C12 UNL     1      -3.184  -2.021   5.707  1.00  0.00     0.337 C   
ENDBRANCH  14  15
ENDBRANCH  11  14
ENDBRANCH   7  11
ENDBRANCH   1   7
BRANCH   3  24
ATOM     24  C15 UNL     1       2.669   2.430  -1.722  1.00  0.00     0.158 C   
BRANCH  24  25
ATOM     25  C16 UNL     1       2.398   3.941  -1.648  1.00  0.00     0.186 C   
BRANCH  25  26
ATOM     26  O3  UNL     1       1.654   4.362  -2.794  1.00  0.00    -0.394 OA  
ATOM     27  H22 UNL     1       1.506   5.322  -2.701  1.00  0.00     0.210 HD  
ENDBRANCH  25  26
ENDBRANCH  24  25
BRANCH  24  28
ATOM     28  C17 UNL     1       3.749   1.980  -0.783  1.00  0.00     0.012 A   
ATOM     29  C18 UNL     1       3.705   1.889   0.629  1.00  0.00     0.138 A   
ATOM     30  C19 UNL     1       5.033   1.574  -1.096  1.00  0.00     0.099 A   
ATOM     31  N3  UNL     1       4.847   1.442   1.150  1.00  0.00    -0.193 NA  
ATOM     32  N4  UNL     1       5.649   1.280   0.087  1.00  0.00    -0.246 N   
ATOM     33  H24 UNL     1       6.604   0.971   0.245  1.00  0.00     0.175 HD  
ENDBRANCH  24  28
ENDBRANCH   3  24
TORSDOF 9
