REMARK SMILES CC(C)[C@H]([NH2+]Cc1ccc2c(c1)OCO2)c1cn(Cc2cnn3cc[nH]c23)nn1
REMARK SMILES IDX 16 1 17 2 18 3 28 4 29 5 4 7 2 8 1 9 3 10 5 11 6 14 7 15
REMARK SMILES IDX 8 16 12 17 9 18 11 19 10 20 13 21 15 22 14 23 19 24 20 25
REMARK SMILES IDX 21 26 27 27 22 28 23 29 26 30 24 31 25 32
REMARK H PARENT 17 6 5 12 5 13 26 33
ROOT
ATOM     1   C13 UNL     1       2.275  -1.615  -0.782  1.00  0.00     0.127 A   
ATOM     2   C14 UNL     1       2.168  -1.330   0.560  1.00  0.00     0.046 A   
ATOM     3   N2  UNL     1       3.258  -0.544   0.821  1.00  0.00    -0.208 N   
ATOM     4   N6  UNL     1       4.012  -0.390  -0.287  1.00  0.00    -0.076 NA  
ATOM     5   N7  UNL     1       3.422  -1.046  -1.273  1.00  0.00    -0.132 NA  
ATOM     6   H18 UNL     1       1.423  -1.554   1.311  1.00  0.00     0.083 HD  
ENDROOT
BRANCH   1   7
ATOM     7   C4  UNL     1       1.335  -2.314  -1.707  1.00  0.00     0.117 C   
BRANCH   7   8
ATOM     8   C2  UNL     1       1.641  -3.822  -1.907  1.00  0.00     0.037 C   
ATOM     9   C1  UNL     1       3.033  -4.119  -2.478  1.00  0.00     0.014 C   
ATOM     10  C3  UNL     1       1.438  -4.612  -0.608  1.00  0.00     0.014 C   
ENDBRANCH   7   8
BRANCH   7  11
ATOM     11  N1  UNL     1       1.324  -1.645  -3.067  1.00  0.00     0.249 N   
ATOM     12  H9  UNL     1       2.298  -1.634  -3.397  1.00  0.00     0.199 HD  
ATOM     13  H10 UNL     1       0.778  -2.208  -3.726  1.00  0.00     0.199 HD  
BRANCH  11  14
ATOM     14  C5  UNL     1       0.845  -0.228  -3.111  1.00  0.00     0.164 C   
BRANCH  14  15
ATOM     15  C6  UNL     1      -0.568  -0.053  -2.629  1.00  0.00    -0.002 A   
ATOM     16  C7  UNL     1      -1.658  -0.519  -3.403  1.00  0.00     0.012 A   
ATOM     17  C11 UNL     1      -0.813   0.555  -1.385  1.00  0.00     0.045 A   
ATOM     18  C8  UNL     1      -2.973  -0.389  -2.942  1.00  0.00     0.037 A   
ATOM     19  C10 UNL     1      -2.120   0.668  -0.961  1.00  0.00     0.109 A   
ATOM     20  C9  UNL     1      -3.170   0.207  -1.716  1.00  0.00     0.108 A   
ATOM     21  O1  UNL     1      -2.527   1.221   0.212  1.00  0.00    -0.316 OA  
ATOM     22  O2  UNL     1      -4.372   0.413  -1.115  1.00  0.00    -0.316 OA  
ATOM     23  C12 UNL     1      -3.962   1.071   0.104  1.00  0.00     0.337 C   
ENDBRANCH  14  15
ENDBRANCH  11  14
ENDBRANCH   7  11
ENDBRANCH   1   7
BRANCH   3  24
ATOM     24  C15 UNL     1       3.603   0.137   2.060  1.00  0.00     0.174 C   
BRANCH  24  25
ATOM     25  C16 UNL     1       2.519   1.066   2.459  1.00  0.00     0.030 A   
ATOM     26  C17 UNL     1       1.775   1.091   3.676  1.00  0.00     0.140 A   
ATOM     27  C20 UNL     1       1.955   2.095   1.760  1.00  0.00     0.120 A   
ATOM     28  N3  UNL     1       0.828   2.041   3.716  1.00  0.00    -0.184 NA  
ATOM     29  N4  UNL     1       0.970   2.666   2.538  1.00  0.00    -0.185 N   
ATOM     30  N5  UNL     1       2.015   2.784   0.592  1.00  0.00    -0.306 N   
ATOM     31  C18 UNL     1       0.443   3.755   1.866  1.00  0.00     0.118 A   
ATOM     32  C19 UNL     1       1.104   3.839   0.693  1.00  0.00     0.091 A   
ATOM     33  H24 UNL     1       2.846   2.904   0.018  1.00  0.00     0.154 HD  
ENDBRANCH  24  25
ENDBRANCH   3  24
TORSDOF 7
