REMARK SMILES O=C(Cn1cc([C@@H]([NH2+]Cc2ccc3c(c2)OCO3)C2CCCC2)nn1)c1ccc(F)cc1F
REMARK SMILES IDX 4 1 5 2 6 3 24 4 25 5 3 7 2 8 1 9 26 10 27 11 32 12 28 13
REMARK SMILES IDX 31 14 29 15 33 16 30 17 7 18 8 19 9 22 10 23 11 24 15 25
REMARK SMILES IDX 12 26 14 27 13 28 16 29 18 30 17 31 19 32 20 33 23 34 21 35
REMARK SMILES IDX 22 36
REMARK H PARENT 5 6 8 20 8 21
ROOT
ATOM     1   N1  UNL     1      -1.246  -1.970   1.655  1.00  0.00    -0.204 N   
ATOM     2   C3  UNL     1       0.043  -1.627   1.356  1.00  0.00     0.046 A   
ATOM     3   C4  UNL     1       0.131  -0.306   1.736  1.00  0.00     0.127 A   
ATOM     4   N3  UNL     1      -1.068   0.086   2.277  1.00  0.00    -0.132 NA  
ATOM     5   N4  UNL     1      -1.900  -0.941   2.224  1.00  0.00    -0.076 NA  
ATOM     6   H3  UNL     1       0.723  -2.306   0.859  1.00  0.00     0.083 HD  
ENDROOT
BRANCH   1   7
ATOM     7   C2  UNL     1      -1.937  -3.206   1.353  1.00  0.00     0.215 C   
BRANCH   7   8
ATOM     8   C1  UNL     1      -2.466  -3.173  -0.064  1.00  0.00     0.185 C   
ATOM     9   O1  UNL     1      -1.793  -2.738  -1.000  1.00  0.00    -0.292 OA  
BRANCH   8  10
ATOM     10  C19 UNL     1      -3.793  -3.757  -0.366  1.00  0.00     0.055 A   
ATOM     11  C20 UNL     1      -3.954  -4.465  -1.566  1.00  0.00     0.018 A   
ATOM     12  C24 UNL     1      -4.888  -3.589   0.482  1.00  0.00     0.136 A   
ATOM     13  C21 UNL     1      -5.195  -5.018  -1.886  1.00  0.00     0.040 A   
ATOM     14  C23 UNL     1      -6.126  -4.139   0.168  1.00  0.00     0.079 A   
ATOM     15  C22 UNL     1      -6.267  -4.853  -1.014  1.00  0.00     0.126 A   
ATOM     16  F2  UNL     1      -4.783  -2.863   1.602  1.00  0.00    -0.206 F   
ATOM     17  F1  UNL     1      -7.457  -5.380  -1.327  1.00  0.00    -0.207 F   
ENDBRANCH   8  10
ENDBRANCH   7   8
ENDBRANCH   1   7
BRANCH   3  18
ATOM     18  C5  UNL     1       1.212   0.701   1.530  1.00  0.00     0.117 C   
BRANCH  18  19
ATOM     19  N2  UNL     1       0.601   2.026   1.120  1.00  0.00     0.249 N   
ATOM     20  H5  UNL     1      -0.126   2.234   1.820  1.00  0.00     0.199 HD  
ATOM     21  H6  UNL     1       1.302   2.770   1.171  1.00  0.00     0.199 HD  
BRANCH  19  22
ATOM     22  C6  UNL     1      -0.061   2.060  -0.220  1.00  0.00     0.164 C   
BRANCH  22  23
ATOM     23  C7  UNL     1       0.912   1.916  -1.356  1.00  0.00    -0.002 A   
ATOM     24  C8  UNL     1       1.764   2.991  -1.710  1.00  0.00     0.012 A   
ATOM     25  C12 UNL     1       1.007   0.698  -2.053  1.00  0.00     0.045 A   
ATOM     26  C9  UNL     1       2.700   2.855  -2.741  1.00  0.00     0.037 A   
ATOM     27  C11 UNL     1       1.944   0.597  -3.060  1.00  0.00     0.109 A   
ATOM     28  C10 UNL     1       2.767   1.645  -3.394  1.00  0.00     0.108 A   
ATOM     29  O2  UNL     1       2.175  -0.506  -3.819  1.00  0.00    -0.316 OA  
ATOM     30  O3  UNL     1       3.615   1.335  -4.409  1.00  0.00    -0.316 OA  
ATOM     31  C13 UNL     1       3.215  -0.022  -4.699  1.00  0.00     0.337 C   
ENDBRANCH  22  23
ENDBRANCH  19  22
ENDBRANCH  18  19
BRANCH  18  32
ATOM     32  C14 UNL     1       2.108   0.954   2.756  1.00  0.00     0.043 C   
ATOM     33  C15 UNL     1       2.887  -0.273   3.243  1.00  0.00     0.010 C   
ATOM     34  C18 UNL     1       1.415   1.429   4.034  1.00  0.00     0.010 C   
ATOM     35  C16 UNL     1       3.346   0.089   4.656  1.00  0.00     0.001 C   
ATOM     36  C17 UNL     1       2.506   1.291   5.089  1.00  0.00     0.001 C   
ENDBRANCH  18  32
ENDBRANCH   3  18
TORSDOF 8
