REMARK SMILES COc1cc(CCn2cc([C@@H]([NH2+]Cc3ccc4c(c3)OCO4)C3CCCCC3)nn2)ccc1F
REMARK SMILES IDX 8 1 9 2 10 3 29 4 30 5 7 7 6 8 5 9 3 10 4 11 33 12 32 13
REMARK SMILES IDX 31 14 34 15 2 16 1 17 11 18 12 19 13 22 14 23 15 24 19 25
REMARK SMILES IDX 16 26 18 27 17 28 20 29 22 30 21 31 23 32 24 33 28 34 25 35
REMARK SMILES IDX 27 36 26 37
REMARK H PARENT 9 6 12 20 12 21
ROOT
ATOM     1   N1  UNL     1       0.733  -0.007  -3.483  1.00  0.00    -0.212 N   
ATOM     2   C7  UNL     1       0.773  -0.571  -2.239  1.00  0.00     0.045 A   
ATOM     3   C8  UNL     1      -0.351  -0.082  -1.614  1.00  0.00     0.127 A   
ATOM     4   N3  UNL     1      -1.025   0.734  -2.489  1.00  0.00    -0.132 NA  
ATOM     5   N4  UNL     1      -0.345   0.785  -3.620  1.00  0.00    -0.076 NA  
ATOM     6   H9  UNL     1       1.584  -1.208  -1.918  1.00  0.00     0.083 HD  
ENDROOT
BRANCH   1   7
ATOM     7   C6  UNL     1       1.702  -0.119  -4.555  1.00  0.00     0.139 C   
BRANCH   7   8
ATOM     8   C5  UNL     1       2.716   1.027  -4.558  1.00  0.00     0.057 C   
BRANCH   8   9
ATOM     9   C4  UNL     1       3.632   0.992  -3.356  1.00  0.00    -0.044 A   
ATOM     10  C2  UNL     1       4.160   1.706  -1.093  1.00  0.00     0.110 A   
ATOM     11  C3  UNL     1       3.356   1.786  -2.230  1.00  0.00     0.040 A   
ATOM     12  C26 UNL     1       5.226   0.806  -1.069  1.00  0.00     0.153 A   
ATOM     13  C25 UNL     1       5.527   0.032  -2.187  1.00  0.00     0.042 A   
ATOM     14  C24 UNL     1       4.734   0.125  -3.330  1.00  0.00     0.007 A   
ATOM     15  F1  UNL     1       5.953   0.634   0.045  1.00  0.00    -0.204 F   
BRANCH  10  16
ATOM     16  O1  UNL     1       3.776   2.455  -0.011  1.00  0.00    -0.346 OA  
ATOM     17  C1  UNL     1       4.807   3.339   0.429  1.00  0.00     0.203 C   
ENDBRANCH  10  16
ENDBRANCH   8   9
ENDBRANCH   7   8
ENDBRANCH   1   7
BRANCH   3  18
ATOM     18  C9  UNL     1      -0.863  -0.220  -0.211  1.00  0.00     0.117 C   
BRANCH  18  19
ATOM     19  N2  UNL     1      -1.809   0.940   0.063  1.00  0.00     0.249 N   
ATOM     20  H11 UNL     1      -2.777   0.606   0.108  1.00  0.00     0.199 HD  
ATOM     21  H12 UNL     1      -1.784   1.536  -0.783  1.00  0.00     0.199 HD  
BRANCH  19  22
ATOM     22  C10 UNL     1      -1.508   1.782   1.246  1.00  0.00     0.164 C   
BRANCH  22  23
ATOM     23  C11 UNL     1      -1.898   1.111   2.532  1.00  0.00    -0.002 A   
ATOM     24  C12 UNL     1      -0.910   0.597   3.408  1.00  0.00     0.012 A   
ATOM     25  C16 UNL     1      -3.260   0.957   2.854  1.00  0.00     0.045 A   
ATOM     26  C13 UNL     1      -1.273  -0.073   4.580  1.00  0.00     0.037 A   
ATOM     27  C15 UNL     1      -3.581   0.290   4.017  1.00  0.00     0.109 A   
ATOM     28  C14 UNL     1      -2.617  -0.216   4.853  1.00  0.00     0.108 A   
ATOM     29  O2  UNL     1      -4.841   0.045   4.464  1.00  0.00    -0.316 OA  
ATOM     30  O3  UNL     1      -3.149  -0.846   5.933  1.00  0.00    -0.316 OA  
ATOM     31  C17 UNL     1      -4.559  -0.627   5.713  1.00  0.00     0.337 C   
ENDBRANCH  22  23
ENDBRANCH  19  22
ENDBRANCH  18  19
BRANCH  18  32
ATOM     32  C18 UNL     1      -1.595  -1.552   0.093  1.00  0.00     0.043 C   
ATOM     33  C19 UNL     1      -2.724  -1.891  -0.901  1.00  0.00     0.010 C   
ATOM     34  C23 UNL     1      -0.612  -2.736   0.191  1.00  0.00     0.010 C   
ATOM     35  C20 UNL     1      -3.444  -3.176  -0.501  1.00  0.00     0.001 C   
ATOM     36  C22 UNL     1      -1.329  -4.029   0.579  1.00  0.00     0.001 C   
ATOM     37  C21 UNL     1      -2.475  -4.346  -0.374  1.00  0.00     0.000 C   
ENDBRANCH  18  32
ENDBRANCH   3  18
TORSDOF 9
