REMARK SMILES CC(C)[C@H]([NH2+]Cc1ccc2c(c1)OCO2)c1cn(Cc2ccc(N(C)C)c(F)c2)nn1
REMARK SMILES IDX 16 1 17 2 18 3 30 4 31 5 4 7 2 8 1 9 3 10 5 11 6 14 7 15
REMARK SMILES IDX 8 16 12 17 9 18 11 19 10 20 13 21 15 22 14 23 19 24 20 25
REMARK SMILES IDX 21 26 29 27 22 28 27 29 23 30 28 31 24 32 25 33 26 34
REMARK H PARENT 17 6 5 12 5 13
ROOT
ATOM     1   C13 UNL     1       0.397  -1.606  -2.007  1.00  0.00     0.127 A   
ATOM     2   C14 UNL     1       1.523  -1.126  -1.376  1.00  0.00     0.046 A   
ATOM     3   N2  UNL     1       1.952  -0.115  -2.192  1.00  0.00    -0.208 N   
ATOM     4   N4  UNL     1       1.164  -0.009  -3.279  1.00  0.00    -0.076 NA  
ATOM     5   N5  UNL     1       0.212  -0.924  -3.182  1.00  0.00    -0.132 NA  
ATOM     6   H18 UNL     1       2.002  -1.357  -0.435  1.00  0.00     0.083 HD  
ENDROOT
BRANCH   1   7
ATOM     7   C4  UNL     1      -0.618  -2.607  -1.559  1.00  0.00     0.117 C   
BRANCH   7   8
ATOM     8   C2  UNL     1      -0.500  -3.951  -2.333  1.00  0.00     0.037 C   
ATOM     9   C1  UNL     1       0.877  -4.599  -2.115  1.00  0.00     0.014 C   
ATOM     10  C3  UNL     1      -1.578  -4.966  -1.932  1.00  0.00     0.014 C   
ENDBRANCH   7   8
BRANCH   7  11
ATOM     11  N1  UNL     1      -2.015  -2.046  -1.750  1.00  0.00     0.249 N   
ATOM     12  H9  UNL     1      -2.714  -2.730  -1.453  1.00  0.00     0.199 HD  
ATOM     13  H10 UNL     1      -2.136  -1.897  -2.761  1.00  0.00     0.199 HD  
BRANCH  11  14
ATOM     14  C5  UNL     1      -2.324  -0.743  -1.076  1.00  0.00     0.164 C   
BRANCH  14  15
ATOM     15  C6  UNL     1      -2.093  -0.756   0.409  1.00  0.00    -0.002 A   
ATOM     16  C7  UNL     1      -1.108   0.087   0.979  1.00  0.00     0.012 A   
ATOM     17  C11 UNL     1      -2.841  -1.604   1.244  1.00  0.00     0.045 A   
ATOM     18  C8  UNL     1      -0.853   0.073   2.354  1.00  0.00     0.037 A   
ATOM     19  C10 UNL     1      -2.564  -1.593   2.596  1.00  0.00     0.109 A   
ATOM     20  C9  UNL     1      -1.597  -0.781   3.135  1.00  0.00     0.108 A   
ATOM     21  O1  UNL     1      -3.185  -2.356   3.534  1.00  0.00    -0.316 OA  
ATOM     22  O2  UNL     1      -1.487  -0.930   4.481  1.00  0.00    -0.316 OA  
ATOM     23  C12 UNL     1      -2.519  -1.907   4.737  1.00  0.00     0.337 C   
ENDBRANCH  14  15
ENDBRANCH  11  14
ENDBRANCH   7  11
ENDBRANCH   1   7
BRANCH   3  24
ATOM     24  C15 UNL     1       2.998   0.860  -1.930  1.00  0.00     0.169 C   
BRANCH  24  25
ATOM     25  C16 UNL     1       2.545   1.822  -0.860  1.00  0.00    -0.026 A   
ATOM     26  C17 UNL     1       1.659   2.860  -1.163  1.00  0.00     0.007 A   
ATOM     27  C23 UNL     1       2.932   1.650   0.472  1.00  0.00     0.046 A   
ATOM     28  C18 UNL     1       1.167   3.697  -0.152  1.00  0.00     0.027 A   
ATOM     29  C22 UNL     1       2.429   2.488   1.473  1.00  0.00     0.144 A   
ATOM     30  C19 UNL     1       1.535   3.541   1.198  1.00  0.00     0.064 A   
ATOM     31  F1  UNL     1       2.842   2.236   2.724  1.00  0.00    -0.205 F   
BRANCH  30  32
ATOM     32  N3  UNL     1       0.963   4.386   2.169  1.00  0.00    -0.335 N   
ATOM     33  C20 UNL     1       1.153   4.042   3.581  1.00  0.00     0.129 C   
ATOM     34  C21 UNL     1       1.113   5.821   1.890  1.00  0.00     0.129 C   
ENDBRANCH  30  32
ENDBRANCH  24  25
ENDBRANCH   3  24
TORSDOF 8
