REMARK SMILES COCc1cccc(Cn2cc([C@@H]([NH2+]Cc3ccc4c(c3)OCO4)C3CCCCC3)nn2)n1
REMARK SMILES IDX 10 1 11 2 12 3 31 4 32 5 9 7 8 8 4 9 5 10 33 11 6 12 7 13
REMARK SMILES IDX 3 14 2 15 1 16 13 17 14 18 15 21 16 22 17 23 21 24 18 25
REMARK SMILES IDX 20 26 19 27 22 28 24 29 23 30 25 31 26 32 30 33 27 34 29 35
REMARK SMILES IDX 28 36
REMARK H PARENT 11 6 14 19 14 20
ROOT
ATOM     1   N1  UNL     1       1.665   2.620  -1.509  1.00  0.00    -0.206 N   
ATOM     2   C9  UNL     1       0.426   2.492  -0.941  1.00  0.00     0.046 A   
ATOM     3   C10 UNL     1       0.695   2.329   0.398  1.00  0.00     0.127 A   
ATOM     4   N3  UNL     1       2.047   2.432   0.605  1.00  0.00    -0.132 NA  
ATOM     5   N4  UNL     1       2.629   2.633  -0.566  1.00  0.00    -0.076 NA  
ATOM     6   H11 UNL     1      -0.475   2.426  -1.536  1.00  0.00     0.083 HD  
ENDROOT
BRANCH   1   7
ATOM     7   C8  UNL     1       2.003   2.580  -2.919  1.00  0.00     0.190 C   
BRANCH   7   8
ATOM     8   C7  UNL     1       2.218   1.147  -3.331  1.00  0.00     0.060 A   
ATOM     9   C3  UNL     1       1.299  -0.972  -3.657  1.00  0.00     0.066 A   
ATOM     10  C4  UNL     1       2.552  -1.508  -3.938  1.00  0.00     0.026 A   
ATOM     11  N5  UNL     1       1.121   0.341  -3.353  1.00  0.00    -0.254 NA  
ATOM     12  C5  UNL     1       3.661  -0.670  -3.922  1.00  0.00     0.004 A   
ATOM     13  C6  UNL     1       3.498   0.676  -3.613  1.00  0.00     0.025 A   
BRANCH   9  14
ATOM     14  C2  UNL     1       0.083  -1.868  -3.646  1.00  0.00     0.215 C   
BRANCH  14  15
ATOM     15  O1  UNL     1       0.046  -2.599  -2.416  1.00  0.00    -0.378 OA  
ATOM     16  C1  UNL     1      -0.972  -3.593  -2.444  1.00  0.00     0.195 C   
ENDBRANCH  14  15
ENDBRANCH   9  14
ENDBRANCH   7   8
ENDBRANCH   1   7
BRANCH   3  17
ATOM     17  C11 UNL     1      -0.196   1.917   1.522  1.00  0.00     0.117 C   
BRANCH  17  18
ATOM     18  N2  UNL     1       0.442   0.769   2.267  1.00  0.00     0.249 N   
ATOM     19  H13 UNL     1       1.427   1.036   2.408  1.00  0.00     0.199 HD  
ATOM     20  H14 UNL     1       0.023   0.652   3.192  1.00  0.00     0.199 HD  
BRANCH  18  21
ATOM     21  C12 UNL     1       0.439  -0.547   1.554  1.00  0.00     0.164 C   
BRANCH  21  22
ATOM     22  C13 UNL     1      -0.934  -1.157   1.489  1.00  0.00    -0.002 A   
ATOM     23  C14 UNL     1      -1.528  -1.712   2.648  1.00  0.00     0.012 A   
ATOM     24  C18 UNL     1      -1.653  -1.145   0.281  1.00  0.00     0.045 A   
ATOM     25  C15 UNL     1      -2.823  -2.242   2.608  1.00  0.00     0.037 A   
ATOM     26  C17 UNL     1      -2.928  -1.672   0.277  1.00  0.00     0.109 A   
ATOM     27  C16 UNL     1      -3.497  -2.204   1.407  1.00  0.00     0.108 A   
ATOM     28  O2  UNL     1      -3.757  -1.732  -0.799  1.00  0.00    -0.316 OA  
ATOM     29  O3  UNL     1      -4.754  -2.666   1.187  1.00  0.00    -0.316 OA  
ATOM     30  C19 UNL     1      -4.913  -2.376  -0.218  1.00  0.00     0.337 C   
ENDBRANCH  21  22
ENDBRANCH  18  21
ENDBRANCH  17  18
BRANCH  17  31
ATOM     31  C20 UNL     1      -0.537   3.083   2.487  1.00  0.00     0.043 C   
ATOM     32  C21 UNL     1      -1.745   2.730   3.379  1.00  0.00     0.010 C   
ATOM     33  C25 UNL     1       0.642   3.561   3.358  1.00  0.00     0.010 C   
ATOM     34  C22 UNL     1      -2.141   3.894   4.285  1.00  0.00     0.001 C   
ATOM     35  C24 UNL     1       0.238   4.723   4.266  1.00  0.00     0.001 C   
ATOM     36  C23 UNL     1      -0.966   4.371   5.132  1.00  0.00     0.000 C   
ENDBRANCH  17  31
ENDBRANCH   3  17
TORSDOF 9
