REMARK SMILES Cc1ccc(CCn2cc([C@H](CC(C)C)[NH2+]Cc3ccc4c(c3)OCO4)nn2)c(Cl)n1
REMARK SMILES IDX 8 1 9 2 10 3 27 4 28 5 7 7 6 8 5 9 2 10 3 11 31 12 4 13
REMARK SMILES IDX 29 14 1 15 30 16 11 17 12 18 13 19 14 20 15 21 16 22 17 25
REMARK SMILES IDX 18 26 19 27 23 28 20 29 22 30 21 31 24 32 26 33 25 34
REMARK H PARENT 9 6 16 23 16 24
ROOT
ATOM     1   N1  UNL     1       0.705  -3.716  -0.553  1.00  0.00    -0.212 N   
ATOM     2   C8  UNL     1       1.373  -2.521  -0.584  1.00  0.00     0.045 A   
ATOM     3   C9  UNL     1       0.734  -1.811  -1.577  1.00  0.00     0.127 A   
ATOM     4   N3  UNL     1      -0.162  -2.639  -2.203  1.00  0.00    -0.132 NA  
ATOM     5   N4  UNL     1      -0.170  -3.802  -1.567  1.00  0.00    -0.076 NA  
ATOM     6   H10 UNL     1       2.113  -2.256   0.158  1.00  0.00     0.083 HD  
ENDROOT
BRANCH   1   7
ATOM     7   C7  UNL     1       0.659  -4.653   0.554  1.00  0.00     0.139 C   
BRANCH   7   8
ATOM     8   C6  UNL     1      -0.446  -4.327   1.582  1.00  0.00     0.060 C   
BRANCH   8   9
ATOM     9   C5  UNL     1      -0.420  -2.878   2.018  1.00  0.00    -0.009 A   
ATOM     10  C2  UNL     1      -0.076  -0.169   2.453  1.00  0.00     0.039 A   
ATOM     11  C3  UNL     1       0.707  -1.075   3.162  1.00  0.00     0.024 A   
ATOM     12  N5  UNL     1      -1.008  -0.559   1.551  1.00  0.00    -0.241 NA  
ATOM     13  C4  UNL     1       0.550  -2.438   2.923  1.00  0.00     0.009 A   
ATOM     14  C23 UNL     1      -1.216  -1.895   1.433  1.00  0.00     0.132 A   
ATOM     15  C1  UNL     1       0.090   1.303   2.690  1.00  0.00     0.067 C   
ATOM     16  CL1 UNL     1      -2.540  -2.250   0.399  1.00  0.00    -0.062 Cl  
ENDBRANCH   8   9
ENDBRANCH   7   8
ENDBRANCH   1   7
BRANCH   3  17
ATOM     17  C10 UNL     1       0.780  -0.362  -1.939  1.00  0.00     0.114 C   
BRANCH  17  18
ATOM     18  C11 UNL     1       1.990   0.408  -1.372  1.00  0.00     0.064 C   
BRANCH  18  19
ATOM     19  C12 UNL     1       3.368  -0.026  -1.919  1.00  0.00    -0.012 C   
ATOM     20  C13 UNL     1       4.470   0.775  -1.219  1.00  0.00     0.007 C   
ATOM     21  C14 UNL     1       3.478   0.162  -3.433  1.00  0.00     0.007 C   
ENDBRANCH  18  19
ENDBRANCH  17  18
BRANCH  17  22
ATOM     22  N2  UNL     1      -0.465   0.350  -1.440  1.00  0.00     0.249 N   
ATOM     23  H21 UNL     1      -0.286   1.355  -1.347  1.00  0.00     0.199 HD  
ATOM     24  H22 UNL     1      -0.706   0.027  -0.485  1.00  0.00     0.199 HD  
BRANCH  22  25
ATOM     25  C15 UNL     1      -1.673   0.180  -2.303  1.00  0.00     0.164 C   
BRANCH  25  26
ATOM     26  C16 UNL     1      -2.696   1.247  -2.022  1.00  0.00    -0.002 A   
ATOM     27  C17 UNL     1      -3.872   0.950  -1.298  1.00  0.00     0.012 A   
ATOM     28  C21 UNL     1      -2.478   2.563  -2.469  1.00  0.00     0.045 A   
ATOM     29  C18 UNL     1      -4.830   1.936  -1.037  1.00  0.00     0.037 A   
ATOM     30  C20 UNL     1      -3.440   3.513  -2.194  1.00  0.00     0.109 A   
ATOM     31  C19 UNL     1      -4.587   3.208  -1.504  1.00  0.00     0.108 A   
ATOM     32  O1  UNL     1      -3.385   4.818  -2.567  1.00  0.00    -0.316 OA  
ATOM     33  O2  UNL     1      -5.408   4.279  -1.366  1.00  0.00    -0.316 OA  
ATOM     34  C22 UNL     1      -4.652   5.296  -2.059  1.00  0.00     0.337 C   
ENDBRANCH  25  26
ENDBRANCH  22  25
ENDBRANCH  17  22
ENDBRANCH   3  17
TORSDOF 9
