REMARK SMILES c1cncc(-n2cc([C@@H]([NH2+]Cc3ccc4c(c3)OCO4)C3CCCCC3)nn2)c1
REMARK SMILES IDX 9 1 8 2 6 3 7 4 28 5 27 6 5 7 1 8 2 9 29 10 3 11 4 12 10 13
REMARK SMILES IDX 11 16 12 17 13 18 17 19 14 20 16 21 15 22 18 23 20 24 19 25
REMARK SMILES IDX 21 26 22 27 26 28 23 29 25 30 24 31
REMARK H PARENT 10 14 10 15
ROOT
ATOM     1   C7  UNL     1       0.160   1.004   0.824  1.00  0.00     0.117 C   
ENDROOT
BRANCH   1   2
ATOM     2   C6  UNL     1      -0.845  -0.101   0.925  1.00  0.00     0.127 A   
ATOM     3   N2  UNL     1      -2.389  -1.566   1.448  1.00  0.00    -0.179 N   
ATOM     4   C5  UNL     1      -1.756  -0.425   1.906  1.00  0.00     0.135 A   
ATOM     5   N5  UNL     1      -1.835  -1.923   0.261  1.00  0.00    -0.071 NA  
ATOM     6   N4  UNL     1      -0.910  -1.038  -0.068  1.00  0.00    -0.131 NA  
BRANCH   3   7
ATOM     7   C4  UNL     1      -3.424  -2.311   2.047  1.00  0.00     0.076 A   
ATOM     8   C1  UNL     1      -5.013  -2.730   3.807  1.00  0.00     0.022 A   
ATOM     9   C2  UNL     1      -5.429  -3.848   3.104  1.00  0.00     0.111 A   
ATOM     10  C22 UNL     1      -3.992  -1.945   3.271  1.00  0.00     0.029 A   
ATOM     11  N1  UNL     1      -4.898  -4.223   1.921  1.00  0.00    -0.263 NA  
ATOM     12  C3  UNL     1      -3.910  -3.450   1.413  1.00  0.00     0.136 A   
ENDBRANCH   3   7
ENDBRANCH   1   2
BRANCH   1  13
ATOM     13  N3  UNL     1       1.339   0.554  -0.006  1.00  0.00     0.249 N   
ATOM     14  H6  UNL     1       0.960   0.068  -0.833  1.00  0.00     0.199 HD  
ATOM     15  H7  UNL     1       1.876   1.351  -0.363  1.00  0.00     0.199 HD  
BRANCH  13  16
ATOM     16  C8  UNL     1       2.272  -0.394   0.666  1.00  0.00     0.164 C   
BRANCH  16  17
ATOM     17  C9  UNL     1       3.346  -0.833  -0.288  1.00  0.00    -0.002 A   
ATOM     18  C10 UNL     1       3.125  -1.937  -1.147  1.00  0.00     0.012 A   
ATOM     19  C14 UNL     1       4.552  -0.117  -0.377  1.00  0.00     0.045 A   
ATOM     20  C11 UNL     1       4.096  -2.332  -2.073  1.00  0.00     0.037 A   
ATOM     21  C13 UNL     1       5.487  -0.533  -1.302  1.00  0.00     0.109 A   
ATOM     22  C12 UNL     1       5.267  -1.609  -2.126  1.00  0.00     0.108 A   
ATOM     23  O1  UNL     1       6.698   0.046  -1.515  1.00  0.00    -0.316 OA  
ATOM     24  O2  UNL     1       6.312  -1.845  -2.961  1.00  0.00    -0.316 OA  
ATOM     25  C15 UNL     1       7.229  -0.806  -2.556  1.00  0.00     0.337 C   
ENDBRANCH  16  17
ENDBRANCH  13  16
ENDBRANCH   1  13
BRANCH   1  26
ATOM     26  C16 UNL     1      -0.392   2.317   0.206  1.00  0.00     0.043 C   
ATOM     27  C17 UNL     1      -1.443   2.980   1.117  1.00  0.00     0.010 C   
ATOM     28  C21 UNL     1      -0.953   2.155  -1.222  1.00  0.00     0.010 C   
ATOM     29  C18 UNL     1      -1.923   4.313   0.546  1.00  0.00     0.001 C   
ATOM     30  C20 UNL     1      -1.442   3.488  -1.788  1.00  0.00     0.001 C   
ATOM     31  C19 UNL     1      -2.463   4.153  -0.871  1.00  0.00     0.000 C   
ENDBRANCH   1  26
TORSDOF 6
