REMARK SMILES COc1ncccc1Cn1cc([C@@H]([NH2+]Cc2ccc3c(c2)OCO3)C(C)C)nn1
REMARK SMILES IDX 10 1 11 2 12 3 28 4 29 5 9 7 8 8 3 9 4 10 5 11 7 12 6 13
REMARK SMILES IDX 2 14 1 15 13 16 14 17 15 20 16 21 17 22 21 23 18 24 20 25
REMARK SMILES IDX 19 26 22 27 24 28 23 29 25 30 26 31 27 32
REMARK H PARENT 11 6 14 18 14 19
ROOT
ATOM     1   N2  UNL     1      -1.239   0.628  -0.482  1.00  0.00    -0.208 N   
ATOM     2   C8  UNL     1      -1.209  -0.723  -0.271  1.00  0.00     0.046 A   
ATOM     3   C9  UNL     1      -1.893  -0.890   0.911  1.00  0.00     0.127 A   
ATOM     4   N4  UNL     1      -2.310   0.335   1.368  1.00  0.00    -0.132 NA  
ATOM     5   N5  UNL     1      -1.911   1.254   0.505  1.00  0.00    -0.076 NA  
ATOM     6   H9  UNL     1      -0.710  -1.403  -0.948  1.00  0.00     0.083 HD  
ENDROOT
BRANCH   1   7
ATOM     7   C7  UNL     1      -0.709   1.376  -1.609  1.00  0.00     0.174 C   
BRANCH   7   8
ATOM     8   C6  UNL     1       0.720   1.768  -1.379  1.00  0.00     0.021 A   
ATOM     9   C2  UNL     1       1.777   0.932  -1.734  1.00  0.00     0.171 A   
ATOM     10  N1  UNL     1       3.077   1.241  -1.544  1.00  0.00    -0.233 NA  
ATOM     11  C3  UNL     1       3.346   2.438  -0.980  1.00  0.00     0.114 A   
ATOM     12  C5  UNL     1       1.040   2.992  -0.780  1.00  0.00     0.011 A   
ATOM     13  C4  UNL     1       2.373   3.336  -0.580  1.00  0.00     0.021 A   
BRANCH   9  14
ATOM     14  O1  UNL     1       1.453  -0.289  -2.295  1.00  0.00    -0.332 OA  
ATOM     15  C1  UNL     1       2.592  -1.016  -2.751  1.00  0.00     0.205 C   
ENDBRANCH   9  14
ENDBRANCH   7   8
ENDBRANCH   1   7
BRANCH   3  16
ATOM     16  C10 UNL     1      -2.172  -2.106   1.734  1.00  0.00     0.117 C   
BRANCH  16  17
ATOM     17  N3  UNL     1      -2.152  -1.728   3.203  1.00  0.00     0.249 N   
ATOM     18  H11 UNL     1      -2.356  -0.716   3.235  1.00  0.00     0.199 HD  
ATOM     19  H12 UNL     1      -2.918  -2.185   3.706  1.00  0.00     0.199 HD  
BRANCH  17  20
ATOM     20  C11 UNL     1      -0.878  -1.977   3.933  1.00  0.00     0.164 C   
BRANCH  20  21
ATOM     21  C12 UNL     1       0.308  -1.231   3.391  1.00  0.00    -0.002 A   
ATOM     22  C13 UNL     1       0.408   0.173   3.544  1.00  0.00     0.012 A   
ATOM     23  C17 UNL     1       1.327  -1.924   2.715  1.00  0.00     0.045 A   
ATOM     24  C14 UNL     1       1.506   0.876   3.037  1.00  0.00     0.037 A   
ATOM     25  C16 UNL     1       2.396  -1.201   2.228  1.00  0.00     0.109 A   
ATOM     26  C15 UNL     1       2.487   0.159   2.389  1.00  0.00     0.108 A   
ATOM     27  O2  UNL     1       3.461  -1.719   1.562  1.00  0.00    -0.316 OA  
ATOM     28  O3  UNL     1       3.628   0.669   1.859  1.00  0.00    -0.316 OA  
ATOM     29  C18 UNL     1       4.248  -0.526   1.339  1.00  0.00     0.337 C   
ENDBRANCH  20  21
ENDBRANCH  17  20
ENDBRANCH  16  17
BRANCH  16  30
ATOM     30  C19 UNL     1      -3.532  -2.783   1.417  1.00  0.00     0.037 C   
ATOM     31  C20 UNL     1      -4.749  -1.867   1.593  1.00  0.00     0.014 C   
ATOM     32  C21 UNL     1      -3.542  -3.392   0.010  1.00  0.00     0.014 C   
ENDBRANCH  16  30
ENDBRANCH   3  16
TORSDOF 8
