REMARK SMILES CC(C)(C)[C@H]([NH2+]Cc1ccc2c(c1)OCO2)c1cn(-c2ccc(N)cc2)nn1
REMARK SMILES IDX 17 1 18 2 19 3 27 4 28 5 5 6 2 7 1 8 3 9 4 10 6 11 7 14 8 15
REMARK SMILES IDX 9 16 13 17 10 18 12 19 11 20 14 21 16 22 15 23 20 24 21 25
REMARK SMILES IDX 26 26 22 27 25 28 23 29 24 30
REMARK H PARENT 6 12 6 13 24 31 24 32
ROOT
ATOM     1   C14 UNL     1       0.992   0.446  -0.035  1.00  0.00     0.128 A   
ATOM     2   C15 UNL     1       2.101   1.234   0.182  1.00  0.00     0.135 A   
ATOM     3   N2  UNL     1       1.678   2.528  -0.059  1.00  0.00    -0.181 N   
ATOM     4   N4  UNL     1       0.354   2.500  -0.367  1.00  0.00    -0.071 NA  
ATOM     5   N5  UNL     1      -0.065   1.247  -0.364  1.00  0.00    -0.131 NA  
ENDROOT
BRANCH   1   6
ATOM     6   C5  UNL     1       0.779  -1.034   0.101  1.00  0.00     0.120 C   
BRANCH   6   7
ATOM     7   C2  UNL     1       1.058  -1.846  -1.212  1.00  0.00     0.010 C   
ATOM     8   C1  UNL     1       0.953  -3.365  -0.938  1.00  0.00     0.017 C   
ATOM     9   C3  UNL     1       2.498  -1.582  -1.710  1.00  0.00     0.017 C   
ATOM     10  C4  UNL     1       0.080  -1.491  -2.350  1.00  0.00     0.017 C   
ENDBRANCH   6   7
BRANCH   6  11
ATOM     11  N1  UNL     1      -0.636  -1.276   0.576  1.00  0.00     0.250 N   
ATOM     12  H11 UNL     1      -1.247  -0.666   0.011  1.00  0.00     0.199 HD  
ATOM     13  H12 UNL     1      -0.953  -2.233   0.400  1.00  0.00     0.199 HD  
BRANCH  11  14
ATOM     14  C6  UNL     1      -0.898  -0.949   2.006  1.00  0.00     0.164 C   
BRANCH  14  15
ATOM     15  C7  UNL     1      -2.353  -1.137   2.326  1.00  0.00    -0.002 A   
ATOM     16  C8  UNL     1      -3.273  -0.086   2.090  1.00  0.00     0.012 A   
ATOM     17  C12 UNL     1      -2.821  -2.372   2.804  1.00  0.00     0.045 A   
ATOM     18  C9  UNL     1      -4.639  -0.257   2.338  1.00  0.00     0.037 A   
ATOM     19  C11 UNL     1      -4.174  -2.507   3.038  1.00  0.00     0.109 A   
ATOM     20  C10 UNL     1      -5.057  -1.480   2.812  1.00  0.00     0.108 A   
ATOM     21  O1  UNL     1      -4.787  -3.628   3.499  1.00  0.00    -0.316 OA  
ATOM     22  O2  UNL     1      -6.338  -1.825   3.104  1.00  0.00    -0.316 OA  
ATOM     23  C13 UNL     1      -6.161  -3.183   3.563  1.00  0.00     0.337 C   
ENDBRANCH  14  15
ENDBRANCH  11  14
ENDBRANCH   6  11
ENDBRANCH   1   6
BRANCH   3  24
ATOM     24  C16 UNL     1       2.413   3.736   0.002  1.00  0.00     0.058 A   
ATOM     25  C17 UNL     1       3.773   3.740   0.332  1.00  0.00     0.028 A   
ATOM     26  C21 UNL     1       1.766   4.953  -0.253  1.00  0.00     0.028 A   
ATOM     27  C18 UNL     1       4.473   4.952   0.395  1.00  0.00     0.025 A   
ATOM     28  C20 UNL     1       2.479   6.155  -0.185  1.00  0.00     0.025 A   
ATOM     29  C19 UNL     1       3.846   6.163   0.092  1.00  0.00     0.023 A   
BRANCH  29  30
ATOM     30  N3  UNL     1       4.519   7.371   0.287  1.00  0.00    -0.358 N   
ATOM     31  H23 UNL     1       5.527   7.319   0.178  1.00  0.00     0.143 HD  
ATOM     32  H24 UNL     1       4.122   8.161  -0.215  1.00  0.00     0.143 HD  
ENDBRANCH  29  30
ENDBRANCH   3  24
TORSDOF 7
