REMARK SMILES CC(C)(C)[C@H]([NH2+]Cc1ccc2c(c1)OCO2)c1cn(Cc2c[nH]c3ccccc23)nn1
REMARK SMILES IDX 17 1 18 2 19 3 30 4 31 5 5 7 2 8 1 9 3 10 4 11 6 12 7 15
REMARK SMILES IDX 8 16 9 17 13 18 10 19 12 20 11 21 14 22 16 23 15 24 20 25
REMARK SMILES IDX 21 26 22 27 29 28 23 29 24 30 28 31 25 32 27 33 26 34
REMARK H PARENT 18 6 6 13 6 14 23 35
ROOT
ATOM     1   C14 UNL     1      -0.387  -0.319  -2.623  1.00  0.00     0.127 A   
ATOM     2   C15 UNL     1      -1.419   0.580  -2.482  1.00  0.00     0.046 A   
ATOM     3   N2  UNL     1      -2.546  -0.185  -2.635  1.00  0.00    -0.208 N   
ATOM     4   N4  UNL     1      -2.220  -1.456  -2.944  1.00  0.00    -0.076 NA  
ATOM     5   N5  UNL     1      -0.901  -1.553  -2.928  1.00  0.00    -0.132 NA  
ATOM     6   H20 UNL     1      -1.465   1.624  -2.202  1.00  0.00     0.083 HD  
ENDROOT
BRANCH   1   7
ATOM     7   C5  UNL     1       1.075  -0.168  -2.344  1.00  0.00     0.120 C   
BRANCH   7   8
ATOM     8   C2  UNL     1       1.968  -0.029  -3.626  1.00  0.00     0.010 C   
ATOM     9   C1  UNL     1       1.966  -1.293  -4.508  1.00  0.00     0.017 C   
ATOM     10  C3  UNL     1       3.431   0.276  -3.227  1.00  0.00     0.017 C   
ATOM     11  C4  UNL     1       1.476   1.161  -4.482  1.00  0.00     0.017 C   
ENDBRANCH   7   8
BRANCH   7  12
ATOM     12  N1  UNL     1       1.538  -1.340  -1.496  1.00  0.00     0.250 N   
ATOM     13  H11 UNL     1       1.280  -2.190  -2.015  1.00  0.00     0.199 HD  
ATOM     14  H12 UNL     1       2.553  -1.336  -1.391  1.00  0.00     0.199 HD  
BRANCH  12  15
ATOM     15  C6  UNL     1       0.916  -1.465  -0.138  1.00  0.00     0.164 C   
BRANCH  15  16
ATOM     16  C7  UNL     1       1.224  -0.306   0.768  1.00  0.00    -0.002 A   
ATOM     17  C8  UNL     1       2.532  -0.111   1.271  1.00  0.00     0.012 A   
ATOM     18  C12 UNL     1       0.209   0.609   1.106  1.00  0.00     0.045 A   
ATOM     19  C9  UNL     1       2.830   0.982   2.092  1.00  0.00     0.037 A   
ATOM     20  C11 UNL     1       0.536   1.676   1.916  1.00  0.00     0.109 A   
ATOM     21  C10 UNL     1       1.810   1.857   2.394  1.00  0.00     0.108 A   
ATOM     22  O1  UNL     1      -0.317   2.650   2.327  1.00  0.00    -0.316 OA  
ATOM     23  O2  UNL     1       1.919   2.966   3.172  1.00  0.00    -0.316 OA  
ATOM     24  C13 UNL     1       0.557   3.444   3.162  1.00  0.00     0.337 C   
ENDBRANCH  15  16
ENDBRANCH  12  15
ENDBRANCH   7  12
ENDBRANCH   1   7
BRANCH   3  25
ATOM     25  C16 UNL     1      -3.923   0.185  -2.336  1.00  0.00     0.171 C   
BRANCH  25  26
ATOM     26  C17 UNL     1      -4.030   0.611  -0.904  1.00  0.00    -0.006 A   
ATOM     27  C18 UNL     1      -4.319   1.881  -0.438  1.00  0.00     0.078 A   
ATOM     28  C24 UNL     1      -3.814  -0.213   0.250  1.00  0.00     0.002 A   
ATOM     29  N3  UNL     1      -4.270   1.861   0.930  1.00  0.00    -0.320 N   
ATOM     30  C19 UNL     1      -3.940   0.602   1.374  1.00  0.00     0.037 A   
ATOM     31  C23 UNL     1      -3.502  -1.577   0.440  1.00  0.00     0.010 A   
ATOM     32  C20 UNL     1      -3.756   0.128   2.678  1.00  0.00     0.024 A   
ATOM     33  C22 UNL     1      -3.320  -2.068   1.738  1.00  0.00     0.001 A   
ATOM     34  C21 UNL     1      -3.441  -1.224   2.838  1.00  0.00     0.002 A   
ATOM     35  H24 UNL     1      -4.446   2.654   1.536  1.00  0.00     0.152 HD  
ENDBRANCH  25  26
ENDBRANCH   3  25
TORSDOF 7
