REMARK SMILES c1cc2c(c(-n3cc([C@@H]([NH2+]Cc4ccc5c(c4)OCO5)C4CCCCC4)nn3)c1)COC2
REMARK SMILES IDX 9 1 8 2 6 3 7 4 28 5 27 6 5 7 1 8 2 9 29 10 3 11 4 12 32 13
REMARK SMILES IDX 30 14 31 15 10 16 11 19 12 20 13 21 17 22 14 23 16 24 15 25
REMARK SMILES IDX 18 26 20 27 19 28 21 29 22 30 26 31 23 32 25 33 24 34
REMARK H PARENT 10 17 10 18
ROOT
ATOM     1   C8  UNL     1      -0.274   0.055   0.952  1.00  0.00     0.117 C   
ENDROOT
BRANCH   1   2
ATOM     2   C7  UNL     1       0.683   0.552  -0.086  1.00  0.00     0.127 A   
ATOM     3   N1  UNL     1       1.842   1.068  -1.877  1.00  0.00    -0.180 N   
ATOM     4   C6  UNL     1       0.736   0.355  -1.447  1.00  0.00     0.135 A   
ATOM     5   N4  UNL     1       2.426   1.640  -0.793  1.00  0.00    -0.071 NA  
ATOM     6   N3  UNL     1       1.729   1.344   0.288  1.00  0.00    -0.131 NA  
BRANCH   3   7
ATOM     7   C5  UNL     1       2.342   1.230  -3.193  1.00  0.00     0.063 A   
ATOM     8   C1  UNL     1       2.151   0.816  -5.595  1.00  0.00     0.002 A   
ATOM     9   C2  UNL     1       3.299   1.567  -5.840  1.00  0.00     0.006 A   
ATOM     10  C23 UNL     1       1.674   0.646  -4.285  1.00  0.00     0.026 A   
ATOM     11  C3  UNL     1       3.954   2.132  -4.761  1.00  0.00    -0.015 A   
ATOM     12  C4  UNL     1       3.495   1.972  -3.455  1.00  0.00     0.007 A   
ATOM     13  C25 UNL     1       5.170   2.984  -4.772  1.00  0.00     0.196 C   
ATOM     14  C24 UNL     1       4.419   2.712  -2.551  1.00  0.00     0.198 C   
ATOM     15  O3  UNL     1       5.530   3.115  -3.383  1.00  0.00    -0.372 OA  
ENDBRANCH   3   7
ENDBRANCH   1   2
BRANCH   1  16
ATOM     16  N2  UNL     1       0.342   0.177   2.326  1.00  0.00     0.249 N   
ATOM     17  H5  UNL     1       0.905   1.042   2.311  1.00  0.00     0.199 HD  
ATOM     18  H6  UNL     1      -0.373   0.307   3.046  1.00  0.00     0.199 HD  
BRANCH  16  19
ATOM     19  C9  UNL     1       1.246  -0.936   2.739  1.00  0.00     0.164 C   
BRANCH  19  20
ATOM     20  C10 UNL     1       0.477  -2.179   3.097  1.00  0.00    -0.002 A   
ATOM     21  C11 UNL     1      -0.280  -2.231   4.292  1.00  0.00     0.012 A   
ATOM     22  C15 UNL     1       0.465  -3.280   2.224  1.00  0.00     0.045 A   
ATOM     23  C12 UNL     1      -1.056  -3.352   4.604  1.00  0.00     0.037 A   
ATOM     24  C14 UNL     1      -0.314  -4.368   2.560  1.00  0.00     0.109 A   
ATOM     25  C13 UNL     1      -1.056  -4.401   3.713  1.00  0.00     0.108 A   
ATOM     26  O1  UNL     1      -0.458  -5.496   1.816  1.00  0.00    -0.316 OA  
ATOM     27  O2  UNL     1      -1.760  -5.554   3.843  1.00  0.00    -0.316 OA  
ATOM     28  C16 UNL     1      -1.359  -6.260   2.649  1.00  0.00     0.337 C   
ENDBRANCH  19  20
ENDBRANCH  16  19
ENDBRANCH   1  16
BRANCH   1  29
ATOM     29  C17 UNL     1      -1.635   0.801   0.902  1.00  0.00     0.043 C   
ATOM     30  C18 UNL     1      -1.554   2.282   1.321  1.00  0.00     0.010 C   
ATOM     31  C22 UNL     1      -2.713   0.068   1.727  1.00  0.00     0.010 C   
ATOM     32  C19 UNL     1      -2.916   2.969   1.222  1.00  0.00     0.001 C   
ATOM     33  C21 UNL     1      -4.070   0.763   1.625  1.00  0.00     0.001 C   
ATOM     34  C20 UNL     1      -3.980   2.231   2.028  1.00  0.00     0.000 C   
ENDBRANCH   1  29
TORSDOF 6
