REMARK SMILES Cc1cc([C@@H](CO)n2cc([C@H](CC(C)C)[NH2+]Cc3ccc4c(c3)OCO4)nn2)c(C)o1
REMARK SMILES IDX 8 1 9 2 10 3 27 4 28 5 5 7 4 8 2 9 3 10 31 11 29 12 1 13
REMARK SMILES IDX 30 14 6 15 7 16 11 18 12 19 13 20 14 21 15 22 16 23 17 26
REMARK SMILES IDX 18 27 19 28 23 29 20 30 22 31 21 32 24 33 26 34 25 35
REMARK H PARENT 9 6 7 17 16 24 16 25
ROOT
ATOM     1   N1  UNL     1       2.876  -0.758   0.738  1.00  0.00    -0.202 N   
ATOM     2   C7  UNL     1       1.640  -0.166   0.785  1.00  0.00     0.046 A   
ATOM     3   C8  UNL     1       0.765  -1.222   0.881  1.00  0.00     0.127 A   
ATOM     4   N3  UNL     1       1.472  -2.397   0.888  1.00  0.00    -0.132 NA  
ATOM     5   N4  UNL     1       2.759  -2.104   0.799  1.00  0.00    -0.075 NA  
ATOM     6   H9  UNL     1       1.514   0.907   0.732  1.00  0.00     0.083 HD  
ENDROOT
BRANCH   1   7
ATOM     7   C5  UNL     1       4.191  -0.138   0.582  1.00  0.00     0.157 C   
BRANCH   7   8
ATOM     8   C4  UNL     1       4.210   0.726  -0.654  1.00  0.00     0.005 A   
ATOM     9   C2  UNL     1       4.149   2.464  -2.086  1.00  0.00     0.056 A   
ATOM     10  C3  UNL     1       4.073   2.144  -0.750  1.00  0.00     0.037 A   
ATOM     11  O4  UNL     1       4.314   1.337  -2.824  1.00  0.00    -0.319 OA  
ATOM     12  C22 UNL     1       4.363   0.289  -1.962  1.00  0.00     0.061 A   
ATOM     13  C1  UNL     1       4.090   3.734  -2.837  1.00  0.00     0.073 C   
ATOM     14  C23 UNL     1       4.559  -1.038  -2.579  1.00  0.00     0.073 C   
ENDBRANCH   7   8
BRANCH   7  15
ATOM     15  C6  UNL     1       4.659   0.541   1.881  1.00  0.00     0.186 C   
BRANCH  15  16
ATOM     16  O1  UNL     1       3.765   1.558   2.340  1.00  0.00    -0.394 OA  
ATOM     17  H8  UNL     1       4.177   1.965   3.128  1.00  0.00     0.210 HD  
ENDBRANCH  15  16
ENDBRANCH   7  15
ENDBRANCH   1   7
BRANCH   3  18
ATOM     18  C9  UNL     1      -0.724  -1.253   0.897  1.00  0.00     0.114 C   
BRANCH  18  19
ATOM     19  C10 UNL     1      -1.275  -1.437   2.325  1.00  0.00     0.064 C   
BRANCH  19  20
ATOM     20  C11 UNL     1      -2.775  -1.094   2.462  1.00  0.00    -0.012 C   
ATOM     21  C12 UNL     1      -3.323  -1.663   3.771  1.00  0.00     0.007 C   
ATOM     22  C13 UNL     1      -3.016   0.418   2.416  1.00  0.00     0.007 C   
ENDBRANCH  19  20
ENDBRANCH  18  19
BRANCH  18  23
ATOM     23  N2  UNL     1      -1.205  -2.417   0.051  1.00  0.00     0.249 N   
ATOM     24  H20 UNL     1      -0.596  -3.212   0.299  1.00  0.00     0.199 HD  
ATOM     25  H21 UNL     1      -2.159  -2.688   0.306  1.00  0.00     0.199 HD  
BRANCH  23  26
ATOM     26  C14 UNL     1      -1.112  -2.223  -1.427  1.00  0.00     0.164 C   
BRANCH  26  27
ATOM     27  C15 UNL     1      -2.113  -1.234  -1.956  1.00  0.00    -0.002 A   
ATOM     28  C16 UNL     1      -3.500  -1.519  -1.901  1.00  0.00     0.012 A   
ATOM     29  C20 UNL     1      -1.679  -0.020  -2.517  1.00  0.00     0.045 A   
ATOM     30  C17 UNL     1      -4.441  -0.609  -2.391  1.00  0.00     0.037 A   
ATOM     31  C19 UNL     1      -2.632   0.848  -3.002  1.00  0.00     0.109 A   
ATOM     32  C18 UNL     1      -3.974   0.563  -2.938  1.00  0.00     0.108 A   
ATOM     33  O2  UNL     1      -2.382   2.043  -3.594  1.00  0.00    -0.316 OA  
ATOM     34  O3  UNL     1      -4.738   1.546  -3.478  1.00  0.00    -0.316 OA  
ATOM     35  C21 UNL     1      -3.721   2.482  -3.914  1.00  0.00     0.337 C   
ENDBRANCH  26  27
ENDBRANCH  23  26
ENDBRANCH  18  23
ENDBRANCH   3  18
TORSDOF 10
