REMARK SMILES Cc1cccnc1[C@H](CO)n1cc([C@@H]([NH2+]Cc2ccc3c(c2)OCO3)C(C)C)nn1
REMARK SMILES IDX 11 1 12 2 13 3 29 4 30 5 8 7 7 8 2 9 3 10 4 11 6 12 5 13
REMARK SMILES IDX 1 14 9 15 10 16 14 18 15 19 16 22 17 23 18 24 22 25 19 26
REMARK SMILES IDX 21 27 20 28 23 29 25 30 24 31 26 32 27 33 28 34
REMARK H PARENT 12 6 10 17 15 20 15 21
ROOT
ATOM     1   N2  UNL     1       1.246   0.219   1.435  1.00  0.00    -0.201 N   
ATOM     2   C9  UNL     1       1.415  -0.564   0.325  1.00  0.00     0.046 A   
ATOM     3   C10 UNL     1       0.314  -0.295  -0.453  1.00  0.00     0.127 A   
ATOM     4   N4  UNL     1      -0.481   0.616   0.195  1.00  0.00    -0.132 NA  
ATOM     5   N5  UNL     1       0.079   0.896   1.360  1.00  0.00    -0.075 NA  
ATOM     6   H11 UNL     1       2.269  -1.220   0.209  1.00  0.00     0.083 HD  
ENDROOT
BRANCH   1   7
ATOM     7   C7  UNL     1       2.098   0.350   2.613  1.00  0.00     0.174 C   
BRANCH   7   8
ATOM     8   C6  UNL     1       3.488   0.825   2.212  1.00  0.00     0.068 A   
ATOM     9   C2  UNL     1       3.786   2.187   2.037  1.00  0.00    -0.027 A   
ATOM     10  C3  UNL     1       5.093   2.530   1.668  1.00  0.00     0.007 A   
ATOM     11  C4  UNL     1       6.050   1.542   1.473  1.00  0.00     0.020 A   
ATOM     12  N1  UNL     1       4.421  -0.152   2.002  1.00  0.00    -0.259 NA  
ATOM     13  C5  UNL     1       5.671   0.227   1.651  1.00  0.00     0.111 A   
ATOM     14  C1  UNL     1       2.773   3.280   2.238  1.00  0.00     0.046 C   
ENDBRANCH   7   8
BRANCH   7  15
ATOM     15  C8  UNL     1       2.100  -0.943   3.452  1.00  0.00     0.187 C   
BRANCH  15  16
ATOM     16  O1  UNL     1       2.660  -2.069   2.771  1.00  0.00    -0.394 OA  
ATOM     17  H10 UNL     1       3.574  -1.798   2.524  1.00  0.00     0.210 HD  
ENDBRANCH  15  16
ENDBRANCH   7  15
ENDBRANCH   1   7
BRANCH   3  18
ATOM     18  C11 UNL     1      -0.124  -0.854  -1.768  1.00  0.00     0.117 C   
BRANCH  18  19
ATOM     19  N3  UNL     1      -1.630  -0.803  -1.867  1.00  0.00     0.249 N   
ATOM     20  H13 UNL     1      -1.949  -0.868  -2.838  1.00  0.00     0.199 HD  
ATOM     21  H14 UNL     1      -1.917   0.125  -1.525  1.00  0.00     0.199 HD  
BRANCH  19  22
ATOM     22  C12 UNL     1      -2.354  -1.814  -1.047  1.00  0.00     0.164 C   
BRANCH  22  23
ATOM     23  C13 UNL     1      -3.837  -1.588  -1.136  1.00  0.00    -0.002 A   
ATOM     24  C14 UNL     1      -4.455  -0.598  -0.333  1.00  0.00     0.012 A   
ATOM     25  C18 UNL     1      -4.612  -2.316  -2.055  1.00  0.00     0.045 A   
ATOM     26  C15 UNL     1      -5.825  -0.340  -0.439  1.00  0.00     0.037 A   
ATOM     27  C17 UNL     1      -5.961  -2.038  -2.133  1.00  0.00     0.109 A   
ATOM     28  C16 UNL     1      -6.551  -1.078  -1.348  1.00  0.00     0.108 A   
ATOM     29  O2  UNL     1      -6.846  -2.645  -2.968  1.00  0.00    -0.316 OA  
ATOM     30  O3  UNL     1      -7.883  -0.959  -1.592  1.00  0.00    -0.316 OA  
ATOM     31  C19 UNL     1      -8.073  -1.978  -2.597  1.00  0.00     0.337 C   
ENDBRANCH  22  23
ENDBRANCH  19  22
ENDBRANCH  18  19
BRANCH  18  32
ATOM     32  C20 UNL     1       0.469  -0.120  -2.998  1.00  0.00     0.037 C   
ATOM     33  C21 UNL     1       0.153   1.380  -3.046  1.00  0.00     0.014 C   
ATOM     34  C22 UNL     1       1.984  -0.332  -3.108  1.00  0.00     0.014 C   
ENDBRANCH  18  32
ENDBRANCH   3  18
TORSDOF 9
