REMARK SMILES Cc1cccnc1[C@@H](CO)n1cc([C@@H]([NH2+]Cc2ccc3c(c2)OCO3)C(C)C)nn1
REMARK SMILES IDX 11 1 12 2 13 3 29 4 30 5 8 7 7 8 2 9 3 10 4 11 6 12 5 13
REMARK SMILES IDX 1 14 9 15 10 16 14 18 15 19 16 22 17 23 18 24 22 25 19 26
REMARK SMILES IDX 21 27 20 28 23 29 25 30 24 31 26 32 27 33 28 34
REMARK H PARENT 12 6 10 17 15 20 15 21
ROOT
ATOM     1   N2  UNL     1       0.345  -0.331   2.782  1.00  0.00    -0.201 N   
ATOM     2   C9  UNL     1      -0.138   0.826   2.227  1.00  0.00     0.046 A   
ATOM     3   C10 UNL     1      -0.388   0.495   0.915  1.00  0.00     0.127 A   
ATOM     4   N4  UNL     1      -0.058  -0.820   0.715  1.00  0.00    -0.132 NA  
ATOM     5   N5  UNL     1       0.394  -1.312   1.856  1.00  0.00    -0.075 NA  
ATOM     6   H11 UNL     1      -0.248   1.738   2.801  1.00  0.00     0.083 HD  
ENDROOT
BRANCH   1   7
ATOM     7   C7  UNL     1       0.750  -0.595   4.159  1.00  0.00     0.174 C   
BRANCH   7   8
ATOM     8   C6  UNL     1       1.872   0.354   4.553  1.00  0.00     0.068 A   
ATOM     9   C2  UNL     1       3.226   0.014   4.400  1.00  0.00    -0.027 A   
ATOM     10  C3  UNL     1       4.186   0.956   4.793  1.00  0.00     0.007 A   
ATOM     11  C4  UNL     1       3.794   2.186   5.305  1.00  0.00     0.020 A   
ATOM     12  N1  UNL     1       1.484   1.569   5.037  1.00  0.00    -0.259 NA  
ATOM     13  C5  UNL     1       2.443   2.446   5.408  1.00  0.00     0.111 A   
ATOM     14  C1  UNL     1       3.680  -1.315   3.866  1.00  0.00     0.046 C   
ENDBRANCH   7   8
BRANCH   7  15
ATOM     15  C8  UNL     1      -0.460  -0.520   5.104  1.00  0.00     0.187 C   
BRANCH  15  16
ATOM     16  O1  UNL     1      -0.131  -0.973   6.417  1.00  0.00    -0.394 OA  
ATOM     17  H10 UNL     1       0.369  -0.255   6.851  1.00  0.00     0.210 HD  
ENDBRANCH  15  16
ENDBRANCH   7  15
ENDBRANCH   1   7
BRANCH   3  18
ATOM     18  C11 UNL     1      -0.906   1.313  -0.227  1.00  0.00     0.117 C   
BRANCH  18  19
ATOM     19  N3  UNL     1      -0.526   0.681  -1.539  1.00  0.00     0.249 N   
ATOM     20  H13 UNL     1      -0.693  -0.331  -1.439  1.00  0.00     0.199 HD  
ATOM     21  H14 UNL     1      -1.125   0.995  -2.308  1.00  0.00     0.199 HD  
BRANCH  19  22
ATOM     22  C12 UNL     1       0.899   0.849  -1.936  1.00  0.00     0.164 C   
BRANCH  22  23
ATOM     23  C13 UNL     1       1.175   0.104  -3.211  1.00  0.00    -0.002 A   
ATOM     24  C14 UNL     1       1.527  -1.267  -3.169  1.00  0.00     0.012 A   
ATOM     25  C18 UNL     1       1.027   0.744  -4.453  1.00  0.00     0.045 A   
ATOM     26  C15 UNL     1       1.741  -1.989  -4.348  1.00  0.00     0.037 A   
ATOM     27  C17 UNL     1       1.245   0.002  -5.596  1.00  0.00     0.109 A   
ATOM     28  C16 UNL     1       1.592  -1.325  -5.545  1.00  0.00     0.108 A   
ATOM     29  O2  UNL     1       1.143   0.465  -6.869  1.00  0.00    -0.316 OA  
ATOM     30  O3  UNL     1       1.755  -1.865  -6.781  1.00  0.00    -0.316 OA  
ATOM     31  C19 UNL     1       1.489  -0.721  -7.620  1.00  0.00     0.337 C   
ENDBRANCH  22  23
ENDBRANCH  19  22
ENDBRANCH  18  19
BRANCH  18  32
ATOM     32  C20 UNL     1      -2.443   1.514  -0.152  1.00  0.00     0.037 C   
ATOM     33  C21 UNL     1      -2.921   2.600  -1.122  1.00  0.00     0.014 C   
ATOM     34  C22 UNL     1      -3.248   0.228  -0.376  1.00  0.00     0.014 C   
ENDBRANCH  18  32
ENDBRANCH   3  18
TORSDOF 9
