REMARK SMILES [O-][S+]([O-])c1ccc(Cn2cc([C@@H]([NH2+]Cc3ccc4c(c3)OCO4)C3CCCC3)nn2)cc1
REMARK SMILES IDX 9 1 10 2 11 3 29 4 30 5 8 7 7 8 4 9 5 10 32 11 6 12 31 13
REMARK SMILES IDX 2 14 1 15 3 16 12 17 13 18 14 21 15 22 16 23 20 24 17 25
REMARK SMILES IDX 19 26 18 27 21 28 23 29 22 30 24 31 25 32 28 33 26 34 27 35
REMARK H PARENT 10 6 13 19 13 20
ROOT
ATOM     1   N1  UNL     1       3.454   0.669   0.982  1.00  0.00    -0.208 N   
ATOM     2   C6  UNL     1       2.170   0.845   1.451  1.00  0.00     0.046 A   
ATOM     3   C7  UNL     1       1.379   0.728   0.326  1.00  0.00     0.127 A   
ATOM     4   N3  UNL     1       2.200   0.710  -0.775  1.00  0.00    -0.132 NA  
ATOM     5   N4  UNL     1       3.463   0.700  -0.367  1.00  0.00    -0.076 NA  
ATOM     6   H5  UNL     1       1.955   0.859   2.508  1.00  0.00     0.083 HD  
ENDROOT
BRANCH   1   7
ATOM     7   C5  UNL     1       4.553   0.024   1.716  1.00  0.00     0.169 C   
BRANCH   7   8
ATOM     8   C4  UNL     1       4.067  -1.371   2.073  1.00  0.00    -0.028 A   
ATOM     9   C1  UNL     1       1.941  -3.112   2.114  1.00  0.00     0.167 A   
ATOM     10  C2  UNL     1       2.841  -3.168   1.048  1.00  0.00     0.063 A   
ATOM     11  C23 UNL     1       2.262  -2.413   3.277  1.00  0.00     0.063 A   
ATOM     12  C3  UNL     1       3.922  -2.296   1.026  1.00  0.00     0.010 A   
ATOM     13  C22 UNL     1       3.352  -1.546   3.269  1.00  0.00     0.010 A   
BRANCH   9  14
ATOM     14  S1  UNL     1       0.201  -3.591   1.825  1.00  0.00     0.041 S   
ATOM     15  O1  UNL     1       0.052  -3.623   0.315  1.00  0.00    -0.672 OA  
ATOM     16  O2  UNL     1      -0.605  -2.434   2.396  1.00  0.00    -0.672 OA  
ENDBRANCH   9  14
ENDBRANCH   7   8
ENDBRANCH   1   7
BRANCH   3  17
ATOM     17  C8  UNL     1      -0.109   0.579   0.146  1.00  0.00     0.117 C   
BRANCH  17  18
ATOM     18  N2  UNL     1      -0.572  -0.830   0.304  1.00  0.00     0.249 N   
ATOM     19  H7  UNL     1      -0.552  -1.165   1.294  1.00  0.00     0.199 HD  
ATOM     20  H8  UNL     1       0.109  -1.505  -0.087  1.00  0.00     0.199 HD  
BRANCH  18  21
ATOM     21  C9  UNL     1      -1.891  -1.238  -0.238  1.00  0.00     0.164 C   
BRANCH  21  22
ATOM     22  C10 UNL     1      -2.045  -0.937  -1.707  1.00  0.00    -0.002 A   
ATOM     23  C11 UNL     1      -1.217  -1.588  -2.656  1.00  0.00     0.012 A   
ATOM     24  C15 UNL     1      -2.978   0.023  -2.143  1.00  0.00     0.045 A   
ATOM     25  C12 UNL     1      -1.283  -1.260  -4.014  1.00  0.00     0.037 A   
ATOM     26  C14 UNL     1      -3.028   0.313  -3.491  1.00  0.00     0.109 A   
ATOM     27  C13 UNL     1      -2.199  -0.302  -4.400  1.00  0.00     0.108 A   
ATOM     28  O3  UNL     1      -3.865   1.208  -4.078  1.00  0.00    -0.316 OA  
ATOM     29  O4  UNL     1      -2.393   0.151  -5.671  1.00  0.00    -0.316 OA  
ATOM     30  C16 UNL     1      -3.478   1.074  -5.469  1.00  0.00     0.337 C   
ENDBRANCH  21  22
ENDBRANCH  18  21
ENDBRANCH  17  18
BRANCH  17  31
ATOM     31  C17 UNL     1      -0.985   1.522   0.998  1.00  0.00     0.043 C   
ATOM     32  C18 UNL     1      -0.644   3.012   0.849  1.00  0.00     0.010 C   
ATOM     33  C21 UNL     1      -1.036   1.259   2.512  1.00  0.00     0.010 C   
ATOM     34  C19 UNL     1      -1.208   3.635   2.113  1.00  0.00     0.001 C   
ATOM     35  C20 UNL     1      -0.854   2.618   3.184  1.00  0.00     0.001 C   
ENDBRANCH  17  31
ENDBRANCH   3  17
TORSDOF 8
