REMARK SMILES CC(C)[C@H]([NH2+]Cc1ccc2c(c1)OCO2)c1cn([C@@H]2CCn3cccc3C2)nn1
REMARK SMILES IDX 4 1 2 2 1 3 3 4 5 5 6 8 7 9 8 10 12 11 9 12 11 13 10 14
REMARK SMILES IDX 13 15 15 16 14 17 16 18 17 19 29 20 18 21 28 22 19 24 20 25
REMARK SMILES IDX 27 26 21 27 26 28 22 29 25 30 23 31 24 32
REMARK H PARENT 5 6 5 7 17 23
ROOT
ATOM     1   C4  UNL     1      -1.235  -2.190  -1.776  1.00  0.00     0.117 C   
ENDROOT
BRANCH   1   2
ATOM     2   C2  UNL     1      -2.422  -3.148  -1.499  1.00  0.00     0.037 C   
ATOM     3   C1  UNL     1      -3.542  -2.440  -0.727  1.00  0.00     0.014 C   
ATOM     4   C3  UNL     1      -2.038  -4.444  -0.777  1.00  0.00     0.014 C   
ENDBRANCH   1   2
BRANCH   1   5
ATOM     5   N1  UNL     1      -0.252  -2.882  -2.702  1.00  0.00     0.249 N   
ATOM     6   H9  UNL     1      -0.699  -3.673  -3.175  1.00  0.00     0.199 HD  
ATOM     7   H10 UNL     1       0.473  -3.288  -2.089  1.00  0.00     0.199 HD  
BRANCH   5   8
ATOM     8   C5  UNL     1       0.417  -2.023  -3.722  1.00  0.00     0.164 C   
BRANCH   8   9
ATOM     9   C6  UNL     1       1.234  -0.900  -3.147  1.00  0.00    -0.002 A   
ATOM     10  C7  UNL     1       0.775   0.437  -3.236  1.00  0.00     0.012 A   
ATOM     11  C11 UNL     1       2.441  -1.171  -2.478  1.00  0.00     0.045 A   
ATOM     12  C8  UNL     1       1.494   1.486  -2.651  1.00  0.00     0.037 A   
ATOM     13  C10 UNL     1       3.125  -0.114  -1.913  1.00  0.00     0.109 A   
ATOM     14  C9  UNL     1       2.662   1.176  -1.993  1.00  0.00     0.108 A   
ATOM     15  O1  UNL     1       4.291  -0.205  -1.223  1.00  0.00    -0.316 OA  
ATOM     16  O2  UNL     1       3.476   2.058  -1.356  1.00  0.00    -0.316 OA  
ATOM     17  C12 UNL     1       4.533   1.183  -0.907  1.00  0.00     0.337 C   
ENDBRANCH   8   9
ENDBRANCH   5   8
ENDBRANCH   1   5
BRANCH   1  18
ATOM     18  C13 UNL     1      -0.519  -1.736  -0.547  1.00  0.00     0.127 A   
ATOM     19  C14 UNL     1      -0.567  -0.546   0.143  1.00  0.00     0.046 A   
ATOM     20  N5  UNL     1       0.442  -2.538   0.008  1.00  0.00    -0.132 NA  
ATOM     21  N2  UNL     1       0.399  -0.674   1.103  1.00  0.00    -0.209 N   
ATOM     22  N4  UNL     1       0.984  -1.887   1.023  1.00  0.00    -0.076 NA  
ATOM     23  H18 UNL     1      -1.157   0.351   0.016  1.00  0.00     0.083 HD  
BRANCH  21  24
ATOM     24  C15 UNL     1       0.844   0.265   2.126  1.00  0.00     0.107 C   
ATOM     25  C16 UNL     1       0.160   0.005   3.479  1.00  0.00     0.045 C   
ATOM     26  C22 UNL     1       0.706   1.745   1.724  1.00  0.00     0.076 C   
ATOM     27  C17 UNL     1      -1.320   0.386   3.463  1.00  0.00     0.112 C   
ATOM     28  C21 UNL     1      -0.677   2.271   1.943  1.00  0.00     0.011 A   
ATOM     29  N3  UNL     1      -1.571   1.639   2.772  1.00  0.00    -0.311 N   
ATOM     30  C20 UNL     1      -1.300   3.396   1.442  1.00  0.00     0.020 A   
ATOM     31  C18 UNL     1      -2.753   2.325   2.788  1.00  0.00     0.075 A   
ATOM     32  C19 UNL     1      -2.611   3.428   1.975  1.00  0.00     0.017 A   
ENDBRANCH  21  24
ENDBRANCH   1  18
TORSDOF 6
