REMARK SMILES C/C(=C/c1ccco1)[C@H](CO)n1cc([C@@H]([NH2+]Cc2ccc3c(c2)OCO3)C(C)(C)C)nn1
REMARK SMILES IDX 12 1 13 2 14 3 31 4 32 5 9 7 2 8 1 9 3 10 4 11 5 12 8 13
REMARK SMILES IDX 6 14 7 15 10 16 11 17 15 19 16 20 17 23 18 24 19 25 23 26
REMARK SMILES IDX 20 27 22 28 21 29 24 30 26 31 25 32 27 33 28 34 29 35 30 36
REMARK H PARENT 13 6 11 18 16 21 16 22
ROOT
ATOM     1   N1  UNL     1       0.348  -0.604  -2.074  1.00  0.00    -0.203 N   
ATOM     2   C10 UNL     1       0.090  -1.432  -1.016  1.00  0.00     0.046 A   
ATOM     3   C11 UNL     1      -1.282  -1.524  -0.984  1.00  0.00     0.127 A   
ATOM     4   N3  UNL     1      -1.808  -0.779  -2.007  1.00  0.00    -0.132 NA  
ATOM     5   N4  UNL     1      -0.805  -0.237  -2.678  1.00  0.00    -0.075 NA  
ATOM     6   H12 UNL     1       0.875  -1.835  -0.393  1.00  0.00     0.083 HD  
ENDROOT
BRANCH   1   7
ATOM     7   C8  UNL     1       1.650  -0.148  -2.570  1.00  0.00     0.151 C   
BRANCH   7   8
ATOM     8   C2  UNL     1       1.977   1.260  -2.062  1.00  0.00    -0.046 C   
ATOM     9   C1  UNL     1       1.391   2.408  -2.855  1.00  0.00     0.042 C   
BRANCH   8  10
ATOM     10  C3  UNL     1       2.743   1.570  -0.993  1.00  0.00     0.035 C   
BRANCH  10  11
ATOM     11  C4  UNL     1       3.366   0.660  -0.092  1.00  0.00     0.081 A   
ATOM     12  C5  UNL     1       4.298   0.963   0.896  1.00  0.00     0.036 A   
ATOM     13  O1  UNL     1       3.133  -0.695  -0.020  1.00  0.00    -0.318 OA  
ATOM     14  C6  UNL     1       4.647  -0.236   1.559  1.00  0.00     0.028 A   
ATOM     15  C7  UNL     1       3.912  -1.220   0.956  1.00  0.00     0.136 A   
ENDBRANCH  10  11
ENDBRANCH   8  10
ENDBRANCH   7   8
BRANCH   7  16
ATOM     16  C9  UNL     1       1.786  -0.368  -4.099  1.00  0.00     0.185 C   
BRANCH  16  17
ATOM     17  O2  UNL     1       0.862   0.368  -4.897  1.00  0.00    -0.394 OA  
ATOM     18  H11 UNL     1      -0.035   0.206  -4.542  1.00  0.00     0.210 HD  
ENDBRANCH  16  17
ENDBRANCH   7  16
ENDBRANCH   1   7
BRANCH   3  19
ATOM     19  C12 UNL     1      -2.203  -2.191  -0.010  1.00  0.00     0.120 C   
BRANCH  19  20
ATOM     20  N2  UNL     1      -3.364  -1.255   0.268  1.00  0.00     0.250 N   
ATOM     21  H14 UNL     1      -4.252  -1.760   0.305  1.00  0.00     0.199 HD  
ATOM     22  H15 UNL     1      -3.436  -0.640  -0.559  1.00  0.00     0.199 HD  
BRANCH  20  23
ATOM     23  C13 UNL     1      -3.242  -0.397   1.479  1.00  0.00     0.164 C   
BRANCH  23  24
ATOM     24  C14 UNL     1      -2.182   0.663   1.373  1.00  0.00    -0.002 A   
ATOM     25  C15 UNL     1      -0.935   0.505   2.025  1.00  0.00     0.012 A   
ATOM     26  C19 UNL     1      -2.415   1.815   0.602  1.00  0.00     0.045 A   
ATOM     27  C16 UNL     1       0.065   1.478   1.913  1.00  0.00     0.037 A   
ATOM     28  C18 UNL     1      -1.413   2.760   0.523  1.00  0.00     0.109 A   
ATOM     29  C17 UNL     1      -0.207   2.597   1.159  1.00  0.00     0.108 A   
ATOM     30  O3  UNL     1      -1.487   3.933  -0.160  1.00  0.00    -0.316 OA  
ATOM     31  O4  UNL     1       0.632   3.646   0.953  1.00  0.00    -0.316 OA  
ATOM     32  C20 UNL     1      -0.207   4.518   0.165  1.00  0.00     0.337 C   
ENDBRANCH  23  24
ENDBRANCH  20  23
ENDBRANCH  19  20
BRANCH  19  33
ATOM     33  C21 UNL     1      -2.721  -3.597  -0.472  1.00  0.00     0.010 C   
ATOM     34  C22 UNL     1      -1.526  -4.532  -0.767  1.00  0.00     0.017 C   
ATOM     35  C23 UNL     1      -3.601  -3.527  -1.736  1.00  0.00     0.017 C   
ATOM     36  C24 UNL     1      -3.541  -4.259   0.660  1.00  0.00     0.017 C   
ENDBRANCH  19  33
ENDBRANCH   3  19
TORSDOF 11
