REMARK SMILES C/C(=C\c1ccco1)[C@@H](CO)n1cc([C@@H]([NH2+]Cc2ccc3c(c2)OCO3)C(C)(C)C)nn1
REMARK SMILES IDX 12 1 13 2 14 3 31 4 32 5 9 7 2 8 1 9 3 10 4 11 5 12 8 13
REMARK SMILES IDX 6 14 7 15 10 16 11 17 15 19 16 20 17 23 18 24 19 25 23 26
REMARK SMILES IDX 20 27 22 28 21 29 24 30 26 31 25 32 27 33 28 34 29 35 30 36
REMARK H PARENT 13 6 11 18 16 21 16 22
ROOT
ATOM     1   N1  UNL     1      -0.878  -1.661   0.213  1.00  0.00    -0.203 N   
ATOM     2   C10 UNL     1      -1.013  -0.459   0.856  1.00  0.00     0.046 A   
ATOM     3   C11 UNL     1      -2.086   0.137   0.237  1.00  0.00     0.127 A   
ATOM     4   N3  UNL     1      -2.538  -0.683  -0.766  1.00  0.00    -0.132 NA  
ATOM     5   N4  UNL     1      -1.790  -1.776  -0.775  1.00  0.00    -0.075 NA  
ATOM     6   H12 UNL     1      -0.359  -0.164   1.666  1.00  0.00     0.083 HD  
ENDROOT
BRANCH   1   7
ATOM     7   C8  UNL     1       0.131  -2.703   0.423  1.00  0.00     0.151 C   
BRANCH   7   8
ATOM     8   C2  UNL     1       1.551  -2.140   0.225  1.00  0.00    -0.046 C   
ATOM     9   C1  UNL     1       1.914  -1.946  -1.232  1.00  0.00     0.042 C   
BRANCH   8  10
ATOM     10  C3  UNL     1       2.362  -1.836   1.259  1.00  0.00     0.035 C   
BRANCH  10  11
ATOM     11  C4  UNL     1       3.688  -1.337   1.149  1.00  0.00     0.081 A   
ATOM     12  C5  UNL     1       4.755  -1.731   0.347  1.00  0.00     0.036 A   
ATOM     13  O1  UNL     1       4.144  -0.326   1.966  1.00  0.00    -0.318 OA  
ATOM     14  C6  UNL     1       5.870  -0.923   0.674  1.00  0.00     0.028 A   
ATOM     15  C7  UNL     1       5.444  -0.084   1.670  1.00  0.00     0.136 A   
ENDBRANCH  10  11
ENDBRANCH   8  10
ENDBRANCH   7   8
BRANCH   7  16
ATOM     16  C9  UNL     1      -0.167  -3.494   1.719  1.00  0.00     0.185 C   
BRANCH  16  17
ATOM     17  O2  UNL     1      -0.196  -2.672   2.884  1.00  0.00    -0.394 OA  
ATOM     18  H11 UNL     1      -0.340  -3.264   3.645  1.00  0.00     0.210 HD  
ENDBRANCH  16  17
ENDBRANCH   7  16
ENDBRANCH   1   7
BRANCH   3  19
ATOM     19  C12 UNL     1      -2.705   1.485   0.437  1.00  0.00     0.120 C   
BRANCH  19  20
ATOM     20  N2  UNL     1      -3.048   2.073  -0.918  1.00  0.00     0.250 N   
ATOM     21  H14 UNL     1      -3.643   2.898  -0.821  1.00  0.00     0.199 HD  
ATOM     22  H15 UNL     1      -3.593   1.354  -1.413  1.00  0.00     0.199 HD  
BRANCH  20  23
ATOM     23  C13 UNL     1      -1.889   2.424  -1.796  1.00  0.00     0.164 C   
BRANCH  23  24
ATOM     24  C14 UNL     1      -1.052   3.545  -1.245  1.00  0.00    -0.002 A   
ATOM     25  C15 UNL     1       0.237   3.280  -0.723  1.00  0.00     0.012 A   
ATOM     26  C19 UNL     1      -1.554   4.857  -1.217  1.00  0.00     0.045 A   
ATOM     27  C16 UNL     1       1.016   4.305  -0.176  1.00  0.00     0.037 A   
ATOM     28  C18 UNL     1      -0.761   5.844  -0.669  1.00  0.00     0.109 A   
ATOM     29  C17 UNL     1       0.487   5.576  -0.164  1.00  0.00     0.108 A   
ATOM     30  O3  UNL     1      -1.096   7.155  -0.561  1.00  0.00    -0.316 OA  
ATOM     31  O4  UNL     1       1.097   6.687   0.322  1.00  0.00    -0.316 OA  
ATOM     32  C20 UNL     1       0.099   7.694   0.049  1.00  0.00     0.337 C   
ENDBRANCH  23  24
ENDBRANCH  20  23
ENDBRANCH  19  20
BRANCH  19  33
ATOM     33  C21 UNL     1      -3.970   1.480   1.366  1.00  0.00     0.010 C   
ATOM     34  C22 UNL     1      -5.144   0.672   0.778  1.00  0.00     0.017 C   
ATOM     35  C23 UNL     1      -3.611   0.880   2.745  1.00  0.00     0.017 C   
ATOM     36  C24 UNL     1      -4.457   2.926   1.619  1.00  0.00     0.017 C   
ENDBRANCH  19  33
ENDBRANCH   3  19
TORSDOF 11
