REMARK SMILES C/C(=C\c1ccco1)[C@H](CO)n1cc([C@@H]([NH2+]Cc2ccc3c(c2)OCO3)C(C)(C)C)nn1
REMARK SMILES IDX 12 1 13 2 14 3 31 4 32 5 9 7 2 8 1 9 3 10 4 11 5 12 8 13
REMARK SMILES IDX 6 14 7 15 10 16 11 17 15 19 16 20 17 23 18 24 19 25 23 26
REMARK SMILES IDX 20 27 22 28 21 29 24 30 26 31 25 32 27 33 28 34 29 35 30 36
REMARK H PARENT 13 6 11 18 16 21 16 22
ROOT
ATOM     1   N1  UNL     1      -1.399   1.280   1.416  1.00  0.00    -0.203 N   
ATOM     2   C10 UNL     1      -0.884   0.127   0.885  1.00  0.00     0.046 A   
ATOM     3   C11 UNL     1       0.324   0.506   0.345  1.00  0.00     0.127 A   
ATOM     4   N3  UNL     1       0.500   1.853   0.537  1.00  0.00    -0.132 NA  
ATOM     5   N4  UNL     1      -0.558   2.316   1.184  1.00  0.00    -0.075 NA  
ATOM     6   H12 UNL     1      -1.397  -0.823   0.948  1.00  0.00     0.083 HD  
ENDROOT
BRANCH   1   7
ATOM     7   C8  UNL     1      -2.621   1.496   2.202  1.00  0.00     0.151 C   
BRANCH   7   8
ATOM     8   C2  UNL     1      -3.076   0.223   2.945  1.00  0.00    -0.046 C   
ATOM     9   C1  UNL     1      -4.079  -0.652   2.232  1.00  0.00     0.042 C   
BRANCH   8  10
ATOM     10  C3  UNL     1      -2.555  -0.021   4.171  1.00  0.00     0.035 C   
BRANCH  10  11
ATOM     11  C4  UNL     1      -2.749  -1.198   4.948  1.00  0.00     0.081 A   
ATOM     12  C5  UNL     1      -2.523  -1.373   6.311  1.00  0.00     0.036 A   
ATOM     13  O1  UNL     1      -3.141  -2.419   4.444  1.00  0.00    -0.318 OA  
ATOM     14  C6  UNL     1      -2.807  -2.721   6.637  1.00  0.00     0.028 A   
ATOM     15  C7  UNL     1      -3.181  -3.312   5.459  1.00  0.00     0.136 A   
ENDBRANCH  10  11
ENDBRANCH   8  10
ENDBRANCH   7   8
BRANCH   7  16
ATOM     16  C9  UNL     1      -3.691   2.226   1.365  1.00  0.00     0.185 C   
BRANCH  16  17
ATOM     17  O2  UNL     1      -4.029   1.515   0.174  1.00  0.00    -0.394 OA  
ATOM     18  H11 UNL     1      -4.782   1.986  -0.230  1.00  0.00     0.210 HD  
ENDBRANCH  16  17
ENDBRANCH   7  16
ENDBRANCH   1   7
BRANCH   3  19
ATOM     19  C12 UNL     1       1.339  -0.278  -0.426  1.00  0.00     0.120 C   
BRANCH  19  20
ATOM     20  N2  UNL     1       1.792   0.552  -1.605  1.00  0.00     0.250 N   
ATOM     21  H14 UNL     1       2.693   0.245  -1.979  1.00  0.00     0.199 HD  
ATOM     22  H15 UNL     1       1.942   1.510  -1.253  1.00  0.00     0.199 HD  
BRANCH  20  23
ATOM     23  C13 UNL     1       0.804   0.643  -2.715  1.00  0.00     0.164 C   
BRANCH  23  24
ATOM     24  C14 UNL     1       1.353   1.438  -3.868  1.00  0.00    -0.002 A   
ATOM     25  C15 UNL     1       0.922   2.768  -4.090  1.00  0.00     0.012 A   
ATOM     26  C19 UNL     1       2.320   0.874  -4.717  1.00  0.00     0.045 A   
ATOM     27  C16 UNL     1       1.443   3.526  -5.146  1.00  0.00     0.037 A   
ATOM     28  C18 UNL     1       2.818   1.649  -5.743  1.00  0.00     0.109 A   
ATOM     29  C17 UNL     1       2.389   2.936  -5.955  1.00  0.00     0.108 A   
ATOM     30  O3  UNL     1       3.767   1.262  -6.637  1.00  0.00    -0.316 OA  
ATOM     31  O4  UNL     1       2.995   3.515  -7.022  1.00  0.00    -0.316 OA  
ATOM     32  C20 UNL     1       3.841   2.437  -7.479  1.00  0.00     0.337 C   
ENDBRANCH  23  24
ENDBRANCH  20  23
ENDBRANCH  19  20
BRANCH  19  33
ATOM     33  C21 UNL     1       2.567  -0.755   0.421  1.00  0.00     0.010 C   
ATOM     34  C22 UNL     1       3.440   0.412   0.921  1.00  0.00     0.017 C   
ATOM     35  C23 UNL     1       3.457  -1.703  -0.418  1.00  0.00     0.017 C   
ATOM     36  C24 UNL     1       2.084  -1.563   1.650  1.00  0.00     0.017 C   
ENDBRANCH  19  33
ENDBRANCH   3  19
TORSDOF 11
