REMARK SMILES C/C(=C/c1ccco1)[C@@H](CO)n1cc([C@@H]([NH2+]Cc2ccc3c(c2)OCO3)C(C)(C)C)nn1
REMARK SMILES IDX 12 1 13 2 14 3 31 4 32 5 9 7 2 8 1 9 3 10 4 11 5 12 8 13
REMARK SMILES IDX 6 14 7 15 10 16 11 17 15 19 16 20 17 23 18 24 19 25 23 26
REMARK SMILES IDX 20 27 22 28 21 29 24 30 26 31 25 32 27 33 28 34 29 35 30 36
REMARK H PARENT 13 6 11 18 16 21 16 22
ROOT
ATOM     1   N1  UNL     1       1.630   1.930   0.471  1.00  0.00    -0.203 N   
ATOM     2   C10 UNL     1       0.505   1.149   0.471  1.00  0.00     0.046 A   
ATOM     3   C11 UNL     1       0.919  -0.043  -0.074  1.00  0.00     0.127 A   
ATOM     4   N3  UNL     1       2.244   0.053  -0.414  1.00  0.00    -0.132 NA  
ATOM     5   N4  UNL     1       2.667   1.262  -0.082  1.00  0.00    -0.075 NA  
ATOM     6   H12 UNL     1      -0.444   1.509   0.846  1.00  0.00     0.083 HD  
ENDROOT
BRANCH   1   7
ATOM     7   C8  UNL     1       1.758   3.315   0.936  1.00  0.00     0.151 C   
BRANCH   7   8
ATOM     8   C2  UNL     1       2.540   3.393   2.252  1.00  0.00    -0.046 C   
ATOM     9   C1  UNL     1       4.047   3.312   2.136  1.00  0.00     0.042 C   
BRANCH   8  10
ATOM     10  C3  UNL     1       2.006   3.555   3.482  1.00  0.00     0.035 C   
BRANCH  10  11
ATOM     11  C4  UNL     1       0.617   3.620   3.787  1.00  0.00     0.081 A   
ATOM     12  C5  UNL     1       0.018   4.188   4.907  1.00  0.00     0.036 A   
ATOM     13  O1  UNL     1      -0.391   3.078   3.020  1.00  0.00    -0.318 OA  
ATOM     14  C6  UNL     1      -1.381   4.008   4.798  1.00  0.00     0.028 A   
ATOM     15  C7  UNL     1      -1.577   3.325   3.627  1.00  0.00     0.136 A   
ENDBRANCH  10  11
ENDBRANCH   8  10
ENDBRANCH   7   8
BRANCH   7  16
ATOM     16  C9  UNL     1       2.308   4.229  -0.179  1.00  0.00     0.185 C   
BRANCH  16  17
ATOM     17  O2  UNL     1       1.349   4.366  -1.233  1.00  0.00    -0.394 OA  
ATOM     18  H11 UNL     1       1.705   5.027  -1.855  1.00  0.00     0.210 HD  
ENDBRANCH  16  17
ENDBRANCH   7  16
ENDBRANCH   1   7
BRANCH   3  19
ATOM     19  C12 UNL     1       0.159  -1.287  -0.408  1.00  0.00     0.120 C   
BRANCH  19  20
ATOM     20  N2  UNL     1       0.662  -1.817  -1.737  1.00  0.00     0.250 N   
ATOM     21  H14 UNL     1       1.690  -1.804  -1.671  1.00  0.00     0.199 HD  
ATOM     22  H15 UNL     1       0.379  -2.787  -1.885  1.00  0.00     0.199 HD  
BRANCH  20  23
ATOM     23  C13 UNL     1       0.292  -1.017  -2.944  1.00  0.00     0.164 C   
BRANCH  23  24
ATOM     24  C14 UNL     1      -1.178  -1.085  -3.256  1.00  0.00    -0.002 A   
ATOM     25  C15 UNL     1      -1.744  -2.268  -3.790  1.00  0.00     0.012 A   
ATOM     26  C19 UNL     1      -2.007   0.018  -2.985  1.00  0.00     0.045 A   
ATOM     27  C16 UNL     1      -3.118  -2.357  -4.042  1.00  0.00     0.037 A   
ATOM     28  C18 UNL     1      -3.357  -0.105  -3.244  1.00  0.00     0.109 A   
ATOM     29  C17 UNL     1      -3.897  -1.258  -3.755  1.00  0.00     0.108 A   
ATOM     30  O3  UNL     1      -4.293   0.857  -3.030  1.00  0.00    -0.316 OA  
ATOM     31  O4  UNL     1      -5.241  -1.168  -3.931  1.00  0.00    -0.316 OA  
ATOM     32  C20 UNL     1      -5.486   0.188  -3.500  1.00  0.00     0.337 C   
ENDBRANCH  23  24
ENDBRANCH  20  23
ENDBRANCH  19  20
BRANCH  19  33
ATOM     33  C21 UNL     1       0.235  -2.406   0.692  1.00  0.00     0.010 C   
ATOM     34  C22 UNL     1      -0.709  -3.577   0.328  1.00  0.00     0.017 C   
ATOM     35  C23 UNL     1       1.658  -2.971   0.876  1.00  0.00     0.017 C   
ATOM     36  C24 UNL     1      -0.245  -1.847   2.051  1.00  0.00     0.017 C   
ENDBRANCH  19  33
ENDBRANCH   3  19
TORSDOF 11
