REMARK SMILES O=C(Cn1cc([C@@H]([NH2+]Cc2ccc3c(c2)OCO3)C2CCCC2)nn1)c1ccc(F)cc1
REMARK SMILES IDX 4 1 5 2 6 3 24 4 25 5 3 7 2 8 1 9 26 10 27 11 32 12 28 13
REMARK SMILES IDX 31 14 29 15 30 16 7 17 8 18 9 21 10 22 11 23 15 24 12 25
REMARK SMILES IDX 14 26 13 27 16 28 18 29 17 30 19 31 20 32 23 33 21 34 22 35
REMARK H PARENT 5 6 8 19 8 20
ROOT
ATOM     1   N1  UNL     1      -1.934  -0.744  -0.800  1.00  0.00    -0.204 N   
ATOM     2   C3  UNL     1      -0.911  -0.335   0.013  1.00  0.00     0.046 A   
ATOM     3   C4  UNL     1      -0.765   1.000  -0.279  1.00  0.00     0.127 A   
ATOM     4   N3  UNL     1      -1.717   1.367  -1.196  1.00  0.00    -0.132 NA  
ATOM     5   N4  UNL     1      -2.416   0.290  -1.516  1.00  0.00    -0.076 NA  
ATOM     6   H3  UNL     1      -0.378  -1.017   0.664  1.00  0.00     0.083 HD  
ENDROOT
BRANCH   1   7
ATOM     7   C2  UNL     1      -2.551  -2.056  -0.904  1.00  0.00     0.214 C   
BRANCH   7   8
ATOM     8   C1  UNL     1      -1.548  -3.170  -1.117  1.00  0.00     0.182 C   
ATOM     9   O1  UNL     1      -0.344  -2.965  -1.280  1.00  0.00    -0.292 OA  
BRANCH   8  10
ATOM     10  C19 UNL     1      -2.047  -4.581  -1.101  1.00  0.00     0.019 A   
ATOM     11  C20 UNL     1      -1.101  -5.621  -1.083  1.00  0.00     0.015 A   
ATOM     12  C24 UNL     1      -3.416  -4.893  -1.090  1.00  0.00     0.015 A   
ATOM     13  C21 UNL     1      -1.518  -6.954  -1.041  1.00  0.00     0.040 A   
ATOM     14  C23 UNL     1      -3.828  -6.230  -1.051  1.00  0.00     0.040 A   
ATOM     15  C22 UNL     1      -2.878  -7.246  -1.022  1.00  0.00     0.123 A   
ATOM     16  F1  UNL     1      -3.278  -8.521  -0.971  1.00  0.00    -0.207 F   
ENDBRANCH   8  10
ENDBRANCH   7   8
ENDBRANCH   1   7
BRANCH   3  17
ATOM     17  C5  UNL     1       0.235   2.005   0.193  1.00  0.00     0.117 C   
BRANCH  17  18
ATOM     18  N2  UNL     1       0.539   2.976  -0.929  1.00  0.00     0.249 N   
ATOM     19  H5  UNL     1       0.990   3.822  -0.572  1.00  0.00     0.199 HD  
ATOM     20  H6  UNL     1      -0.374   3.254  -1.316  1.00  0.00     0.199 HD  
BRANCH  18  21
ATOM     21  C6  UNL     1       1.353   2.437  -2.058  1.00  0.00     0.164 C   
BRANCH  21  22
ATOM     22  C7  UNL     1       2.782   2.179  -1.667  1.00  0.00    -0.002 A   
ATOM     23  C8  UNL     1       3.671   3.260  -1.446  1.00  0.00     0.012 A   
ATOM     24  C12 UNL     1       3.236   0.860  -1.485  1.00  0.00     0.045 A   
ATOM     25  C9  UNL     1       4.992   3.032  -1.046  1.00  0.00     0.037 A   
ATOM     26  C11 UNL     1       4.545   0.671  -1.093  1.00  0.00     0.109 A   
ATOM     27  C10 UNL     1       5.399   1.726  -0.879  1.00  0.00     0.108 A   
ATOM     28  O2  UNL     1       5.142  -0.531  -0.875  1.00  0.00    -0.316 OA  
ATOM     29  O3  UNL     1       6.639   1.319  -0.502  1.00  0.00    -0.316 OA  
ATOM     30  C13 UNL     1       6.496  -0.115  -0.591  1.00  0.00     0.337 C   
ENDBRANCH  21  22
ENDBRANCH  18  21
ENDBRANCH  17  18
BRANCH  17  31
ATOM     31  C14 UNL     1      -0.272   2.810   1.405  1.00  0.00     0.043 C   
ATOM     32  C15 UNL     1       0.751   3.809   1.964  1.00  0.00     0.010 C   
ATOM     33  C18 UNL     1      -0.576   1.945   2.632  1.00  0.00     0.010 C   
ATOM     34  C16 UNL     1       0.375   4.019   3.430  1.00  0.00     0.001 C   
ATOM     35  C17 UNL     1      -0.670   2.959   3.761  1.00  0.00     0.001 C   
ENDBRANCH  17  31
ENDBRANCH   3  17
TORSDOF 8
