REMARK SMILES CC(C)[C@H]([NH2+]Cc1ccc2c(c1)OCO2)c1cn(Cc2ccc(Cl)cn2)nn1
REMARK SMILES IDX 16 1 17 2 18 3 27 4 28 5 4 7 2 8 1 9 3 10 5 11 6 14 7 15
REMARK SMILES IDX 8 16 12 17 9 18 11 19 10 20 13 21 15 22 14 23 19 24 20 25
REMARK SMILES IDX 21 26 26 27 22 28 25 29 23 30 24 31
REMARK H PARENT 17 6 5 12 5 13
ROOT
ATOM     1   C13 UNL     1       1.551   0.066  -0.919  1.00  0.00     0.127 A   
ATOM     2   C14 UNL     1       0.962  -1.074  -0.422  1.00  0.00     0.046 A   
ATOM     3   N2  UNL     1       1.702  -1.372   0.690  1.00  0.00    -0.206 N   
ATOM     4   N4  UNL     1       2.685  -0.467   0.871  1.00  0.00    -0.076 NA  
ATOM     5   N5  UNL     1       2.602   0.419  -0.107  1.00  0.00    -0.132 NA  
ATOM     6   H18 UNL     1       0.114  -1.674  -0.726  1.00  0.00     0.083 HD  
ENDROOT
BRANCH   1   7
ATOM     7   C4  UNL     1       1.205   0.939  -2.081  1.00  0.00     0.117 C   
BRANCH   7   8
ATOM     8   C2  UNL     1       1.926   0.551  -3.399  1.00  0.00     0.037 C   
ATOM     9   C1  UNL     1       1.443  -0.804  -3.926  1.00  0.00     0.014 C   
ATOM     10  C3  UNL     1       3.457   0.552  -3.303  1.00  0.00     0.014 C   
ENDBRANCH   7   8
BRANCH   7  11
ATOM     11  N1  UNL     1       1.556   2.377  -1.744  1.00  0.00     0.249 N   
ATOM     12  H9  UNL     1       2.014   2.834  -2.538  1.00  0.00     0.199 HD  
ATOM     13  H10 UNL     1       2.271   2.324  -1.001  1.00  0.00     0.199 HD  
BRANCH  11  14
ATOM     14  C5  UNL     1       0.441   3.242  -1.269  1.00  0.00     0.164 C   
BRANCH  14  15
ATOM     15  C6  UNL     1      -0.261   2.744  -0.037  1.00  0.00    -0.002 A   
ATOM     16  C7  UNL     1       0.409   2.700   1.210  1.00  0.00     0.012 A   
ATOM     17  C11 UNL     1      -1.595   2.310  -0.116  1.00  0.00     0.045 A   
ATOM     18  C8  UNL     1      -0.235   2.225   2.358  1.00  0.00     0.037 A   
ATOM     19  C10 UNL     1      -2.203   1.855   1.036  1.00  0.00     0.109 A   
ATOM     20  C9  UNL     1      -1.542   1.812   2.238  1.00  0.00     0.108 A   
ATOM     21  O1  UNL     1      -3.484   1.411   1.129  1.00  0.00    -0.316 OA  
ATOM     22  O2  UNL     1      -2.325   1.338   3.241  1.00  0.00    -0.316 OA  
ATOM     23  C12 UNL     1      -3.570   1.122   2.543  1.00  0.00     0.337 C   
ENDBRANCH  14  15
ENDBRANCH  11  14
ENDBRANCH   7  11
ENDBRANCH   1   7
BRANCH   3  24
ATOM     24  C15 UNL     1       1.562  -2.504   1.584  1.00  0.00     0.190 C   
BRANCH  24  25
ATOM     25  C16 UNL     1       0.422  -2.283   2.540  1.00  0.00     0.060 A   
ATOM     26  C17 UNL     1       0.616  -1.584   3.733  1.00  0.00     0.027 A   
ATOM     27  N3  UNL     1      -0.788  -2.782   2.178  1.00  0.00    -0.258 NA  
ATOM     28  C18 UNL     1      -0.465  -1.409   4.597  1.00  0.00     0.024 A   
ATOM     29  C20 UNL     1      -1.818  -2.603   3.044  1.00  0.00     0.131 A   
ATOM     30  C19 UNL     1      -1.704  -1.931   4.250  1.00  0.00     0.059 A   
ATOM     31  CL1 UNL     1      -3.058  -1.737   5.284  1.00  0.00    -0.083 Cl  
ENDBRANCH  24  25
ENDBRANCH   3  24
TORSDOF 7
