REMARK SMILES Cc1ccc(O)c([C@@H](CO)n2cc([C@@H]([NH2+]Cc3ccc4c(c3)OCO4)C(C)(C)C)nn2)c1
REMARK SMILES IDX 11 1 12 2 13 3 30 4 31 5 8 7 7 8 2 9 3 10 32 11 4 12 5 13
REMARK SMILES IDX 1 14 6 15 9 17 10 18 14 20 15 21 16 24 17 25 18 26 22 27
REMARK SMILES IDX 19 28 21 29 20 30 23 31 25 32 24 33 26 34 27 35 28 36 29 37
REMARK H PARENT 12 6 6 16 10 19 15 22 15 23
ROOT
ATOM     1   N1  UNL     1       0.254   2.013   1.141  1.00  0.00    -0.202 N   
ATOM     2   C9  UNL     1      -0.163   0.730   1.391  1.00  0.00     0.046 A   
ATOM     3   C10 UNL     1       0.344  -0.006   0.345  1.00  0.00     0.127 A   
ATOM     4   N3  UNL     1       0.927   0.847  -0.557  1.00  0.00    -0.132 NA  
ATOM     5   N4  UNL     1       0.821   2.078  -0.087  1.00  0.00    -0.075 NA  
ATOM     6   H11 UNL     1      -0.705   0.456   2.286  1.00  0.00     0.083 HD  
ENDROOT
BRANCH   1   7
ATOM     7   C7  UNL     1       0.066   3.239   1.928  1.00  0.00     0.158 C   
BRANCH   7   8
ATOM     8   C6  UNL     1      -0.396   2.970   3.356  1.00  0.00     0.007 A   
ATOM     9   C2  UNL     1      -2.151   3.213   5.053  1.00  0.00    -0.051 A   
ATOM     10  C3  UNL     1      -1.393   2.445   5.941  1.00  0.00     0.006 A   
ATOM     11  C24 UNL     1      -1.655   3.458   3.763  1.00  0.00     0.012 A   
ATOM     12  C4  UNL     1      -0.144   1.959   5.559  1.00  0.00     0.034 A   
ATOM     13  C5  UNL     1       0.351   2.233   4.287  1.00  0.00     0.076 A   
ATOM     14  C1  UNL     1      -3.509   3.713   5.455  1.00  0.00     0.044 C   
BRANCH  13  15
ATOM     15  O1  UNL     1       1.578   1.706   3.996  1.00  0.00    -0.361 OA  
ATOM     16  H6  UNL     1       2.065   2.350   3.436  1.00  0.00     0.218 HD  
ENDBRANCH  13  15
ENDBRANCH   7   8
BRANCH   7  17
ATOM     17  C8  UNL     1       1.294   4.178   1.885  1.00  0.00     0.186 C   
BRANCH  17  18
ATOM     18  O2  UNL     1       2.465   3.574   2.447  1.00  0.00    -0.394 OA  
ATOM     19  H10 UNL     1       3.196   4.209   2.313  1.00  0.00     0.210 HD  
ENDBRANCH  17  18
ENDBRANCH   7  17
ENDBRANCH   1   7
BRANCH   3  20
ATOM     20  C11 UNL     1       0.293  -1.476   0.054  1.00  0.00     0.120 C   
BRANCH  20  21
ATOM     21  N2  UNL     1       0.318  -1.675  -1.445  1.00  0.00     0.250 N   
ATOM     22  H13 UNL     1       0.584  -2.624  -1.711  1.00  0.00     0.199 HD  
ATOM     23  H14 UNL     1       1.056  -1.055  -1.810  1.00  0.00     0.199 HD  
BRANCH  21  24
ATOM     24  C12 UNL     1      -0.941  -1.317  -2.159  1.00  0.00     0.164 C   
BRANCH  24  25
ATOM     25  C13 UNL     1      -0.750  -1.460  -3.643  1.00  0.00    -0.002 A   
ATOM     26  C14 UNL     1      -0.194  -0.395  -4.393  1.00  0.00     0.012 A   
ATOM     27  C18 UNL     1      -1.058  -2.671  -4.285  1.00  0.00     0.045 A   
ATOM     28  C15 UNL     1       0.046  -0.528  -5.765  1.00  0.00     0.037 A   
ATOM     29  C17 UNL     1      -0.808  -2.770  -5.638  1.00  0.00     0.109 A   
ATOM     30  C16 UNL     1      -0.271  -1.730  -6.357  1.00  0.00     0.108 A   
ATOM     31  O3  UNL     1      -1.042  -3.867  -6.404  1.00  0.00    -0.316 OA  
ATOM     32  O4  UNL     1      -0.100  -2.042  -7.668  1.00  0.00    -0.316 OA  
ATOM     33  C19 UNL     1      -0.602  -3.396  -7.699  1.00  0.00     0.337 C   
ENDBRANCH  24  25
ENDBRANCH  21  24
ENDBRANCH  20  21
BRANCH  20  34
ATOM     34  C20 UNL     1       1.446  -2.304   0.726  1.00  0.00     0.010 C   
ATOM     35  C21 UNL     1       1.438  -2.095   2.257  1.00  0.00     0.017 C   
ATOM     36  C22 UNL     1       1.233  -3.817   0.484  1.00  0.00     0.017 C   
ATOM     37  C23 UNL     1       2.840  -1.918   0.192  1.00  0.00     0.017 C   
ENDBRANCH  20  34
ENDBRANCH   3  20
TORSDOF 10
