REMARK SMILES Cc1ccc(O)c([C@H](CO)n2cc([C@@H]([NH2+]Cc3ccc4c(c3)OCO4)C(C)(C)C)nn2)c1
REMARK SMILES IDX 11 1 12 2 13 3 30 4 31 5 8 7 7 8 2 9 3 10 32 11 4 12 5 13
REMARK SMILES IDX 1 14 6 15 9 17 10 18 14 20 15 21 16 24 17 25 18 26 22 27
REMARK SMILES IDX 19 28 21 29 20 30 23 31 25 32 24 33 26 34 27 35 28 36 29 37
REMARK H PARENT 12 6 6 16 10 19 15 22 15 23
ROOT
ATOM     1   N1  UNL     1      -1.956   0.742  -1.068  1.00  0.00    -0.202 N   
ATOM     2   C9  UNL     1      -1.706  -0.583  -0.831  1.00  0.00     0.046 A   
ATOM     3   C10 UNL     1      -1.550  -0.656   0.535  1.00  0.00     0.127 A   
ATOM     4   N3  UNL     1      -1.756   0.584   1.079  1.00  0.00    -0.132 NA  
ATOM     5   N4  UNL     1      -2.001   1.432   0.092  1.00  0.00    -0.075 NA  
ATOM     6   H11 UNL     1      -1.593  -1.299  -1.633  1.00  0.00     0.083 HD  
ENDROOT
BRANCH   1   7
ATOM     7   C7  UNL     1      -2.034   1.413  -2.362  1.00  0.00     0.158 C   
BRANCH   7   8
ATOM     8   C6  UNL     1      -0.665   1.996  -2.700  1.00  0.00     0.007 A   
ATOM     9   C2  UNL     1       0.983   3.807  -2.615  1.00  0.00    -0.051 A   
ATOM     10  C3  UNL     1       1.895   3.008  -3.311  1.00  0.00     0.006 A   
ATOM     11  C24 UNL     1      -0.292   3.299  -2.322  1.00  0.00     0.012 A   
ATOM     12  C4  UNL     1       1.555   1.706  -3.674  1.00  0.00     0.034 A   
ATOM     13  C5  UNL     1       0.292   1.209  -3.358  1.00  0.00     0.076 A   
ATOM     14  C1  UNL     1       1.346   5.212  -2.232  1.00  0.00     0.044 C   
BRANCH  13  15
ATOM     15  O1  UNL     1      -0.018  -0.088  -3.670  1.00  0.00    -0.361 OA  
ATOM     16  H6  UNL     1       0.712  -0.464  -4.199  1.00  0.00     0.218 HD  
ENDBRANCH  13  15
ENDBRANCH   7   8
BRANCH   7  17
ATOM     17  C8  UNL     1      -3.218   2.395  -2.425  1.00  0.00     0.186 C   
BRANCH  17  18
ATOM     18  O2  UNL     1      -3.487   2.798  -3.770  1.00  0.00    -0.394 OA  
ATOM     19  H10 UNL     1      -2.779   3.402  -4.053  1.00  0.00     0.210 HD  
ENDBRANCH  17  18
ENDBRANCH   7  17
ENDBRANCH   1   7
BRANCH   3  20
ATOM     20  C11 UNL     1      -1.079  -1.786   1.393  1.00  0.00     0.120 C   
BRANCH  20  21
ATOM     21  N2  UNL     1      -0.013  -1.288   2.353  1.00  0.00     0.250 N   
ATOM     22  H13 UNL     1       0.285  -2.040   2.978  1.00  0.00     0.199 HD  
ATOM     23  H14 UNL     1      -0.455  -0.560   2.928  1.00  0.00     0.199 HD  
BRANCH  21  24
ATOM     24  C12 UNL     1       1.207  -0.662   1.745  1.00  0.00     0.164 C   
BRANCH  24  25
ATOM     25  C13 UNL     1       1.919  -1.542   0.754  1.00  0.00    -0.002 A   
ATOM     26  C14 UNL     1       2.573  -2.724   1.173  1.00  0.00     0.012 A   
ATOM     27  C18 UNL     1       1.919  -1.198  -0.610  1.00  0.00     0.045 A   
ATOM     28  C15 UNL     1       3.205  -3.560   0.245  1.00  0.00     0.037 A   
ATOM     29  C17 UNL     1       2.547  -2.044  -1.500  1.00  0.00     0.109 A   
ATOM     30  C16 UNL     1       3.171  -3.193  -1.082  1.00  0.00     0.108 A   
ATOM     31  O3  UNL     1       2.626  -1.869  -2.846  1.00  0.00    -0.316 OA  
ATOM     32  O4  UNL     1       3.725  -3.885  -2.111  1.00  0.00    -0.316 OA  
ATOM     33  C19 UNL     1       3.408  -3.025  -3.225  1.00  0.00     0.337 C   
ENDBRANCH  24  25
ENDBRANCH  21  24
ENDBRANCH  20  21
BRANCH  20  34
ATOM     34  C20 UNL     1      -2.222  -2.524   2.175  1.00  0.00     0.010 C   
ATOM     35  C21 UNL     1      -1.654  -3.746   2.933  1.00  0.00     0.017 C   
ATOM     36  C22 UNL     1      -3.276  -3.060   1.179  1.00  0.00     0.017 C   
ATOM     37  C23 UNL     1      -2.939  -1.622   3.197  1.00  0.00     0.017 C   
ENDBRANCH  20  34
ENDBRANCH   3  20
TORSDOF 10
