REMARK SMILES c1nc(Cn2cc([C@@H]([NH2+]Cc3ccc4c(c3)OCO4)C3CCCCC3)nn2)c(C2CCC2)o1
REMARK SMILES IDX 5 1 6 2 7 3 26 4 27 5 4 7 3 8 1 9 2 10 33 11 28 12 29 13
REMARK SMILES IDX 30 14 32 15 31 16 8 17 9 18 10 21 11 22 12 23 16 24 13 25
REMARK SMILES IDX 15 26 14 27 17 28 19 29 18 30 20 31 21 32 25 33 22 34 24 35
REMARK SMILES IDX 23 36
REMARK H PARENT 6 6 9 19 9 20
ROOT
ATOM     1   N2  UNL     1       0.828   1.120  -2.893  1.00  0.00    -0.206 N   
ATOM     2   C4  UNL     1       1.874   0.436  -2.335  1.00  0.00     0.046 A   
ATOM     3   C5  UNL     1       1.277  -0.405  -1.424  1.00  0.00     0.127 A   
ATOM     4   N4  UNL     1      -0.081  -0.206  -1.452  1.00  0.00    -0.132 NA  
ATOM     5   N5  UNL     1      -0.343   0.726  -2.354  1.00  0.00    -0.076 NA  
ATOM     6   H4  UNL     1       2.900   0.624  -2.622  1.00  0.00     0.083 HD  
ENDROOT
BRANCH   1   7
ATOM     7   C3  UNL     1       0.870   2.129  -3.935  1.00  0.00     0.192 C   
BRANCH   7   8
ATOM     8   C2  UNL     1       1.218   3.446  -3.350  1.00  0.00     0.089 A   
ATOM     9   C1  UNL     1       2.448   4.971  -2.534  1.00  0.00     0.247 A   
ATOM     10  N1  UNL     1       2.519   3.735  -2.978  1.00  0.00    -0.232 NA  
ATOM     11  O3  UNL     1       1.206   5.520  -2.558  1.00  0.00    -0.301 OA  
ATOM     12  C21 UNL     1       0.416   4.540  -3.089  1.00  0.00     0.087 A   
BRANCH  12  13
ATOM     13  C22 UNL     1      -1.116   4.660  -3.348  1.00  0.00     0.045 C   
ATOM     14  C23 UNL     1      -1.714   6.071  -3.144  1.00  0.00     0.010 C   
ATOM     15  C25 UNL     1      -1.999   4.190  -2.167  1.00  0.00     0.010 C   
ATOM     16  C24 UNL     1      -2.087   5.658  -1.708  1.00  0.00     0.001 C   
ENDBRANCH  12  13
ENDBRANCH   7   8
ENDBRANCH   1   7
BRANCH   3  17
ATOM     17  C6  UNL     1       1.861  -1.370  -0.443  1.00  0.00     0.117 C   
BRANCH  17  18
ATOM     18  N3  UNL     1       0.996  -1.429   0.793  1.00  0.00     0.249 N   
ATOM     19  H6  UNL     1       0.020  -1.504   0.472  1.00  0.00     0.199 HD  
ATOM     20  H7  UNL     1       1.188  -2.271   1.344  1.00  0.00     0.199 HD  
BRANCH  18  21
ATOM     21  C7  UNL     1       1.072  -0.237   1.683  1.00  0.00     0.164 C   
BRANCH  21  22
ATOM     22  C8  UNL     1       0.103  -0.377   2.823  1.00  0.00    -0.002 A   
ATOM     23  C9  UNL     1      -1.238   0.050   2.671  1.00  0.00     0.012 A   
ATOM     24  C13 UNL     1       0.505  -0.986   4.024  1.00  0.00     0.045 A   
ATOM     25  C10 UNL     1      -2.166  -0.115   3.705  1.00  0.00     0.037 A   
ATOM     26  C12 UNL     1      -0.435  -1.133   5.022  1.00  0.00     0.109 A   
ATOM     27  C11 UNL     1      -1.732  -0.709   4.869  1.00  0.00     0.108 A   
ATOM     28  O1  UNL     1      -0.213  -1.700   6.237  1.00  0.00    -0.316 OA  
ATOM     29  O2  UNL     1      -2.490  -0.953   5.969  1.00  0.00    -0.316 OA  
ATOM     30  C14 UNL     1      -1.518  -1.562   6.845  1.00  0.00     0.337 C   
ENDBRANCH  21  22
ENDBRANCH  18  21
ENDBRANCH  17  18
BRANCH  17  31
ATOM     31  C15 UNL     1       2.034  -2.812  -0.990  1.00  0.00     0.043 C   
ATOM     32  C16 UNL     1       3.081  -2.873  -2.120  1.00  0.00     0.010 C   
ATOM     33  C20 UNL     1       0.720  -3.478  -1.446  1.00  0.00     0.010 C   
ATOM     34  C17 UNL     1       3.306  -4.303  -2.605  1.00  0.00     0.001 C   
ATOM     35  C19 UNL     1       0.951  -4.905  -1.942  1.00  0.00     0.001 C   
ATOM     36  C18 UNL     1       2.002  -4.957  -3.046  1.00  0.00     0.000 C   
ENDBRANCH  17  31
ENDBRANCH   3  17
TORSDOF 8
