REMARK SMILES CC(C)[C@H]([NH2+]Cc1ccc2c(c1)OCO2)c1cn(Cc2ncoc2C2CC2)nn1
REMARK SMILES IDX 16 1 17 2 18 3 28 4 29 5 4 7 2 8 1 9 3 10 5 11 6 14 7 15
REMARK SMILES IDX 8 16 12 17 9 18 11 19 10 20 13 21 15 22 14 23 19 24 20 25
REMARK SMILES IDX 21 26 24 27 22 28 23 29 25 30 26 31 27 32
REMARK H PARENT 17 6 5 12 5 13
ROOT
ATOM     1   C13 UNL     1       0.736  -0.392   1.413  1.00  0.00     0.127 A   
ATOM     2   C14 UNL     1       0.900   0.899   1.862  1.00  0.00     0.046 A   
ATOM     3   N2  UNL     1       1.640   1.502   0.880  1.00  0.00    -0.206 N   
ATOM     4   N4  UNL     1       1.919   0.632  -0.111  1.00  0.00    -0.076 NA  
ATOM     5   N5  UNL     1       1.370  -0.530   0.203  1.00  0.00    -0.132 NA  
ATOM     6   H18 UNL     1       0.559   1.438   2.736  1.00  0.00     0.083 HD  
ENDROOT
BRANCH   1   7
ATOM     7   C4  UNL     1      -0.035  -1.542   1.975  1.00  0.00     0.117 C   
BRANCH   7   8
ATOM     8   C2  UNL     1       0.785  -2.457   2.921  1.00  0.00     0.037 C   
ATOM     9   C1  UNL     1       1.204  -1.720   4.198  1.00  0.00     0.014 C   
ATOM     10  C3  UNL     1       2.014  -3.100   2.267  1.00  0.00     0.014 C   
ENDBRANCH   7   8
BRANCH   7  11
ATOM     11  N1  UNL     1      -0.582  -2.387   0.851  1.00  0.00     0.249 N   
ATOM     12  H9  UNL     1       0.185  -2.512   0.173  1.00  0.00     0.199 HD  
ATOM     13  H10 UNL     1      -0.841  -3.324   1.173  1.00  0.00     0.199 HD  
BRANCH  11  14
ATOM     14  C5  UNL     1      -1.727  -1.790   0.108  1.00  0.00     0.164 C   
BRANCH  14  15
ATOM     15  C6  UNL     1      -2.109  -2.663  -1.054  1.00  0.00    -0.002 A   
ATOM     16  C7  UNL     1      -1.443  -2.522  -2.295  1.00  0.00     0.012 A   
ATOM     17  C11 UNL     1      -3.087  -3.660  -0.900  1.00  0.00     0.045 A   
ATOM     18  C8  UNL     1      -1.755  -3.354  -3.376  1.00  0.00     0.037 A   
ATOM     19  C10 UNL     1      -3.369  -4.463  -1.986  1.00  0.00     0.109 A   
ATOM     20  C9  UNL     1      -2.723  -4.315  -3.188  1.00  0.00     0.108 A   
ATOM     21  O1  UNL     1      -4.282  -5.470  -2.007  1.00  0.00    -0.316 OA  
ATOM     22  O2  UNL     1      -3.150  -5.207  -4.119  1.00  0.00    -0.316 OA  
ATOM     23  C12 UNL     1      -4.154  -5.927  -3.373  1.00  0.00     0.337 C   
ENDBRANCH  14  15
ENDBRANCH  11  14
ENDBRANCH   7  11
ENDBRANCH   1   7
BRANCH   3  24
ATOM     24  C15 UNL     1       2.115   2.874   0.829  1.00  0.00     0.192 C   
BRANCH  24  25
ATOM     25  C16 UNL     1       1.001   3.783   0.469  1.00  0.00     0.089 A   
ATOM     26  N3  UNL     1       0.041   4.137   1.401  1.00  0.00    -0.232 NA  
ATOM     27  C18 UNL     1       0.721   4.402  -0.732  1.00  0.00     0.087 A   
ATOM     28  C17 UNL     1      -0.745   4.956   0.737  1.00  0.00     0.247 A   
ATOM     29  O3  UNL     1      -0.404   5.156  -0.562  1.00  0.00    -0.301 OA  
BRANCH  27  30
ATOM     30  C19 UNL     1       1.522   4.300  -2.051  1.00  0.00     0.045 C   
ATOM     31  C20 UNL     1       0.769   4.236  -3.353  1.00  0.00     0.011 C   
ATOM     32  C21 UNL     1       1.478   3.018  -2.839  1.00  0.00     0.011 C   
ENDBRANCH  27  30
ENDBRANCH  24  25
ENDBRANCH   3  24
TORSDOF 8
