REMARK SMILES Cc1ccccc1Cn1cc([C@H](CC(C)C)[NH2+]Cc2ccc3c(c2)OCO3)nn1
REMARK SMILES IDX 9 1 10 2 11 3 28 4 29 5 8 7 7 8 2 9 3 10 4 11 6 12 5 13 1 14
REMARK SMILES IDX 12 15 13 16 14 17 15 18 16 19 17 20 18 23 19 24 20 25 24 26
REMARK SMILES IDX 21 27 23 28 22 29 25 30 27 31 26 32
REMARK H PARENT 10 6 17 21 17 22
ROOT
ATOM     1   N1  UNL     1       1.489   2.122  -1.791  1.00  0.00    -0.208 N   
ATOM     2   C9  UNL     1       1.080   0.861  -1.456  1.00  0.00     0.046 A   
ATOM     3   C10 UNL     1      -0.233   0.817  -1.868  1.00  0.00     0.127 A   
ATOM     4   N3  UNL     1      -0.555   2.001  -2.478  1.00  0.00    -0.132 NA  
ATOM     5   N4  UNL     1       0.504   2.793  -2.420  1.00  0.00    -0.076 NA  
ATOM     6   H10 UNL     1       1.712   0.167  -0.920  1.00  0.00     0.083 HD  
ENDROOT
BRANCH   1   7
ATOM     7   C8  UNL     1       2.741   2.779  -1.449  1.00  0.00     0.169 C   
BRANCH   7   8
ATOM     8   C7  UNL     1       2.774   3.111   0.028  1.00  0.00    -0.026 A   
ATOM     9   C2  UNL     1       3.558   2.392   0.957  1.00  0.00    -0.046 A   
ATOM     10  C3  UNL     1       3.498   2.740   2.317  1.00  0.00     0.004 A   
ATOM     11  C4  UNL     1       2.682   3.782   2.758  1.00  0.00     0.000 A   
ATOM     12  C6  UNL     1       1.964   4.167   0.492  1.00  0.00     0.006 A   
ATOM     13  C5  UNL     1       1.918   4.499   1.845  1.00  0.00     0.000 A   
ATOM     14  C1  UNL     1       4.485   1.281   0.541  1.00  0.00     0.044 C   
ENDBRANCH   7   8
ENDBRANCH   1   7
BRANCH   3  15
ATOM     15  C11 UNL     1      -1.281  -0.223  -1.656  1.00  0.00     0.114 C   
BRANCH  15  16
ATOM     16  C12 UNL     1      -1.526  -1.027  -2.950  1.00  0.00     0.064 C   
BRANCH  16  17
ATOM     17  C13 UNL     1      -2.567  -2.163  -2.865  1.00  0.00    -0.012 C   
ATOM     18  C14 UNL     1      -2.666  -2.870  -4.221  1.00  0.00     0.007 C   
ATOM     19  C15 UNL     1      -2.238  -3.183  -1.775  1.00  0.00     0.007 C   
ENDBRANCH  16  17
ENDBRANCH  15  16
BRANCH  15  20
ATOM     20  N2  UNL     1      -2.584   0.397  -1.206  1.00  0.00     0.249 N   
ATOM     21  H21 UNL     1      -2.903   1.004  -1.972  1.00  0.00     0.199 HD  
ATOM     22  H22 UNL     1      -3.290  -0.330  -1.073  1.00  0.00     0.199 HD  
BRANCH  20  23
ATOM     23  C16 UNL     1      -2.536   1.245   0.029  1.00  0.00     0.164 C   
BRANCH  23  24
ATOM     24  C17 UNL     1      -1.949   0.548   1.225  1.00  0.00    -0.002 A   
ATOM     25  C18 UNL     1      -0.721   0.995   1.771  1.00  0.00     0.012 A   
ATOM     26  C22 UNL     1      -2.595  -0.561   1.798  1.00  0.00     0.045 A   
ATOM     27  C19 UNL     1      -0.135   0.343   2.860  1.00  0.00     0.037 A   
ATOM     28  C21 UNL     1      -1.990  -1.182   2.870  1.00  0.00     0.109 A   
ATOM     29  C20 UNL     1      -0.794  -0.745   3.386  1.00  0.00     0.108 A   
ATOM     30  O1  UNL     1      -2.474  -2.267   3.529  1.00  0.00    -0.316 OA  
ATOM     31  O2  UNL     1      -0.375  -1.500   4.434  1.00  0.00    -0.316 OA  
ATOM     32  C23 UNL     1      -1.461  -2.446   4.546  1.00  0.00     0.337 C   
ENDBRANCH  23  24
ENDBRANCH  20  23
ENDBRANCH  15  20
ENDBRANCH   3  15
TORSDOF 8
