REMARK SMILES Cc1ccc(N([O-])[O-])cc1Cn1cc([C@H](CC(C)C)[NH2+]Cc2ccc3c(c2)OCO3)nn1
REMARK SMILES IDX 12 1 13 2 14 3 31 4 32 5 11 7 10 8 2 9 3 10 4 11 9 12 5 13
REMARK SMILES IDX 1 14 6 15 7 16 8 17 15 18 16 19 17 20 18 21 19 22 20 23
REMARK SMILES IDX 21 26 22 27 23 28 27 29 24 30 26 31 25 32 28 33 30 34 29 35
REMARK H PARENT 13 6 20 24 20 25
ROOT
ATOM     1   N2  UNL     1      -1.933  -0.116  -2.225  1.00  0.00    -0.208 N   
ATOM     2   C9  UNL     1      -1.707  -0.481  -0.926  1.00  0.00     0.046 A   
ATOM     3   C10 UNL     1      -1.843   0.694  -0.224  1.00  0.00     0.127 A   
ATOM     4   N4  UNL     1      -2.147   1.710  -1.093  1.00  0.00    -0.132 NA  
ATOM     5   N5  UNL     1      -2.207   1.203  -2.312  1.00  0.00    -0.076 NA  
ATOM     6   H9  UNL     1      -1.464  -1.496  -0.643  1.00  0.00     0.083 HD  
ENDROOT
BRANCH   1   7
ATOM     7   C8  UNL     1      -1.941  -0.961  -3.412  1.00  0.00     0.169 C   
BRANCH   7   8
ATOM     8   C7  UNL     1      -0.544  -1.163  -3.964  1.00  0.00    -0.024 A   
ATOM     9   C2  UNL     1       0.114  -2.413  -3.921  1.00  0.00    -0.046 A   
ATOM     10  C3  UNL     1       1.401  -2.538  -4.473  1.00  0.00     0.006 A   
ATOM     11  C4  UNL     1       2.049  -1.446  -5.051  1.00  0.00     0.031 A   
ATOM     12  C6  UNL     1       0.114  -0.065  -4.555  1.00  0.00     0.037 A   
ATOM     13  C5  UNL     1       1.403  -0.208  -5.084  1.00  0.00     0.118 A   
ATOM     14  C1  UNL     1      -0.528  -3.641  -3.323  1.00  0.00     0.044 C   
BRANCH  13  15
ATOM     15  N1  UNL     1       2.090   0.958  -5.645  1.00  0.00     0.092 N   
ATOM     16  O1  UNL     1       1.492   2.044  -5.604  1.00  0.00    -0.138 OA  
ATOM     17  O2  UNL     1       3.225   0.790  -6.111  1.00  0.00    -0.138 OA  
ENDBRANCH  13  15
ENDBRANCH   7   8
ENDBRANCH   1   7
BRANCH   3  18
ATOM     18  C11 UNL     1      -1.672   1.006   1.227  1.00  0.00     0.114 C   
BRANCH  18  19
ATOM     19  C12 UNL     1      -3.025   0.954   1.962  1.00  0.00     0.064 C   
BRANCH  19  20
ATOM     20  C13 UNL     1      -2.942   1.051   3.502  1.00  0.00    -0.012 C   
ATOM     21  C14 UNL     1      -2.203  -0.144   4.112  1.00  0.00     0.007 C   
ATOM     22  C15 UNL     1      -4.354   1.143   4.088  1.00  0.00     0.007 C   
ENDBRANCH  19  20
ENDBRANCH  18  19
BRANCH  18  23
ATOM     23  N3  UNL     1      -1.092   2.397   1.374  1.00  0.00     0.249 N   
ATOM     24  H20 UNL     1      -1.595   2.929   2.093  1.00  0.00     0.199 HD  
ATOM     25  H21 UNL     1      -1.298   2.887   0.483  1.00  0.00     0.199 HD  
BRANCH  23  26
ATOM     26  C16 UNL     1       0.375   2.478   1.630  1.00  0.00     0.164 C   
BRANCH  26  27
ATOM     27  C17 UNL     1       1.218   1.854   0.552  1.00  0.00    -0.002 A   
ATOM     28  C18 UNL     1       1.306   2.454  -0.732  1.00  0.00     0.012 A   
ATOM     29  C22 UNL     1       1.903   0.652   0.799  1.00  0.00     0.045 A   
ATOM     30  C19 UNL     1       2.059   1.863  -1.748  1.00  0.00     0.037 A   
ATOM     31  C21 UNL     1       2.633   0.095  -0.228  1.00  0.00     0.109 A   
ATOM     32  C20 UNL     1       2.703   0.679  -1.472  1.00  0.00     0.108 A   
ATOM     33  O3  UNL     1       3.346  -1.058  -0.155  1.00  0.00    -0.316 OA  
ATOM     34  O4  UNL     1       3.458  -0.043  -2.342  1.00  0.00    -0.316 OA  
ATOM     35  C23 UNL     1       3.907  -1.118  -1.489  1.00  0.00     0.337 C   
ENDBRANCH  26  27
ENDBRANCH  23  26
ENDBRANCH  18  23
ENDBRANCH   3  18
TORSDOF 9
