REMARK SMILES Cc1ccc(-n2cc([C@H](CC(C)C)[NH2+]Cc3ccc4c(c3)OCO4)nn2)c(N([O-])[O-])c1
REMARK SMILES IDX 6 1 7 2 8 3 25 4 26 5 5 6 2 7 3 8 31 9 4 10 27 11 1 12 28 13
REMARK SMILES IDX 29 14 30 15 9 16 10 17 11 18 12 19 13 20 14 21 15 24 16 25
REMARK SMILES IDX 17 26 21 27 18 28 20 29 19 30 22 31 24 32 23 33
REMARK H PARENT 14 22 14 23
ROOT
ATOM     1   N1  UNL     1      -3.145   0.817  -0.954  1.00  0.00    -0.178 N   
ATOM     2   C6  UNL     1      -1.774   0.866  -1.105  1.00  0.00     0.135 A   
ATOM     3   C7  UNL     1      -1.401  -0.411  -1.458  1.00  0.00     0.127 A   
ATOM     4   N3  UNL     1      -2.519  -1.181  -1.588  1.00  0.00    -0.131 NA  
ATOM     5   N4  UNL     1      -3.569  -0.421  -1.326  1.00  0.00    -0.071 NA  
ENDROOT
BRANCH   1   6
ATOM     6   C5  UNL     1      -4.067   1.808  -0.525  1.00  0.00     0.086 A   
ATOM     7   C2  UNL     1      -5.995   3.774   0.167  1.00  0.00    -0.049 A   
ATOM     8   C3  UNL     1      -6.362   2.636  -0.560  1.00  0.00     0.005 A   
ATOM     9   C22 UNL     1      -4.662   3.926   0.560  1.00  0.00     0.036 A   
ATOM     10  C4  UNL     1      -5.416   1.659  -0.894  1.00  0.00     0.028 A   
ATOM     11  C21 UNL     1      -3.719   2.940   0.228  1.00  0.00     0.141 A   
ATOM     12  C1  UNL     1      -7.016   4.829   0.485  1.00  0.00     0.044 C   
BRANCH  11  13
ATOM     13  N5  UNL     1      -2.408   3.088   0.827  1.00  0.00     0.094 N   
ATOM     14  O3  UNL     1      -1.747   4.079   0.500  1.00  0.00    -0.138 OA  
ATOM     15  O4  UNL     1      -2.028   2.181   1.581  1.00  0.00    -0.138 OA  
ENDBRANCH  11  13
ENDBRANCH   1   6
BRANCH   3  16
ATOM     16  C8  UNL     1      -0.048  -1.017  -1.649  1.00  0.00     0.114 C   
BRANCH  16  17
ATOM     17  C9  UNL     1       0.277  -1.163  -3.151  1.00  0.00     0.064 C   
BRANCH  17  18
ATOM     18  C10 UNL     1       1.673  -1.723  -3.500  1.00  0.00    -0.012 C   
ATOM     19  C11 UNL     1       2.807  -0.900  -2.889  1.00  0.00     0.007 C   
ATOM     20  C12 UNL     1       1.837  -1.778  -5.022  1.00  0.00     0.007 C   
ENDBRANCH  17  18
ENDBRANCH  16  17
BRANCH  16  21
ATOM     21  N2  UNL     1       0.017  -2.377  -0.995  1.00  0.00     0.249 N   
ATOM     22  H17 UNL     1      -0.754  -2.933  -1.390  1.00  0.00     0.199 HD  
ATOM     23  H18 UNL     1       0.890  -2.849  -1.241  1.00  0.00     0.199 HD  
BRANCH  21  24
ATOM     24  C13 UNL     1      -0.125  -2.402   0.494  1.00  0.00     0.164 C   
BRANCH  24  25
ATOM     25  C14 UNL     1       1.012  -1.719   1.200  1.00  0.00    -0.002 A   
ATOM     26  C15 UNL     1       0.815  -0.461   1.819  1.00  0.00     0.012 A   
ATOM     27  C19 UNL     1       2.288  -2.308   1.224  1.00  0.00     0.045 A   
ATOM     28  C16 UNL     1       1.874   0.207   2.444  1.00  0.00     0.037 A   
ATOM     29  C18 UNL     1       3.309  -1.623   1.850  1.00  0.00     0.109 A   
ATOM     30  C17 UNL     1       3.109  -0.400   2.441  1.00  0.00     0.108 A   
ATOM     31  O1  UNL     1       4.595  -2.048   1.957  1.00  0.00    -0.316 OA  
ATOM     32  O2  UNL     1       4.244   0.099   2.995  1.00  0.00    -0.316 OA  
ATOM     33  C20 UNL     1       5.178  -0.966   2.719  1.00  0.00     0.337 C   
ENDBRANCH  24  25
ENDBRANCH  21  24
ENDBRANCH  16  21
ENDBRANCH   3  16
TORSDOF 8
