REMARK SMILES COc1nc(Cl)ccc1Cn1cc([C@H](CC(C)C)[NH2+]Cc2ccc3c(c2)OCO3)nn1
REMARK SMILES IDX 11 1 12 2 13 3 30 4 31 5 10 7 9 8 3 9 4 10 5 11 8 12 7 13
REMARK SMILES IDX 6 14 2 15 1 16 14 17 15 18 16 19 17 20 18 21 19 22 20 25
REMARK SMILES IDX 21 26 22 27 26 28 23 29 25 30 24 31 27 32 29 33 28 34
REMARK H PARENT 12 6 19 23 19 24
ROOT
ATOM     1   N2  UNL     1       3.869   0.443   0.306  1.00  0.00    -0.208 N   
ATOM     2   C8  UNL     1       2.699   1.077   0.620  1.00  0.00     0.046 A   
ATOM     3   C9  UNL     1       2.013   0.158   1.380  1.00  0.00     0.127 A   
ATOM     4   N4  UNL     1       2.781  -0.971   1.520  1.00  0.00    -0.132 NA  
ATOM     5   N5  UNL     1       3.911  -0.786   0.859  1.00  0.00    -0.076 NA  
ATOM     6   H8  UNL     1       2.469   2.075   0.268  1.00  0.00     0.083 HD  
ENDROOT
BRANCH   1   7
ATOM     7   C7  UNL     1       4.974   0.927  -0.506  1.00  0.00     0.174 C   
BRANCH   7   8
ATOM     8   C6  UNL     1       4.782   0.541  -1.946  1.00  0.00     0.021 A   
ATOM     9   C2  UNL     1       4.027   1.324  -2.823  1.00  0.00     0.173 A   
ATOM     10  N1  UNL     1       3.784   0.996  -4.107  1.00  0.00    -0.212 NA  
ATOM     11  C3  UNL     1       4.339  -0.147  -4.554  1.00  0.00     0.132 A   
ATOM     12  C5  UNL     1       5.327  -0.648  -2.450  1.00  0.00     0.013 A   
ATOM     13  C4  UNL     1       5.108  -0.999  -3.780  1.00  0.00     0.041 A   
ATOM     14  CL1 UNL     1       4.005  -0.504  -6.197  1.00  0.00    -0.062 Cl  
BRANCH   9  15
ATOM     15  O1  UNL     1       3.472   2.486  -2.317  1.00  0.00    -0.332 OA  
ATOM     16  C1  UNL     1       2.899   3.318  -3.330  1.00  0.00     0.205 C   
ENDBRANCH   9  15
ENDBRANCH   7   8
ENDBRANCH   1   7
BRANCH   3  17
ATOM     17  C10 UNL     1       0.646   0.200   1.988  1.00  0.00     0.114 C   
BRANCH  17  18
ATOM     18  C11 UNL     1       0.690   0.840   3.392  1.00  0.00     0.064 C   
BRANCH  18  19
ATOM     19  C12 UNL     1      -0.667   1.024   4.106  1.00  0.00    -0.012 C   
ATOM     20  C13 UNL     1      -0.445   1.689   5.471  1.00  0.00     0.007 C   
ATOM     21  C14 UNL     1      -1.659   1.852   3.287  1.00  0.00     0.007 C   
ENDBRANCH  18  19
ENDBRANCH  17  18
BRANCH  17  22
ATOM     22  N3  UNL     1       0.094  -1.203   2.101  1.00  0.00     0.249 N   
ATOM     23  H19 UNL     1      -0.687  -1.244   2.760  1.00  0.00     0.199 HD  
ATOM     24  H20 UNL     1       0.854  -1.778   2.493  1.00  0.00     0.199 HD  
BRANCH  22  25
ATOM     25  C15 UNL     1      -0.332  -1.844   0.818  1.00  0.00     0.164 C   
BRANCH  25  26
ATOM     26  C16 UNL     1      -1.591  -1.235   0.263  1.00  0.00    -0.002 A   
ATOM     27  C17 UNL     1      -1.542  -0.405  -0.883  1.00  0.00     0.012 A   
ATOM     28  C21 UNL     1      -2.822  -1.456   0.904  1.00  0.00     0.045 A   
ATOM     29  C18 UNL     1      -2.700   0.209  -1.377  1.00  0.00     0.037 A   
ATOM     30  C20 UNL     1      -3.943  -0.836   0.391  1.00  0.00     0.109 A   
ATOM     31  C19 UNL     1      -3.885  -0.025  -0.715  1.00  0.00     0.108 A   
ATOM     32  O2  UNL     1      -5.200  -0.937   0.897  1.00  0.00    -0.316 OA  
ATOM     33  O3  UNL     1      -5.098   0.490  -1.046  1.00  0.00    -0.316 OA  
ATOM     34  C22 UNL     1      -5.939  -0.122  -0.042  1.00  0.00     0.337 C   
ENDBRANCH  25  26
ENDBRANCH  22  25
ENDBRANCH  17  22
ENDBRANCH   3  17
TORSDOF 9
