REMARK SMILES COc1cc(C)cc(F)c1Cn1cc([C@@H]([NH2+]Cc2ccc3c(c2)OCO3)C(C)(C)C)nn1
REMARK SMILES IDX 12 1 13 2 14 3 31 4 32 5 11 7 10 8 3 9 4 10 5 11 8 12 7 13
REMARK SMILES IDX 6 14 9 15 2 16 1 17 15 18 16 19 17 22 18 23 19 24 23 25
REMARK SMILES IDX 20 26 22 27 21 28 24 29 26 30 25 31 27 32 28 33 29 34 30 35
REMARK H PARENT 13 6 16 20 16 21
ROOT
ATOM     1   N1  UNL     1       2.124   1.353   1.054  1.00  0.00    -0.208 N   
ATOM     2   C10 UNL     1       1.199   1.938   0.232  1.00  0.00     0.046 A   
ATOM     3   C11 UNL     1       0.003   1.756   0.889  1.00  0.00     0.127 A   
ATOM     4   N3  UNL     1       0.233   1.079   2.059  1.00  0.00    -0.132 NA  
ATOM     5   N4  UNL     1       1.530   0.840   2.149  1.00  0.00    -0.076 NA  
ATOM     6   H11 UNL     1       1.473   2.396  -0.709  1.00  0.00     0.083 HD  
ENDROOT
BRANCH   1   7
ATOM     7   C9  UNL     1       3.564   1.270   0.877  1.00  0.00     0.175 C   
BRANCH   7   8
ATOM     8   C8  UNL     1       3.951   0.013   0.148  1.00  0.00     0.037 A   
ATOM     9   C2  UNL     1       3.966  -0.064  -1.255  1.00  0.00     0.083 A   
ATOM     10  C3  UNL     1       4.324  -1.266  -1.881  1.00  0.00     0.037 A   
ATOM     11  C4  UNL     1       4.665  -2.400  -1.126  1.00  0.00    -0.046 A   
ATOM     12  C7  UNL     1       4.301  -1.123   0.885  1.00  0.00     0.130 A   
ATOM     13  C6  UNL     1       4.661  -2.314   0.267  1.00  0.00     0.043 A   
ATOM     14  C5  UNL     1       5.089  -3.671  -1.804  1.00  0.00     0.044 C   
ATOM     15  F1  UNL     1       4.300  -1.071   2.225  1.00  0.00    -0.207 F   
BRANCH   9  16
ATOM     16  O1  UNL     1       3.599   1.078  -1.920  1.00  0.00    -0.349 OA  
ATOM     17  C1  UNL     1       3.882   1.129  -3.316  1.00  0.00     0.203 C   
ENDBRANCH   9  16
ENDBRANCH   7   8
ENDBRANCH   1   7
BRANCH   3  18
ATOM     18  C12 UNL     1      -1.407   2.083   0.501  1.00  0.00     0.120 C   
BRANCH  18  19
ATOM     19  N2  UNL     1      -2.306   0.978   1.008  1.00  0.00     0.250 N   
ATOM     20  H13 UNL     1      -2.008   0.783   1.977  1.00  0.00     0.199 HD  
ATOM     21  H14 UNL     1      -3.288   1.258   1.062  1.00  0.00     0.199 HD  
BRANCH  19  22
ATOM     22  C13 UNL     1      -2.213  -0.308   0.262  1.00  0.00     0.164 C   
BRANCH  22  23
ATOM     23  C14 UNL     1      -3.062  -1.358   0.919  1.00  0.00    -0.002 A   
ATOM     24  C15 UNL     1      -2.538  -2.129   1.985  1.00  0.00     0.012 A   
ATOM     25  C19 UNL     1      -4.397  -1.543   0.520  1.00  0.00     0.045 A   
ATOM     26  C16 UNL     1      -3.326  -3.083   2.637  1.00  0.00     0.037 A   
ATOM     27  C18 UNL     1      -5.146  -2.491   1.186  1.00  0.00     0.109 A   
ATOM     28  C17 UNL     1      -4.627  -3.240   2.213  1.00  0.00     0.108 A   
ATOM     29  O2  UNL     1      -6.447  -2.792   0.929  1.00  0.00    -0.316 OA  
ATOM     30  O3  UNL     1      -5.533  -4.111   2.729  1.00  0.00    -0.316 OA  
ATOM     31  C20 UNL     1      -6.684  -3.836   1.901  1.00  0.00     0.337 C   
ENDBRANCH  22  23
ENDBRANCH  19  22
ENDBRANCH  18  19
BRANCH  18  32
ATOM     32  C21 UNL     1      -1.910   3.477   1.015  1.00  0.00     0.010 C   
ATOM     33  C22 UNL     1      -1.984   3.553   2.553  1.00  0.00     0.017 C   
ATOM     34  C23 UNL     1      -3.315   3.783   0.446  1.00  0.00     0.017 C   
ATOM     35  C24 UNL     1      -0.971   4.600   0.518  1.00  0.00     0.017 C   
ENDBRANCH  18  32
ENDBRANCH   3  18
TORSDOF 8
