REMARK SMILES CC(C)C[C@H]([NH2+]Cc1ccc2c(c1)OCO2)c1cn([C@@H](CCCNC(N)=[NH2+])C(=O)O)nn1
REMARK SMILES IDX 20 1 19 2 17 3 18 4 32 5 31 6 5 8 4 9 2 10 1 11 3 12 6 13
REMARK SMILES IDX 7 16 8 17 9 18 13 19 10 20 12 21 11 22 14 23 16 24 15 25
REMARK SMILES IDX 21 26 22 27 23 28 24 29 25 30 26 31 27 35 28 38 29 39 30 40
REMARK H PARENT 18 7 6 14 6 15 24 32 26 33 26 34 27 36 27 37 30 41
ROOT
ATOM     1   C16 UNL     1       3.136  -0.641  -1.051  1.00  0.00     0.196 C   
ENDROOT
BRANCH   1   2
ATOM     2   N2  UNL     1       2.075  -0.011  -0.279  1.00  0.00    -0.199 N   
ATOM     3   C14 UNL     1       0.836   1.350   0.866  1.00  0.00     0.127 A   
ATOM     4   C15 UNL     1       2.034   1.275   0.190  1.00  0.00     0.046 A   
ATOM     5   N7  UNL     1       0.217   0.127   0.810  1.00  0.00    -0.132 NA  
ATOM     6   N6  UNL     1       0.985  -0.693   0.111  1.00  0.00    -0.075 NA  
ATOM     7   H20 UNL     1       2.827   1.991   0.009  1.00  0.00     0.083 HD  
BRANCH   3   8
ATOM     8   C5  UNL     1       0.170   2.494   1.561  1.00  0.00     0.114 C   
BRANCH   8   9
ATOM     9   C4  UNL     1       0.682   2.704   3.001  1.00  0.00     0.064 C   
BRANCH   9  10
ATOM     10  C2  UNL     1       0.713   1.490   3.961  1.00  0.00    -0.012 C   
ATOM     11  C1  UNL     1      -0.667   0.931   4.300  1.00  0.00     0.007 C   
ATOM     12  C3  UNL     1       1.423   1.900   5.258  1.00  0.00     0.007 C   
ENDBRANCH   9  10
ENDBRANCH   8   9
BRANCH   8  13
ATOM     13  N1  UNL     1      -1.332   2.357   1.556  1.00  0.00     0.249 N   
ATOM     14  H11 UNL     1      -1.730   2.750   2.417  1.00  0.00     0.199 HD  
ATOM     15  H12 UNL     1      -1.538   1.348   1.571  1.00  0.00     0.199 HD  
BRANCH  13  16
ATOM     16  C6  UNL     1      -2.052   2.946   0.387  1.00  0.00     0.164 C   
BRANCH  16  17
ATOM     17  C7  UNL     1      -1.883   2.158  -0.885  1.00  0.00    -0.002 A   
ATOM     18  C8  UNL     1      -2.681   1.011  -1.120  1.00  0.00     0.012 A   
ATOM     19  C12 UNL     1      -0.900   2.517  -1.824  1.00  0.00     0.045 A   
ATOM     20  C9  UNL     1      -2.505   0.234  -2.270  1.00  0.00     0.037 A   
ATOM     21  C11 UNL     1      -0.747   1.724  -2.943  1.00  0.00     0.109 A   
ATOM     22  C10 UNL     1      -1.529   0.616  -3.163  1.00  0.00     0.108 A   
ATOM     23  O1  UNL     1       0.170   1.911  -3.928  1.00  0.00    -0.316 OA  
ATOM     24  O2  UNL     1      -1.213  -0.019  -4.322  1.00  0.00    -0.316 OA  
ATOM     25  C13 UNL     1      -0.217   0.874  -4.856  1.00  0.00     0.337 C   
ENDBRANCH  16  17
ENDBRANCH  13  16
ENDBRANCH   8  13
ENDBRANCH   3   8
ENDBRANCH   1   2
BRANCH   1  26
ATOM     26  C17 UNL     1       3.560  -2.041  -0.546  1.00  0.00     0.039 C   
BRANCH  26  27
ATOM     27  C18 UNL     1       2.997  -3.292  -1.234  1.00  0.00     0.037 C   
BRANCH  27  28
ATOM     28  C19 UNL     1       1.499  -3.521  -1.068  1.00  0.00     0.184 C   
BRANCH  28  29
ATOM     29  N3  UNL     1       1.061  -4.728  -1.788  1.00  0.00    -0.239 N   
ATOM     30  C20 UNL     1       0.828  -4.792  -3.111  1.00  0.00     0.316 C   
ATOM     31  N5  UNL     1       0.994  -3.744  -3.919  1.00  0.00    -0.252 N   
ATOM     32  H28 UNL     1       0.843  -5.551  -1.240  1.00  0.00     0.244 HD  
ATOM     33  H31 UNL     1       1.311  -2.831  -3.579  1.00  0.00     0.241 HD  
ATOM     34  H32 UNL     1       0.805  -3.804  -4.910  1.00  0.00     0.241 HD  
BRANCH  30  35
ATOM     35  N4  UNL     1       0.413  -5.947  -3.644  1.00  0.00    -0.252 N   
ATOM     36  H29 UNL     1       0.268  -6.774  -3.077  1.00  0.00     0.241 HD  
ATOM     37  H30 UNL     1       0.230  -6.041  -4.636  1.00  0.00     0.241 HD  
ENDBRANCH  30  35
ENDBRANCH  28  29
ENDBRANCH  27  28
ENDBRANCH  26  27
ENDBRANCH   1  26
BRANCH   1  38
ATOM     38  C21 UNL     1       2.809  -0.556  -2.531  1.00  0.00     0.281 C   
ATOM     39  O3  UNL     1       2.087  -1.308  -3.173  1.00  0.00    -0.265 OA  
BRANCH  38  40
ATOM     40  O4  UNL     1       3.414   0.494  -3.121  1.00  0.00    -0.330 OA  
ATOM     41  H33 UNL     1       3.163   0.501  -4.070  1.00  0.00     0.221 HD  
ENDBRANCH  38  40
ENDBRANCH   1  38
TORSDOF 14
