REMARK SMILES CC(C)C[C@H]([NH2+]Cc1ccc2c(c1)OCO2)c1cn([C@@H](CCCNC(N)=[NH2+])C(=O)[O-])nn1
REMARK SMILES IDX 20 1 19 2 17 3 18 4 32 5 31 6 5 8 4 9 2 10 1 11 3 12 6 13
REMARK SMILES IDX 7 16 8 17 9 18 13 19 10 20 12 21 11 22 14 23 16 24 15 25
REMARK SMILES IDX 21 26 22 27 23 28 24 29 25 30 26 31 27 35 28 38 30 39 29 40
REMARK H PARENT 18 7 6 14 6 15 24 32 26 33 26 34 27 36 27 37
ROOT
ATOM     1   C16 UNL     1      -2.066   1.548  -1.913  1.00  0.00     0.145 C   
ENDROOT
BRANCH   1   2
ATOM     2   N2  UNL     1      -1.095   2.536  -1.481  1.00  0.00    -0.203 N   
ATOM     3   C14 UNL     1       0.746   2.758  -0.448  1.00  0.00     0.127 A   
ATOM     4   C15 UNL     1       0.259   2.499  -1.719  1.00  0.00     0.046 A   
ATOM     5   N7  UNL     1      -0.221   3.397   0.283  1.00  0.00    -0.132 NA  
ATOM     6   N6  UNL     1      -1.355   3.299  -0.396  1.00  0.00    -0.075 NA  
ATOM     7   H20 UNL     1       0.666   1.931  -2.544  1.00  0.00     0.083 HD  
BRANCH   3   8
ATOM     8   C5  UNL     1       1.891   2.099   0.244  1.00  0.00     0.114 C   
BRANCH   8   9
ATOM     9   C4  UNL     1       3.132   1.876  -0.639  1.00  0.00     0.064 C   
BRANCH   9  10
ATOM     10  C2  UNL     1       3.756   3.164  -1.216  1.00  0.00    -0.012 C   
ATOM     11  C1  UNL     1       4.228   4.127  -0.127  1.00  0.00     0.007 C   
ATOM     12  C3  UNL     1       4.934   2.805  -2.129  1.00  0.00     0.007 C   
ENDBRANCH   9  10
ENDBRANCH   8   9
BRANCH   8  13
ATOM     13  N1  UNL     1       1.430   0.737   0.729  1.00  0.00     0.249 N   
ATOM     14  H11 UNL     1       2.187   0.054   0.775  1.00  0.00     0.199 HD  
ATOM     15  H12 UNL     1       0.752   0.345   0.012  1.00  0.00     0.199 HD  
BRANCH  13  16
ATOM     16  C6  UNL     1       0.649   0.729   1.996  1.00  0.00     0.164 C   
BRANCH  16  17
ATOM     17  C7  UNL     1       0.663  -0.632   2.648  1.00  0.00    -0.002 A   
ATOM     18  C8  UNL     1       1.314  -0.824   3.889  1.00  0.00     0.012 A   
ATOM     19  C12 UNL     1       0.055  -1.732   2.016  1.00  0.00     0.045 A   
ATOM     20  C9  UNL     1       1.360  -2.087   4.493  1.00  0.00     0.037 A   
ATOM     21  C11 UNL     1       0.134  -2.965   2.629  1.00  0.00     0.109 A   
ATOM     22  C10 UNL     1       0.765  -3.139   3.834  1.00  0.00     0.108 A   
ATOM     23  O1  UNL     1      -0.378  -4.127   2.141  1.00  0.00    -0.316 OA  
ATOM     24  O2  UNL     1       0.727  -4.429   4.258  1.00  0.00    -0.316 OA  
ATOM     25  C13 UNL     1       0.067  -5.065   3.144  1.00  0.00     0.337 C   
ENDBRANCH  16  17
ENDBRANCH  13  16
ENDBRANCH   8  13
ENDBRANCH   3   8
ENDBRANCH   1   2
BRANCH   1  26
ATOM     26  C17 UNL     1      -2.281   1.515  -3.436  1.00  0.00     0.034 C   
BRANCH  26  27
ATOM     27  C18 UNL     1      -3.696   1.891  -3.920  1.00  0.00     0.037 C   
BRANCH  27  28
ATOM     28  C19 UNL     1      -4.910   1.216  -3.262  1.00  0.00     0.184 C   
BRANCH  28  29
ATOM     29  N3  UNL     1      -4.614  -0.083  -2.684  1.00  0.00    -0.239 N   
ATOM     30  C20 UNL     1      -5.426  -0.850  -1.960  1.00  0.00     0.316 C   
ATOM     31  N5  UNL     1      -6.745  -0.665  -1.937  1.00  0.00    -0.252 N   
ATOM     32  H28 UNL     1      -3.645  -0.436  -2.619  1.00  0.00     0.244 HD  
ATOM     33  H31 UNL     1      -7.347  -1.246  -1.371  1.00  0.00     0.241 HD  
ATOM     34  H32 UNL     1      -7.177   0.038  -2.518  1.00  0.00     0.241 HD  
BRANCH  30  35
ATOM     35  N4  UNL     1      -4.888  -1.825  -1.232  1.00  0.00    -0.252 N   
ATOM     36  H29 UNL     1      -5.410  -2.454  -0.646  1.00  0.00     0.241 HD  
ATOM     37  H30 UNL     1      -3.854  -1.851  -1.199  1.00  0.00     0.241 HD  
ENDBRANCH  30  35
ENDBRANCH  28  29
ENDBRANCH  27  28
ENDBRANCH  26  27
ENDBRANCH   1  26
BRANCH   1  38
ATOM     38  C21 UNL     1      -1.644   0.146  -1.387  1.00  0.00     0.064 C   
ATOM     39  O3  UNL     1      -0.535   0.008  -0.787  1.00  0.00    -0.548 OA  
ATOM     40  O4  UNL     1      -2.500  -0.773  -1.620  1.00  0.00    -0.548 OA  
ENDBRANCH   1  38
TORSDOF 13
