REMARK SMILES Cc1cnc(CCn2cc([C@@H]([NH2+]Cc3ccc4c(c3)OCO4)C3CCCC3)nn2)cn1
REMARK SMILES IDX 8 1 9 2 10 3 28 4 29 5 7 7 6 8 5 9 2 10 3 11 31 12 4 13
REMARK SMILES IDX 30 14 1 15 11 16 12 17 13 20 14 21 15 22 19 23 16 24 18 25
REMARK SMILES IDX 17 26 20 27 22 28 21 29 23 30 24 31 27 32 25 33 26 34
REMARK H PARENT 9 6 12 18 12 19
ROOT
ATOM     1   N2  UNL     1      -0.647   0.672  -3.277  1.00  0.00    -0.212 N   
ATOM     2   C7  UNL     1      -1.537   0.068  -2.427  1.00  0.00     0.045 A   
ATOM     3   C8  UNL     1      -0.812  -0.955  -1.857  1.00  0.00     0.127 A   
ATOM     4   N4  UNL     1       0.418  -1.014  -2.468  1.00  0.00    -0.132 NA  
ATOM     5   N5  UNL     1       0.500  -0.025  -3.343  1.00  0.00    -0.076 NA  
ATOM     6   H9  UNL     1      -2.506   0.502  -2.221  1.00  0.00     0.083 HD  
ENDROOT
BRANCH   1   7
ATOM     7   C6  UNL     1      -0.682   2.055  -3.721  1.00  0.00     0.140 C   
BRANCH   7   8
ATOM     8   C5  UNL     1       0.241   2.954  -2.884  1.00  0.00     0.079 C   
BRANCH   8   9
ATOM     9   C4  UNL     1      -0.034   2.825  -1.405  1.00  0.00     0.060 A   
ATOM     10  C2  UNL     1      -0.647   2.396   1.193  1.00  0.00     0.056 A   
ATOM     11  C3  UNL     1      -1.344   3.313   0.415  1.00  0.00     0.134 A   
ATOM     12  N6  UNL     1       0.340   1.623   0.664  1.00  0.00    -0.258 NA  
ATOM     13  N1  UNL     1      -1.087   3.505  -0.900  1.00  0.00    -0.258 NA  
ATOM     14  C23 UNL     1       0.680   1.926  -0.617  1.00  0.00     0.135 A   
ATOM     15  C1  UNL     1      -0.974   2.243   2.644  1.00  0.00     0.068 C   
ENDBRANCH   8   9
ENDBRANCH   7   8
ENDBRANCH   1   7
BRANCH   3  16
ATOM     16  C9  UNL     1      -1.029  -1.829  -0.659  1.00  0.00     0.117 C   
BRANCH  16  17
ATOM     17  N3  UNL     1      -0.001  -1.416   0.371  1.00  0.00     0.249 N   
ATOM     18  H11 UNL     1       0.878  -1.268  -0.146  1.00  0.00     0.199 HD  
ATOM     19  H12 UNL     1      -0.195  -0.465   0.737  1.00  0.00     0.199 HD  
BRANCH  17  20
ATOM     20  C10 UNL     1       0.287  -2.370   1.466  1.00  0.00     0.164 C   
BRANCH  20  21
ATOM     21  C11 UNL     1       1.310  -1.818   2.418  1.00  0.00    -0.002 A   
ATOM     22  C12 UNL     1       2.688  -1.857   2.096  1.00  0.00     0.012 A   
ATOM     23  C16 UNL     1       0.896  -1.228   3.623  1.00  0.00     0.045 A   
ATOM     24  C13 UNL     1       3.642  -1.322   2.968  1.00  0.00     0.037 A   
ATOM     25  C15 UNL     1       1.862  -0.712   4.460  1.00  0.00     0.109 A   
ATOM     26  C14 UNL     1       3.197  -0.758   4.142  1.00  0.00     0.108 A   
ATOM     27  O1  UNL     1       1.632  -0.115   5.657  1.00  0.00    -0.316 OA  
ATOM     28  O2  UNL     1       3.976  -0.201   5.104  1.00  0.00    -0.316 OA  
ATOM     29  C17 UNL     1       2.983   0.173   6.082  1.00  0.00     0.337 C   
ENDBRANCH  20  21
ENDBRANCH  17  20
ENDBRANCH  16  17
BRANCH  16  30
ATOM     30  C18 UNL     1      -2.435  -1.855  -0.034  1.00  0.00     0.043 C   
ATOM     31  C19 UNL     1      -3.578  -2.234  -0.997  1.00  0.00     0.010 C   
ATOM     32  C22 UNL     1      -2.903  -0.579   0.671  1.00  0.00     0.010 C   
ATOM     33  C20 UNL     1      -4.744  -1.309  -0.655  1.00  0.00     0.001 C   
ATOM     34  C21 UNL     1      -4.414  -0.737   0.714  1.00  0.00     0.001 C   
ENDBRANCH  16  30
ENDBRANCH   3  16
TORSDOF 8
