REMARK SMILES COc1ccc(N)cc1-n1cc([C@@H]([NH2+]Cc2ccc3c(c2)OCO3)C2CCCC2)nn1
REMARK SMILES IDX 10 1 11 2 12 3 30 4 31 5 9 6 3 7 4 8 5 9 8 10 6 11 2 12 1 13
REMARK SMILES IDX 7 14 13 17 14 18 15 21 16 22 17 23 21 24 18 25 20 26 19 27
REMARK SMILES IDX 22 28 24 29 23 30 25 31 26 32 29 33 27 34 28 35
REMARK H PARENT 7 15 7 16 14 19 14 20
ROOT
ATOM     1   N2  UNL     1       0.530   1.969  -0.808  1.00  0.00    -0.178 N   
ATOM     2   C8  UNL     1      -0.313   0.940  -0.427  1.00  0.00     0.135 A   
ATOM     3   C9  UNL     1       0.511  -0.093  -0.044  1.00  0.00     0.127 A   
ATOM     4   N4  UNL     1       1.810   0.288  -0.202  1.00  0.00    -0.131 NA  
ATOM     5   N5  UNL     1       1.815   1.524  -0.668  1.00  0.00    -0.071 NA  
ENDROOT
BRANCH   1   6
ATOM     6   C7  UNL     1       0.255   3.281  -1.290  1.00  0.00     0.090 A   
ATOM     7   C2  UNL     1      -1.049   3.776  -1.494  1.00  0.00     0.098 A   
ATOM     8   C3  UNL     1      -1.202   5.075  -1.996  1.00  0.00     0.037 A   
ATOM     9   C4  UNL     1      -0.089   5.875  -2.281  1.00  0.00     0.026 A   
ATOM     10  C6  UNL     1       1.364   4.109  -1.585  1.00  0.00     0.051 A   
ATOM     11  C5  UNL     1       1.201   5.420  -2.031  1.00  0.00     0.025 A   
BRANCH   7  12
ATOM     12  O1  UNL     1      -2.114   2.966  -1.212  1.00  0.00    -0.347 OA  
ATOM     13  C1  UNL     1      -3.426   3.448  -1.491  1.00  0.00     0.203 C   
ENDBRANCH   7  12
BRANCH  11  14
ATOM     14  N1  UNL     1       2.306   6.175  -2.433  1.00  0.00    -0.358 N   
ATOM     15  H6  UNL     1       2.147   7.178  -2.459  1.00  0.00     0.143 HD  
ATOM     16  H7  UNL     1       3.179   5.939  -1.972  1.00  0.00     0.143 HD  
ENDBRANCH  11  14
ENDBRANCH   1   6
BRANCH   3  17
ATOM     17  C10 UNL     1       0.194  -1.473   0.427  1.00  0.00     0.117 C   
BRANCH  17  18
ATOM     18  N3  UNL     1       1.165  -2.466  -0.180  1.00  0.00     0.249 N   
ATOM     19  H11 UNL     1       2.110  -2.131   0.058  1.00  0.00     0.199 HD  
ATOM     20  H12 UNL     1       1.049  -3.386   0.250  1.00  0.00     0.199 HD  
BRANCH  18  21
ATOM     21  C11 UNL     1       1.113  -2.626  -1.666  1.00  0.00     0.164 C   
BRANCH  21  22
ATOM     22  C12 UNL     1      -0.210  -3.148  -2.156  1.00  0.00    -0.002 A   
ATOM     23  C13 UNL     1      -0.579  -4.497  -1.931  1.00  0.00     0.012 A   
ATOM     24  C17 UNL     1      -1.105  -2.286  -2.814  1.00  0.00     0.045 A   
ATOM     25  C14 UNL     1      -1.823  -4.981  -2.352  1.00  0.00     0.037 A   
ATOM     26  C16 UNL     1      -2.323  -2.795  -3.216  1.00  0.00     0.109 A   
ATOM     27  C15 UNL     1      -2.672  -4.104  -2.991  1.00  0.00     0.108 A   
ATOM     28  O2  UNL     1      -3.299  -2.099  -3.857  1.00  0.00    -0.316 OA  
ATOM     29  O3  UNL     1      -3.911  -4.398  -3.467  1.00  0.00    -0.316 OA  
ATOM     30  C18 UNL     1      -4.288  -3.135  -4.058  1.00  0.00     0.337 C   
ENDBRANCH  21  22
ENDBRANCH  18  21
ENDBRANCH  17  18
BRANCH  17  31
ATOM     31  C19 UNL     1       0.283  -1.589   1.962  1.00  0.00     0.043 C   
ATOM     32  C20 UNL     1      -0.035  -2.988   2.508  1.00  0.00     0.010 C   
ATOM     33  C23 UNL     1      -0.737  -0.715   2.697  1.00  0.00     0.010 C   
ATOM     34  C21 UNL     1      -0.529  -2.777   3.940  1.00  0.00     0.001 C   
ATOM     35  C22 UNL     1      -0.721  -1.275   4.110  1.00  0.00     0.001 C   
ENDBRANCH  17  31
ENDBRANCH   3  17
TORSDOF 8
