REMARK SMILES CN(C)c1ccccc1-n1cc([C@@H]([NH2+]Cc2ccc3c(c2)OCO3)C(C)(C)C)nn1
REMARK SMILES IDX 10 1 11 2 12 3 29 4 30 5 9 6 4 7 5 8 6 9 8 10 7 11 2 12 1 13
REMARK SMILES IDX 3 14 13 15 14 16 15 19 16 20 17 21 21 22 18 23 20 24 19 25
REMARK SMILES IDX 22 26 24 27 23 28 25 29 26 30 27 31 28 32
REMARK H PARENT 14 17 14 18
ROOT
ATOM     1   N2  UNL     1       0.083   2.404   0.703  1.00  0.00    -0.179 N   
ATOM     2   C9  UNL     1      -0.324   1.253   1.353  1.00  0.00     0.135 A   
ATOM     3   C10 UNL     1       0.335   0.218   0.732  1.00  0.00     0.128 A   
ATOM     4   N4  UNL     1       1.064   0.716  -0.308  1.00  0.00    -0.131 NA  
ATOM     5   N5  UNL     1       0.894   2.027  -0.333  1.00  0.00    -0.071 NA  
ENDROOT
BRANCH   1   6
ATOM     6   C8  UNL     1      -0.211   3.779   0.943  1.00  0.00     0.079 A   
ATOM     7   C3  UNL     1      -1.011   4.234   2.017  1.00  0.00     0.052 A   
ATOM     8   C4  UNL     1      -1.214   5.629   2.145  1.00  0.00     0.025 A   
ATOM     9   C5  UNL     1      -0.659   6.543   1.250  1.00  0.00     0.002 A   
ATOM     10  C7  UNL     1       0.345   4.720   0.045  1.00  0.00     0.028 A   
ATOM     11  C6  UNL     1       0.122   6.088   0.197  1.00  0.00     0.002 A   
BRANCH   7  12
ATOM     12  N1  UNL     1      -1.597   3.351   2.959  1.00  0.00    -0.335 N   
ATOM     13  C1  UNL     1      -1.002   3.515   4.297  1.00  0.00     0.129 C   
ATOM     14  C2  UNL     1      -3.067   3.447   2.967  1.00  0.00     0.129 C   
ENDBRANCH   7  12
ENDBRANCH   1   6
BRANCH   3  15
ATOM     15  C11 UNL     1       0.312  -1.260   0.977  1.00  0.00     0.120 C   
BRANCH  15  16
ATOM     16  N3  UNL     1       0.524  -1.964  -0.344  1.00  0.00     0.250 N   
ATOM     17  H13 UNL     1       0.916  -2.904  -0.236  1.00  0.00     0.199 HD  
ATOM     18  H14 UNL     1       1.241  -1.420  -0.852  1.00  0.00     0.199 HD  
BRANCH  16  19
ATOM     19  C12 UNL     1      -0.673  -2.039  -1.228  1.00  0.00     0.164 C   
BRANCH  19  20
ATOM     20  C13 UNL     1      -0.296  -2.595  -2.571  1.00  0.00    -0.002 A   
ATOM     21  C14 UNL     1      -0.026  -1.717  -3.651  1.00  0.00     0.012 A   
ATOM     22  C18 UNL     1      -0.149  -3.986  -2.749  1.00  0.00     0.045 A   
ATOM     23  C15 UNL     1       0.372  -2.214  -4.897  1.00  0.00     0.037 A   
ATOM     24  C17 UNL     1       0.249  -4.440  -3.989  1.00  0.00     0.109 A   
ATOM     25  C16 UNL     1       0.502  -3.582  -5.032  1.00  0.00     0.108 A   
ATOM     26  O1  UNL     1       0.439  -5.742  -4.328  1.00  0.00    -0.316 OA  
ATOM     27  O2  UNL     1       0.883  -4.235  -6.160  1.00  0.00    -0.316 OA  
ATOM     28  C19 UNL     1       0.837  -5.609  -5.712  1.00  0.00     0.337 C   
ENDBRANCH  19  20
ENDBRANCH  16  19
ENDBRANCH  15  16
BRANCH  15  29
ATOM     29  C20 UNL     1       1.365  -1.755   2.030  1.00  0.00     0.010 C   
ATOM     30  C21 UNL     1       2.819  -1.545   1.560  1.00  0.00     0.017 C   
ATOM     31  C22 UNL     1       1.178  -1.009   3.371  1.00  0.00     0.017 C   
ATOM     32  C23 UNL     1       1.159  -3.261   2.326  1.00  0.00     0.017 C   
ENDBRANCH  15  29
ENDBRANCH   3  15
TORSDOF 7
