REMARK SMILES CC(C)C[C@H]([NH2+]Cc1ccc2c(c1)OCO2)c1cn(CCc2cc[nH]c2)nn1
REMARK SMILES IDX 17 1 18 2 19 3 27 4 28 5 5 7 4 8 2 9 1 10 3 11 6 12 7 15
REMARK SMILES IDX 8 16 9 17 13 18 10 19 12 20 11 21 14 22 16 23 15 24 20 25
REMARK SMILES IDX 21 26 22 27 23 28 26 29 24 30 25 31
REMARK H PARENT 18 6 6 13 6 14 25 32
ROOT
ATOM     1   C14 UNL     1      -0.214  -1.043   1.770  1.00  0.00     0.127 A   
ATOM     2   C15 UNL     1      -0.132  -0.069   2.739  1.00  0.00     0.045 A   
ATOM     3   N2  UNL     1      -1.435   0.232   3.016  1.00  0.00    -0.212 N   
ATOM     4   N4  UNL     1      -2.272  -0.532   2.292  1.00  0.00    -0.076 NA  
ATOM     5   N5  UNL     1      -1.536  -1.317   1.523  1.00  0.00    -0.132 NA  
ATOM     6   H20 UNL     1       0.691   0.455   3.205  1.00  0.00     0.083 HD  
ENDROOT
BRANCH   1   7
ATOM     7   C5  UNL     1       0.820  -1.734   0.940  1.00  0.00     0.114 C   
BRANCH   7   8
ATOM     8   C4  UNL     1       2.255  -1.213   1.139  1.00  0.00     0.064 C   
BRANCH   8   9
ATOM     9   C2  UNL     1       3.348  -1.907   0.298  1.00  0.00    -0.012 C   
ATOM     10  C1  UNL     1       4.705  -1.256   0.582  1.00  0.00     0.007 C   
ATOM     11  C3  UNL     1       3.431  -3.410   0.574  1.00  0.00     0.007 C   
ENDBRANCH   8   9
ENDBRANCH   7   8
BRANCH   7  12
ATOM     12  N1  UNL     1       0.416  -1.694  -0.510  1.00  0.00     0.249 N   
ATOM     13  H11 UNL     1      -0.537  -2.086  -0.540  1.00  0.00     0.199 HD  
ATOM     14  H12 UNL     1       0.992  -2.326  -1.076  1.00  0.00     0.199 HD  
BRANCH  12  15
ATOM     15  C6  UNL     1       0.338  -0.354  -1.161  1.00  0.00     0.164 C   
BRANCH  15  16
ATOM     16  C7  UNL     1      -0.177  -0.484  -2.568  1.00  0.00    -0.002 A   
ATOM     17  C8  UNL     1      -1.566  -0.628  -2.810  1.00  0.00     0.012 A   
ATOM     18  C12 UNL     1       0.721  -0.508  -3.649  1.00  0.00     0.045 A   
ATOM     19  C9  UNL     1      -2.054  -0.789  -4.111  1.00  0.00     0.037 A   
ATOM     20  C11 UNL     1       0.205  -0.663  -4.919  1.00  0.00     0.109 A   
ATOM     21  C10 UNL     1      -1.143  -0.801  -5.144  1.00  0.00     0.108 A   
ATOM     22  O1  UNL     1       0.932  -0.699  -6.067  1.00  0.00    -0.316 OA  
ATOM     23  O2  UNL     1      -1.435  -0.944  -6.464  1.00  0.00    -0.316 OA  
ATOM     24  C13 UNL     1      -0.117  -0.862  -7.050  1.00  0.00     0.337 C   
ENDBRANCH  15  16
ENDBRANCH  12  15
ENDBRANCH   7  12
ENDBRANCH   1   7
BRANCH   3  25
ATOM     25  C16 UNL     1      -1.947   1.268   3.889  1.00  0.00     0.139 C   
BRANCH  25  26
ATOM     26  C17 UNL     1      -2.505   2.464   3.119  1.00  0.00     0.058 C   
BRANCH  26  27
ATOM     27  C18 UNL     1      -1.477   3.149   2.267  1.00  0.00    -0.031 A   
ATOM     28  C19 UNL     1      -1.360   3.060   0.849  1.00  0.00     0.020 A   
ATOM     29  C21 UNL     1      -0.472   3.999   2.691  1.00  0.00     0.075 A   
ATOM     30  C20 UNL     1      -0.300   3.851   0.464  1.00  0.00     0.071 A   
ATOM     31  N3  UNL     1       0.222   4.435   1.590  1.00  0.00    -0.327 N   
ATOM     32  H27 UNL     1       0.981   5.111   1.607  1.00  0.00     0.152 HD  
ENDBRANCH  26  27
ENDBRANCH  25  26
ENDBRANCH   3  25
TORSDOF 9
