REMARK SMILES CC(C)(C)[C@H]([NH2+]Cc1ccc2c(c1)OCO2)c1cn(CCc2scnc2C2CC2)nn1
REMARK SMILES IDX 17 1 18 2 19 3 30 4 31 5 5 7 2 8 1 9 3 10 4 11 6 12 7 15
REMARK SMILES IDX 8 16 9 17 13 18 10 19 12 20 11 21 14 22 16 23 15 24 20 25
REMARK SMILES IDX 21 26 22 27 23 28 26 29 24 30 25 31 27 32 28 33 29 34
REMARK H PARENT 18 6 6 13 6 14
ROOT
ATOM     1   C14 UNL     1      -1.112   0.940  -1.053  1.00  0.00     0.127 A   
ATOM     2   C15 UNL     1      -0.101   1.802  -0.691  1.00  0.00     0.045 A   
ATOM     3   N2  UNL     1      -0.757   2.935  -0.301  1.00  0.00    -0.212 N   
ATOM     4   N4  UNL     1      -2.087   2.792  -0.435  1.00  0.00    -0.076 NA  
ATOM     5   N5  UNL     1      -2.319   1.567  -0.879  1.00  0.00    -0.132 NA  
ATOM     6   H20 UNL     1       0.976   1.710  -0.652  1.00  0.00     0.083 HD  
ENDROOT
BRANCH   1   7
ATOM     7   C5  UNL     1      -1.069  -0.495  -1.482  1.00  0.00     0.120 C   
BRANCH   7   8
ATOM     8   C2  UNL     1      -1.179  -0.706  -3.034  1.00  0.00     0.010 C   
ATOM     9   C1  UNL     1      -0.075   0.100  -3.758  1.00  0.00     0.017 C   
ATOM     10  C3  UNL     1      -2.544  -0.276  -3.605  1.00  0.00     0.017 C   
ATOM     11  C4  UNL     1      -0.954  -2.194  -3.389  1.00  0.00     0.017 C   
ENDBRANCH   7   8
BRANCH   7  12
ATOM     12  N1  UNL     1      -2.165  -1.261  -0.766  1.00  0.00     0.250 N   
ATOM     13  H11 UNL     1      -2.309  -2.179  -1.189  1.00  0.00     0.199 HD  
ATOM     14  H12 UNL     1      -3.030  -0.721  -0.904  1.00  0.00     0.199 HD  
BRANCH  12  15
ATOM     15  C6  UNL     1      -1.993  -1.441   0.709  1.00  0.00     0.164 C   
BRANCH  15  16
ATOM     16  C7  UNL     1      -0.792  -2.271   1.066  1.00  0.00    -0.002 A   
ATOM     17  C8  UNL     1      -0.764  -3.660   0.797  1.00  0.00     0.012 A   
ATOM     18  C12 UNL     1       0.331  -1.656   1.646  1.00  0.00     0.045 A   
ATOM     19  C9  UNL     1       0.370  -4.424   1.093  1.00  0.00     0.037 A   
ATOM     20  C11 UNL     1       1.433  -2.436   1.923  1.00  0.00     0.109 A   
ATOM     21  C10 UNL     1       1.452  -3.782   1.654  1.00  0.00     0.108 A   
ATOM     22  O1  UNL     1       2.599  -1.997   2.468  1.00  0.00    -0.316 OA  
ATOM     23  O2  UNL     1       2.630  -4.363   2.000  1.00  0.00    -0.316 OA  
ATOM     24  C13 UNL     1       3.340  -3.236   2.557  1.00  0.00     0.337 C   
ENDBRANCH  15  16
ENDBRANCH  12  15
ENDBRANCH   7  12
ENDBRANCH   1   7
BRANCH   3  25
ATOM     25  C16 UNL     1      -0.191   4.156   0.233  1.00  0.00     0.139 C   
BRANCH  25  26
ATOM     26  C17 UNL     1      -0.363   4.300   1.748  1.00  0.00     0.066 C   
BRANCH  26  27
ATOM     27  C18 UNL     1       0.220   3.163   2.538  1.00  0.00     0.014 A   
ATOM     28  S1  UNL     1       1.903   2.799   2.469  1.00  0.00    -0.080 S   
ATOM     29  C20 UNL     1      -0.387   2.291   3.423  1.00  0.00     0.054 A   
ATOM     30  C19 UNL     1       1.656   1.493   3.549  1.00  0.00     0.157 A   
ATOM     31  N3  UNL     1       0.418   1.302   3.946  1.00  0.00    -0.253 NA  
BRANCH  29  32
ATOM     32  C21 UNL     1      -1.876   2.405   3.870  1.00  0.00     0.039 C   
ATOM     33  C22 UNL     1      -2.650   1.137   4.130  1.00  0.00     0.011 C   
ATOM     34  C23 UNL     1      -2.984   1.989   2.942  1.00  0.00     0.011 C   
ENDBRANCH  29  32
ENDBRANCH  26  27
ENDBRANCH  25  26
ENDBRANCH   3  25
TORSDOF 9
