REMARK SMILES COc1ccc(Cn2cc([C@H](CC(C)C)[NH2+]Cc3ccc4c(c3)OCO4)nn2)c(C)c1
REMARK SMILES IDX 8 1 9 2 10 3 27 4 28 5 7 7 6 8 3 9 4 10 31 11 5 12 29 13
REMARK SMILES IDX 30 14 2 15 1 16 11 17 12 18 13 19 14 20 15 21 16 22 17 25
REMARK SMILES IDX 18 26 19 27 23 28 20 29 22 30 21 31 24 32 26 33 25 34
REMARK H PARENT 9 6 16 23 16 24
ROOT
ATOM     1   N1  UNL     1       1.265  -1.589   1.929  1.00  0.00    -0.208 N   
ATOM     2   C7  UNL     1       0.619  -0.811   1.005  1.00  0.00     0.046 A   
ATOM     3   C8  UNL     1       1.298  -1.043  -0.170  1.00  0.00     0.127 A   
ATOM     4   N3  UNL     1       2.338  -1.899   0.075  1.00  0.00    -0.132 NA  
ATOM     5   N4  UNL     1       2.312  -2.222   1.357  1.00  0.00    -0.076 NA  
ATOM     6   H8  UNL     1      -0.241  -0.202   1.251  1.00  0.00     0.083 HD  
ENDROOT
BRANCH   1   7
ATOM     7   C6  UNL     1       1.000  -1.796   3.348  1.00  0.00     0.169 C   
BRANCH   7   8
ATOM     8   C5  UNL     1      -0.243  -1.094   3.844  1.00  0.00    -0.025 A   
ATOM     9   C2  UNL     1      -2.506   0.328   4.754  1.00  0.00     0.075 A   
ATOM     10  C3  UNL     1      -1.237   0.898   4.826  1.00  0.00     0.034 A   
ATOM     11  C24 UNL     1      -2.646  -0.956   4.226  1.00  0.00     0.037 A   
ATOM     12  C4  UNL     1      -0.116   0.199   4.380  1.00  0.00     0.008 A   
ATOM     13  C22 UNL     1      -1.527  -1.676   3.761  1.00  0.00    -0.044 A   
ATOM     14  C23 UNL     1      -1.738  -3.064   3.215  1.00  0.00     0.045 C   
BRANCH   9  15
ATOM     15  O1  UNL     1      -3.513   1.121   5.225  1.00  0.00    -0.349 OA  
ATOM     16  C1  UNL     1      -4.821   0.562   5.255  1.00  0.00     0.203 C   
ENDBRANCH   9  15
ENDBRANCH   7   8
ENDBRANCH   1   7
BRANCH   3  17
ATOM     17  C9  UNL     1       1.101  -0.494  -1.547  1.00  0.00     0.114 C   
BRANCH  17  18
ATOM     18  C10 UNL     1       0.286  -1.444  -2.444  1.00  0.00     0.064 C   
BRANCH  18  19
ATOM     19  C11 UNL     1      -1.174  -1.677  -1.993  1.00  0.00    -0.012 C   
ATOM     20  C12 UNL     1      -1.991  -0.383  -1.984  1.00  0.00     0.007 C   
ATOM     21  C13 UNL     1      -1.841  -2.700  -2.917  1.00  0.00     0.007 C   
ENDBRANCH  18  19
ENDBRANCH  17  18
BRANCH  17  22
ATOM     22  N2  UNL     1       2.474  -0.290  -2.155  1.00  0.00     0.249 N   
ATOM     23  H19 UNL     1       2.920  -1.216  -2.221  1.00  0.00     0.199 HD  
ATOM     24  H20 UNL     1       3.034   0.201  -1.446  1.00  0.00     0.199 HD  
BRANCH  22  25
ATOM     25  C14 UNL     1       2.594   0.443  -3.442  1.00  0.00     0.164 C   
BRANCH  25  26
ATOM     26  C15 UNL     1       2.015   1.829  -3.389  1.00  0.00    -0.002 A   
ATOM     27  C16 UNL     1       2.690   2.861  -2.693  1.00  0.00     0.012 A   
ATOM     28  C20 UNL     1       0.775   2.100  -3.995  1.00  0.00     0.045 A   
ATOM     29  C17 UNL     1       2.134   4.141  -2.591  1.00  0.00     0.037 A   
ATOM     30  C19 UNL     1       0.254   3.371  -3.871  1.00  0.00     0.109 A   
ATOM     31  C18 UNL     1       0.913   4.363  -3.188  1.00  0.00     0.108 A   
ATOM     32  O2  UNL     1      -0.935   3.791  -4.377  1.00  0.00    -0.316 OA  
ATOM     33  O3  UNL     1       0.224   5.534  -3.181  1.00  0.00    -0.316 OA  
ATOM     34  C21 UNL     1      -0.938   5.176  -3.960  1.00  0.00     0.337 C   
ENDBRANCH  25  26
ENDBRANCH  22  25
ENDBRANCH  17  22
ENDBRANCH   3  17
TORSDOF 9
