REMARK SMILES CN(C)c1cccc(-n2cc([C@@H]([NH2+]Cc3ccc4c(c3)OCO4)C(C)(C)C)nn2)c1
REMARK SMILES IDX 9 1 10 2 11 3 28 4 29 5 8 6 4 7 5 8 30 9 6 10 7 11 2 12 1 13
REMARK SMILES IDX 3 14 12 15 13 16 14 19 15 20 16 21 20 22 17 23 19 24 18 25
REMARK SMILES IDX 21 26 23 27 22 28 24 29 25 30 26 31 27 32
REMARK H PARENT 13 17 13 18
ROOT
ATOM     1   N2  UNL     1      -0.944   1.698  -1.485  1.00  0.00    -0.181 N   
ATOM     2   C8  UNL     1      -0.986   1.276  -0.169  1.00  0.00     0.135 A   
ATOM     3   C9  UNL     1       0.143   0.505  -0.001  1.00  0.00     0.128 A   
ATOM     4   N4  UNL     1       0.809   0.427  -1.193  1.00  0.00    -0.131 NA  
ATOM     5   N5  UNL     1       0.136   1.133  -2.086  1.00  0.00    -0.071 NA  
ENDROOT
BRANCH   1   6
ATOM     6   C7  UNL     1      -1.827   2.559  -2.178  1.00  0.00     0.059 A   
ATOM     7   C3  UNL     1      -3.794   4.020  -2.195  1.00  0.00     0.030 A   
ATOM     8   C4  UNL     1      -3.530   4.306  -3.540  1.00  0.00     0.023 A   
ATOM     9   C23 UNL     1      -2.928   3.136  -1.527  1.00  0.00     0.049 A   
ATOM     10  C5  UNL     1      -2.444   3.727  -4.202  1.00  0.00     0.004 A   
ATOM     11  C6  UNL     1      -1.592   2.855  -3.525  1.00  0.00     0.026 A   
BRANCH   7  12
ATOM     12  N1  UNL     1      -4.868   4.574  -1.474  1.00  0.00    -0.337 N   
ATOM     13  C1  UNL     1      -5.346   5.889  -1.914  1.00  0.00     0.129 C   
ATOM     14  C2  UNL     1      -5.944   3.602  -1.249  1.00  0.00     0.129 C   
ENDBRANCH   7  12
ENDBRANCH   1   6
BRANCH   3  15
ATOM     15  C10 UNL     1       0.670  -0.249   1.186  1.00  0.00     0.120 C   
BRANCH  15  16
ATOM     16  N3  UNL     1       1.452  -1.443   0.686  1.00  0.00     0.250 N   
ATOM     17  H12 UNL     1       2.118  -1.798   1.376  1.00  0.00     0.199 HD  
ATOM     18  H13 UNL     1       2.021  -1.111  -0.108  1.00  0.00     0.199 HD  
BRANCH  16  19
ATOM     19  C11 UNL     1       0.636  -2.585   0.187  1.00  0.00     0.164 C   
BRANCH  19  20
ATOM     20  C12 UNL     1       1.531  -3.654  -0.373  1.00  0.00    -0.002 A   
ATOM     21  C13 UNL     1       1.916  -3.613  -1.736  1.00  0.00     0.012 A   
ATOM     22  C17 UNL     1       2.044  -4.661   0.463  1.00  0.00     0.045 A   
ATOM     23  C14 UNL     1       2.789  -4.571  -2.263  1.00  0.00     0.037 A   
ATOM     24  C16 UNL     1       2.908  -5.585  -0.088  1.00  0.00     0.109 A   
ATOM     25  C15 UNL     1       3.269  -5.542  -1.413  1.00  0.00     0.108 A   
ATOM     26  O1  UNL     1       3.498  -6.611   0.578  1.00  0.00    -0.316 OA  
ATOM     27  O2  UNL     1       4.126  -6.541  -1.748  1.00  0.00    -0.316 OA  
ATOM     28  C18 UNL     1       4.269  -7.220  -0.483  1.00  0.00     0.337 C   
ENDBRANCH  19  20
ENDBRANCH  16  19
ENDBRANCH  15  16
BRANCH  15  29
ATOM     29  C19 UNL     1       1.557   0.610   2.155  1.00  0.00     0.010 C   
ATOM     30  C20 UNL     1       0.771   1.845   2.655  1.00  0.00     0.017 C   
ATOM     31  C21 UNL     1       1.935  -0.212   3.411  1.00  0.00     0.017 C   
ATOM     32  C22 UNL     1       2.856   1.102   1.487  1.00  0.00     0.017 C   
ENDBRANCH  15  29
ENDBRANCH   3  15
TORSDOF 7
