REMARK SMILES CC(C)(C)[C@H]([NH2+]Cc1ccc2c(c1)OCO2)c1cn(Cc2ccc([S+]([O-])[O-])cc2)nn1
REMARK SMILES IDX 17 1 18 2 19 3 30 4 31 5 5 7 2 8 1 9 3 10 4 11 6 12 7 15
REMARK SMILES IDX 8 16 9 17 13 18 10 19 12 20 11 21 14 22 16 23 15 24 20 25
REMARK SMILES IDX 21 26 22 27 29 28 23 29 28 30 24 31 25 32 26 33 27 34
REMARK H PARENT 18 6 6 13 6 14
ROOT
ATOM     1   C14 UNL     1       0.178  -1.142  -1.298  1.00  0.00     0.127 A   
ATOM     2   C15 UNL     1       1.402  -0.538  -1.064  1.00  0.00     0.046 A   
ATOM     3   N2  UNL     1       1.847  -0.212  -2.329  1.00  0.00    -0.208 N   
ATOM     4   N3  UNL     1       1.157  -0.917  -3.248  1.00  0.00    -0.076 NA  
ATOM     5   N4  UNL     1       0.114  -1.454  -2.632  1.00  0.00    -0.132 NA  
ATOM     6   H20 UNL     1       1.857  -0.119  -0.178  1.00  0.00     0.083 HD  
ENDROOT
BRANCH   1   7
ATOM     7   C5  UNL     1      -0.963  -1.385  -0.328  1.00  0.00     0.120 C   
BRANCH   7   8
ATOM     8   C2  UNL     1      -2.317  -1.906  -0.946  1.00  0.00     0.010 C   
ATOM     9   C1  UNL     1      -2.904  -0.967  -2.019  1.00  0.00     0.017 C   
ATOM     10  C3  UNL     1      -3.392  -2.086   0.154  1.00  0.00     0.017 C   
ATOM     11  C4  UNL     1      -2.114  -3.307  -1.574  1.00  0.00     0.017 C   
ENDBRANCH   7   8
BRANCH   7  12
ATOM     12  N1  UNL     1      -1.198  -0.173   0.535  1.00  0.00     0.250 N   
ATOM     13  H11 UNL     1      -0.537   0.581   0.310  1.00  0.00     0.199 HD  
ATOM     14  H12 UNL     1      -2.068   0.359   0.292  1.00  0.00     0.199 HD  
BRANCH  12  15
ATOM     15  C6  UNL     1      -1.175  -0.324   2.010  1.00  0.00     0.164 C   
BRANCH  15  16
ATOM     16  C7  UNL     1       0.217  -0.530   2.553  1.00  0.00    -0.002 A   
ATOM     17  C8  UNL     1       0.691  -1.826   2.866  1.00  0.00     0.012 A   
ATOM     18  C12 UNL     1       1.072   0.575   2.717  1.00  0.00     0.045 A   
ATOM     19  C9  UNL     1       1.998  -2.024   3.322  1.00  0.00     0.037 A   
ATOM     20  C11 UNL     1       2.355   0.347   3.165  1.00  0.00     0.109 A   
ATOM     21  C10 UNL     1       2.806  -0.917   3.459  1.00  0.00     0.108 A   
ATOM     22  O1  UNL     1       3.308   1.296   3.363  1.00  0.00    -0.316 OA  
ATOM     23  O2  UNL     1       4.097  -0.922   3.883  1.00  0.00    -0.316 OA  
ATOM     24  C13 UNL     1       4.393   0.490   3.868  1.00  0.00     0.337 C   
ENDBRANCH  15  16
ENDBRANCH  12  15
ENDBRANCH   7  12
ENDBRANCH   1   7
BRANCH   3  25
ATOM     25  C16 UNL     1       2.469   1.065  -2.707  1.00  0.00     0.169 C   
BRANCH  25  26
ATOM     26  C17 UNL     1       1.557   2.168  -2.191  1.00  0.00    -0.028 A   
ATOM     27  C18 UNL     1       0.283   2.308  -2.772  1.00  0.00     0.010 A   
ATOM     28  C22 UNL     1       1.818   2.750  -0.942  1.00  0.00     0.010 A   
ATOM     29  C19 UNL     1      -0.776   2.776  -2.001  1.00  0.00     0.063 A   
ATOM     30  C21 UNL     1       0.756   3.230  -0.180  1.00  0.00     0.063 A   
ATOM     31  C20 UNL     1      -0.548   3.131  -0.672  1.00  0.00     0.167 A   
BRANCH  31  32
ATOM     32  S1  UNL     1      -1.959   3.110   0.492  1.00  0.00     0.041 S   
ATOM     33  O3  UNL     1      -1.345   2.995   1.869  1.00  0.00    -0.672 OA  
ATOM     34  O4  UNL     1      -2.725   1.849   0.136  1.00  0.00    -0.672 OA  
ENDBRANCH  31  32
ENDBRANCH  25  26
ENDBRANCH   3  25
TORSDOF 8
