REMARK SMILES CC(C)[C@H]([NH2+]Cc1ccc2c(c1)OCO2)c1cn(CCCc2ccc(N)cc2)nn1
REMARK SMILES IDX 19 1 18 2 16 3 17 4 30 5 29 6 4 8 2 9 1 10 3 11 5 12 6 15
REMARK SMILES IDX 7 16 8 17 12 18 9 19 11 20 10 21 13 22 15 23 14 24 20 25
REMARK SMILES IDX 21 26 22 27 23 28 28 29 24 30 27 31 25 32 26 33
REMARK H PARENT 17 7 5 13 5 14 26 34 26 35
ROOT
ATOM     1   C15 UNL     1      -4.216  -2.149  -1.206  1.00  0.00     0.134 C   
ENDROOT
BRANCH   1   2
ATOM     2   N2  UNL     1      -3.011  -1.349  -1.231  1.00  0.00    -0.212 N   
ATOM     3   C13 UNL     1      -1.025  -0.518  -0.972  1.00  0.00     0.127 A   
ATOM     4   C14 UNL     1      -1.777  -1.645  -0.720  1.00  0.00     0.045 A   
ATOM     5   N5  UNL     1      -1.806   0.382  -1.662  1.00  0.00    -0.132 NA  
ATOM     6   N4  UNL     1      -3.005  -0.147  -1.833  1.00  0.00    -0.076 NA  
ATOM     7   H18 UNL     1      -1.583  -2.578  -0.211  1.00  0.00     0.083 HD  
BRANCH   3   8
ATOM     8   C4  UNL     1       0.366  -0.077  -0.623  1.00  0.00     0.117 C   
BRANCH   8   9
ATOM     9   C2  UNL     1       1.282  -1.057   0.147  1.00  0.00     0.037 C   
ATOM     10  C1  UNL     1       1.564  -2.333  -0.657  1.00  0.00     0.014 C   
ATOM     11  C3  UNL     1       0.825  -1.407   1.563  1.00  0.00     0.014 C   
ENDBRANCH   8   9
BRANCH   8  12
ATOM     12  N1  UNL     1       0.250   1.245   0.098  1.00  0.00     0.249 N   
ATOM     13  H9  UNL     1      -0.476   1.764  -0.416  1.00  0.00     0.199 HD  
ATOM     14  H10 UNL     1      -0.182   1.125   1.032  1.00  0.00     0.199 HD  
BRANCH  12  15
ATOM     15  C5  UNL     1       1.443   2.113   0.225  1.00  0.00     0.164 C   
BRANCH  15  16
ATOM     16  C6  UNL     1       2.058   2.497  -1.091  1.00  0.00    -0.002 A   
ATOM     17  C7  UNL     1       1.374   3.366  -1.976  1.00  0.00     0.012 A   
ATOM     18  C11 UNL     1       3.307   1.973  -1.466  1.00  0.00     0.045 A   
ATOM     19  C8  UNL     1       1.923   3.707  -3.217  1.00  0.00     0.037 A   
ATOM     20  C10 UNL     1       3.819   2.328  -2.697  1.00  0.00     0.109 A   
ATOM     21  C9  UNL     1       3.147   3.170  -3.548  1.00  0.00     0.108 A   
ATOM     22  O1  UNL     1       5.004   1.906  -3.211  1.00  0.00    -0.316 OA  
ATOM     23  O2  UNL     1       3.826   3.387  -4.705  1.00  0.00    -0.316 OA  
ATOM     24  C12 UNL     1       5.013   2.597  -4.481  1.00  0.00     0.337 C   
ENDBRANCH  15  16
ENDBRANCH  12  15
ENDBRANCH   8  12
ENDBRANCH   3   8
ENDBRANCH   1   2
BRANCH   1  25
ATOM     25  C16 UNL     1      -4.715  -2.543   0.190  1.00  0.00     0.026 C   
BRANCH  25  26
ATOM     26  C17 UNL     1      -5.272  -1.383   1.030  1.00  0.00     0.037 C   
BRANCH  26  27
ATOM     27  C18 UNL     1      -4.213  -0.454   1.571  1.00  0.00    -0.048 A   
ATOM     28  C19 UNL     1      -3.280  -0.904   2.512  1.00  0.00     0.005 A   
ATOM     29  C23 UNL     1      -4.121   0.863   1.107  1.00  0.00     0.005 A   
ATOM     30  C20 UNL     1      -2.244  -0.070   2.937  1.00  0.00     0.023 A   
ATOM     31  C22 UNL     1      -3.082   1.694   1.532  1.00  0.00     0.023 A   
ATOM     32  C21 UNL     1      -2.148   1.240   2.464  1.00  0.00     0.023 A   
BRANCH  32  33
ATOM     33  N3  UNL     1      -0.972   1.993   2.705  1.00  0.00    -0.358 N   
ATOM     34  H27 UNL     1      -1.209   2.991   2.711  1.00  0.00     0.143 HD  
ATOM     35  H28 UNL     1      -0.604   1.762   3.634  1.00  0.00     0.143 HD  
ENDBRANCH  32  33
ENDBRANCH  26  27
ENDBRANCH  25  26
ENDBRANCH   1  25
TORSDOF 10
