REMARK SMILES CC(C)C[C@H]([NH2+]Cc1ccc2c(c1)OCO2)c1cn(-c2ccccc2S(C)(=O)=O)nn1
REMARK SMILES IDX 17 1 18 2 19 3 30 4 31 5 5 6 4 7 2 8 1 9 3 10 6 11 7 14 8 15
REMARK SMILES IDX 9 16 13 17 10 18 12 19 11 20 14 21 16 22 15 23 20 24 21 25
REMARK SMILES IDX 25 26 22 27 24 28 23 29 26 30 27 31 28 32 29 33
REMARK H PARENT 6 12 6 13
ROOT
ATOM     1   C14 UNL     1       0.945   1.482  -1.044  1.00  0.00     0.127 A   
ATOM     2   C15 UNL     1       0.193   1.605   0.102  1.00  0.00     0.135 A   
ATOM     3   N2  UNL     1       1.109   1.926   1.077  1.00  0.00    -0.169 N   
ATOM     4   N3  UNL     1       2.266   2.301   0.476  1.00  0.00    -0.071 NA  
ATOM     5   N4  UNL     1       2.204   1.949  -0.800  1.00  0.00    -0.131 NA  
ENDROOT
BRANCH   1   6
ATOM     6   C5  UNL     1       0.622   0.798  -2.332  1.00  0.00     0.114 C   
BRANCH   6   7
ATOM     7   C4  UNL     1      -0.804   1.113  -2.825  1.00  0.00     0.064 C   
BRANCH   7   8
ATOM     8   C2  UNL     1      -1.196   0.533  -4.202  1.00  0.00    -0.012 C   
ATOM     9   C1  UNL     1      -2.638   0.929  -4.534  1.00  0.00     0.007 C   
ATOM     10  C3  UNL     1      -0.265   0.998  -5.323  1.00  0.00     0.007 C   
ENDBRANCH   7   8
ENDBRANCH   6   7
BRANCH   6  11
ATOM     11  N1  UNL     1       0.769  -0.692  -2.147  1.00  0.00     0.249 N   
ATOM     12  H11 UNL     1       0.360  -1.206  -2.932  1.00  0.00     0.199 HD  
ATOM     13  H12 UNL     1       0.249  -0.980  -1.305  1.00  0.00     0.199 HD  
BRANCH  11  14
ATOM     14  C6  UNL     1       2.175  -1.166  -1.971  1.00  0.00     0.164 C   
BRANCH  14  15
ATOM     15  C7  UNL     1       2.218  -2.669  -1.949  1.00  0.00    -0.002 A   
ATOM     16  C8  UNL     1       2.147  -3.364  -0.719  1.00  0.00     0.012 A   
ATOM     17  C12 UNL     1       2.269  -3.393  -3.152  1.00  0.00     0.045 A   
ATOM     18  C9  UNL     1       2.138  -4.763  -0.682  1.00  0.00     0.037 A   
ATOM     19  C11 UNL     1       2.256  -4.771  -3.081  1.00  0.00     0.109 A   
ATOM     20  C10 UNL     1       2.193  -5.437  -1.882  1.00  0.00     0.108 A   
ATOM     21  O1  UNL     1       2.296  -5.617  -4.144  1.00  0.00    -0.316 OA  
ATOM     22  O2  UNL     1       2.188  -6.786  -2.037  1.00  0.00    -0.316 OA  
ATOM     23  C13 UNL     1       2.283  -6.899  -3.474  1.00  0.00     0.337 C   
ENDBRANCH  14  15
ENDBRANCH  11  14
ENDBRANCH   6  11
ENDBRANCH   1   6
BRANCH   3  24
ATOM     24  C16 UNL     1       0.982   1.878   2.485  1.00  0.00     0.178 A   
ATOM     25  C17 UNL     1       1.704   2.833   3.223  1.00  0.00     0.039 A   
ATOM     26  C21 UNL     1       0.172   0.946   3.166  1.00  0.00     0.330 A   
ATOM     27  C18 UNL     1       1.558   2.914   4.607  1.00  0.00     0.003 A   
ATOM     28  C20 UNL     1       0.015   1.057   4.557  1.00  0.00     0.136 A   
ATOM     29  C19 UNL     1       0.701   2.043   5.269  1.00  0.00     0.013 A   
BRANCH  26  30
ATOM     30  S1  UNL     1      -0.495  -0.509   2.366  1.00  0.00    -0.237 S   
ATOM     31  C22 UNL     1      -0.579  -1.801   3.576  1.00  0.00     0.674 C   
ATOM     32  O3  UNL     1       0.464  -0.943   1.359  1.00  0.00    -0.517 OA  
ATOM     33  O4  UNL     1      -1.843  -0.167   1.958  1.00  0.00    -0.517 OA  
ENDBRANCH  26  30
ENDBRANCH   3  24
TORSDOF 8
