REMARK SMILES Cc1n[nH]nc1Cn1cc([C@H](CC(C)C)[NH2+]Cc2ccc3c(c2)OCO3)nn1
REMARK SMILES IDX 8 1 9 2 10 3 27 4 28 5 7 7 6 8 2 9 3 10 4 11 5 12 1 13 11 15
REMARK SMILES IDX 12 16 13 17 14 18 15 19 16 20 17 23 18 24 19 25 23 26 20 27
REMARK SMILES IDX 22 28 21 29 24 30 26 31 25 32
REMARK H PARENT 9 6 4 14 16 21 16 22
ROOT
ATOM     1   N4  UNL     1      -2.276   0.365   1.234  1.00  0.00    -0.206 N   
ATOM     2   C5  UNL     1      -1.438  -0.622   0.793  1.00  0.00     0.046 A   
ATOM     3   C6  UNL     1      -0.191  -0.210   1.205  1.00  0.00     0.127 A   
ATOM     4   N6  UNL     1      -0.315   0.950   1.925  1.00  0.00    -0.132 NA  
ATOM     5   N7  UNL     1      -1.593   1.298   1.929  1.00  0.00    -0.076 NA  
ATOM     6   H7  UNL     1      -1.788  -1.443   0.180  1.00  0.00     0.083 HD  
ENDROOT
BRANCH   1   7
ATOM     7   C4  UNL     1      -3.676   0.558   0.898  1.00  0.00     0.193 C   
BRANCH   7   8
ATOM     8   C3  UNL     1      -3.760   1.057  -0.498  1.00  0.00     0.102 A   
ATOM     9   C2  UNL     1      -3.733   2.390  -0.977  1.00  0.00     0.082 A   
ATOM     10  N1  UNL     1      -3.737   2.376  -2.315  1.00  0.00    -0.170 NA  
ATOM     11  N2  UNL     1      -3.818   1.065  -2.584  1.00  0.00    -0.159 N   
ATOM     12  N3  UNL     1      -3.803   0.212  -1.542  1.00  0.00    -0.168 NA  
ATOM     13  C1  UNL     1      -3.665   3.660  -0.220  1.00  0.00     0.071 C   
ATOM     14  H4  UNL     1      -3.862   0.726  -3.544  1.00  0.00     0.199 HD  
ENDBRANCH   7   8
ENDBRANCH   1   7
BRANCH   3  15
ATOM     15  C7  UNL     1       1.158  -0.755   0.888  1.00  0.00     0.114 C   
BRANCH  15  16
ATOM     16  C8  UNL     1       1.800  -1.488   2.081  1.00  0.00     0.064 C   
BRANCH  16  17
ATOM     17  C9  UNL     1       1.041  -2.743   2.564  1.00  0.00    -0.012 C   
ATOM     18  C10 UNL     1       0.933  -3.814   1.477  1.00  0.00     0.007 C   
ATOM     19  C11 UNL     1       1.740  -3.327   3.795  1.00  0.00     0.007 C   
ENDBRANCH  16  17
ENDBRANCH  15  16
BRANCH  15  20
ATOM     20  N5  UNL     1       2.110   0.362   0.497  1.00  0.00     0.249 N   
ATOM     21  H18 UNL     1       2.178   0.986   1.312  1.00  0.00     0.199 HD  
ATOM     22  H19 UNL     1       3.042  -0.026   0.329  1.00  0.00     0.199 HD  
BRANCH  20  23
ATOM     23  C12 UNL     1       1.712   1.215  -0.667  1.00  0.00     0.164 C   
BRANCH  23  24
ATOM     24  C13 UNL     1       1.436   0.446  -1.930  1.00  0.00    -0.002 A   
ATOM     25  C14 UNL     1       2.474  -0.246  -2.598  1.00  0.00     0.012 A   
ATOM     26  C18 UNL     1       0.130   0.403  -2.451  1.00  0.00     0.045 A   
ATOM     27  C15 UNL     1       2.213  -0.982  -3.759  1.00  0.00     0.037 A   
ATOM     28  C17 UNL     1      -0.094  -0.329  -3.598  1.00  0.00     0.109 A   
ATOM     29  C16 UNL     1       0.919  -1.005  -4.231  1.00  0.00     0.108 A   
ATOM     30  O1  UNL     1      -1.291  -0.474  -4.227  1.00  0.00    -0.316 OA  
ATOM     31  O2  UNL     1       0.489  -1.664  -5.338  1.00  0.00    -0.316 OA  
ATOM     32  C19 UNL     1      -0.909  -1.309  -5.346  1.00  0.00     0.337 C   
ENDBRANCH  23  24
ENDBRANCH  20  23
ENDBRANCH  15  20
ENDBRANCH   3  15
TORSDOF 8
