REMARK SMILES CC(C)C[C@H]([NH2+]Cc1ccc2c(c1)OCO2)c1cn(Cc2ccc(N([O-])[O-])cc2)nn1
REMARK SMILES IDX 17 1 18 2 19 3 30 4 31 5 5 7 4 8 2 9 1 10 3 11 6 12 7 15
REMARK SMILES IDX 8 16 9 17 13 18 10 19 12 20 11 21 14 22 16 23 15 24 20 25
REMARK SMILES IDX 21 26 22 27 29 28 23 29 28 30 24 31 25 32 26 33 27 34
REMARK H PARENT 18 6 6 13 6 14
ROOT
ATOM     1   C14 UNL     1       1.356  -0.246  -1.015  1.00  0.00     0.127 A   
ATOM     2   C15 UNL     1       1.581  -0.831   0.211  1.00  0.00     0.046 A   
ATOM     3   N2  UNL     1       2.544  -0.043   0.782  1.00  0.00    -0.208 N   
ATOM     4   N4  UNL     1       2.927   0.932  -0.066  1.00  0.00    -0.076 NA  
ATOM     5   N5  UNL     1       2.218   0.806  -1.177  1.00  0.00    -0.132 NA  
ATOM     6   H20 UNL     1       1.118  -1.655   0.737  1.00  0.00     0.083 HD  
ENDROOT
BRANCH   1   7
ATOM     7   C5  UNL     1       0.318  -0.537  -2.049  1.00  0.00     0.114 C   
BRANCH   7   8
ATOM     8   C4  UNL     1       0.875  -1.443  -3.167  1.00  0.00     0.064 C   
BRANCH   8   9
ATOM     9   C2  UNL     1      -0.137  -2.465  -3.733  1.00  0.00    -0.012 C   
ATOM     10  C1  UNL     1       0.558  -3.357  -4.766  1.00  0.00     0.007 C   
ATOM     11  C3  UNL     1      -1.373  -1.825  -4.361  1.00  0.00     0.007 C   
ENDBRANCH   8   9
ENDBRANCH   7   8
BRANCH   7  12
ATOM     12  N1  UNL     1      -0.194   0.743  -2.678  1.00  0.00     0.249 N   
ATOM     13  H11 UNL     1       0.620   1.199  -3.111  1.00  0.00     0.199 HD  
ATOM     14  H12 UNL     1      -0.855   0.531  -3.428  1.00  0.00     0.199 HD  
BRANCH  12  15
ATOM     15  C6  UNL     1      -0.808   1.756  -1.763  1.00  0.00     0.164 C   
BRANCH  15  16
ATOM     16  C7  UNL     1      -1.919   1.221  -0.904  1.00  0.00    -0.002 A   
ATOM     17  C8  UNL     1      -3.171   0.880  -1.466  1.00  0.00     0.012 A   
ATOM     18  C12 UNL     1      -1.707   1.039   0.475  1.00  0.00     0.045 A   
ATOM     19  C9  UNL     1      -4.198   0.362  -0.668  1.00  0.00     0.037 A   
ATOM     20  C11 UNL     1      -2.739   0.526   1.232  1.00  0.00     0.109 A   
ATOM     21  C10 UNL     1      -3.950   0.197   0.678  1.00  0.00     0.108 A   
ATOM     22  O1  UNL     1      -2.696   0.287   2.569  1.00  0.00    -0.316 OA  
ATOM     23  O2  UNL     1      -4.825  -0.286   1.597  1.00  0.00    -0.316 OA  
ATOM     24  C13 UNL     1      -4.042  -0.189   2.807  1.00  0.00     0.337 C   
ENDBRANCH  15  16
ENDBRANCH  12  15
ENDBRANCH   7  12
ENDBRANCH   1   7
BRANCH   3  25
ATOM     25  C16 UNL     1       3.038  -0.083   2.150  1.00  0.00     0.169 C   
BRANCH  25  26
ATOM     26  C17 UNL     1       1.927   0.277   3.111  1.00  0.00    -0.028 A   
ATOM     27  C18 UNL     1       1.535   1.616   3.269  1.00  0.00     0.007 A   
ATOM     28  C22 UNL     1       1.226  -0.728   3.798  1.00  0.00     0.007 A   
ATOM     29  C19 UNL     1       0.444   1.947   4.077  1.00  0.00     0.031 A   
ATOM     30  C21 UNL     1       0.132  -0.406   4.604  1.00  0.00     0.031 A   
ATOM     31  C20 UNL     1      -0.262   0.931   4.731  1.00  0.00     0.118 A   
BRANCH  31  32
ATOM     32  N3  UNL     1      -1.451   1.266   5.524  1.00  0.00     0.092 N   
ATOM     33  O3  UNL     1      -2.178   0.331   5.893  1.00  0.00    -0.138 OA  
ATOM     34  O4  UNL     1      -1.669   2.463   5.757  1.00  0.00    -0.138 OA  
ENDBRANCH  31  32
ENDBRANCH  25  26
ENDBRANCH   3  25
TORSDOF 9
