REMARK SMILES CC(C)(C)[C@H]([NH2+]Cc1ccc2c(c1)OCO2)c1cn(-c2ccc(F)c(CO)c2)nn1
REMARK SMILES IDX 17 1 18 2 19 3 29 4 30 5 5 6 2 7 1 8 3 9 4 10 6 11 7 14 8 15
REMARK SMILES IDX 9 16 13 17 10 18 12 19 11 20 14 21 16 22 15 23 20 24 21 25
REMARK SMILES IDX 28 26 22 27 25 28 23 29 24 30 26 31 27 32
REMARK H PARENT 6 12 6 13 27 33
ROOT
ATOM     1   C14 UNL     1      -0.659  -0.795   0.668  1.00  0.00     0.128 A   
ATOM     2   C15 UNL     1      -1.354  -1.595  -0.210  1.00  0.00     0.135 A   
ATOM     3   N2  UNL     1      -2.611  -1.028  -0.298  1.00  0.00    -0.181 N   
ATOM     4   N3  UNL     1      -2.635   0.095   0.467  1.00  0.00    -0.071 NA  
ATOM     5   N4  UNL     1      -1.463   0.238   1.061  1.00  0.00    -0.131 NA  
ENDROOT
BRANCH   1   6
ATOM     6   C5  UNL     1       0.760  -0.851   1.156  1.00  0.00     0.120 C   
BRANCH   6   7
ATOM     7   C2  UNL     1       0.954  -1.686   2.470  1.00  0.00     0.010 C   
ATOM     8   C1  UNL     1       0.423  -3.125   2.276  1.00  0.00     0.017 C   
ATOM     9   C3  UNL     1       0.232  -1.063   3.682  1.00  0.00     0.017 C   
ATOM     10  C4  UNL     1       2.458  -1.808   2.813  1.00  0.00     0.017 C   
ENDBRANCH   6   7
BRANCH   6  11
ATOM     11  N1  UNL     1       1.261   0.561   1.353  1.00  0.00     0.250 N   
ATOM     12  H11 UNL     1       0.515   1.074   1.849  1.00  0.00     0.199 HD  
ATOM     13  H12 UNL     1       2.084   0.606   1.960  1.00  0.00     0.199 HD  
BRANCH  11  14
ATOM     14  C6  UNL     1       1.555   1.318   0.104  1.00  0.00     0.164 C   
BRANCH  14  15
ATOM     15  C7  UNL     1       1.976   2.723   0.431  1.00  0.00    -0.002 A   
ATOM     16  C8  UNL     1       3.347   3.052   0.555  1.00  0.00     0.012 A   
ATOM     17  C12 UNL     1       1.002   3.708   0.671  1.00  0.00     0.045 A   
ATOM     18  C9  UNL     1       3.745   4.348   0.903  1.00  0.00     0.037 A   
ATOM     19  C11 UNL     1       1.429   4.974   1.014  1.00  0.00     0.109 A   
ATOM     20  C10 UNL     1       2.761   5.285   1.126  1.00  0.00     0.108 A   
ATOM     21  O1  UNL     1       0.623   6.035   1.278  1.00  0.00    -0.316 OA  
ATOM     22  O2  UNL     1       2.962   6.582   1.475  1.00  0.00    -0.316 OA  
ATOM     23  C13 UNL     1       1.603   7.063   1.551  1.00  0.00     0.337 C   
ENDBRANCH  14  15
ENDBRANCH  11  14
ENDBRANCH   6  11
ENDBRANCH   1   6
BRANCH   3  24
ATOM     24  C16 UNL     1      -3.737  -1.455  -1.046  1.00  0.00     0.058 A   
ATOM     25  C17 UNL     1      -4.926  -0.709  -0.996  1.00  0.00     0.029 A   
ATOM     26  C22 UNL     1      -3.678  -2.615  -1.836  1.00  0.00     0.035 A   
ATOM     27  C18 UNL     1      -6.039  -1.121  -1.730  1.00  0.00     0.041 A   
ATOM     28  C20 UNL     1      -4.795  -3.031  -2.581  1.00  0.00     0.015 A   
ATOM     29  C19 UNL     1      -5.965  -2.270  -2.511  1.00  0.00     0.128 A   
ATOM     30  F1  UNL     1      -7.045  -2.650  -3.207  1.00  0.00    -0.207 F   
BRANCH  28  31
ATOM     31  C21 UNL     1      -4.790  -4.268  -3.438  1.00  0.00     0.194 C   
BRANCH  31  32
ATOM     32  O3  UNL     1      -3.498  -4.866  -3.478  1.00  0.00    -0.392 OA  
ATOM     33  H25 UNL     1      -3.583  -5.650  -4.050  1.00  0.00     0.211 HD  
ENDBRANCH  31  32
ENDBRANCH  28  31
ENDBRANCH   3  24
TORSDOF 8
