REMARK SMILES CC(C)(C)[C@H]([NH2+]Cc1ccc2c(c1)OCO2)c1cn(-c2ccc(Cl)cc2O)nn1
REMARK SMILES IDX 17 1 18 2 19 3 28 4 29 5 5 6 2 7 1 8 3 9 4 10 6 11 7 14 8 15
REMARK SMILES IDX 9 16 13 17 10 18 12 19 11 20 14 21 16 22 15 23 20 24 21 25
REMARK SMILES IDX 26 26 22 27 25 28 23 29 24 30 27 31
REMARK H PARENT 6 12 6 13 27 32
ROOT
ATOM     1   C14 UNL     1      -0.490   0.167  -0.223  1.00  0.00     0.128 A   
ATOM     2   C15 UNL     1      -1.718   0.758  -0.413  1.00  0.00     0.135 A   
ATOM     3   N2  UNL     1      -2.402   0.585   0.776  1.00  0.00    -0.178 N   
ATOM     4   N3  UNL     1      -1.564  -0.040   1.654  1.00  0.00    -0.071 NA  
ATOM     5   N4  UNL     1      -0.417  -0.306   1.054  1.00  0.00    -0.131 NA  
ENDROOT
BRANCH   1   6
ATOM     6   C5  UNL     1       0.702   0.050  -1.126  1.00  0.00     0.120 C   
BRANCH   6   7
ATOM     7   C2  UNL     1       0.716  -1.250  -2.006  1.00  0.00     0.010 C   
ATOM     8   C1  UNL     1       1.897  -1.211  -3.004  1.00  0.00     0.017 C   
ATOM     9   C3  UNL     1       0.837  -2.536  -1.163  1.00  0.00     0.017 C   
ATOM     10  C4  UNL     1      -0.577  -1.341  -2.848  1.00  0.00     0.017 C   
ENDBRANCH   6   7
BRANCH   6  11
ATOM     11  N1  UNL     1       1.958   0.129  -0.287  1.00  0.00     0.250 N   
ATOM     12  H11 UNL     1       1.810  -0.488   0.526  1.00  0.00     0.199 HD  
ATOM     13  H12 UNL     1       2.779  -0.238  -0.774  1.00  0.00     0.199 HD  
BRANCH  11  14
ATOM     14  C6  UNL     1       2.289   1.481   0.244  1.00  0.00     0.164 C   
BRANCH  14  15
ATOM     15  C7  UNL     1       3.528   1.419   1.091  1.00  0.00    -0.002 A   
ATOM     16  C8  UNL     1       4.799   1.677   0.525  1.00  0.00     0.012 A   
ATOM     17  C12 UNL     1       3.434   1.048   2.445  1.00  0.00     0.045 A   
ATOM     18  C9  UNL     1       5.962   1.578   1.297  1.00  0.00     0.037 A   
ATOM     19  C11 UNL     1       4.600   0.962   3.177  1.00  0.00     0.109 A   
ATOM     20  C10 UNL     1       5.829   1.218   2.619  1.00  0.00     0.108 A   
ATOM     21  O1  UNL     1       4.686   0.619   4.488  1.00  0.00    -0.316 OA  
ATOM     22  O2  UNL     1       6.843   1.072   3.511  1.00  0.00    -0.316 OA  
ATOM     23  C13 UNL     1       6.113   0.716   4.705  1.00  0.00     0.337 C   
ENDBRANCH  14  15
ENDBRANCH  11  14
ENDBRANCH   6  11
ENDBRANCH   1   6
BRANCH   3  24
ATOM     24  C16 UNL     1      -3.720   0.958   1.157  1.00  0.00     0.088 A   
ATOM     25  C17 UNL     1      -4.143   0.655   2.468  1.00  0.00     0.030 A   
ATOM     26  C21 UNL     1      -4.619   1.604   0.295  1.00  0.00     0.096 A   
ATOM     27  C18 UNL     1      -5.428   0.991   2.903  1.00  0.00     0.023 A   
ATOM     28  C20 UNL     1      -5.907   1.939   0.734  1.00  0.00     0.055 A   
ATOM     29  C19 UNL     1      -6.304   1.631   2.034  1.00  0.00     0.043 A   
ATOM     30  CL1 UNL     1      -7.886   2.046   2.564  1.00  0.00    -0.084 Cl  
BRANCH  26  31
ATOM     31  O3  UNL     1      -4.279   1.926  -0.988  1.00  0.00    -0.359 OA  
ATOM     32  H24 UNL     1      -5.044   2.337  -1.432  1.00  0.00     0.218 HD  
ENDBRANCH  26  31
ENDBRANCH   3  24
TORSDOF 7
