REMARK SMILES Cc1cccc2c1O[C@H](Cn1cc([C@@H]([NH2+]Cc3ccc4c(c3)OCO4)C3CCCC3)nn1)C2
REMARK SMILES IDX 11 1 12 2 13 3 31 4 32 5 10 7 9 8 2 9 3 10 7 11 4 12 6 13
REMARK SMILES IDX 8 14 5 15 33 16 1 17 14 18 15 19 16 22 17 23 18 24 22 25
REMARK SMILES IDX 19 26 21 27 20 28 23 29 25 30 24 31 26 32 27 33 30 34 28 35
REMARK SMILES IDX 29 36
REMARK H PARENT 12 6 15 20 15 21
ROOT
ATOM     1   N1  UNL     1      -1.658   0.843   2.733  1.00  0.00    -0.210 N   
ATOM     2   C10 UNL     1      -1.422  -0.343   2.095  1.00  0.00     0.045 A   
ATOM     3   C11 UNL     1      -0.611   0.006   1.039  1.00  0.00     0.127 A   
ATOM     4   N3  UNL     1      -0.457   1.370   1.022  1.00  0.00    -0.132 NA  
ATOM     5   N4  UNL     1      -1.123   1.871   2.049  1.00  0.00    -0.076 NA  
ATOM     6   H10 UNL     1      -1.789  -1.286   2.475  1.00  0.00     0.083 HD  
ENDROOT
BRANCH   1   7
ATOM     7   C9  UNL     1      -2.388   1.070   3.962  1.00  0.00     0.166 C   
BRANCH   7   8
ATOM     8   C8  UNL     1      -1.575   0.795   5.235  1.00  0.00     0.149 C   
ATOM     9   C2  UNL     1       0.802  -1.882   5.014  1.00  0.00    -0.020 A   
ATOM     10  C3  UNL     1       2.192  -1.782   4.866  1.00  0.00     0.006 A   
ATOM     11  C7  UNL     1       0.095  -0.698   5.153  1.00  0.00     0.082 A   
ATOM     12  C4  UNL     1       2.828  -0.529   4.846  1.00  0.00     0.001 A   
ATOM     13  C6  UNL     1       0.718   0.541   5.133  1.00  0.00    -0.015 A   
ATOM     14  O1  UNL     1      -1.266  -0.624   5.316  1.00  0.00    -0.340 OA  
ATOM     15  C5  UNL     1       2.088   0.646   4.981  1.00  0.00     0.006 A   
ATOM     16  C26 UNL     1      -0.279   1.610   5.366  1.00  0.00     0.072 C   
ATOM     17  C1  UNL     1       0.120  -3.212   5.083  1.00  0.00     0.047 C   
ENDBRANCH   7   8
ENDBRANCH   1   7
BRANCH   3  18
ATOM     18  C12 UNL     1       0.052  -0.828  -0.006  1.00  0.00     0.117 C   
BRANCH  18  19
ATOM     19  N2  UNL     1       0.324  -0.003  -1.236  1.00  0.00     0.249 N   
ATOM     20  H12 UNL     1       0.659   0.914  -0.905  1.00  0.00     0.199 HD  
ATOM     21  H13 UNL     1       1.081  -0.391  -1.807  1.00  0.00     0.199 HD  
BRANCH  19  22
ATOM     22  C13 UNL     1      -0.860   0.259  -2.099  1.00  0.00     0.164 C   
BRANCH  22  23
ATOM     23  C14 UNL     1      -0.479   1.132  -3.260  1.00  0.00    -0.002 A   
ATOM     24  C15 UNL     1      -0.153   0.561  -4.513  1.00  0.00     0.012 A   
ATOM     25  C19 UNL     1      -0.389   2.525  -3.089  1.00  0.00     0.045 A   
ATOM     26  C16 UNL     1       0.242   1.365  -5.588  1.00  0.00     0.037 A   
ATOM     27  C18 UNL     1       0.005   3.288  -4.169  1.00  0.00     0.109 A   
ATOM     28  C17 UNL     1       0.312   2.724  -5.383  1.00  0.00     0.108 A   
ATOM     29  O2  UNL     1       0.143   4.640  -4.174  1.00  0.00    -0.316 OA  
ATOM     30  O3  UNL     1       0.676   3.651  -6.307  1.00  0.00    -0.316 OA  
ATOM     31  C20 UNL     1       0.551   4.869  -5.542  1.00  0.00     0.337 C   
ENDBRANCH  22  23
ENDBRANCH  19  22
ENDBRANCH  18  19
BRANCH  18  32
ATOM     32  C21 UNL     1       1.361  -1.463   0.513  1.00  0.00     0.043 C   
ATOM     33  C22 UNL     1       1.904  -2.573  -0.405  1.00  0.00     0.010 C   
ATOM     34  C25 UNL     1       2.540  -0.492   0.729  1.00  0.00     0.010 C   
ATOM     35  C23 UNL     1       3.413  -2.504  -0.234  1.00  0.00     0.001 C   
ATOM     36  C24 UNL     1       3.675  -1.012  -0.145  1.00  0.00     0.001 C   
ENDBRANCH  18  32
ENDBRANCH   3  18
TORSDOF 7
