REMARK SMILES COc1ccccc1CCn1cc([C@H](CC(C)C)[NH2+]Cc2ccc3c(c2)OCO3)nn1
REMARK SMILES IDX 11 1 12 2 13 3 30 4 31 5 10 7 9 8 8 9 3 10 4 11 5 12 7 13
REMARK SMILES IDX 6 14 2 15 1 16 14 17 15 18 16 19 17 20 18 21 19 22 20 25
REMARK SMILES IDX 21 26 22 27 26 28 23 29 25 30 24 31 27 32 29 33 28 34
REMARK H PARENT 12 6 19 23 19 24
ROOT
ATOM     1   N1  UNL     1      -0.926  -3.208   1.041  1.00  0.00    -0.212 N   
ATOM     2   C10 UNL     1      -1.051  -2.648  -0.199  1.00  0.00     0.045 A   
ATOM     3   C11 UNL     1       0.192  -2.107  -0.438  1.00  0.00     0.127 A   
ATOM     4   N3  UNL     1       1.027  -2.411   0.606  1.00  0.00    -0.132 NA  
ATOM     5   N4  UNL     1       0.330  -3.086   1.505  1.00  0.00    -0.076 NA  
ATOM     6   H12 UNL     1      -1.992  -2.624  -0.732  1.00  0.00     0.083 HD  
ENDROOT
BRANCH   1   7
ATOM     7   C9  UNL     1      -1.962  -3.803   1.857  1.00  0.00     0.139 C   
BRANCH   7   8
ATOM     8   C8  UNL     1      -2.621  -2.796   2.800  1.00  0.00     0.059 C   
BRANCH   8   9
ATOM     9   C7  UNL     1      -3.455  -1.758   2.082  1.00  0.00    -0.016 A   
ATOM     10  C2  UNL     1      -3.003  -0.446   1.869  1.00  0.00     0.078 A   
ATOM     11  C3  UNL     1      -3.777   0.476   1.160  1.00  0.00     0.034 A   
ATOM     12  C4  UNL     1      -5.030   0.106   0.680  1.00  0.00     0.003 A   
ATOM     13  C6  UNL     1      -4.721  -2.112   1.591  1.00  0.00     0.006 A   
ATOM     14  C5  UNL     1      -5.503  -1.186   0.898  1.00  0.00     0.000 A   
BRANCH  10  15
ATOM     15  O1  UNL     1      -1.755  -0.065   2.287  1.00  0.00    -0.349 OA  
ATOM     16  C1  UNL     1      -1.858   0.648   3.524  1.00  0.00     0.203 C   
ENDBRANCH  10  15
ENDBRANCH   8   9
ENDBRANCH   7   8
ENDBRANCH   1   7
BRANCH   3  17
ATOM     17  C12 UNL     1       0.665  -1.207  -1.527  1.00  0.00     0.114 C   
BRANCH  17  18
ATOM     18  C13 UNL     1       1.585  -1.959  -2.508  1.00  0.00     0.064 C   
BRANCH  18  19
ATOM     19  C14 UNL     1       2.072  -1.160  -3.734  1.00  0.00    -0.012 C   
ATOM     20  C15 UNL     1       0.918  -0.644  -4.591  1.00  0.00     0.007 C   
ATOM     21  C16 UNL     1       2.994  -2.039  -4.585  1.00  0.00     0.007 C   
ENDBRANCH  18  19
ENDBRANCH  17  18
BRANCH  17  22
ATOM     22  N2  UNL     1       1.409  -0.034  -0.948  1.00  0.00     0.249 N   
ATOM     23  H23 UNL     1       2.201  -0.410  -0.409  1.00  0.00     0.199 HD  
ATOM     24  H24 UNL     1       1.802   0.558  -1.684  1.00  0.00     0.199 HD  
BRANCH  22  25
ATOM     25  C17 UNL     1       0.616   0.821  -0.015  1.00  0.00     0.164 C   
BRANCH  25  26
ATOM     26  C18 UNL     1       1.382   2.066   0.336  1.00  0.00    -0.002 A   
ATOM     27  C19 UNL     1       1.216   3.247  -0.423  1.00  0.00     0.012 A   
ATOM     28  C23 UNL     1       2.307   2.046   1.393  1.00  0.00     0.045 A   
ATOM     29  C20 UNL     1       1.952   4.398  -0.128  1.00  0.00     0.037 A   
ATOM     30  C22 UNL     1       3.016   3.199   1.658  1.00  0.00     0.109 A   
ATOM     31  C21 UNL     1       2.844   4.341   0.920  1.00  0.00     0.108 A   
ATOM     32  O2  UNL     1       3.942   3.350   2.642  1.00  0.00    -0.316 OA  
ATOM     33  O3  UNL     1       3.639   5.357   1.345  1.00  0.00    -0.316 OA  
ATOM     34  C24 UNL     1       4.323   4.730   2.451  1.00  0.00     0.337 C   
ENDBRANCH  25  26
ENDBRANCH  22  25
ENDBRANCH  17  22
ENDBRANCH   3  17
TORSDOF 10
