REMARK SMILES CC(C)[C@H]([NH2+]Cc1ccc2c(c1)OCO2)c1cn(Cc2ccc3[nH]ccc3c2)nn1
REMARK SMILES IDX 16 1 17 2 18 3 29 4 30 5 4 7 2 8 1 9 3 10 5 11 6 14 7 15
REMARK SMILES IDX 8 16 12 17 9 18 11 19 10 20 13 21 15 22 14 23 19 24 20 25
REMARK SMILES IDX 21 26 28 27 22 28 27 29 23 30 26 31 24 32 25 33
REMARK H PARENT 17 6 5 12 5 13 24 34
ROOT
ATOM     1   C13 UNL     1      -0.686   0.488   2.091  1.00  0.00     0.127 A   
ATOM     2   C14 UNL     1       0.308   1.431   1.957  1.00  0.00     0.046 A   
ATOM     3   N2  UNL     1       1.121   1.208   3.035  1.00  0.00    -0.208 N   
ATOM     4   N4  UNL     1       0.617   0.236   3.822  1.00  0.00    -0.076 NA  
ATOM     5   N5  UNL     1      -0.492  -0.210   3.255  1.00  0.00    -0.132 NA  
ATOM     6   H18 UNL     1       0.551   2.151   1.188  1.00  0.00     0.083 HD  
ENDROOT
BRANCH   1   7
ATOM     7   C4  UNL     1      -1.769   0.086   1.146  1.00  0.00     0.117 C   
BRANCH   7   8
ATOM     8   C2  UNL     1      -3.125   0.770   1.466  1.00  0.00     0.037 C   
ATOM     9   C1  UNL     1      -3.779   0.303   2.772  1.00  0.00     0.014 C   
ATOM     10  C3  UNL     1      -4.122   0.615   0.311  1.00  0.00     0.014 C   
ENDBRANCH   7   8
BRANCH   7  11
ATOM     11  N1  UNL     1      -1.930  -1.418   1.110  1.00  0.00     0.249 N   
ATOM     12  H9  UNL     1      -2.161  -1.714   2.066  1.00  0.00     0.199 HD  
ATOM     13  H10 UNL     1      -2.715  -1.675   0.507  1.00  0.00     0.199 HD  
BRANCH  11  14
ATOM     14  C5  UNL     1      -0.725  -2.212   0.704  1.00  0.00     0.164 C   
BRANCH  14  15
ATOM     15  C6  UNL     1      -0.156  -1.822  -0.631  1.00  0.00    -0.002 A   
ATOM     16  C7  UNL     1       1.118  -1.206  -0.705  1.00  0.00     0.012 A   
ATOM     17  C11 UNL     1      -0.884  -2.045  -1.812  1.00  0.00     0.045 A   
ATOM     18  C8  UNL     1       1.656  -0.807  -1.933  1.00  0.00     0.037 A   
ATOM     19  C10 UNL     1      -0.325  -1.638  -3.006  1.00  0.00     0.109 A   
ATOM     20  C9  UNL     1       0.908  -1.036  -3.066  1.00  0.00     0.108 A   
ATOM     21  O1  UNL     1      -0.899  -1.771  -4.230  1.00  0.00    -0.316 OA  
ATOM     22  O2  UNL     1       1.266  -0.716  -4.336  1.00  0.00    -0.316 OA  
ATOM     23  C12 UNL     1       0.130  -1.209  -5.077  1.00  0.00     0.337 C   
ENDBRANCH  14  15
ENDBRANCH  11  14
ENDBRANCH   7  11
ENDBRANCH   1   7
BRANCH   3  24
ATOM     24  C15 UNL     1       2.438   1.768   3.289  1.00  0.00     0.169 C   
BRANCH  24  25
ATOM     25  C16 UNL     1       3.447   1.146   2.353  1.00  0.00    -0.028 A   
ATOM     26  C17 UNL     1       4.009  -0.104   2.652  1.00  0.00     0.007 A   
ATOM     27  C23 UNL     1       3.779   1.785   1.143  1.00  0.00     0.015 A   
ATOM     28  C18 UNL     1       4.895  -0.737   1.774  1.00  0.00     0.024 A   
ATOM     29  C22 UNL     1       4.661   1.159   0.240  1.00  0.00    -0.003 A   
ATOM     30  C19 UNL     1       5.196  -0.084   0.576  1.00  0.00     0.037 A   
ATOM     31  C21 UNL     1       5.182   1.511  -1.034  1.00  0.00     0.025 A   
ATOM     32  N3  UNL     1       6.025  -0.460  -0.458  1.00  0.00    -0.321 N   
ATOM     33  C20 UNL     1       6.013   0.493  -1.442  1.00  0.00     0.072 A   
ATOM     34  H23 UNL     1       6.570  -1.312  -0.480  1.00  0.00     0.152 HD  
ENDBRANCH  24  25
ENDBRANCH   3  24
TORSDOF 7
