REMARK SMILES Cc1cc(N([O-])[O-])cc(-n2cc([C@@H]([NH2+]Cc3ccc4c(c3)OCO4)C3CCCC3)nn2)c1
REMARK SMILES IDX 10 1 11 2 12 3 30 4 31 5 9 6 2 7 32 8 3 9 4 10 8 11 1 12
REMARK SMILES IDX 5 13 6 14 7 15 13 16 14 17 15 20 16 21 17 22 21 23 18 24
REMARK SMILES IDX 20 25 19 26 22 27 24 28 23 29 25 30 26 31 29 32 27 33 28 34
REMARK H PARENT 14 18 14 19
ROOT
ATOM     1   N1  UNL     1      -1.967  -0.930   0.626  1.00  0.00    -0.181 N   
ATOM     2   C5  UNL     1      -1.565   0.369   0.877  1.00  0.00     0.135 A   
ATOM     3   C6  UNL     1      -0.615   0.642  -0.084  1.00  0.00     0.127 A   
ATOM     4   N3  UNL     1      -0.430  -0.471  -0.853  1.00  0.00    -0.131 NA  
ATOM     5   N4  UNL     1      -1.236  -1.420  -0.406  1.00  0.00    -0.071 NA  
ENDROOT
BRANCH   1   6
ATOM     6   C4  UNL     1      -2.954  -1.706   1.286  1.00  0.00     0.060 A   
ATOM     7   C2  UNL     1      -4.176  -3.815   1.487  1.00  0.00    -0.047 A   
ATOM     8   C3  UNL     1      -3.197  -3.025   0.863  1.00  0.00     0.029 A   
ATOM     9   C23 UNL     1      -4.902  -3.287   2.562  1.00  0.00     0.034 A   
ATOM     10  C22 UNL     1      -4.662  -1.974   2.985  1.00  0.00     0.120 A   
ATOM     11  C21 UNL     1      -3.692  -1.177   2.352  1.00  0.00     0.057 A   
ATOM     12  C1  UNL     1      -4.402  -5.232   1.041  1.00  0.00     0.044 C   
BRANCH  10  13
ATOM     13  N5  UNL     1      -5.429  -1.417   4.108  1.00  0.00     0.092 N   
ATOM     14  O3  UNL     1      -5.149  -0.265   4.471  1.00  0.00    -0.138 OA  
ATOM     15  O4  UNL     1      -6.303  -2.128   4.621  1.00  0.00    -0.138 OA  
ENDBRANCH  10  13
ENDBRANCH   1   6
BRANCH   3  16
ATOM     16  C7  UNL     1       0.198   1.871  -0.357  1.00  0.00     0.117 C   
BRANCH  16  17
ATOM     17  N2  UNL     1       1.509   1.477  -0.995  1.00  0.00     0.249 N   
ATOM     18  H7  UNL     1       1.290   0.781  -1.724  1.00  0.00     0.199 HD  
ATOM     19  H8  UNL     1       1.954   2.262  -1.481  1.00  0.00     0.199 HD  
BRANCH  17  20
ATOM     20  C8  UNL     1       2.511   0.863  -0.079  1.00  0.00     0.164 C   
BRANCH  20  21
ATOM     21  C9  UNL     1       3.709   0.402  -0.857  1.00  0.00    -0.002 A   
ATOM     22  C10 UNL     1       3.739  -0.903  -1.404  1.00  0.00     0.012 A   
ATOM     23  C14 UNL     1       4.779   1.280  -1.100  1.00  0.00     0.045 A   
ATOM     24  C11 UNL     1       4.824  -1.334  -2.174  1.00  0.00     0.037 A   
ATOM     25  C13 UNL     1       5.834   0.822  -1.862  1.00  0.00     0.109 A   
ATOM     26  C12 UNL     1       5.856  -0.447  -2.386  1.00  0.00     0.108 A   
ATOM     27  O1  UNL     1       6.940   1.539  -2.191  1.00  0.00    -0.316 OA  
ATOM     28  O2  UNL     1       6.980  -0.690  -3.107  1.00  0.00    -0.316 OA  
ATOM     29  C15 UNL     1       7.679   0.565  -2.962  1.00  0.00     0.337 C   
ENDBRANCH  20  21
ENDBRANCH  17  20
ENDBRANCH  16  17
BRANCH  16  30
ATOM     30  C16 UNL     1      -0.526   2.848  -1.306  1.00  0.00     0.043 C   
ATOM     31  C17 UNL     1      -1.840   3.397  -0.741  1.00  0.00     0.010 C   
ATOM     32  C20 UNL     1       0.266   4.128  -1.615  1.00  0.00     0.010 C   
ATOM     33  C18 UNL     1      -2.131   4.588  -1.638  1.00  0.00     0.001 C   
ATOM     34  C19 UNL     1      -0.769   5.221  -1.882  1.00  0.00     0.001 C   
ENDBRANCH  16  30
ENDBRANCH   3  16
TORSDOF 7
