REMARK SMILES CC(C)C[C@H]([NH2+]Cc1ccc2c(c1)OCO2)c1cn(-c2ccc(N([O-])[O-])cc2)nn1
REMARK SMILES IDX 17 1 18 2 19 3 29 4 30 5 5 6 4 7 2 8 1 9 3 10 6 11 7 14 8 15
REMARK SMILES IDX 9 16 13 17 10 18 12 19 11 20 14 21 16 22 15 23 20 24 21 25
REMARK SMILES IDX 28 26 22 27 27 28 23 29 24 30 25 31 26 32
REMARK H PARENT 6 12 6 13
ROOT
ATOM     1   C14 UNL     1       1.253   0.385  -0.565  1.00  0.00     0.127 A   
ATOM     2   C15 UNL     1       0.736   1.347   0.275  1.00  0.00     0.135 A   
ATOM     3   N2  UNL     1       0.715   2.506  -0.478  1.00  0.00    -0.181 N   
ATOM     4   N4  UNL     1       1.146   2.218  -1.734  1.00  0.00    -0.071 NA  
ATOM     5   N5  UNL     1       1.493   0.944  -1.788  1.00  0.00    -0.131 NA  
ENDROOT
BRANCH   1   6
ATOM     6   C5  UNL     1       1.528  -1.070  -0.361  1.00  0.00     0.114 C   
BRANCH   6   7
ATOM     7   C4  UNL     1       2.975  -1.345   0.093  1.00  0.00     0.064 C   
BRANCH   7   8
ATOM     8   C2  UNL     1       3.369  -0.754   1.464  1.00  0.00    -0.012 C   
ATOM     9   C1  UNL     1       4.840  -1.066   1.752  1.00  0.00     0.007 C   
ATOM     10  C3  UNL     1       2.498  -1.288   2.603  1.00  0.00     0.007 C   
ENDBRANCH   7   8
ENDBRANCH   6   7
BRANCH   6  11
ATOM     11  N1  UNL     1       1.342  -1.811  -1.674  1.00  0.00     0.249 N   
ATOM     12  H11 UNL     1       1.815  -2.718  -1.643  1.00  0.00     0.199 HD  
ATOM     13  H12 UNL     1       1.821  -1.245  -2.390  1.00  0.00     0.199 HD  
BRANCH  11  14
ATOM     14  C6  UNL     1      -0.063  -2.012  -2.130  1.00  0.00     0.164 C   
BRANCH  14  15
ATOM     15  C7  UNL     1      -0.777  -3.065  -1.331  1.00  0.00    -0.002 A   
ATOM     16  C8  UNL     1      -0.499  -4.436  -1.553  1.00  0.00     0.012 A   
ATOM     17  C12 UNL     1      -1.695  -2.699  -0.335  1.00  0.00     0.045 A   
ATOM     18  C9  UNL     1      -1.123  -5.428  -0.791  1.00  0.00     0.037 A   
ATOM     19  C11 UNL     1      -2.290  -3.702   0.401  1.00  0.00     0.109 A   
ATOM     20  C10 UNL     1      -2.013  -5.028   0.180  1.00  0.00     0.108 A   
ATOM     21  O1  UNL     1      -3.187  -3.519   1.406  1.00  0.00    -0.316 OA  
ATOM     22  O2  UNL     1      -2.706  -5.847   1.011  1.00  0.00    -0.316 OA  
ATOM     23  C13 UNL     1      -3.453  -4.888   1.787  1.00  0.00     0.337 C   
ENDBRANCH  14  15
ENDBRANCH  11  14
ENDBRANCH   6  11
ENDBRANCH   1   6
BRANCH   3  24
ATOM     24  C16 UNL     1       0.328   3.818  -0.102  1.00  0.00     0.058 A   
ATOM     25  C17 UNL     1       0.398   4.855  -1.048  1.00  0.00     0.028 A   
ATOM     26  C21 UNL     1      -0.112   4.097   1.201  1.00  0.00     0.028 A   
ATOM     27  C18 UNL     1       0.038   6.160  -0.696  1.00  0.00     0.033 A   
ATOM     28  C20 UNL     1      -0.478   5.402   1.552  1.00  0.00     0.033 A   
ATOM     29  C19 UNL     1      -0.402   6.430   0.604  1.00  0.00     0.118 A   
BRANCH  29  30
ATOM     30  N3  UNL     1      -0.766   7.802   0.982  1.00  0.00     0.092 N   
ATOM     31  O3  UNL     1      -1.108   8.002   2.155  1.00  0.00    -0.138 OA  
ATOM     32  O4  UNL     1      -0.707   8.674   0.106  1.00  0.00    -0.138 OA  
ENDBRANCH  29  30
ENDBRANCH   3  24
TORSDOF 8
