REMARK SMILES O=C(Cn1cc([C@@H]([NH2+]Cc2ccc3c(c2)OCO3)C2CCCCC2)nn1)c1ccccc1O
REMARK SMILES IDX 4 1 5 2 6 3 25 4 26 5 3 7 2 8 1 9 27 10 28 11 32 12 29 13
REMARK SMILES IDX 31 14 30 15 33 16 7 18 8 19 9 22 10 23 11 24 15 25 12 26
REMARK SMILES IDX 14 27 13 28 16 29 18 30 17 31 19 32 20 33 24 34 21 35 23 36
REMARK SMILES IDX 22 37
REMARK H PARENT 5 6 33 17 8 20 8 21
ROOT
ATOM     1   N1  UNL     1       1.515  -1.909   0.845  1.00  0.00    -0.204 N   
ATOM     2   C3  UNL     1       1.765  -1.710  -0.484  1.00  0.00     0.046 A   
ATOM     3   C4  UNL     1       1.972  -0.352  -0.576  1.00  0.00     0.127 A   
ATOM     4   N3  UNL     1       1.928   0.198   0.678  1.00  0.00    -0.132 NA  
ATOM     5   N4  UNL     1       1.687  -0.773   1.543  1.00  0.00    -0.076 NA  
ATOM     6   H3  UNL     1       1.650  -2.496  -1.216  1.00  0.00     0.083 HD  
ENDROOT
BRANCH   1   7
ATOM     7   C2  UNL     1       0.905  -3.064   1.478  1.00  0.00     0.215 C   
BRANCH   7   8
ATOM     8   C1  UNL     1      -0.600  -2.885   1.499  1.00  0.00     0.184 C   
ATOM     9   O1  UNL     1      -1.202  -2.244   0.634  1.00  0.00    -0.292 OA  
BRANCH   8  10
ATOM     10  C20 UNL     1      -1.367  -3.464   2.633  1.00  0.00     0.049 A   
ATOM     11  C21 UNL     1      -2.499  -2.766   3.075  1.00  0.00     0.014 A   
ATOM     12  C25 UNL     1      -1.009  -4.662   3.260  1.00  0.00     0.082 A   
ATOM     13  C22 UNL     1      -3.248  -3.248   4.147  1.00  0.00     0.001 A   
ATOM     14  C24 UNL     1      -1.759  -5.144   4.335  1.00  0.00     0.034 A   
ATOM     15  C23 UNL     1      -2.876  -4.434   4.778  1.00  0.00     0.003 A   
BRANCH  12  16
ATOM     16  O4  UNL     1       0.059  -5.385   2.808  1.00  0.00    -0.360 OA  
ATOM     17  H29 UNL     1       0.094  -6.227   3.300  1.00  0.00     0.218 HD  
ENDBRANCH  12  16
ENDBRANCH   8  10
ENDBRANCH   7   8
ENDBRANCH   1   7
BRANCH   3  18
ATOM     18  C5  UNL     1       1.988   0.539  -1.774  1.00  0.00     0.117 C   
BRANCH  18  19
ATOM     19  N2  UNL     1       0.742   1.388  -1.769  1.00  0.00     0.249 N   
ATOM     20  H5  UNL     1       0.843   2.225  -2.350  1.00  0.00     0.199 HD  
ATOM     21  H6  UNL     1       0.613   1.725  -0.802  1.00  0.00     0.199 HD  
BRANCH  19  22
ATOM     22  C6  UNL     1      -0.511   0.674  -2.151  1.00  0.00     0.164 C   
BRANCH  22  23
ATOM     23  C7  UNL     1      -1.701   1.582  -2.025  1.00  0.00    -0.002 A   
ATOM     24  C8  UNL     1      -2.047   2.464  -3.076  1.00  0.00     0.012 A   
ATOM     25  C12 UNL     1      -2.453   1.588  -0.837  1.00  0.00     0.045 A   
ATOM     26  C9  UNL     1      -3.136   3.334  -2.953  1.00  0.00     0.037 A   
ATOM     27  C11 UNL     1      -3.521   2.458  -0.749  1.00  0.00     0.109 A   
ATOM     28  C10 UNL     1      -3.854   3.306  -1.777  1.00  0.00     0.108 A   
ATOM     29  O2  UNL     1      -4.352   2.587   0.318  1.00  0.00    -0.316 OA  
ATOM     30  O3  UNL     1      -4.936   4.075  -1.487  1.00  0.00    -0.316 OA  
ATOM     31  C13 UNL     1      -5.267   3.597  -0.166  1.00  0.00     0.337 C   
ENDBRANCH  22  23
ENDBRANCH  19  22
ENDBRANCH  18  19
BRANCH  18  32
ATOM     32  C14 UNL     1       3.258   1.423  -1.879  1.00  0.00     0.043 C   
ATOM     33  C15 UNL     1       3.388   2.072  -3.268  1.00  0.00     0.010 C   
ATOM     34  C19 UNL     1       3.401   2.487  -0.765  1.00  0.00     0.010 C   
ATOM     35  C16 UNL     1       4.744   2.761  -3.458  1.00  0.00     0.001 C   
ATOM     36  C18 UNL     1       4.236   3.705  -1.177  1.00  0.00     0.001 C   
ATOM     37  C17 UNL     1       5.328   3.330  -2.166  1.00  0.00     0.000 C   
ENDBRANCH  18  32
ENDBRANCH   3  18
TORSDOF 9
