REMARK SMILES Nc1cccc(-n2cc([C@@H]([NH2+]Cc3ccc4c(c3)OCO4)C3CCCC3)nn2)c1
REMARK SMILES IDX 7 1 8 2 9 3 27 4 28 5 6 6 2 7 3 8 29 9 4 10 5 11 1 12 10 15
REMARK SMILES IDX 11 16 12 19 13 20 14 21 18 22 15 23 17 24 16 25 19 26 21 27
REMARK SMILES IDX 20 28 22 29 23 30 26 31 24 32 25 33
REMARK H PARENT 1 13 1 14 11 17 11 18
ROOT
ATOM     1   N2  UNL     1       0.187   0.959   1.082  1.00  0.00    -0.181 N   
ATOM     2   C6  UNL     1       0.059   0.443  -0.193  1.00  0.00     0.135 A   
ATOM     3   C7  UNL     1      -1.297   0.412  -0.428  1.00  0.00     0.127 A   
ATOM     4   N4  UNL     1      -1.951   0.967   0.634  1.00  0.00    -0.131 NA  
ATOM     5   N5  UNL     1      -1.046   1.315   1.534  1.00  0.00    -0.071 NA  
ENDROOT
BRANCH   1   6
ATOM     6   C5  UNL     1       1.348   1.077   1.884  1.00  0.00     0.059 A   
ATOM     7   C1  UNL     1       3.733   0.719   2.227  1.00  0.00     0.025 A   
ATOM     8   C2  UNL     1       3.595   1.187   3.536  1.00  0.00     0.023 A   
ATOM     9   C22 UNL     1       2.594   0.625   1.420  1.00  0.00     0.049 A   
ATOM     10  C3  UNL     1       2.365   1.652   4.002  1.00  0.00     0.004 A   
ATOM     11  C4  UNL     1       1.242   1.606   3.177  1.00  0.00     0.026 A   
BRANCH   7  12
ATOM     12  N1  UNL     1       4.936   0.135   1.813  1.00  0.00    -0.358 N   
ATOM     13  H1  UNL     1       5.090   0.152   0.809  1.00  0.00     0.143 HD  
ATOM     14  H2  UNL     1       5.750   0.476   2.319  1.00  0.00     0.143 HD  
ENDBRANCH   7  12
ENDBRANCH   1   6
BRANCH   3  15
ATOM     15  C8  UNL     1      -2.090  -0.198  -1.538  1.00  0.00     0.117 C   
BRANCH  15  16
ATOM     16  N3  UNL     1      -3.197  -1.050  -0.942  1.00  0.00     0.249 N   
ATOM     17  H8  UNL     1      -4.030  -1.032  -1.536  1.00  0.00     0.199 HD  
ATOM     18  H9  UNL     1      -3.470  -0.586  -0.061  1.00  0.00     0.199 HD  
BRANCH  16  19
ATOM     19  C9  UNL     1      -2.855  -2.474  -0.640  1.00  0.00     0.164 C   
BRANCH  19  20
ATOM     20  C10 UNL     1      -1.800  -2.638   0.419  1.00  0.00    -0.002 A   
ATOM     21  C11 UNL     1      -2.107  -2.384   1.778  1.00  0.00     0.012 A   
ATOM     22  C15 UNL     1      -0.485  -2.986   0.064  1.00  0.00     0.045 A   
ATOM     23  C12 UNL     1      -1.117  -2.447   2.764  1.00  0.00     0.037 A   
ATOM     24  C14 UNL     1       0.469  -3.027   1.060  1.00  0.00     0.109 A   
ATOM     25  C13 UNL     1       0.163  -2.764   2.371  1.00  0.00     0.108 A   
ATOM     26  O1  UNL     1       1.790  -3.291   0.877  1.00  0.00    -0.316 OA  
ATOM     27  O2  UNL     1       1.248  -2.844   3.184  1.00  0.00    -0.316 OA  
ATOM     28  C16 UNL     1       2.278  -3.202   2.239  1.00  0.00     0.337 C   
ENDBRANCH  19  20
ENDBRANCH  16  19
ENDBRANCH  15  16
BRANCH  15  29
ATOM     29  C17 UNL     1      -2.723   0.871  -2.450  1.00  0.00     0.043 C   
ATOM     30  C18 UNL     1      -1.690   1.771  -3.138  1.00  0.00     0.010 C   
ATOM     31  C21 UNL     1      -3.532   0.296  -3.627  1.00  0.00     0.010 C   
ATOM     32  C19 UNL     1      -2.485   2.399  -4.269  1.00  0.00     0.001 C   
ATOM     33  C20 UNL     1      -3.324   1.250  -4.805  1.00  0.00     0.001 C   
ENDBRANCH  15  29
ENDBRANCH   3  15
TORSDOF 7
