REMARK SMILES COc1cc(Cn2cc([C@H](CC(C)C)[NH2+]Cc3ccc4c(c3)OCO4)nn2)ccc1F
REMARK SMILES IDX 7 1 8 2 9 3 26 4 27 5 6 7 5 8 3 9 4 10 30 11 29 12 28 13
REMARK SMILES IDX 31 14 2 15 1 16 10 17 11 18 12 19 13 20 14 21 15 22 16 25
REMARK SMILES IDX 17 26 18 27 22 28 19 29 21 30 20 31 23 32 25 33 24 34
REMARK H PARENT 8 6 15 23 15 24
ROOT
ATOM     1   N1  UNL     1      -1.999   1.441   2.066  1.00  0.00    -0.208 N   
ATOM     2   C6  UNL     1      -2.140   1.030   0.768  1.00  0.00     0.046 A   
ATOM     3   C7  UNL     1      -2.180  -0.344   0.858  1.00  0.00     0.127 A   
ATOM     4   N3  UNL     1      -2.105  -0.712   2.175  1.00  0.00    -0.132 NA  
ATOM     5   N4  UNL     1      -1.983   0.386   2.903  1.00  0.00    -0.076 NA  
ATOM     6   H7  UNL     1      -2.144   1.720  -0.064  1.00  0.00     0.083 HD  
ENDROOT
BRANCH   1   7
ATOM     7   C5  UNL     1      -1.749   2.788   2.556  1.00  0.00     0.169 C   
BRANCH   7   8
ATOM     8   C4  UNL     1      -0.366   3.241   2.146  1.00  0.00    -0.026 A   
ATOM     9   C2  UNL     1       2.056   3.039   2.342  1.00  0.00     0.111 A   
ATOM     10  C3  UNL     1       0.772   2.688   2.767  1.00  0.00     0.042 A   
ATOM     11  C23 UNL     1       2.192   3.940   1.284  1.00  0.00     0.153 A   
ATOM     12  C22 UNL     1       1.080   4.511   0.673  1.00  0.00     0.042 A   
ATOM     13  C21 UNL     1      -0.200   4.166   1.104  1.00  0.00     0.008 A   
ATOM     14  F1  UNL     1       3.411   4.273   0.835  1.00  0.00    -0.204 F   
BRANCH   9  15
ATOM     15  O1  UNL     1       3.216   2.523   2.853  1.00  0.00    -0.346 OA  
ATOM     16  C1  UNL     1       3.158   2.037   4.190  1.00  0.00     0.203 C   
ENDBRANCH   9  15
ENDBRANCH   7   8
ENDBRANCH   1   7
BRANCH   3  17
ATOM     17  C8  UNL     1      -2.193  -1.386  -0.208  1.00  0.00     0.114 C   
BRANCH  17  18
ATOM     18  C9  UNL     1      -3.580  -2.030  -0.391  1.00  0.00     0.064 C   
BRANCH  18  19
ATOM     19  C10 UNL     1      -4.693  -1.068  -0.860  1.00  0.00    -0.012 C   
ATOM     20  C11 UNL     1      -4.391  -0.448  -2.225  1.00  0.00     0.007 C   
ATOM     21  C12 UNL     1      -6.030  -1.815  -0.917  1.00  0.00     0.007 C   
ENDBRANCH  18  19
ENDBRANCH  17  18
BRANCH  17  22
ATOM     22  N2  UNL     1      -1.230  -2.510   0.128  1.00  0.00     0.249 N   
ATOM     23  H18 UNL     1      -1.301  -3.246  -0.582  1.00  0.00     0.199 HD  
ATOM     24  H19 UNL     1      -1.547  -2.912   1.021  1.00  0.00     0.199 HD  
BRANCH  22  25
ATOM     25  C13 UNL     1       0.209  -2.136   0.305  1.00  0.00     0.164 C   
BRANCH  25  26
ATOM     26  C14 UNL     1       0.804  -1.419  -0.874  1.00  0.00    -0.002 A   
ATOM     27  C15 UNL     1       1.208  -0.067  -0.750  1.00  0.00     0.012 A   
ATOM     28  C19 UNL     1       0.954  -2.075  -2.109  1.00  0.00     0.045 A   
ATOM     29  C16 UNL     1       1.742   0.628  -1.840  1.00  0.00     0.037 A   
ATOM     30  C18 UNL     1       1.484  -1.360  -3.163  1.00  0.00     0.109 A   
ATOM     31  C17 UNL     1       1.865  -0.047  -3.034  1.00  0.00     0.108 A   
ATOM     32  O2  UNL     1       1.694  -1.842  -4.416  1.00  0.00    -0.316 OA  
ATOM     33  O3  UNL     1       2.363   0.463  -4.189  1.00  0.00    -0.316 OA  
ATOM     34  C20 UNL     1       2.301  -0.694  -5.051  1.00  0.00     0.337 C   
ENDBRANCH  25  26
ENDBRANCH  22  25
ENDBRANCH  17  22
ENDBRANCH   3  17
TORSDOF 9
