REMARK SMILES CC(C)C[C@H]([NH2+]Cc1ccc2c(c1)OCO2)c1cn(CC(=O)c2ccc(F)cc2)nn1
REMARK SMILES IDX 17 1 18 2 19 3 30 4 31 5 5 7 4 8 2 9 1 10 3 11 6 12 7 15
REMARK SMILES IDX 8 16 9 17 13 18 10 19 12 20 11 21 14 22 16 23 15 24 20 25
REMARK SMILES IDX 21 26 22 27 23 28 24 29 29 30 25 31 28 32 26 33 27 34
REMARK H PARENT 18 6 6 13 6 14
ROOT
ATOM     1   C14 UNL     1       0.073  -0.583  -0.274  1.00  0.00     0.127 A   
ATOM     2   C15 UNL     1       1.386  -0.227  -0.066  1.00  0.00     0.046 A   
ATOM     3   N2  UNL     1       2.070  -1.405  -0.175  1.00  0.00    -0.204 N   
ATOM     4   N3  UNL     1       1.240  -2.415  -0.496  1.00  0.00    -0.076 NA  
ATOM     5   N4  UNL     1       0.011  -1.928  -0.544  1.00  0.00    -0.132 NA  
ATOM     6   H20 UNL     1       1.876   0.705   0.186  1.00  0.00     0.083 HD  
ENDROOT
BRANCH   1   7
ATOM     7   C5  UNL     1      -1.184   0.229  -0.244  1.00  0.00     0.114 C   
BRANCH   7   8
ATOM     8   C4  UNL     1      -1.689   0.398   1.204  1.00  0.00     0.064 C   
BRANCH   8   9
ATOM     9   C2  UNL     1      -2.901   1.335   1.400  1.00  0.00    -0.012 C   
ATOM     10  C1  UNL     1      -2.634   2.754   0.897  1.00  0.00     0.007 C   
ATOM     11  C3  UNL     1      -3.278   1.379   2.885  1.00  0.00     0.007 C   
ENDBRANCH   8   9
ENDBRANCH   7   8
BRANCH   7  12
ATOM     12  N1  UNL     1      -2.258  -0.449  -1.061  1.00  0.00     0.249 N   
ATOM     13  H11 UNL     1      -3.189  -0.122  -0.794  1.00  0.00     0.199 HD  
ATOM     14  H12 UNL     1      -2.210  -1.450  -0.819  1.00  0.00     0.199 HD  
BRANCH  12  15
ATOM     15  C6  UNL     1      -2.118  -0.338  -2.543  1.00  0.00     0.164 C   
BRANCH  15  16
ATOM     16  C7  UNL     1      -2.441   1.041  -3.047  1.00  0.00    -0.002 A   
ATOM     17  C8  UNL     1      -1.411   1.892  -3.515  1.00  0.00     0.012 A   
ATOM     18  C12 UNL     1      -3.767   1.509  -3.025  1.00  0.00     0.045 A   
ATOM     19  C9  UNL     1      -1.693   3.193  -3.946  1.00  0.00     0.037 A   
ATOM     20  C11 UNL     1      -4.009   2.797  -3.454  1.00  0.00     0.109 A   
ATOM     21  C10 UNL     1      -3.002   3.616  -3.900  1.00  0.00     0.108 A   
ATOM     22  O1  UNL     1      -5.225   3.403  -3.486  1.00  0.00    -0.316 OA  
ATOM     23  O2  UNL     1      -3.457   4.841  -4.271  1.00  0.00    -0.316 OA  
ATOM     24  C13 UNL     1      -4.873   4.695  -4.032  1.00  0.00     0.337 C   
ENDBRANCH  15  16
ENDBRANCH  12  15
ENDBRANCH   7  12
ENDBRANCH   1   7
BRANCH   3  25
ATOM     25  C16 UNL     1       3.482  -1.644   0.018  1.00  0.00     0.214 C   
BRANCH  25  26
ATOM     26  C17 UNL     1       3.816  -1.635   1.487  1.00  0.00     0.182 C   
ATOM     27  O3  UNL     1       3.857  -0.575   2.113  1.00  0.00    -0.292 OA  
BRANCH  26  28
ATOM     28  C18 UNL     1       4.087  -2.917   2.199  1.00  0.00     0.019 A   
ATOM     29  C19 UNL     1       3.626  -4.153   1.726  1.00  0.00     0.015 A   
ATOM     30  C23 UNL     1       4.811  -2.862   3.401  1.00  0.00     0.015 A   
ATOM     31  C20 UNL     1       3.904  -5.322   2.443  1.00  0.00     0.040 A   
ATOM     32  C22 UNL     1       5.088  -4.032   4.112  1.00  0.00     0.040 A   
ATOM     33  C21 UNL     1       4.633  -5.251   3.626  1.00  0.00     0.123 A   
ATOM     34  F1  UNL     1       4.893  -6.373   4.307  1.00  0.00    -0.207 F   
ENDBRANCH  26  28
ENDBRANCH  25  26
ENDBRANCH   3  25
TORSDOF 9
