REMARK SMILES CCn1nccc1CCn1cc([C@@H]([NH2+]Cc2ccc3c(c2)OCO3)C2CCCC2)nn1
REMARK SMILES IDX 10 1 11 2 12 3 30 4 31 5 9 7 8 8 7 9 3 10 4 11 5 12 6 13
REMARK SMILES IDX 2 14 1 15 13 16 14 17 15 20 16 21 17 22 21 23 18 24 20 25
REMARK SMILES IDX 19 26 22 27 24 28 23 29 25 30 26 31 29 32 27 33 28 34
REMARK H PARENT 11 6 14 18 14 19
ROOT
ATOM     1   N3  UNL     1      -1.425   1.136   3.322  1.00  0.00    -0.212 N   
ATOM     2   C8  UNL     1      -2.106   1.064   2.138  1.00  0.00     0.045 A   
ATOM     3   C9  UNL     1      -1.330   1.801   1.268  1.00  0.00     0.127 A   
ATOM     4   N5  UNL     1      -0.321   2.403   1.975  1.00  0.00    -0.132 NA  
ATOM     5   N6  UNL     1      -0.399   1.996   3.232  1.00  0.00    -0.076 NA  
ATOM     6   H12 UNL     1      -2.958   0.413   2.010  1.00  0.00     0.083 HD  
ENDROOT
BRANCH   1   7
ATOM     7   C7  UNL     1      -1.502   0.186   4.416  1.00  0.00     0.140 C   
BRANCH   7   8
ATOM     8   C6  UNL     1      -0.436  -0.927   4.324  1.00  0.00     0.074 C   
BRANCH   8   9
ATOM     9   C5  UNL     1      -0.259  -1.446   2.927  1.00  0.00     0.031 A   
ATOM     10  N1  UNL     1       0.774  -1.078   2.093  1.00  0.00    -0.230 N   
ATOM     11  N2  UNL     1       0.489  -1.337   0.782  1.00  0.00    -0.190 NA  
ATOM     12  C3  UNL     1      -0.508  -2.223   0.871  1.00  0.00     0.133 A   
ATOM     13  C4  UNL     1      -1.031  -2.306   2.175  1.00  0.00     0.042 A   
BRANCH  10  14
ATOM     14  C2  UNL     1       2.011  -0.402   2.451  1.00  0.00     0.129 C   
ATOM     15  C1  UNL     1       3.009  -1.314   3.148  1.00  0.00     0.027 C   
ENDBRANCH  10  14
ENDBRANCH   8   9
ENDBRANCH   7   8
ENDBRANCH   1   7
BRANCH   3  16
ATOM     16  C10 UNL     1      -1.336   1.916  -0.221  1.00  0.00     0.117 C   
BRANCH  16  17
ATOM     17  N4  UNL     1      -0.200   1.133  -0.827  1.00  0.00     0.249 N   
ATOM     18  H14 UNL     1      -0.368   0.973  -1.827  1.00  0.00     0.199 HD  
ATOM     19  H15 UNL     1      -0.133   0.190  -0.384  1.00  0.00     0.199 HD  
BRANCH  17  20
ATOM     20  C11 UNL     1       1.144   1.772  -0.714  1.00  0.00     0.164 C   
BRANCH  20  21
ATOM     21  C12 UNL     1       2.025   1.336  -1.853  1.00  0.00    -0.002 A   
ATOM     22  C13 UNL     1       2.148   2.159  -3.001  1.00  0.00     0.012 A   
ATOM     23  C17 UNL     1       2.662   0.084  -1.824  1.00  0.00     0.045 A   
ATOM     24  C14 UNL     1       2.892   1.737  -4.106  1.00  0.00     0.037 A   
ATOM     25  C16 UNL     1       3.396  -0.295  -2.929  1.00  0.00     0.109 A   
ATOM     26  C15 UNL     1       3.501   0.504  -4.040  1.00  0.00     0.108 A   
ATOM     27  O1  UNL     1       4.063  -1.468  -3.074  1.00  0.00    -0.316 OA  
ATOM     28  O2  UNL     1       4.242  -0.068  -5.024  1.00  0.00    -0.316 OA  
ATOM     29  C18 UNL     1       4.662  -1.289  -4.376  1.00  0.00     0.337 C   
ENDBRANCH  20  21
ENDBRANCH  17  20
ENDBRANCH  16  17
BRANCH  16  30
ATOM     30  C19 UNL     1      -2.674   1.545  -0.894  1.00  0.00     0.043 C   
ATOM     31  C20 UNL     1      -2.977   0.058  -1.113  1.00  0.00     0.010 C   
ATOM     32  C23 UNL     1      -2.789   2.085  -2.329  1.00  0.00     0.010 C   
ATOM     33  C21 UNL     1      -4.162   0.086  -2.084  1.00  0.00     0.001 C   
ATOM     34  C22 UNL     1      -4.002   1.362  -2.913  1.00  0.00     0.001 C   
ENDBRANCH  16  30
ENDBRANCH   3  16
TORSDOF 9
