REMARK SMILES Cc1cc(F)cc(CCn2cc([C@@H]([NH2+]Cc3ccc4c(c3)OCO4)C(C)(C)C)nn2)c1
REMARK SMILES IDX 10 1 11 2 12 3 29 4 30 5 9 7 8 8 7 9 2 10 3 11 31 12 4 13
REMARK SMILES IDX 6 14 1 15 5 16 13 17 14 18 15 21 16 22 17 23 21 24 18 25
REMARK SMILES IDX 20 26 19 27 22 28 24 29 23 30 25 31 26 32 27 33 28 34
REMARK H PARENT 11 6 14 19 14 20
ROOT
ATOM     1   N1  UNL     1       0.433  -0.633  -2.545  1.00  0.00    -0.212 N   
ATOM     2   C9  UNL     1       0.958  -0.045  -1.429  1.00  0.00     0.045 A   
ATOM     3   C10 UNL     1       1.261  -1.107  -0.605  1.00  0.00     0.127 A   
ATOM     4   N3  UNL     1       0.921  -2.276  -1.236  1.00  0.00    -0.132 NA  
ATOM     5   N4  UNL     1       0.429  -1.974  -2.426  1.00  0.00    -0.076 NA  
ATOM     6   H10 UNL     1       1.029   1.028  -1.315  1.00  0.00     0.083 HD  
ENDROOT
BRANCH   1   7
ATOM     7   C8  UNL     1      -0.164   0.014  -3.696  1.00  0.00     0.139 C   
BRANCH   7   8
ATOM     8   C7  UNL     1      -1.678  -0.201  -3.792  1.00  0.00     0.057 C   
BRANCH   8   9
ATOM     9   C6  UNL     1      -2.422   0.274  -2.565  1.00  0.00    -0.043 A   
ATOM     10  C2  UNL     1      -3.342   2.079  -1.202  1.00  0.00    -0.048 A   
ATOM     11  C3  UNL     1      -3.708   1.145  -0.226  1.00  0.00     0.042 A   
ATOM     12  C24 UNL     1      -2.687   1.637  -2.363  1.00  0.00     0.007 A   
ATOM     13  C4  UNL     1      -3.443  -0.204  -0.428  1.00  0.00     0.123 A   
ATOM     14  C5  UNL     1      -2.815  -0.647  -1.586  1.00  0.00     0.043 A   
ATOM     15  C1  UNL     1      -3.597   3.541  -0.979  1.00  0.00     0.044 C   
ATOM     16  F1  UNL     1      -3.747  -1.090   0.531  1.00  0.00    -0.207 F   
ENDBRANCH   8   9
ENDBRANCH   7   8
ENDBRANCH   1   7
BRANCH   3  17
ATOM     17  C11 UNL     1       1.755  -1.142   0.809  1.00  0.00     0.120 C   
BRANCH  17  18
ATOM     18  N2  UNL     1       0.937  -2.154   1.587  1.00  0.00     0.250 N   
ATOM     19  H12 UNL     1       0.929  -3.013   1.018  1.00  0.00     0.199 HD  
ATOM     20  H13 UNL     1       1.379  -2.385   2.479  1.00  0.00     0.199 HD  
BRANCH  18  21
ATOM     21  C12 UNL     1      -0.490  -1.788   1.845  1.00  0.00     0.164 C   
BRANCH  21  22
ATOM     22  C13 UNL     1      -0.630  -0.644   2.811  1.00  0.00    -0.002 A   
ATOM     23  C14 UNL     1      -0.437  -0.848   4.199  1.00  0.00     0.012 A   
ATOM     24  C18 UNL     1      -0.920   0.647   2.337  1.00  0.00     0.045 A   
ATOM     25  C15 UNL     1      -0.534   0.216   5.101  1.00  0.00     0.037 A   
ATOM     26  C17 UNL     1      -1.013   1.673   3.252  1.00  0.00     0.109 A   
ATOM     27  C16 UNL     1      -0.825   1.464   4.596  1.00  0.00     0.108 A   
ATOM     28  O1  UNL     1      -1.287   2.972   2.961  1.00  0.00    -0.316 OA  
ATOM     29  O2  UNL     1      -0.956   2.606   5.320  1.00  0.00    -0.316 OA  
ATOM     30  C19 UNL     1      -1.287   3.555   4.284  1.00  0.00     0.337 C   
ENDBRANCH  21  22
ENDBRANCH  18  21
ENDBRANCH  17  18
BRANCH  17  31
ATOM     31  C20 UNL     1       3.287  -1.448   0.951  1.00  0.00     0.010 C   
ATOM     32  C21 UNL     1       3.666  -2.865   0.480  1.00  0.00     0.017 C   
ATOM     33  C22 UNL     1       3.726  -1.295   2.426  1.00  0.00     0.017 C   
ATOM     34  C23 UNL     1       4.107  -0.428   0.129  1.00  0.00     0.017 C   
ENDBRANCH  17  31
ENDBRANCH   3  17
TORSDOF 8
