REMARK SMILES CC(C)C[C@H]([NH2+]Cc1ccc2c(c1)OCO2)c1cn(C[C@@H](O)c2c(F)cccc2F)nn1
REMARK SMILES IDX 17 1 18 2 19 3 31 4 32 5 5 7 4 8 2 9 1 10 3 11 6 12 7 15
REMARK SMILES IDX 8 16 9 17 13 18 10 19 12 20 11 21 14 22 16 23 15 24 20 25
REMARK SMILES IDX 21 26 22 27 23 29 24 30 29 31 26 32 28 33 27 34 25 35 30 36
REMARK H PARENT 18 6 6 13 6 14 22 28
ROOT
ATOM     1   C14 UNL     1      -0.685   1.843  -1.598  1.00  0.00     0.127 A   
ATOM     2   C15 UNL     1      -1.551   1.129  -0.800  1.00  0.00     0.045 A   
ATOM     3   N2  UNL     1      -2.122   0.231  -1.657  1.00  0.00    -0.209 N   
ATOM     4   N3  UNL     1      -1.641   0.380  -2.905  1.00  0.00    -0.076 NA  
ATOM     5   N4  UNL     1      -0.765   1.372  -2.884  1.00  0.00    -0.132 NA  
ATOM     6   H20 UNL     1      -1.784   1.149   0.256  1.00  0.00     0.083 HD  
ENDROOT
BRANCH   1   7
ATOM     7   C5  UNL     1       0.305   2.905  -1.264  1.00  0.00     0.114 C   
BRANCH   7   8
ATOM     8   C4  UNL     1      -0.188   4.316  -1.641  1.00  0.00     0.064 C   
BRANCH   8   9
ATOM     9   C2  UNL     1      -1.435   4.803  -0.872  1.00  0.00    -0.012 C   
ATOM     10  C1  UNL     1      -1.844   6.189  -1.380  1.00  0.00     0.007 C   
ATOM     11  C3  UNL     1      -1.207   4.856   0.640  1.00  0.00     0.007 C   
ENDBRANCH   8   9
ENDBRANCH   7   8
BRANCH   7  12
ATOM     12  N1  UNL     1       1.591   2.670  -2.034  1.00  0.00     0.249 N   
ATOM     13  H11 UNL     1       1.318   2.587  -3.024  1.00  0.00     0.199 HD  
ATOM     14  H12 UNL     1       2.206   3.484  -1.950  1.00  0.00     0.199 HD  
BRANCH  12  15
ATOM     15  C6  UNL     1       2.356   1.436  -1.683  1.00  0.00     0.164 C   
BRANCH  15  16
ATOM     16  C7  UNL     1       2.927   1.475  -0.293  1.00  0.00    -0.002 A   
ATOM     17  C8  UNL     1       4.070   2.261  -0.009  1.00  0.00     0.012 A   
ATOM     18  C12 UNL     1       2.310   0.753   0.743  1.00  0.00     0.045 A   
ATOM     19  C9  UNL     1       4.593   2.326   1.287  1.00  0.00     0.037 A   
ATOM     20  C11 UNL     1       2.850   0.840   2.009  1.00  0.00     0.109 A   
ATOM     21  C10 UNL     1       3.959   1.604   2.274  1.00  0.00     0.108 A   
ATOM     22  O1  UNL     1       2.380   0.205   3.115  1.00  0.00    -0.316 OA  
ATOM     23  O2  UNL     1       4.329   1.543   3.579  1.00  0.00    -0.316 OA  
ATOM     24  C13 UNL     1       3.340   0.634   4.107  1.00  0.00     0.337 C   
ENDBRANCH  15  16
ENDBRANCH  12  15
ENDBRANCH   7  12
ENDBRANCH   1   7
BRANCH   3  25
ATOM     25  C16 UNL     1      -3.086  -0.811  -1.352  1.00  0.00     0.170 C   
BRANCH  25  26
ATOM     26  C17 UNL     1      -2.379  -2.118  -0.976  1.00  0.00     0.170 C   
BRANCH  26  27
ATOM     27  O3  UNL     1      -1.770  -1.971   0.317  1.00  0.00    -0.386 OA  
ATOM     28  H24 UNL     1      -1.714  -2.854   0.727  1.00  0.00     0.211 HD  
ENDBRANCH  26  27
BRANCH  26  29
ATOM     29  C18 UNL     1      -3.282  -3.326  -0.975  1.00  0.00     0.054 A   
ATOM     30  C19 UNL     1      -2.871  -4.511  -1.593  1.00  0.00     0.132 A   
ATOM     31  C23 UNL     1      -4.531  -3.330  -0.348  1.00  0.00     0.132 A   
ATOM     32  C20 UNL     1      -3.671  -5.653  -1.599  1.00  0.00     0.040 A   
ATOM     33  C22 UNL     1      -5.345  -4.462  -0.344  1.00  0.00     0.040 A   
ATOM     34  C21 UNL     1      -4.914  -5.629  -0.973  1.00  0.00     0.006 A   
ATOM     35  F1  UNL     1      -1.673  -4.566  -2.192  1.00  0.00    -0.207 F   
ATOM     36  F2  UNL     1      -4.974  -2.225   0.267  1.00  0.00    -0.207 F   
ENDBRANCH  26  29
ENDBRANCH  25  26
ENDBRANCH   3  25
TORSDOF 10
