REMARK SMILES CC(C)C[C@H]([NH2+]Cc1ccc2c(c1)OCO2)c1cn(C[C@H](O)c2c(F)cccc2F)nn1
REMARK SMILES IDX 17 1 18 2 19 3 31 4 32 5 5 7 4 8 2 9 1 10 3 11 6 12 7 15
REMARK SMILES IDX 8 16 9 17 13 18 10 19 12 20 11 21 14 22 16 23 15 24 20 25
REMARK SMILES IDX 21 26 22 27 23 29 24 30 29 31 26 32 28 33 27 34 25 35 30 36
REMARK H PARENT 18 6 6 13 6 14 22 28
ROOT
ATOM     1   C14 UNL     1      -1.366   0.261   1.750  1.00  0.00     0.127 A   
ATOM     2   C15 UNL     1      -2.541   0.936   1.518  1.00  0.00     0.045 A   
ATOM     3   N2  UNL     1      -2.185   2.252   1.610  1.00  0.00    -0.209 N   
ATOM     4   N3  UNL     1      -0.884   2.380   1.930  1.00  0.00    -0.076 NA  
ATOM     5   N4  UNL     1      -0.368   1.165   2.011  1.00  0.00    -0.132 NA  
ATOM     6   H20 UNL     1      -3.541   0.628   1.246  1.00  0.00     0.083 HD  
ENDROOT
BRANCH   1   7
ATOM     7   C5  UNL     1      -1.027  -1.190   1.649  1.00  0.00     0.114 C   
BRANCH   7   8
ATOM     8   C4  UNL     1      -0.912  -1.839   3.041  1.00  0.00     0.064 C   
BRANCH   8   9
ATOM     9   C2  UNL     1      -1.236  -3.348   3.130  1.00  0.00    -0.012 C   
ATOM     10  C1  UNL     1      -0.334  -4.226   2.267  1.00  0.00     0.007 C   
ATOM     11  C3  UNL     1      -2.708  -3.637   2.825  1.00  0.00     0.007 C   
ENDBRANCH   8   9
ENDBRANCH   7   8
BRANCH   7  12
ATOM     12  N1  UNL     1       0.296  -1.316   0.935  1.00  0.00     0.249 N   
ATOM     13  H11 UNL     1       0.760  -2.210   1.115  1.00  0.00     0.199 HD  
ATOM     14  H12 UNL     1       0.908  -0.593   1.344  1.00  0.00     0.199 HD  
BRANCH  12  15
ATOM     15  C6  UNL     1       0.239  -1.070  -0.532  1.00  0.00     0.164 C   
BRANCH  15  16
ATOM     16  C7  UNL     1       1.622  -0.972  -1.109  1.00  0.00    -0.002 A   
ATOM     17  C8  UNL     1       2.233  -2.096  -1.711  1.00  0.00     0.012 A   
ATOM     18  C12 UNL     1       2.334   0.237  -1.012  1.00  0.00     0.045 A   
ATOM     19  C9  UNL     1       3.533  -2.017  -2.223  1.00  0.00     0.037 A   
ATOM     20  C11 UNL     1       3.612   0.282  -1.528  1.00  0.00     0.109 A   
ATOM     21  C10 UNL     1       4.195  -0.814  -2.116  1.00  0.00     0.108 A   
ATOM     22  O1  UNL     1       4.431   1.366  -1.520  1.00  0.00    -0.316 OA  
ATOM     23  O2  UNL     1       5.455  -0.557  -2.554  1.00  0.00    -0.316 OA  
ATOM     24  C13 UNL     1       5.604   0.828  -2.173  1.00  0.00     0.337 C   
ENDBRANCH  15  16
ENDBRANCH  12  15
ENDBRANCH   7  12
ENDBRANCH   1   7
BRANCH   3  25
ATOM     25  C16 UNL     1      -3.006   3.420   1.365  1.00  0.00     0.170 C   
BRANCH  25  26
ATOM     26  C17 UNL     1      -3.140   3.761  -0.126  1.00  0.00     0.170 C   
BRANCH  26  27
ATOM     27  O3  UNL     1      -3.853   2.718  -0.801  1.00  0.00    -0.386 OA  
ATOM     28  H24 UNL     1      -3.805   2.904  -1.757  1.00  0.00     0.211 HD  
ENDBRANCH  26  27
BRANCH  26  29
ATOM     29  C18 UNL     1      -1.835   4.108  -0.801  1.00  0.00     0.054 A   
ATOM     30  C19 UNL     1      -1.057   3.183  -1.503  1.00  0.00     0.132 A   
ATOM     31  C23 UNL     1      -1.338   5.410  -0.689  1.00  0.00     0.132 A   
ATOM     32  C20 UNL     1       0.151   3.547  -2.098  1.00  0.00     0.040 A   
ATOM     33  C22 UNL     1      -0.132   5.791  -1.272  1.00  0.00     0.040 A   
ATOM     34  C21 UNL     1       0.616   4.857  -1.984  1.00  0.00     0.006 A   
ATOM     35  F1  UNL     1      -1.455   1.907  -1.615  1.00  0.00    -0.207 F   
ATOM     36  F2  UNL     1      -2.036   6.323   0.002  1.00  0.00    -0.207 F   
ENDBRANCH  26  29
ENDBRANCH  25  26
ENDBRANCH   3  25
TORSDOF 10
