REMARK SMILES CC(C)(C)[C@H]([NH2+]Cc1ccc2c(c1)OCO2)c1cn([C@H](CO)c2ccc(F)cn2)nn1
REMARK SMILES IDX 17 1 18 2 19 3 30 4 31 5 5 7 2 8 1 9 3 10 4 11 6 12 7 15
REMARK SMILES IDX 8 16 9 17 13 18 10 19 12 20 11 21 14 22 16 23 15 24 20 25
REMARK SMILES IDX 21 26 22 27 23 29 24 30 29 31 25 32 28 33 26 34 27 35
REMARK H PARENT 18 6 6 13 6 14 22 28
ROOT
ATOM     1   C14 UNL     1      -0.108   0.297   1.430  1.00  0.00     0.127 A   
ATOM     2   C15 UNL     1      -0.543  -1.007   1.424  1.00  0.00     0.046 A   
ATOM     3   N2  UNL     1      -1.873  -0.918   1.113  1.00  0.00    -0.201 N   
ATOM     4   N4  UNL     1      -2.221   0.367   0.888  1.00  0.00    -0.075 NA  
ATOM     5   N5  UNL     1      -1.151   1.119   1.085  1.00  0.00    -0.132 NA  
ATOM     6   H20 UNL     1      -0.060  -1.955   1.623  1.00  0.00     0.083 HD  
ENDROOT
BRANCH   1   7
ATOM     7   C5  UNL     1       1.247   0.886   1.671  1.00  0.00     0.120 C   
BRANCH   7   8
ATOM     8   C2  UNL     1       1.522   1.286   3.162  1.00  0.00     0.010 C   
ATOM     9   C1  UNL     1       2.982   1.768   3.325  1.00  0.00     0.017 C   
ATOM     10  C3  UNL     1       1.355   0.055   4.083  1.00  0.00     0.017 C   
ATOM     11  C4  UNL     1       0.577   2.394   3.666  1.00  0.00     0.017 C   
ENDBRANCH   7   8
BRANCH   7  12
ATOM     12  N1  UNL     1       1.412   2.089   0.758  1.00  0.00     0.250 N   
ATOM     13  H11 UNL     1       1.855   2.870   1.245  1.00  0.00     0.199 HD  
ATOM     14  H12 UNL     1       0.453   2.411   0.546  1.00  0.00     0.199 HD  
BRANCH  12  15
ATOM     15  C6  UNL     1       2.120   1.849  -0.529  1.00  0.00     0.164 C   
BRANCH  15  16
ATOM     16  C7  UNL     1       1.356   0.987  -1.495  1.00  0.00    -0.002 A   
ATOM     17  C8  UNL     1       1.736  -0.358  -1.719  1.00  0.00     0.012 A   
ATOM     18  C12 UNL     1       0.240   1.509  -2.172  1.00  0.00     0.045 A   
ATOM     19  C9  UNL     1       1.018  -1.172  -2.603  1.00  0.00     0.037 A   
ATOM     20  C11 UNL     1      -0.442   0.682  -3.041  1.00  0.00     0.109 A   
ATOM     21  C10 UNL     1      -0.064  -0.620  -3.252  1.00  0.00     0.108 A   
ATOM     22  O1  UNL     1      -1.528   1.034  -3.776  1.00  0.00    -0.316 OA  
ATOM     23  O2  UNL     1      -0.866  -1.252  -4.148  1.00  0.00    -0.316 OA  
ATOM     24  C13 UNL     1      -1.763  -0.183  -4.517  1.00  0.00     0.337 C   
ENDBRANCH  15  16
ENDBRANCH  12  15
ENDBRANCH   7  12
ENDBRANCH   1   7
BRANCH   3  25
ATOM     25  C16 UNL     1      -2.871  -1.976   1.015  1.00  0.00     0.174 C   
BRANCH  25  26
ATOM     26  C17 UNL     1      -3.204  -2.575   2.393  1.00  0.00     0.187 C   
BRANCH  26  27
ATOM     27  O3  UNL     1      -2.091  -3.220   3.016  1.00  0.00    -0.394 OA  
ATOM     28  H24 UNL     1      -1.824  -3.945   2.408  1.00  0.00     0.210 HD  
ENDBRANCH  26  27
ENDBRANCH  25  26
BRANCH  25  29
ATOM     29  C18 UNL     1      -2.447  -3.010  -0.017  1.00  0.00     0.065 A   
ATOM     30  C19 UNL     1      -2.721  -2.797  -1.371  1.00  0.00     0.029 A   
ATOM     31  N3  UNL     1      -1.775  -4.113   0.421  1.00  0.00    -0.256 NA  
ATOM     32  C20 UNL     1      -2.311  -3.749  -2.304  1.00  0.00     0.043 A   
ATOM     33  C22 UNL     1      -1.397  -5.022  -0.513  1.00  0.00     0.150 A   
ATOM     34  C21 UNL     1      -1.642  -4.877  -1.865  1.00  0.00     0.141 A   
ATOM     35  F1  UNL     1      -1.234  -5.803  -2.737  1.00  0.00    -0.205 F   
ENDBRANCH  25  29
ENDBRANCH   3  25
TORSDOF 9
