REMARK SMILES CC(C)(C)[C@H]([NH2+]Cc1ccc2c(c1)OCO2)c1cn([C@@H](CO)c2ccc(F)cn2)nn1
REMARK SMILES IDX 17 1 18 2 19 3 30 4 31 5 5 7 2 8 1 9 3 10 4 11 6 12 7 15
REMARK SMILES IDX 8 16 9 17 13 18 10 19 12 20 11 21 14 22 16 23 15 24 20 25
REMARK SMILES IDX 21 26 22 27 23 29 24 30 29 31 25 32 28 33 26 34 27 35
REMARK H PARENT 18 6 6 13 6 14 22 28
ROOT
ATOM     1   C14 UNL     1      -0.733   1.168   1.005  1.00  0.00     0.127 A   
ATOM     2   C15 UNL     1      -0.520   1.695  -0.248  1.00  0.00     0.046 A   
ATOM     3   N2  UNL     1      -0.595   3.049  -0.062  1.00  0.00    -0.201 N   
ATOM     4   N4  UNL     1      -0.842   3.335   1.234  1.00  0.00    -0.075 NA  
ATOM     5   N5  UNL     1      -0.926   2.192   1.895  1.00  0.00    -0.132 NA  
ATOM     6   H20 UNL     1      -0.293   1.256  -1.211  1.00  0.00     0.083 HD  
ENDROOT
BRANCH   1   7
ATOM     7   C5  UNL     1      -0.668  -0.246   1.492  1.00  0.00     0.120 C   
BRANCH   7   8
ATOM     8   C2  UNL     1      -2.068  -0.930   1.675  1.00  0.00     0.010 C   
ATOM     9   C1  UNL     1      -1.890  -2.427   2.020  1.00  0.00     0.017 C   
ATOM     10  C3  UNL     1      -2.918  -0.279   2.784  1.00  0.00     0.017 C   
ATOM     11  C4  UNL     1      -2.864  -0.865   0.351  1.00  0.00     0.017 C   
ENDBRANCH   7   8
BRANCH   7  12
ATOM     12  N1  UNL     1       0.112  -0.276   2.793  1.00  0.00     0.250 N   
ATOM     13  H11 UNL     1      -0.305   0.449   3.394  1.00  0.00     0.199 HD  
ATOM     14  H12 UNL     1      -0.001  -1.172   3.271  1.00  0.00     0.199 HD  
BRANCH  12  15
ATOM     15  C6  UNL     1       1.573   0.028   2.690  1.00  0.00     0.164 C   
BRANCH  15  16
ATOM     16  C7  UNL     1       2.340  -1.038   1.959  1.00  0.00    -0.002 A   
ATOM     17  C8  UNL     1       2.586  -2.292   2.570  1.00  0.00     0.012 A   
ATOM     18  C12 UNL     1       2.789  -0.808   0.646  1.00  0.00     0.045 A   
ATOM     19  C9  UNL     1       3.264  -3.304   1.883  1.00  0.00     0.037 A   
ATOM     20  C11 UNL     1       3.452  -1.829  -0.002  1.00  0.00     0.109 A   
ATOM     21  C10 UNL     1       3.682  -3.042   0.598  1.00  0.00     0.108 A   
ATOM     22  O1  UNL     1       3.940  -1.776  -1.269  1.00  0.00    -0.316 OA  
ATOM     23  O2  UNL     1       4.347  -3.904  -0.214  1.00  0.00    -0.316 OA  
ATOM     24  C13 UNL     1       4.539  -3.085  -1.388  1.00  0.00     0.337 C   
ENDBRANCH  15  16
ENDBRANCH  12  15
ENDBRANCH   7  12
ENDBRANCH   1   7
BRANCH   3  25
ATOM     25  C16 UNL     1      -0.367   4.127  -1.019  1.00  0.00     0.174 C   
BRANCH  25  26
ATOM     26  C17 UNL     1       1.133   4.293  -1.319  1.00  0.00     0.187 C   
BRANCH  26  27
ATOM     27  O3  UNL     1       1.724   3.128  -1.902  1.00  0.00    -0.394 OA  
ATOM     28  H24 UNL     1       1.258   2.995  -2.758  1.00  0.00     0.210 HD  
ENDBRANCH  26  27
ENDBRANCH  25  26
BRANCH  25  29
ATOM     29  C18 UNL     1      -1.218   3.925  -2.262  1.00  0.00     0.065 A   
ATOM     30  C19 UNL     1      -2.546   4.366  -2.281  1.00  0.00     0.029 A   
ATOM     31  N3  UNL     1      -0.656   3.276  -3.322  1.00  0.00    -0.256 NA  
ATOM     32  C20 UNL     1      -3.316   4.153  -3.423  1.00  0.00     0.043 A   
ATOM     33  C22 UNL     1      -1.433   3.091  -4.421  1.00  0.00     0.150 A   
ATOM     34  C21 UNL     1      -2.747   3.508  -4.508  1.00  0.00     0.141 A   
ATOM     35  F1  UNL     1      -3.462   3.288  -5.617  1.00  0.00    -0.205 F   
ENDBRANCH  25  29
ENDBRANCH   3  25
TORSDOF 9
