REMARK SMILES CC(C)[C@H]([NH2+]Cc1ccc2c(c1)OCO2)c1cn(CCc2nccn2C)nn1
REMARK SMILES IDX 16 1 17 2 18 3 27 4 28 5 4 7 2 8 1 9 3 10 5 11 6 14 7 15
REMARK SMILES IDX 8 16 12 17 9 18 11 19 10 20 13 21 15 22 14 23 19 24 20 25
REMARK SMILES IDX 21 26 22 27 25 28 23 29 24 30 26 31
REMARK H PARENT 17 6 5 12 5 13
ROOT
ATOM     1   C13 UNL     1       0.742  -0.222  -2.613  1.00  0.00     0.127 A   
ATOM     2   C14 UNL     1       0.988   1.032  -3.125  1.00  0.00     0.045 A   
ATOM     3   N2  UNL     1      -0.204   1.384  -3.690  1.00  0.00    -0.212 N   
ATOM     4   N5  UNL     1      -1.081   0.364  -3.652  1.00  0.00    -0.076 NA  
ATOM     5   N6  UNL     1      -0.518  -0.622  -2.973  1.00  0.00    -0.132 NA  
ATOM     6   H18 UNL     1       1.810   1.728  -3.031  1.00  0.00     0.083 HD  
ENDROOT
BRANCH   1   7
ATOM     7   C4  UNL     1       1.528  -1.030  -1.637  1.00  0.00     0.117 C   
BRANCH   7   8
ATOM     8   C2  UNL     1       1.936  -2.418  -2.198  1.00  0.00     0.037 C   
ATOM     9   C1  UNL     1       2.810  -2.270  -3.453  1.00  0.00     0.014 C   
ATOM     10  C3  UNL     1       2.699  -3.271  -1.175  1.00  0.00     0.014 C   
ENDBRANCH   7   8
BRANCH   7  11
ATOM     11  N1  UNL     1       0.694  -1.211  -0.390  1.00  0.00     0.249 N   
ATOM     12  H9  UNL     1      -0.180  -1.677  -0.673  1.00  0.00     0.199 HD  
ATOM     13  H10 UNL     1       1.156  -1.824   0.285  1.00  0.00     0.199 HD  
BRANCH  11  14
ATOM     14  C5  UNL     1       0.311   0.056   0.308  1.00  0.00     0.164 C   
BRANCH  14  15
ATOM     15  C6  UNL     1      -0.380  -0.254   1.607  1.00  0.00    -0.002 A   
ATOM     16  C7  UNL     1      -1.792  -0.336   1.659  1.00  0.00     0.012 A   
ATOM     17  C11 UNL     1       0.373  -0.516   2.764  1.00  0.00     0.045 A   
ATOM     18  C8  UNL     1      -2.449  -0.667   2.849  1.00  0.00     0.037 A   
ATOM     19  C10 UNL     1      -0.306  -0.843   3.920  1.00  0.00     0.109 A   
ATOM     20  C9  UNL     1      -1.677  -0.916   3.962  1.00  0.00     0.108 A   
ATOM     21  O1  UNL     1       0.267  -1.131   5.118  1.00  0.00    -0.316 OA  
ATOM     22  O2  UNL     1      -2.140  -1.256   5.193  1.00  0.00    -0.316 OA  
ATOM     23  C12 UNL     1      -0.904  -1.377   5.930  1.00  0.00     0.337 C   
ENDBRANCH  14  15
ENDBRANCH  11  14
ENDBRANCH   7  11
ENDBRANCH   1   7
BRANCH   3  24
ATOM     24  C15 UNL     1      -0.608   2.689  -4.166  1.00  0.00     0.142 C   
BRANCH  24  25
ATOM     25  C16 UNL     1      -1.665   3.350  -3.282  1.00  0.00     0.094 C   
BRANCH  25  26
ATOM     26  C17 UNL     1      -1.153   3.753  -1.928  1.00  0.00     0.101 A   
ATOM     27  N3  UNL     1      -0.120   3.234  -1.284  1.00  0.00    -0.244 NA  
ATOM     28  N4  UNL     1      -1.744   4.737  -1.164  1.00  0.00    -0.297 N   
ATOM     29  C18 UNL     1      -0.013   3.942  -0.114  1.00  0.00     0.128 A   
ATOM     30  C19 UNL     1      -1.018   4.870  -0.014  1.00  0.00     0.096 A   
ATOM     31  C20 UNL     1      -2.914   5.513  -1.506  1.00  0.00     0.137 C   
ENDBRANCH  25  26
ENDBRANCH  24  25
ENDBRANCH   3  24
TORSDOF 8
