REMARK SMILES Clc1cnccc1CCn1cc([C@@H]([NH2+]Cc2ccc3c(c2)OCO3)C2CCCC2)nn1
REMARK SMILES IDX 10 1 11 2 12 3 30 4 31 5 9 7 8 8 7 9 2 10 3 11 4 12 6 13
REMARK SMILES IDX 5 14 1 15 13 16 14 17 15 20 16 21 17 22 21 23 18 24 20 25
REMARK SMILES IDX 19 26 22 27 24 28 23 29 25 30 26 31 29 32 27 33 28 34
REMARK H PARENT 11 6 14 18 14 19
ROOT
ATOM     1   N2  UNL     1      -2.237  -0.564  -2.739  1.00  0.00    -0.212 N   
ATOM     2   C8  UNL     1      -1.341   0.170  -2.015  1.00  0.00     0.045 A   
ATOM     3   C9  UNL     1      -0.318  -0.716  -1.760  1.00  0.00     0.127 A   
ATOM     4   N4  UNL     1      -0.613  -1.924  -2.339  1.00  0.00    -0.132 NA  
ATOM     5   N5  UNL     1      -1.791  -1.818  -2.931  1.00  0.00    -0.076 NA  
ATOM     6   H8  UNL     1      -1.516   1.203  -1.746  1.00  0.00     0.083 HD  
ENDROOT
BRANCH   1   7
ATOM     7   C7  UNL     1      -3.514  -0.148  -3.278  1.00  0.00     0.139 C   
BRANCH   7   8
ATOM     8   C6  UNL     1      -4.699  -0.517  -2.381  1.00  0.00     0.058 C   
BRANCH   8   9
ATOM     9   C5  UNL     1      -4.782   0.326  -1.126  1.00  0.00    -0.025 A   
ATOM     10  C1  UNL     1      -4.333  -0.107   0.130  1.00  0.00     0.062 A   
ATOM     11  C2  UNL     1      -4.434   0.765   1.208  1.00  0.00     0.131 A   
ATOM     12  N1  UNL     1      -4.930   2.021   1.125  1.00  0.00    -0.263 NA  
ATOM     13  C4  UNL     1      -5.321   1.620  -1.219  1.00  0.00     0.025 A   
ATOM     14  C3  UNL     1      -5.376   2.417  -0.084  1.00  0.00     0.111 A   
ATOM     15  CL1 UNL     1      -3.637  -1.661   0.392  1.00  0.00    -0.082 Cl  
ENDBRANCH   8   9
ENDBRANCH   7   8
ENDBRANCH   1   7
BRANCH   3  16
ATOM     16  C10 UNL     1       0.943  -0.569  -0.971  1.00  0.00     0.117 C   
BRANCH  16  17
ATOM     17  N3  UNL     1       1.339  -1.899  -0.375  1.00  0.00     0.249 N   
ATOM     18  H10 UNL     1       1.233  -2.590  -1.131  1.00  0.00     0.199 HD  
ATOM     19  H11 UNL     1       2.322  -1.905  -0.095  1.00  0.00     0.199 HD  
BRANCH  17  20
ATOM     20  C11 UNL     1       0.507  -2.381   0.768  1.00  0.00     0.164 C   
BRANCH  20  21
ATOM     21  C12 UNL     1       0.710  -1.567   2.016  1.00  0.00    -0.002 A   
ATOM     22  C13 UNL     1       1.886  -1.719   2.790  1.00  0.00     0.012 A   
ATOM     23  C17 UNL     1      -0.251  -0.616   2.400  1.00  0.00     0.045 A   
ATOM     24  C14 UNL     1       2.103  -0.933   3.928  1.00  0.00     0.037 A   
ATOM     25  C16 UNL     1      -0.004   0.144   3.523  1.00  0.00     0.109 A   
ATOM     26  C15 UNL     1       1.139  -0.009   4.266  1.00  0.00     0.108 A   
ATOM     27  O1  UNL     1      -0.821   1.110   4.017  1.00  0.00    -0.316 OA  
ATOM     28  O2  UNL     1       1.185   0.839   5.326  1.00  0.00    -0.316 OA  
ATOM     29  C18 UNL     1      -0.059   1.554   5.162  1.00  0.00     0.337 C   
ENDBRANCH  20  21
ENDBRANCH  17  20
ENDBRANCH  16  17
BRANCH  16  30
ATOM     30  C19 UNL     1       2.083   0.012  -1.830  1.00  0.00     0.043 C   
ATOM     31  C20 UNL     1       3.332   0.422  -1.044  1.00  0.00     0.010 C   
ATOM     32  C23 UNL     1       2.671  -0.906  -2.905  1.00  0.00     0.010 C   
ATOM     33  C21 UNL     1       4.383   0.656  -2.126  1.00  0.00     0.001 C   
ATOM     34  C22 UNL     1       3.965  -0.207  -3.317  1.00  0.00     0.001 C   
ENDBRANCH  16  30
ENDBRANCH   3  16
TORSDOF 8
