REMARK SMILES CC(C)C[C@H]([NH2+]Cc1ccc2c(c1)OCO2)c1cn(CCc2ccco2)nn1
REMARK SMILES IDX 17 1 18 2 19 3 27 4 28 5 5 7 4 8 2 9 1 10 3 11 6 12 7 15
REMARK SMILES IDX 8 16 9 17 13 18 10 19 12 20 11 21 14 22 16 23 15 24 20 25
REMARK SMILES IDX 21 26 22 27 23 28 26 29 24 30 25 31
REMARK H PARENT 18 6 6 13 6 14
ROOT
ATOM     1   C14 UNL     1       0.728   0.167   1.353  1.00  0.00     0.127 A   
ATOM     2   C15 UNL     1       1.617  -0.205   0.368  1.00  0.00     0.045 A   
ATOM     3   N2  UNL     1       2.722  -0.608   1.063  1.00  0.00    -0.212 N   
ATOM     4   N3  UNL     1       2.529  -0.490   2.390  1.00  0.00    -0.076 NA  
ATOM     5   N4  UNL     1       1.307  -0.022   2.581  1.00  0.00    -0.132 NA  
ATOM     6   H20 UNL     1       1.567  -0.237  -0.711  1.00  0.00     0.083 HD  
ENDROOT
BRANCH   1   7
ATOM     7   C5  UNL     1      -0.684   0.635   1.278  1.00  0.00     0.114 C   
BRANCH   7   8
ATOM     8   C4  UNL     1      -0.827   2.136   1.596  1.00  0.00     0.064 C   
BRANCH   8   9
ATOM     9   C2  UNL     1      -0.094   3.086   0.623  1.00  0.00    -0.012 C   
ATOM     10  C1  UNL     1      -0.608   2.961  -0.812  1.00  0.00     0.007 C   
ATOM     11  C3  UNL     1      -0.249   4.533   1.102  1.00  0.00     0.007 C   
ENDBRANCH   8   9
ENDBRANCH   7   8
BRANCH   7  12
ATOM     12  N1  UNL     1      -1.524  -0.112   2.296  1.00  0.00     0.249 N   
ATOM     13  H11 UNL     1      -2.449   0.320   2.375  1.00  0.00     0.199 HD  
ATOM     14  H12 UNL     1      -1.048   0.007   3.202  1.00  0.00     0.199 HD  
BRANCH  12  15
ATOM     15  C6  UNL     1      -1.684  -1.580   2.073  1.00  0.00     0.164 C   
BRANCH  15  16
ATOM     16  C7  UNL     1      -2.485  -1.901   0.843  1.00  0.00    -0.002 A   
ATOM     17  C8  UNL     1      -1.831  -2.297  -0.348  1.00  0.00     0.012 A   
ATOM     18  C12 UNL     1      -3.885  -1.780   0.855  1.00  0.00     0.045 A   
ATOM     19  C9  UNL     1      -2.557  -2.569  -1.512  1.00  0.00     0.037 A   
ATOM     20  C11 UNL     1      -4.571  -2.058  -0.309  1.00  0.00     0.109 A   
ATOM     21  C10 UNL     1      -3.926  -2.439  -1.460  1.00  0.00     0.108 A   
ATOM     22  O1  UNL     1      -5.919  -1.995  -0.465  1.00  0.00    -0.316 OA  
ATOM     23  O2  UNL     1      -4.787  -2.662  -2.486  1.00  0.00    -0.316 OA  
ATOM     24  C13 UNL     1      -6.055  -2.411  -1.843  1.00  0.00     0.337 C   
ENDBRANCH  15  16
ENDBRANCH  12  15
ENDBRANCH   7  12
ENDBRANCH   1   7
BRANCH   3  25
ATOM     25  C16 UNL     1       3.986  -1.091   0.548  1.00  0.00     0.141 C   
BRANCH  25  26
ATOM     26  C17 UNL     1       4.134  -2.604   0.666  1.00  0.00     0.083 C   
BRANCH  26  27
ATOM     27  C18 UNL     1       3.355  -3.329  -0.374  1.00  0.00     0.060 A   
ATOM     28  C19 UNL     1       3.693  -3.865  -1.600  1.00  0.00     0.031 A   
ATOM     29  O3  UNL     1       2.036  -3.561  -0.109  1.00  0.00    -0.322 OA  
ATOM     30  C20 UNL     1       2.521  -4.474  -2.106  1.00  0.00     0.028 A   
ATOM     31  C21 UNL     1       1.546  -4.274  -1.157  1.00  0.00     0.136 A   
ENDBRANCH  26  27
ENDBRANCH  25  26
ENDBRANCH   3  25
TORSDOF 9
