REMARK SMILES COc1nccc(Cl)c1Cn1cc([C@@H]([NH2+]Cc2ccc3c(c2)OCO3)C2CCCC2)nn1
REMARK SMILES IDX 11 1 12 2 13 3 31 4 32 5 10 7 9 8 3 9 4 10 5 11 7 12 6 13
REMARK SMILES IDX 8 14 2 15 1 16 14 17 15 18 16 21 17 22 18 23 22 24 19 25
REMARK SMILES IDX 21 26 20 27 23 28 25 29 24 30 26 31 27 32 30 33 28 34 29 35
REMARK H PARENT 12 6 15 19 15 20
ROOT
ATOM     1   N2  UNL     1      -2.856  -0.659  -0.405  1.00  0.00    -0.208 N   
ATOM     2   C8  UNL     1      -2.302   0.387   0.283  1.00  0.00     0.046 A   
ATOM     3   C9  UNL     1      -0.946   0.176   0.178  1.00  0.00     0.127 A   
ATOM     4   N4  UNL     1      -0.725  -0.985  -0.520  1.00  0.00    -0.132 NA  
ATOM     5   N5  UNL     1      -1.898  -1.497  -0.848  1.00  0.00    -0.076 NA  
ATOM     6   H8  UNL     1      -2.903   1.159   0.745  1.00  0.00     0.083 HD  
ENDROOT
BRANCH   1   7
ATOM     7   C7  UNL     1      -4.263  -0.953  -0.626  1.00  0.00     0.175 C   
BRANCH   7   8
ATOM     8   C6  UNL     1      -4.806  -0.181  -1.794  1.00  0.00     0.040 A   
ATOM     9   C2  UNL     1      -5.343   1.092  -1.615  1.00  0.00     0.173 A   
ATOM     10  N1  UNL     1      -5.821   1.861  -2.615  1.00  0.00    -0.232 NA  
ATOM     11  C3  UNL     1      -5.790   1.352  -3.862  1.00  0.00     0.115 A   
ATOM     12  C5  UNL     1      -4.783  -0.661  -3.109  1.00  0.00     0.051 A   
ATOM     13  C4  UNL     1      -5.283   0.105  -4.158  1.00  0.00     0.041 A   
ATOM     14  CL1 UNL     1      -4.144  -2.217  -3.502  1.00  0.00    -0.084 Cl  
BRANCH   9  15
ATOM     15  O1  UNL     1      -5.356   1.598  -0.328  1.00  0.00    -0.332 OA  
ATOM     16  C1  UNL     1      -6.081   2.822  -0.213  1.00  0.00     0.205 C   
ENDBRANCH   9  15
ENDBRANCH   7   8
ENDBRANCH   1   7
BRANCH   3  17
ATOM     17  C10 UNL     1       0.222   0.954   0.696  1.00  0.00     0.117 C   
BRANCH  17  18
ATOM     18  N3  UNL     1       1.426   0.057   0.808  1.00  0.00     0.249 N   
ATOM     19  H10 UNL     1       1.420  -0.547  -0.029  1.00  0.00     0.199 HD  
ATOM     20  H11 UNL     1       2.309   0.574   0.778  1.00  0.00     0.199 HD  
BRANCH  18  21
ATOM     21  C11 UNL     1       1.431  -0.850   1.988  1.00  0.00     0.164 C   
BRANCH  21  22
ATOM     22  C12 UNL     1       2.611  -1.778   1.933  1.00  0.00    -0.002 A   
ATOM     23  C13 UNL     1       2.514  -3.007   1.236  1.00  0.00     0.012 A   
ATOM     24  C17 UNL     1       3.832  -1.408   2.521  1.00  0.00     0.045 A   
ATOM     25  C14 UNL     1       3.614  -3.866   1.141  1.00  0.00     0.037 A   
ATOM     26  C16 UNL     1       4.897  -2.278   2.406  1.00  0.00     0.109 A   
ATOM     27  C15 UNL     1       4.792  -3.472   1.737  1.00  0.00     0.108 A   
ATOM     28  O2  UNL     1       6.141  -2.074   2.913  1.00  0.00    -0.316 OA  
ATOM     29  O3  UNL     1       5.954  -4.174   1.744  1.00  0.00    -0.316 OA  
ATOM     30  C18 UNL     1       6.806  -3.291   2.503  1.00  0.00     0.337 C   
ENDBRANCH  21  22
ENDBRANCH  18  21
ENDBRANCH  17  18
BRANCH  17  31
ATOM     31  C19 UNL     1       0.529   2.176  -0.191  1.00  0.00     0.043 C   
ATOM     32  C20 UNL     1       1.569   3.141   0.383  1.00  0.00     0.010 C   
ATOM     33  C23 UNL     1       1.058   1.881  -1.603  1.00  0.00     0.010 C   
ATOM     34  C21 UNL     1       1.870   4.046  -0.802  1.00  0.00     0.001 C   
ATOM     35  C22 UNL     1       1.884   3.107  -2.004  1.00  0.00     0.001 C   
ENDBRANCH  17  31
ENDBRANCH   3  17
TORSDOF 8
