REMARK SMILES CC(C)(C)c1cc(Cn2cc([C@@H]([NH2+]Cc3ccc4c(c3)OCO4)C(C)(C)C)nn2)on1
REMARK SMILES IDX 9 1 10 2 11 3 28 4 29 5 8 7 7 8 5 9 6 10 31 11 30 12 2 13
REMARK SMILES IDX 1 14 3 15 4 16 12 17 13 18 14 21 15 22 16 23 20 24 17 25
REMARK SMILES IDX 19 26 18 27 21 28 23 29 22 30 24 31 25 32 26 33 27 34
REMARK H PARENT 10 6 13 19 13 20
ROOT
ATOM     1   N1  UNL     1      -2.018   0.569  -2.699  1.00  0.00    -0.206 N   
ATOM     2   C9  UNL     1      -2.555  -0.357  -1.842  1.00  0.00     0.046 A   
ATOM     3   C10 UNL     1      -2.636   0.317  -0.643  1.00  0.00     0.127 A   
ATOM     4   N3  UNL     1      -2.259   1.621  -0.833  1.00  0.00    -0.132 NA  
ATOM     5   N4  UNL     1      -1.910   1.771  -2.098  1.00  0.00    -0.076 NA  
ATOM     6   H13 UNL     1      -2.687  -1.393  -2.123  1.00  0.00     0.083 HD  
ENDROOT
BRANCH   1   7
ATOM     7   C8  UNL     1      -1.326   0.312  -3.953  1.00  0.00     0.198 C   
BRANCH   7   8
ATOM     8   C7  UNL     1       0.100   0.040  -3.652  1.00  0.00     0.106 A   
ATOM     9   C5  UNL     1       2.269  -0.076  -3.233  1.00  0.00     0.076 A   
ATOM     10  C6  UNL     1       1.289   0.652  -3.962  1.00  0.00     0.060 A   
ATOM     11  N5  UNL     1       1.694  -1.075  -2.546  1.00  0.00    -0.133 NA  
ATOM     12  O3  UNL     1       0.350  -1.019  -2.835  1.00  0.00    -0.216 OA  
BRANCH   9  13
ATOM     13  C2  UNL     1       3.767   0.169  -3.176  1.00  0.00     0.007 C   
ATOM     14  C1  UNL     1       4.450  -0.657  -2.065  1.00  0.00     0.017 C   
ATOM     15  C3  UNL     1       4.405  -0.214  -4.526  1.00  0.00     0.017 C   
ATOM     16  C4  UNL     1       4.056   1.659  -2.894  1.00  0.00     0.017 C   
ENDBRANCH   9  13
ENDBRANCH   7   8
ENDBRANCH   1   7
BRANCH   3  17
ATOM     17  C11 UNL     1      -2.831  -0.196   0.752  1.00  0.00     0.120 C   
BRANCH  17  18
ATOM     18  N2  UNL     1      -1.608   0.206   1.547  1.00  0.00     0.250 N   
ATOM     19  H15 UNL     1      -1.777   0.230   2.555  1.00  0.00     0.199 HD  
ATOM     20  H16 UNL     1      -1.394   1.180   1.274  1.00  0.00     0.199 HD  
BRANCH  18  21
ATOM     21  C12 UNL     1      -0.384  -0.606   1.272  1.00  0.00     0.164 C   
BRANCH  21  22
ATOM     22  C13 UNL     1       0.840   0.070   1.819  1.00  0.00    -0.002 A   
ATOM     23  C14 UNL     1       1.231  -0.126   3.164  1.00  0.00     0.012 A   
ATOM     24  C18 UNL     1       1.581   0.938   0.999  1.00  0.00     0.045 A   
ATOM     25  C15 UNL     1       2.354   0.526   3.684  1.00  0.00     0.037 A   
ATOM     26  C17 UNL     1       2.683   1.564   1.542  1.00  0.00     0.109 A   
ATOM     27  C16 UNL     1       3.058   1.364   2.847  1.00  0.00     0.108 A   
ATOM     28  O1  UNL     1       3.506   2.428   0.891  1.00  0.00    -0.316 OA  
ATOM     29  O2  UNL     1       4.167   2.075   3.182  1.00  0.00    -0.316 OA  
ATOM     30  C19 UNL     1       4.455   2.742   1.935  1.00  0.00     0.337 C   
ENDBRANCH  21  22
ENDBRANCH  18  21
ENDBRANCH  17  18
BRANCH  17  31
ATOM     31  C20 UNL     1      -4.143   0.284   1.457  1.00  0.00     0.010 C   
ATOM     32  C21 UNL     1      -4.167   1.801   1.733  1.00  0.00     0.017 C   
ATOM     33  C22 UNL     1      -5.367  -0.073   0.583  1.00  0.00     0.017 C   
ATOM     34  C23 UNL     1      -4.318  -0.452   2.806  1.00  0.00     0.017 C   
ENDBRANCH  17  31
ENDBRANCH   3  17
TORSDOF 8
