REMARK SMILES Cn1nc2ccccc2c1Cn1cc([C@@H]([NH2+]Cc2ccc3c(c2)OCO3)C(C)(C)C)nn1
REMARK SMILES IDX 12 1 13 2 14 3 31 4 32 5 11 7 10 8 2 9 3 10 4 11 9 12 5 13
REMARK SMILES IDX 8 14 6 15 7 16 1 17 15 18 16 19 17 22 18 23 19 24 23 25
REMARK SMILES IDX 20 26 22 27 21 28 24 29 26 30 25 31 27 32 28 33 29 34 30 35
REMARK H PARENT 13 6 16 20 16 21
ROOT
ATOM     1   N3  UNL     1       1.506  -0.889  -1.026  1.00  0.00    -0.206 N   
ATOM     2   C10 UNL     1       0.459  -0.207  -1.584  1.00  0.00     0.046 A   
ATOM     3   C11 UNL     1       0.623   1.083  -1.132  1.00  0.00     0.127 A   
ATOM     4   N5  UNL     1       1.744   1.143  -0.342  1.00  0.00    -0.132 NA  
ATOM     5   N6  UNL     1       2.274  -0.067  -0.285  1.00  0.00    -0.076 NA  
ATOM     6   H10 UNL     1      -0.294  -0.697  -2.187  1.00  0.00     0.083 HD  
ENDROOT
BRANCH   1   7
ATOM     7   C9  UNL     1       1.762  -2.323  -1.054  1.00  0.00     0.187 C   
BRANCH   7   8
ATOM     8   C8  UNL     1       0.804  -3.018  -0.152  1.00  0.00     0.057 A   
ATOM     9   N1  UNL     1       0.925  -3.047   1.219  1.00  0.00    -0.230 N   
ATOM     10  N2  UNL     1      -0.129  -3.599   1.851  1.00  0.00    -0.181 NA  
ATOM     11  C2  UNL     1      -0.922  -4.067   0.878  1.00  0.00     0.090 A   
ATOM     12  C7  UNL     1      -0.356  -3.714  -0.400  1.00  0.00     0.022 A   
ATOM     13  C3  UNL     1      -2.131  -4.775   0.964  1.00  0.00     0.031 A   
ATOM     14  C6  UNL     1      -0.894  -4.002  -1.653  1.00  0.00     0.012 A   
ATOM     15  C4  UNL     1      -2.697  -5.088  -0.291  1.00  0.00     0.002 A   
ATOM     16  C5  UNL     1      -2.104  -4.718  -1.538  1.00  0.00     0.001 A   
ATOM     17  C1  UNL     1       2.000  -2.521   2.034  1.00  0.00     0.159 C   
ENDBRANCH   7   8
ENDBRANCH   1   7
BRANCH   3  18
ATOM     18  C12 UNL     1      -0.245   2.298  -1.274  1.00  0.00     0.120 C   
BRANCH  18  19
ATOM     19  N4  UNL     1      -0.262   3.032   0.047  1.00  0.00     0.250 N   
ATOM     20  H12 UNL     1       0.717   3.087   0.365  1.00  0.00     0.199 HD  
ATOM     21  H13 UNL     1      -0.588   3.997  -0.043  1.00  0.00     0.199 HD  
BRANCH  19  22
ATOM     22  C13 UNL     1      -1.038   2.368   1.135  1.00  0.00     0.164 C   
BRANCH  22  23
ATOM     23  C14 UNL     1      -0.905   3.141   2.416  1.00  0.00    -0.002 A   
ATOM     24  C15 UNL     1      -1.877   4.104   2.779  1.00  0.00     0.012 A   
ATOM     25  C19 UNL     1       0.220   2.947   3.237  1.00  0.00     0.045 A   
ATOM     26  C16 UNL     1      -1.738   4.856   3.951  1.00  0.00     0.037 A   
ATOM     27  C18 UNL     1       0.326   3.706   4.383  1.00  0.00     0.109 A   
ATOM     28  C17 UNL     1      -0.625   4.634   4.731  1.00  0.00     0.108 A   
ATOM     29  O1  UNL     1       1.344   3.644   5.281  1.00  0.00    -0.316 OA  
ATOM     30  O2  UNL     1      -0.327   5.271   5.892  1.00  0.00    -0.316 OA  
ATOM     31  C20 UNL     1       0.912   4.623   6.253  1.00  0.00     0.337 C   
ENDBRANCH  22  23
ENDBRANCH  19  22
ENDBRANCH  18  19
BRANCH  18  32
ATOM     32  C21 UNL     1       0.182   3.263  -2.434  1.00  0.00     0.010 C   
ATOM     33  C22 UNL     1      -0.854   4.399  -2.596  1.00  0.00     0.017 C   
ATOM     34  C23 UNL     1       0.221   2.495  -3.775  1.00  0.00     0.017 C   
ATOM     35  C24 UNL     1       1.566   3.901  -2.200  1.00  0.00     0.017 C   
ENDBRANCH  18  32
ENDBRANCH   3  18
TORSDOF 7
