REMARK SMILES COc1cc(CCn2cc([C@@H]([NH2+]Cc3ccc4c(c3)OCO4)C(C)(C)C)nn2)ccc1O
REMARK SMILES IDX 8 1 9 2 10 3 27 4 28 5 7 7 6 8 5 9 3 10 4 11 31 12 30 13
REMARK SMILES IDX 29 14 2 15 1 16 32 17 11 19 12 20 13 23 14 24 15 25 19 26
REMARK SMILES IDX 16 27 18 28 17 29 20 30 22 31 21 32 23 33 24 34 25 35 26 36
REMARK H PARENT 9 6 32 18 12 21 12 22
ROOT
ATOM     1   N1  UNL     1       0.613   2.058   2.839  1.00  0.00    -0.212 N   
ATOM     2   C7  UNL     1       1.485   2.103   1.787  1.00  0.00     0.045 A   
ATOM     3   C8  UNL     1       0.669   2.216   0.684  1.00  0.00     0.127 A   
ATOM     4   N3  UNL     1      -0.639   2.277   1.097  1.00  0.00    -0.132 NA  
ATOM     5   N4  UNL     1      -0.659   2.187   2.418  1.00  0.00    -0.076 NA  
ATOM     6   H9  UNL     1       2.553   1.984   1.912  1.00  0.00     0.083 HD  
ENDROOT
BRANCH   1   7
ATOM     7   C6  UNL     1       0.913   1.746   4.222  1.00  0.00     0.139 C   
BRANCH   7   8
ATOM     8   C5  UNL     1       0.463   0.338   4.635  1.00  0.00     0.057 C   
BRANCH   8   9
ATOM     9   C4  UNL     1       0.914  -0.745   3.677  1.00  0.00    -0.044 A   
ATOM     10  C2  UNL     1       0.367  -2.381   1.963  1.00  0.00     0.105 A   
ATOM     11  C3  UNL     1      -0.040  -1.453   2.920  1.00  0.00     0.040 A   
ATOM     12  C24 UNL     1       1.733  -2.578   1.748  1.00  0.00     0.101 A   
ATOM     13  C23 UNL     1       2.689  -1.916   2.508  1.00  0.00     0.036 A   
ATOM     14  C22 UNL     1       2.279  -1.009   3.485  1.00  0.00     0.006 A   
BRANCH  10  15
ATOM     15  O1  UNL     1      -0.471  -3.084   1.138  1.00  0.00    -0.347 OA  
ATOM     16  C1  UNL     1      -1.758  -3.371   1.683  1.00  0.00     0.203 C   
ENDBRANCH  10  15
BRANCH  12  17
ATOM     17  O4  UNL     1       2.161  -3.435   0.773  1.00  0.00    -0.358 OA  
ATOM     18  H31 UNL     1       1.368  -3.934   0.491  1.00  0.00     0.218 HD  
ENDBRANCH  12  17
ENDBRANCH   8   9
ENDBRANCH   7   8
ENDBRANCH   1   7
BRANCH   3  19
ATOM     19  C9  UNL     1       0.987   2.138  -0.779  1.00  0.00     0.120 C   
BRANCH  19  20
ATOM     20  N2  UNL     1      -0.040   1.257  -1.450  1.00  0.00     0.250 N   
ATOM     21  H11 UNL     1      -0.964   1.601  -1.152  1.00  0.00     0.199 HD  
ATOM     22  H12 UNL     1      -0.014   1.329  -2.470  1.00  0.00     0.199 HD  
BRANCH  20  23
ATOM     23  C10 UNL     1       0.027  -0.188  -1.077  1.00  0.00     0.164 C   
BRANCH  23  24
ATOM     24  C11 UNL     1      -1.117  -0.942  -1.694  1.00  0.00    -0.002 A   
ATOM     25  C12 UNL     1      -2.406  -0.871  -1.111  1.00  0.00     0.012 A   
ATOM     26  C16 UNL     1      -0.927  -1.691  -2.867  1.00  0.00     0.045 A   
ATOM     27  C13 UNL     1      -3.491  -1.544  -1.681  1.00  0.00     0.037 A   
ATOM     28  C15 UNL     1      -2.018  -2.344  -3.402  1.00  0.00     0.109 A   
ATOM     29  C14 UNL     1      -3.263  -2.273  -2.827  1.00  0.00     0.108 A   
ATOM     30  O2  UNL     1      -2.007  -3.112  -4.524  1.00  0.00    -0.316 OA  
ATOM     31  O3  UNL     1      -4.192  -2.989  -3.512  1.00  0.00    -0.316 OA  
ATOM     32  C17 UNL     1      -3.387  -3.538  -4.577  1.00  0.00     0.337 C   
ENDBRANCH  23  24
ENDBRANCH  20  23
ENDBRANCH  19  20
BRANCH  19  33
ATOM     33  C18 UNL     1       1.073   3.530  -1.494  1.00  0.00     0.010 C   
ATOM     34  C19 UNL     1       1.548   3.355  -2.956  1.00  0.00     0.017 C   
ATOM     35  C20 UNL     1       2.116   4.425  -0.786  1.00  0.00     0.017 C   
ATOM     36  C21 UNL     1      -0.274   4.278  -1.513  1.00  0.00     0.017 C   
ENDBRANCH  19  33
ENDBRANCH   3  19
TORSDOF 10
