REMARK SMILES C[C@@H](c1ccc(F)nc1)n1cc([C@@H]([NH2+]Cc2ccc3c(c2)OCO3)C(C)(C)C)nn1
REMARK SMILES IDX 10 1 11 2 12 3 29 4 30 5 2 7 1 8 3 9 4 10 9 11 5 12 8 13
REMARK SMILES IDX 6 14 7 15 13 16 14 17 15 20 16 21 17 22 21 23 18 24 20 25
REMARK SMILES IDX 19 26 22 27 24 28 23 29 25 30 26 31 27 32 28 33
REMARK H PARENT 11 6 14 18 14 19
ROOT
ATOM     1   N2  UNL     1      -0.300   2.755   0.036  1.00  0.00    -0.205 N   
ATOM     2   C8  UNL     1      -0.940   1.601  -0.336  1.00  0.00     0.046 A   
ATOM     3   C9  UNL     1      -0.985   0.854   0.820  1.00  0.00     0.127 A   
ATOM     4   N4  UNL     1      -0.398   1.563   1.835  1.00  0.00    -0.132 NA  
ATOM     5   N5  UNL     1       0.025   2.715   1.344  1.00  0.00    -0.075 NA  
ATOM     6   H8  UNL     1      -1.250   1.414  -1.355  1.00  0.00     0.083 HD  
ENDROOT
BRANCH   1   7
ATOM     7   C2  UNL     1       0.148   3.845  -0.834  1.00  0.00     0.128 C   
ATOM     8   C1  UNL     1       0.311   5.184  -0.110  1.00  0.00     0.036 C   
BRANCH   7   9
ATOM     9   C3  UNL     1       1.413   3.432  -1.561  1.00  0.00    -0.007 A   
ATOM     10  C4  UNL     1       1.476   3.423  -2.961  1.00  0.00     0.012 A   
ATOM     11  C7  UNL     1       2.560   3.035  -0.870  1.00  0.00     0.120 A   
ATOM     12  C5  UNL     1       2.647   3.014  -3.596  1.00  0.00     0.061 A   
ATOM     13  N1  UNL     1       3.694   2.609  -1.463  1.00  0.00    -0.228 NA  
ATOM     14  C6  UNL     1       3.715   2.618  -2.812  1.00  0.00     0.212 A   
ATOM     15  F1  UNL     1       4.838   2.209  -3.420  1.00  0.00    -0.185 F   
ENDBRANCH   7   9
ENDBRANCH   1   7
BRANCH   3  16
ATOM     16  C10 UNL     1      -1.442  -0.551   1.068  1.00  0.00     0.120 C   
BRANCH  16  17
ATOM     17  N3  UNL     1      -0.454  -1.239   1.993  1.00  0.00     0.250 N   
ATOM     18  H10 UNL     1      -0.812  -2.144   2.304  1.00  0.00     0.199 HD  
ATOM     19  H11 UNL     1      -0.367  -0.638   2.824  1.00  0.00     0.199 HD  
BRANCH  17  20
ATOM     20  C11 UNL     1       0.933  -1.438   1.461  1.00  0.00     0.164 C   
BRANCH  20  21
ATOM     21  C12 UNL     1       0.980  -2.339   0.259  1.00  0.00    -0.002 A   
ATOM     22  C13 UNL     1       0.742  -3.728   0.392  1.00  0.00     0.012 A   
ATOM     23  C17 UNL     1       1.229  -1.798  -1.014  1.00  0.00     0.045 A   
ATOM     24  C14 UNL     1       0.744  -4.567  -0.728  1.00  0.00     0.037 A   
ATOM     25  C16 UNL     1       1.221  -2.652  -2.096  1.00  0.00     0.109 A   
ATOM     26  C15 UNL     1       0.985  -3.998  -1.958  1.00  0.00     0.108 A   
ATOM     27  O1  UNL     1       1.434  -2.291  -3.389  1.00  0.00    -0.316 OA  
ATOM     28  O2  UNL     1       1.026  -4.654  -3.147  1.00  0.00    -0.316 OA  
ATOM     29  C18 UNL     1       1.343  -3.573  -4.051  1.00  0.00     0.337 C   
ENDBRANCH  20  21
ENDBRANCH  17  20
ENDBRANCH  16  17
BRANCH  16  30
ATOM     30  C19 UNL     1      -2.899  -0.659   1.644  1.00  0.00     0.010 C   
ATOM     31  C20 UNL     1      -3.332  -2.143   1.742  1.00  0.00     0.017 C   
ATOM     32  C21 UNL     1      -3.898   0.037   0.689  1.00  0.00     0.017 C   
ATOM     33  C22 UNL     1      -3.041  -0.024   3.042  1.00  0.00     0.017 C   
ENDBRANCH  16  30
ENDBRANCH   3  16
TORSDOF 7
