REMARK SMILES C[C@H](c1ccc(F)nc1)n1cc([C@@H]([NH2+]Cc2ccc3c(c2)OCO3)C(C)(C)C)nn1
REMARK SMILES IDX 10 1 11 2 12 3 29 4 30 5 2 7 1 8 3 9 4 10 9 11 5 12 8 13
REMARK SMILES IDX 6 14 7 15 13 16 14 17 15 20 16 21 17 22 21 23 18 24 20 25
REMARK SMILES IDX 19 26 22 27 24 28 23 29 25 30 26 31 27 32 28 33
REMARK H PARENT 11 6 14 18 14 19
ROOT
ATOM     1   N2  UNL     1       1.128   1.335  -0.366  1.00  0.00    -0.205 N   
ATOM     2   C8  UNL     1       0.910  -0.002  -0.564  1.00  0.00     0.046 A   
ATOM     3   C9  UNL     1      -0.444  -0.093  -0.794  1.00  0.00     0.127 A   
ATOM     4   N4  UNL     1      -0.995   1.162  -0.729  1.00  0.00    -0.132 NA  
ATOM     5   N5  UNL     1      -0.028   2.024  -0.464  1.00  0.00    -0.075 NA  
ATOM     6   H8  UNL     1       1.703  -0.736  -0.513  1.00  0.00     0.083 HD  
ENDROOT
BRANCH   1   7
ATOM     7   C2  UNL     1       2.385   2.049  -0.113  1.00  0.00     0.128 C   
ATOM     8   C1  UNL     1       3.054   2.407  -1.444  1.00  0.00     0.036 C   
BRANCH   7   9
ATOM     9   C3  UNL     1       3.252   1.287   0.872  1.00  0.00    -0.007 A   
ATOM     10  C4  UNL     1       4.425   0.606   0.520  1.00  0.00     0.012 A   
ATOM     11  C7  UNL     1       2.871   1.228   2.215  1.00  0.00     0.120 A   
ATOM     12  C5  UNL     1       5.145  -0.085   1.494  1.00  0.00     0.061 A   
ATOM     13  N1  UNL     1       3.544   0.554   3.172  1.00  0.00    -0.228 NA  
ATOM     14  C6  UNL     1       4.668  -0.081   2.791  1.00  0.00     0.212 A   
ATOM     15  F1  UNL     1       5.346  -0.759   3.726  1.00  0.00    -0.185 F   
ENDBRANCH   7   9
ENDBRANCH   1   7
BRANCH   3  16
ATOM     16  C10 UNL     1      -1.343  -1.273  -1.017  1.00  0.00     0.120 C   
BRANCH  16  17
ATOM     17  N3  UNL     1      -2.703  -0.953  -0.419  1.00  0.00     0.250 N   
ATOM     18  H10 UNL     1      -3.465  -1.211  -1.051  1.00  0.00     0.199 HD  
ATOM     19  H11 UNL     1      -2.745   0.078  -0.357  1.00  0.00     0.199 HD  
BRANCH  17  20
ATOM     20  C11 UNL     1      -2.983  -1.512   0.932  1.00  0.00     0.164 C   
BRANCH  20  21
ATOM     21  C12 UNL     1      -2.085  -0.980   2.013  1.00  0.00    -0.002 A   
ATOM     22  C13 UNL     1      -2.195   0.367   2.439  1.00  0.00     0.012 A   
ATOM     23  C17 UNL     1      -1.120  -1.812   2.605  1.00  0.00     0.045 A   
ATOM     24  C14 UNL     1      -1.357   0.878   3.435  1.00  0.00     0.037 A   
ATOM     25  C16 UNL     1      -0.312  -1.278   3.588  1.00  0.00     0.109 A   
ATOM     26  C15 UNL     1      -0.428   0.029   3.992  1.00  0.00     0.108 A   
ATOM     27  O1  UNL     1       0.660  -1.946   4.261  1.00  0.00    -0.316 OA  
ATOM     28  O2  UNL     1       0.457   0.349   4.971  1.00  0.00    -0.316 OA  
ATOM     29  C18 UNL     1       1.119  -0.919   5.172  1.00  0.00     0.337 C   
ENDBRANCH  20  21
ENDBRANCH  17  20
ENDBRANCH  16  17
BRANCH  16  30
ATOM     30  C19 UNL     1      -1.492  -1.696  -2.520  1.00  0.00     0.010 C   
ATOM     31  C20 UNL     1      -0.107  -2.032  -3.119  1.00  0.00     0.017 C   
ATOM     32  C21 UNL     1      -2.350  -2.978  -2.631  1.00  0.00     0.017 C   
ATOM     33  C22 UNL     1      -2.137  -0.596  -3.388  1.00  0.00     0.017 C   
ENDBRANCH  16  30
ENDBRANCH   3  16
TORSDOF 7
