REMARK SMILES CC(C)[C@H]([NH2+]Cc1ccc2c(c1)OCO2)c1cn(Cc2ccn(C)n2)nn1
REMARK SMILES IDX 16 1 17 2 18 3 26 4 27 5 4 7 2 8 1 9 3 10 5 11 6 14 7 15
REMARK SMILES IDX 8 16 12 17 9 18 11 19 10 20 13 21 15 22 14 23 19 24 20 25
REMARK SMILES IDX 21 26 25 27 22 28 23 29 24 30
REMARK H PARENT 17 6 5 12 5 13
ROOT
ATOM     1   C13 UNL     1       1.499   2.033  -0.160  1.00  0.00     0.127 A   
ATOM     2   C14 UNL     1       0.719   2.370  -1.242  1.00  0.00     0.046 A   
ATOM     3   N2  UNL     1       1.552   2.209  -2.317  1.00  0.00    -0.206 N   
ATOM     4   N5  UNL     1       2.776   1.808  -1.916  1.00  0.00    -0.076 NA  
ATOM     5   N6  UNL     1       2.754   1.695  -0.598  1.00  0.00    -0.132 NA  
ATOM     6   H18 UNL     1      -0.311   2.681  -1.359  1.00  0.00     0.083 HD  
ENDROOT
BRANCH   1   7
ATOM     7   C4  UNL     1       1.183   1.960   1.299  1.00  0.00     0.117 C   
BRANCH   7   8
ATOM     8   C2  UNL     1       1.245   3.352   1.983  1.00  0.00     0.037 C   
ATOM     9   C1  UNL     1       0.608   3.322   3.378  1.00  0.00     0.014 C   
ATOM     10  C3  UNL     1       2.657   3.942   2.070  1.00  0.00     0.014 C   
ENDBRANCH   7   8
BRANCH   7  11
ATOM     11  N1  UNL     1       2.126   0.999   1.983  1.00  0.00     0.249 N   
ATOM     12  H9  UNL     1       3.054   1.183   1.576  1.00  0.00     0.199 HD  
ATOM     13  H10 UNL     1       2.193   1.192   2.985  1.00  0.00     0.199 HD  
BRANCH  11  14
ATOM     14  C5  UNL     1       1.838  -0.451   1.781  1.00  0.00     0.164 C   
BRANCH  14  15
ATOM     15  C6  UNL     1       0.656  -0.916   2.586  1.00  0.00    -0.002 A   
ATOM     16  C7  UNL     1       0.770  -1.091   3.988  1.00  0.00     0.012 A   
ATOM     17  C11 UNL     1      -0.580  -1.148   1.959  1.00  0.00     0.045 A   
ATOM     18  C8  UNL     1      -0.332  -1.482   4.755  1.00  0.00     0.037 A   
ATOM     19  C10 UNL     1      -1.646  -1.530   2.747  1.00  0.00     0.109 A   
ATOM     20  C9  UNL     1      -1.527  -1.690   4.105  1.00  0.00     0.108 A   
ATOM     21  O1  UNL     1      -2.906  -1.782   2.303  1.00  0.00    -0.316 OA  
ATOM     22  O2  UNL     1      -2.696  -2.062   4.688  1.00  0.00    -0.316 OA  
ATOM     23  C12 UNL     1      -3.566  -2.140   3.538  1.00  0.00     0.337 C   
ENDBRANCH  14  15
ENDBRANCH  11  14
ENDBRANCH   7  11
ENDBRANCH   1   7
BRANCH   3  24
ATOM     24  C15 UNL     1       1.271   2.472  -3.717  1.00  0.00     0.191 C   
BRANCH  24  25
ATOM     25  C16 UNL     1       0.454   1.371  -4.299  1.00  0.00     0.079 A   
ATOM     26  C17 UNL     1       0.900   0.288  -5.095  1.00  0.00     0.044 A   
ATOM     27  N4  UNL     1      -0.877   1.331  -4.114  1.00  0.00    -0.185 NA  
ATOM     28  C18 UNL     1      -0.239  -0.412  -5.413  1.00  0.00     0.097 A   
ATOM     29  N3  UNL     1      -1.272   0.255  -4.825  1.00  0.00    -0.236 N   
ATOM     30  C19 UNL     1      -2.675  -0.073  -4.907  1.00  0.00     0.159 C   
ENDBRANCH  24  25
ENDBRANCH   3  24
TORSDOF 7
