REMARK SMILES Cc1ccc([C@H](CO)n2cc([C@@H]([NH2+]Cc3ccc4c(c3)OCO4)C(C)(C)C)nn2)c(F)c1
REMARK SMILES IDX 9 1 10 2 11 3 28 4 29 5 6 7 5 8 2 9 3 10 32 11 4 12 30 13
REMARK SMILES IDX 1 14 31 15 7 16 8 17 12 19 13 20 14 23 15 24 16 25 20 26
REMARK SMILES IDX 17 27 19 28 18 29 21 30 23 31 22 32 24 33 25 34 26 35 27 36
REMARK H PARENT 10 6 8 18 13 21 13 22
ROOT
ATOM     1   N1  UNL     1      -1.384   1.346  -1.132  1.00  0.00    -0.202 N   
ATOM     2   C8  UNL     1      -0.041   1.116  -0.995  1.00  0.00     0.046 A   
ATOM     3   C9  UNL     1       0.031  -0.171  -0.510  1.00  0.00     0.127 A   
ATOM     4   N3  UNL     1      -1.238  -0.663  -0.345  1.00  0.00    -0.132 NA  
ATOM     5   N4  UNL     1      -2.094   0.268  -0.733  1.00  0.00    -0.075 NA  
ATOM     6   H10 UNL     1       0.700   1.862  -1.251  1.00  0.00     0.083 HD  
ENDROOT
BRANCH   1   7
ATOM     7   C6  UNL     1      -2.037   2.543  -1.667  1.00  0.00     0.158 C   
BRANCH   7   8
ATOM     8   C5  UNL     1      -3.051   3.083  -0.676  1.00  0.00     0.013 A   
ATOM     9   C2  UNL     1      -4.851   4.136   1.237  1.00  0.00    -0.048 A   
ATOM     10  C3  UNL     1      -5.308   3.303   0.207  1.00  0.00     0.004 A   
ATOM     11  C24 UNL     1      -3.489   4.436   1.307  1.00  0.00     0.043 A   
ATOM     12  C4  UNL     1      -4.419   2.776  -0.735  1.00  0.00     0.009 A   
ATOM     13  C23 UNL     1      -2.609   3.906   0.366  1.00  0.00     0.128 A   
ATOM     14  C1  UNL     1      -5.822   4.722   2.219  1.00  0.00     0.044 C   
ATOM     15  F1  UNL     1      -1.303   4.193   0.471  1.00  0.00    -0.207 F   
ENDBRANCH   7   8
BRANCH   7  16
ATOM     16  C7  UNL     1      -2.576   2.272  -3.082  1.00  0.00     0.186 C   
BRANCH  16  17
ATOM     17  O1  UNL     1      -1.490   2.129  -4.003  1.00  0.00    -0.394 OA  
ATOM     18  H9  UNL     1      -1.879   2.022  -4.891  1.00  0.00     0.210 HD  
ENDBRANCH  16  17
ENDBRANCH   7  16
ENDBRANCH   1   7
BRANCH   3  19
ATOM     19  C10 UNL     1       1.206  -1.000  -0.096  1.00  0.00     0.120 C   
BRANCH  19  20
ATOM     20  N2  UNL     1       0.851  -1.747   1.175  1.00  0.00     0.250 N   
ATOM     21  H12 UNL     1      -0.056  -2.200   0.995  1.00  0.00     0.199 HD  
ATOM     22  H13 UNL     1       1.528  -2.486   1.370  1.00  0.00     0.199 HD  
BRANCH  20  23
ATOM     23  C11 UNL     1       0.684  -0.915   2.404  1.00  0.00     0.164 C   
BRANCH  23  24
ATOM     24  C12 UNL     1       1.976  -0.308   2.876  1.00  0.00    -0.002 A   
ATOM     25  C13 UNL     1       2.225   1.072   2.688  1.00  0.00     0.012 A   
ATOM     26  C17 UNL     1       2.959  -1.113   3.477  1.00  0.00     0.045 A   
ATOM     27  C14 UNL     1       3.438   1.644   3.086  1.00  0.00     0.037 A   
ATOM     28  C16 UNL     1       4.143  -0.518   3.856  1.00  0.00     0.109 A   
ATOM     29  C15 UNL     1       4.377   0.821   3.664  1.00  0.00     0.108 A   
ATOM     30  O2  UNL     1       5.192  -1.150   4.444  1.00  0.00    -0.316 OA  
ATOM     31  O3  UNL     1       5.602   1.201   4.109  1.00  0.00    -0.316 OA  
ATOM     32  C18 UNL     1       6.125  -0.054   4.591  1.00  0.00     0.337 C   
ENDBRANCH  23  24
ENDBRANCH  20  23
ENDBRANCH  19  20
BRANCH  19  33
ATOM     33  C19 UNL     1       1.703  -2.002  -1.200  1.00  0.00     0.010 C   
ATOM     34  C20 UNL     1       2.020  -1.241  -2.506  1.00  0.00     0.017 C   
ATOM     35  C21 UNL     1       0.671  -3.102  -1.519  1.00  0.00     0.017 C   
ATOM     36  C22 UNL     1       3.015  -2.685  -0.750  1.00  0.00     0.017 C   
ENDBRANCH  19  33
ENDBRANCH   3  19
TORSDOF 9
