REMARK SMILES Cc1ccc([C@@H](CO)n2cc([C@@H]([NH2+]Cc3ccc4c(c3)OCO4)C(C)(C)C)nn2)c(F)c1
REMARK SMILES IDX 9 1 10 2 11 3 28 4 29 5 6 7 5 8 2 9 3 10 32 11 4 12 30 13
REMARK SMILES IDX 1 14 31 15 7 16 8 17 12 19 13 20 14 23 15 24 16 25 20 26
REMARK SMILES IDX 17 27 19 28 18 29 21 30 23 31 22 32 24 33 25 34 26 35 27 36
REMARK H PARENT 10 6 8 18 13 21 13 22
ROOT
ATOM     1   N1  UNL     1      -0.738   2.337   1.252  1.00  0.00    -0.202 N   
ATOM     2   C8  UNL     1      -1.286   2.146   0.010  1.00  0.00     0.046 A   
ATOM     3   C9  UNL     1      -1.654   0.820  -0.004  1.00  0.00     0.127 A   
ATOM     4   N3  UNL     1      -1.336   0.253   1.199  1.00  0.00    -0.132 NA  
ATOM     5   N4  UNL     1      -0.806   1.188   1.966  1.00  0.00    -0.075 NA  
ATOM     6   H10 UNL     1      -1.353   2.935  -0.725  1.00  0.00     0.083 HD  
ENDROOT
BRANCH   1   7
ATOM     7   C6  UNL     1      -0.140   3.539   1.844  1.00  0.00     0.158 C   
BRANCH   7   8
ATOM     8   C5  UNL     1       1.218   3.230   2.453  1.00  0.00     0.013 A   
ATOM     9   C2  UNL     1       3.749   2.688   3.586  1.00  0.00    -0.048 A   
ATOM     10  C3  UNL     1       2.728   3.255   4.360  1.00  0.00     0.004 A   
ATOM     11  C24 UNL     1       3.502   2.404   2.239  1.00  0.00     0.043 A   
ATOM     12  C4  UNL     1       1.473   3.522   3.802  1.00  0.00     0.009 A   
ATOM     13  C23 UNL     1       2.251   2.673   1.689  1.00  0.00     0.128 A   
ATOM     14  C1  UNL     1       5.103   2.422   4.177  1.00  0.00     0.044 C   
ATOM     15  F1  UNL     1       2.045   2.397   0.391  1.00  0.00    -0.207 F   
ENDBRANCH   7   8
BRANCH   7  16
ATOM     16  C7  UNL     1      -0.013   4.739   0.881  1.00  0.00     0.186 C   
BRANCH  16  17
ATOM     17  O1  UNL     1      -1.299   5.245   0.518  1.00  0.00    -0.394 OA  
ATOM     18  H9  UNL     1      -1.161   6.119   0.105  1.00  0.00     0.210 HD  
ENDBRANCH  16  17
ENDBRANCH   7  16
ENDBRANCH   1   7
BRANCH   3  19
ATOM     19  C10 UNL     1      -2.223  -0.035  -1.094  1.00  0.00     0.120 C   
BRANCH  19  20
ATOM     20  N2  UNL     1      -1.524  -1.375  -1.072  1.00  0.00     0.250 N   
ATOM     21  H12 UNL     1      -2.001  -2.069  -1.652  1.00  0.00     0.199 HD  
ATOM     22  H13 UNL     1      -1.565  -1.718  -0.100  1.00  0.00     0.199 HD  
BRANCH  20  23
ATOM     23  C11 UNL     1      -0.083  -1.347  -1.461  1.00  0.00     0.164 C   
BRANCH  23  24
ATOM     24  C12 UNL     1       0.491  -2.737  -1.437  1.00  0.00    -0.002 A   
ATOM     25  C13 UNL     1       0.548  -3.513  -2.618  1.00  0.00     0.012 A   
ATOM     26  C17 UNL     1       0.921  -3.294  -0.219  1.00  0.00     0.045 A   
ATOM     27  C14 UNL     1       1.035  -4.825  -2.593  1.00  0.00     0.037 A   
ATOM     28  C16 UNL     1       1.390  -4.591  -0.229  1.00  0.00     0.109 A   
ATOM     29  C15 UNL     1       1.445  -5.335  -1.382  1.00  0.00     0.108 A   
ATOM     30  O2  UNL     1       1.835  -5.279   0.855  1.00  0.00    -0.316 OA  
ATOM     31  O3  UNL     1       1.935  -6.585  -1.170  1.00  0.00    -0.316 OA  
ATOM     32  C18 UNL     1       2.196  -6.541   0.250  1.00  0.00     0.337 C   
ENDBRANCH  23  24
ENDBRANCH  20  23
ENDBRANCH  19  20
BRANCH  19  33
ATOM     33  C19 UNL     1      -3.779  -0.223  -1.016  1.00  0.00     0.010 C   
ATOM     34  C20 UNL     1      -4.231  -0.954   0.266  1.00  0.00     0.017 C   
ATOM     35  C21 UNL     1      -4.290  -1.028  -2.234  1.00  0.00     0.017 C   
ATOM     36  C22 UNL     1      -4.480   1.155  -1.061  1.00  0.00     0.017 C   
ENDBRANCH  19  33
ENDBRANCH   3  19
TORSDOF 9
