REMARK SMILES CC(C)(C)c1nocc1Cn1cc([C@@H]([NH2+]Cc2ccc3c(c2)OCO3)C2CCCCC2)nn1
REMARK SMILES IDX 11 1 12 2 13 3 32 4 33 5 10 7 9 8 5 9 6 10 7 11 8 12 2 13
REMARK SMILES IDX 1 14 3 15 4 16 14 17 15 18 16 21 17 22 18 23 22 24 19 25
REMARK SMILES IDX 21 26 20 27 23 28 25 29 24 30 26 31 27 32 31 33 28 34 30 35
REMARK SMILES IDX 29 36
REMARK H PARENT 12 6 15 19 15 20
ROOT
ATOM     1   N2  UNL     1      -1.970  -1.266   0.094  1.00  0.00    -0.208 N   
ATOM     2   C9  UNL     1      -2.458  -0.040   0.464  1.00  0.00     0.046 A   
ATOM     3   C10 UNL     1      -1.406   0.549   1.132  1.00  0.00     0.127 A   
ATOM     4   N4  UNL     1      -0.380  -0.356   1.231  1.00  0.00    -0.132 NA  
ATOM     5   N5  UNL     1      -0.749  -1.468   0.621  1.00  0.00    -0.076 NA  
ATOM     6   H13 UNL     1      -3.442   0.303   0.176  1.00  0.00     0.083 HD  
ENDROOT
BRANCH   1   7
ATOM     7   C8  UNL     1      -2.601  -2.277  -0.744  1.00  0.00     0.173 C   
BRANCH   7   8
ATOM     8   C7  UNL     1      -2.486  -1.912  -2.180  1.00  0.00     0.021 A   
ATOM     9   C5  UNL     1      -1.605  -2.399  -3.205  1.00  0.00     0.081 A   
ATOM     10  N1  UNL     1      -1.858  -1.769  -4.364  1.00  0.00    -0.133 NA  
ATOM     11  O1  UNL     1      -2.893  -0.901  -4.131  1.00  0.00    -0.221 OA  
ATOM     12  C6  UNL     1      -3.273  -0.994  -2.842  1.00  0.00     0.171 A   
BRANCH   9  13
ATOM     13  C2  UNL     1      -0.530  -3.484  -3.170  1.00  0.00     0.007 C   
ATOM     14  C1  UNL     1       0.485  -3.235  -2.040  1.00  0.00     0.017 C   
ATOM     15  C3  UNL     1      -1.183  -4.867  -2.975  1.00  0.00     0.017 C   
ATOM     16  C4  UNL     1       0.278  -3.536  -4.492  1.00  0.00     0.017 C   
ENDBRANCH   9  13
ENDBRANCH   7   8
ENDBRANCH   1   7
BRANCH   3  17
ATOM     17  C11 UNL     1      -1.230   1.913   1.725  1.00  0.00     0.117 C   
BRANCH  17  18
ATOM     18  N3  UNL     1      -0.101   1.882   2.731  1.00  0.00     0.249 N   
ATOM     19  H15 UNL     1       0.367   2.789   2.816  1.00  0.00     0.199 HD  
ATOM     20  H16 UNL     1       0.605   1.231   2.350  1.00  0.00     0.199 HD  
BRANCH  18  21
ATOM     21  C12 UNL     1      -0.461   1.381   4.084  1.00  0.00     0.164 C   
BRANCH  21  22
ATOM     22  C13 UNL     1       0.772   1.236   4.929  1.00  0.00    -0.002 A   
ATOM     23  C14 UNL     1       1.277   2.339   5.660  1.00  0.00     0.012 A   
ATOM     24  C18 UNL     1       1.471   0.016   4.944  1.00  0.00     0.045 A   
ATOM     25  C15 UNL     1       2.457   2.227   6.403  1.00  0.00     0.037 A   
ATOM     26  C17 UNL     1       2.629  -0.062   5.690  1.00  0.00     0.109 A   
ATOM     27  C16 UNL     1       3.108   1.012   6.398  1.00  0.00     0.108 A   
ATOM     28  O2  UNL     1       3.418  -1.160   5.816  1.00  0.00    -0.316 OA  
ATOM     29  O3  UNL     1       4.261   0.728   7.057  1.00  0.00    -0.316 OA  
ATOM     30  C19 UNL     1       4.442  -0.662   6.706  1.00  0.00     0.337 C   
ENDBRANCH  21  22
ENDBRANCH  18  21
ENDBRANCH  17  18
BRANCH  17  31
ATOM     31  C20 UNL     1      -0.914   3.026   0.688  1.00  0.00     0.043 C   
ATOM     32  C21 UNL     1       0.351   2.758  -0.152  1.00  0.00     0.010 C   
ATOM     33  C25 UNL     1      -2.116   3.316  -0.233  1.00  0.00     0.010 C   
ATOM     34  C22 UNL     1       0.632   3.902  -1.126  1.00  0.00     0.001 C   
ATOM     35  C24 UNL     1      -1.825   4.461  -1.201  1.00  0.00     0.001 C   
ATOM     36  C23 UNL     1      -0.568   4.190  -2.021  1.00  0.00     0.000 C   
ENDBRANCH  17  31
ENDBRANCH   3  17
TORSDOF 8
