REMARK SMILES C[C@H](c1cccnc1)n1cc([C@@H]([NH2+]Cc2ccc3c(c2)OCO3)C2CCCCC2)nn1
REMARK SMILES IDX 12 1 11 2 9 3 10 4 31 5 30 6 2 8 1 9 3 10 4 11 8 12 5 13
REMARK SMILES IDX 7 14 6 15 13 16 14 19 15 20 16 21 20 22 17 23 19 24 18 25
REMARK SMILES IDX 21 26 23 27 22 28 24 29 25 30 29 31 26 32 28 33 27 34
REMARK H PARENT 10 7 13 17 13 18
ROOT
ATOM     1   C10 UNL     1      -0.634  -0.489   0.601  1.00  0.00     0.117 C   
ENDROOT
BRANCH   1   2
ATOM     2   C9  UNL     1      -0.663   0.844  -0.076  1.00  0.00     0.127 A   
ATOM     3   N2  UNL     1      -0.501   2.580  -1.363  1.00  0.00    -0.205 N   
ATOM     4   C8  UNL     1      -0.334   1.220  -1.360  1.00  0.00     0.046 A   
ATOM     5   N5  UNL     1      -0.919   3.011  -0.155  1.00  0.00    -0.075 NA  
ATOM     6   N4  UNL     1      -1.029   1.958   0.638  1.00  0.00    -0.132 NA  
ATOM     7   H9  UNL     1       0.008   0.675  -2.230  1.00  0.00     0.083 HD  
BRANCH   3   8
ATOM     8   C2  UNL     1      -0.232   3.540  -2.439  1.00  0.00     0.128 C   
ATOM     9   C1  UNL     1      -1.263   3.378  -3.559  1.00  0.00     0.036 C   
BRANCH   8  10
ATOM     10  C3  UNL     1       1.225   3.446  -2.849  1.00  0.00    -0.007 A   
ATOM     11  C4  UNL     1       1.664   2.964  -4.088  1.00  0.00     0.009 A   
ATOM     12  C7  UNL     1       2.214   3.831  -1.939  1.00  0.00     0.116 A   
ATOM     13  C5  UNL     1       3.030   2.882  -4.357  1.00  0.00     0.020 A   
ATOM     14  N1  UNL     1       3.543   3.740  -2.165  1.00  0.00    -0.264 NA  
ATOM     15  C6  UNL     1       3.923   3.277  -3.374  1.00  0.00     0.111 A   
ENDBRANCH   8  10
ENDBRANCH   3   8
ENDBRANCH   1   2
BRANCH   1  16
ATOM     16  N3  UNL     1      -0.447  -0.311   2.089  1.00  0.00     0.249 N   
ATOM     17  H11 UNL     1      -1.076   0.458   2.365  1.00  0.00     0.199 HD  
ATOM     18  H12 UNL     1      -0.745  -1.142   2.606  1.00  0.00     0.199 HD  
BRANCH  16  19
ATOM     19  C11 UNL     1       0.928   0.074   2.531  1.00  0.00     0.164 C   
BRANCH  19  20
ATOM     20  C12 UNL     1       1.936  -1.029   2.342  1.00  0.00    -0.002 A   
ATOM     21  C13 UNL     1       3.013  -0.862   1.435  1.00  0.00     0.012 A   
ATOM     22  C17 UNL     1       1.812  -2.238   3.052  1.00  0.00     0.045 A   
ATOM     23  C14 UNL     1       3.949  -1.884   1.232  1.00  0.00     0.037 A   
ATOM     24  C16 UNL     1       2.749  -3.227   2.824  1.00  0.00     0.109 A   
ATOM     25  C15 UNL     1       3.788  -3.055   1.941  1.00  0.00     0.108 A   
ATOM     26  O1  UNL     1       2.766  -4.452   3.414  1.00  0.00    -0.316 OA  
ATOM     27  O2  UNL     1       4.592  -4.149   1.868  1.00  0.00    -0.316 OA  
ATOM     28  C18 UNL     1       3.972  -5.016   2.847  1.00  0.00     0.337 C   
ENDBRANCH  19  20
ENDBRANCH  16  19
ENDBRANCH   1  16
BRANCH   1  29
ATOM     29  C19 UNL     1      -1.914  -1.322   0.311  1.00  0.00     0.043 C   
ATOM     30  C20 UNL     1      -3.195  -0.752   0.956  1.00  0.00     0.010 C   
ATOM     31  C24 UNL     1      -1.728  -2.801   0.707  1.00  0.00     0.010 C   
ATOM     32  C21 UNL     1      -4.423  -1.596   0.609  1.00  0.00     0.001 C   
ATOM     33  C23 UNL     1      -2.960  -3.637   0.361  1.00  0.00     0.001 C   
ATOM     34  C22 UNL     1      -4.227  -3.061   0.987  1.00  0.00     0.000 C   
ENDBRANCH   1  29
TORSDOF 7
