REMARK SMILES C[C@@H](c1cccnc1)n1cc([C@@H]([NH2+]Cc2ccc3c(c2)OCO3)C2CCCCC2)nn1
REMARK SMILES IDX 12 1 11 2 9 3 10 4 31 5 30 6 2 8 1 9 3 10 4 11 8 12 5 13
REMARK SMILES IDX 7 14 6 15 13 16 14 19 15 20 16 21 20 22 17 23 19 24 18 25
REMARK SMILES IDX 21 26 23 27 22 28 24 29 25 30 29 31 26 32 28 33 27 34
REMARK H PARENT 10 7 13 17 13 18
ROOT
ATOM     1   C10 UNL     1       1.165   0.089   0.520  1.00  0.00     0.117 C   
ENDROOT
BRANCH   1   2
ATOM     2   C9  UNL     1      -0.147   0.774   0.726  1.00  0.00     0.127 A   
ATOM     3   N2  UNL     1      -2.216   1.412   0.731  1.00  0.00    -0.205 N   
ATOM     4   C8  UNL     1      -1.432   0.294   0.612  1.00  0.00     0.046 A   
ATOM     5   N5  UNL     1      -1.455   2.503   0.956  1.00  0.00    -0.075 NA  
ATOM     6   N4  UNL     1      -0.189   2.122   0.969  1.00  0.00    -0.132 NA  
ATOM     7   H9  UNL     1      -1.842  -0.682   0.393  1.00  0.00     0.083 HD  
BRANCH   3   8
ATOM     8   C2  UNL     1      -3.651   1.517   0.464  1.00  0.00     0.128 C   
ATOM     9   C1  UNL     1      -4.361   2.508   1.391  1.00  0.00     0.036 C   
BRANCH   8  10
ATOM     10  C3  UNL     1      -3.848   1.778  -1.017  1.00  0.00    -0.007 A   
ATOM     11  C4  UNL     1      -3.802   3.057  -1.583  1.00  0.00     0.009 A   
ATOM     12  C7  UNL     1      -4.003   0.706  -1.896  1.00  0.00     0.116 A   
ATOM     13  C5  UNL     1      -3.926   3.212  -2.962  1.00  0.00     0.020 A   
ATOM     14  N1  UNL     1      -4.093   0.827  -3.238  1.00  0.00    -0.264 NA  
ATOM     15  C6  UNL     1      -4.070   2.079  -3.741  1.00  0.00     0.111 A   
ENDBRANCH   8  10
ENDBRANCH   3   8
ENDBRANCH   1   2
BRANCH   1  16
ATOM     16  N3  UNL     1       2.151   0.987  -0.193  1.00  0.00     0.249 N   
ATOM     17  H11 UNL     1       3.058   0.521  -0.276  1.00  0.00     0.199 HD  
ATOM     18  H12 UNL     1       2.281   1.817   0.399  1.00  0.00     0.199 HD  
BRANCH  16  19
ATOM     19  C11 UNL     1       1.746   1.497  -1.543  1.00  0.00     0.164 C   
BRANCH  19  20
ATOM     20  C12 UNL     1       1.337   0.422  -2.510  1.00  0.00    -0.002 A   
ATOM     21  C13 UNL     1      -0.008   0.343  -2.950  1.00  0.00     0.012 A   
ATOM     22  C17 UNL     1       2.270  -0.522  -2.969  1.00  0.00     0.045 A   
ATOM     23  C14 UNL     1      -0.423  -0.669  -3.822  1.00  0.00     0.037 A   
ATOM     24  C16 UNL     1       1.827  -1.507  -3.828  1.00  0.00     0.109 A   
ATOM     25  C15 UNL     1       0.519  -1.580  -4.241  1.00  0.00     0.108 A   
ATOM     26  O1  UNL     1       2.595  -2.497  -4.354  1.00  0.00    -0.316 OA  
ATOM     27  O2  UNL     1       0.300  -2.625  -5.081  1.00  0.00    -0.316 OA  
ATOM     28  C18 UNL     1       1.626  -3.185  -5.180  1.00  0.00     0.337 C   
ENDBRANCH  19  20
ENDBRANCH  16  19
ENDBRANCH   1  16
BRANCH   1  29
ATOM     29  C19 UNL     1       1.768  -0.444   1.849  1.00  0.00     0.043 C   
ATOM     30  C20 UNL     1       2.243   0.654   2.820  1.00  0.00     0.010 C   
ATOM     31  C24 UNL     1       2.909  -1.450   1.593  1.00  0.00     0.010 C   
ATOM     32  C21 UNL     1       2.776   0.058   4.123  1.00  0.00     0.001 C   
ATOM     33  C23 UNL     1       3.441  -2.042   2.897  1.00  0.00     0.001 C   
ATOM     34  C22 UNL     1       3.888  -0.954   3.867  1.00  0.00     0.000 C   
ENDBRANCH   1  29
TORSDOF 7
