REMARK SMILES Cc1cc(Cl)cnc1Cn1cc([C@@H]([NH2+]Cc2ccc3c(c2)OCO3)C(C)(C)C)nn1
REMARK SMILES IDX 10 1 11 2 12 3 29 4 30 5 9 7 8 8 2 9 3 10 4 11 7 12 6 13
REMARK SMILES IDX 1 14 5 15 13 16 14 17 15 20 16 21 17 22 21 23 18 24 20 25
REMARK SMILES IDX 19 26 22 27 24 28 23 29 25 30 26 31 27 32 28 33
REMARK H PARENT 11 6 14 18 14 19
ROOT
ATOM     1   N2  UNL     1       1.922  -0.830   0.669  1.00  0.00    -0.206 N   
ATOM     2   C8  UNL     1       1.350   0.171  -0.067  1.00  0.00     0.046 A   
ATOM     3   C9  UNL     1       0.812   1.016   0.878  1.00  0.00     0.127 A   
ATOM     4   N4  UNL     1       1.087   0.523   2.130  1.00  0.00    -0.132 NA  
ATOM     5   N5  UNL     1       1.770  -0.602   1.990  1.00  0.00    -0.076 NA  
ATOM     6   H8  UNL     1       1.336   0.153  -1.149  1.00  0.00     0.083 HD  
ENDROOT
BRANCH   1   7
ATOM     7   C7  UNL     1       2.568  -2.038   0.187  1.00  0.00     0.190 C   
BRANCH   7   8
ATOM     8   C6  UNL     1       1.525  -3.089  -0.111  1.00  0.00     0.063 A   
ATOM     9   C2  UNL     1       1.249  -4.150   0.765  1.00  0.00    -0.026 A   
ATOM     10  C3  UNL     1       0.255  -5.071   0.390  1.00  0.00     0.027 A   
ATOM     11  C4  UNL     1      -0.427  -4.914  -0.812  1.00  0.00     0.059 A   
ATOM     12  N1  UNL     1       0.847  -2.920  -1.285  1.00  0.00    -0.258 NA  
ATOM     13  C5  UNL     1      -0.100  -3.836  -1.612  1.00  0.00     0.131 A   
ATOM     14  C1  UNL     1       1.980  -4.341   2.066  1.00  0.00     0.046 C   
ATOM     15  CL1 UNL     1      -1.646  -6.027  -1.285  1.00  0.00    -0.083 Cl  
ENDBRANCH   7   8
ENDBRANCH   1   7
BRANCH   3  16
ATOM     16  C10 UNL     1      -0.068   2.217   0.728  1.00  0.00     0.120 C   
BRANCH  16  17
ATOM     17  N3  UNL     1      -1.204   2.124   1.730  1.00  0.00     0.250 N   
ATOM     18  H10 UNL     1      -1.745   2.990   1.751  1.00  0.00     0.199 HD  
ATOM     19  H11 UNL     1      -0.765   2.007   2.653  1.00  0.00     0.199 HD  
BRANCH  17  20
ATOM     20  C11 UNL     1      -2.150   0.976   1.554  1.00  0.00     0.164 C   
BRANCH  20  21
ATOM     21  C12 UNL     1      -2.919   1.033   0.263  1.00  0.00    -0.002 A   
ATOM     22  C13 UNL     1      -3.958   1.980   0.085  1.00  0.00     0.012 A   
ATOM     23  C17 UNL     1      -2.586   0.164  -0.794  1.00  0.00     0.045 A   
ATOM     24  C14 UNL     1      -4.655   2.064  -1.127  1.00  0.00     0.037 A   
ATOM     25  C16 UNL     1      -3.290   0.275  -1.976  1.00  0.00     0.109 A   
ATOM     26  C15 UNL     1      -4.295   1.199  -2.139  1.00  0.00     0.108 A   
ATOM     27  O1  UNL     1      -3.089  -0.479  -3.091  1.00  0.00    -0.316 OA  
ATOM     28  O2  UNL     1      -4.855   1.143  -3.377  1.00  0.00    -0.316 OA  
ATOM     29  C18 UNL     1      -4.114   0.052  -3.968  1.00  0.00     0.337 C   
ENDBRANCH  20  21
ENDBRANCH  17  20
ENDBRANCH  16  17
BRANCH  16  30
ATOM     30  C19 UNL     1       0.683   3.589   0.871  1.00  0.00     0.010 C   
ATOM     31  C20 UNL     1      -0.283   4.765   0.594  1.00  0.00     0.017 C   
ATOM     32  C21 UNL     1       1.816   3.679  -0.177  1.00  0.00     0.017 C   
ATOM     33  C22 UNL     1       1.299   3.795   2.269  1.00  0.00     0.017 C   
ENDBRANCH  16  30
ENDBRANCH   3  16
TORSDOF 7
