REMARK SMILES OC[C@H](c1ccncc1)n1cc([C@@H]([NH2+]Cc2ccc3c(c2)OCO3)C2CCCC2)nn1
REMARK SMILES IDX 10 1 11 2 12 3 30 4 31 5 3 7 2 8 1 9 4 11 5 12 9 13 6 14
REMARK SMILES IDX 8 15 7 16 13 17 14 18 15 21 16 22 17 23 21 24 18 25 20 26
REMARK SMILES IDX 19 27 22 28 24 29 23 30 25 31 26 32 29 33 27 34 28 35
REMARK H PARENT 11 6 1 10 14 19 14 20
ROOT
ATOM     1   N2  UNL     1      -0.334  -1.726   2.483  1.00  0.00    -0.202 N   
ATOM     2   C8  UNL     1      -1.250  -1.629   1.469  1.00  0.00     0.046 A   
ATOM     3   C9  UNL     1      -0.580  -0.959   0.471  1.00  0.00     0.127 A   
ATOM     4   N4  UNL     1       0.691  -0.671   0.898  1.00  0.00    -0.132 NA  
ATOM     5   N5  UNL     1       0.827  -1.132   2.131  1.00  0.00    -0.075 NA  
ATOM     6   H9  UNL     1      -2.248  -2.035   1.556  1.00  0.00     0.083 HD  
ENDROOT
BRANCH   1   7
ATOM     7   C2  UNL     1      -0.491  -2.311   3.816  1.00  0.00     0.155 C   
BRANCH   7   8
ATOM     8   C1  UNL     1      -0.501  -3.853   3.758  1.00  0.00     0.185 C   
BRANCH   8   9
ATOM     9   O1  UNL     1      -1.539  -4.379   2.930  1.00  0.00    -0.394 OA  
ATOM     10  H1  UNL     1      -1.464  -5.352   2.967  1.00  0.00     0.210 HD  
ENDBRANCH   8   9
ENDBRANCH   7   8
BRANCH   7  11
ATOM     11  C3  UNL     1      -1.633  -1.629   4.558  1.00  0.00    -0.020 A   
ATOM     12  C4  UNL     1      -1.413  -0.368   5.137  1.00  0.00     0.026 A   
ATOM     13  C7  UNL     1      -2.914  -2.179   4.671  1.00  0.00     0.026 A   
ATOM     14  C5  UNL     1      -2.459   0.271   5.784  1.00  0.00     0.111 A   
ATOM     15  C6  UNL     1      -3.898  -1.462   5.337  1.00  0.00     0.111 A   
ATOM     16  N1  UNL     1      -3.698  -0.247   5.885  1.00  0.00    -0.265 NA  
ENDBRANCH   7  11
ENDBRANCH   1   7
BRANCH   3  17
ATOM     17  C10 UNL     1      -1.027  -0.516  -0.885  1.00  0.00     0.117 C   
BRANCH  17  18
ATOM     18  N3  UNL     1      -0.229   0.682  -1.321  1.00  0.00     0.249 N   
ATOM     19  H11 UNL     1      -0.245   0.816  -2.336  1.00  0.00     0.199 HD  
ATOM     20  H12 UNL     1       0.753   0.487  -1.072  1.00  0.00     0.199 HD  
BRANCH  18  21
ATOM     21  C11 UNL     1      -0.597   1.964  -0.658  1.00  0.00     0.164 C   
BRANCH  21  22
ATOM     22  C12 UNL     1       0.328   3.064  -1.098  1.00  0.00    -0.002 A   
ATOM     23  C13 UNL     1      -0.035   3.929  -2.157  1.00  0.00     0.012 A   
ATOM     24  C17 UNL     1       1.590   3.200  -0.491  1.00  0.00     0.045 A   
ATOM     25  C14 UNL     1       0.842   4.924  -2.602  1.00  0.00     0.037 A   
ATOM     26  C16 UNL     1       2.430   4.191  -0.956  1.00  0.00     0.109 A   
ATOM     27  C15 UNL     1       2.067   5.028  -1.982  1.00  0.00     0.108 A   
ATOM     28  O2  UNL     1       3.679   4.452  -0.489  1.00  0.00    -0.316 OA  
ATOM     29  O3  UNL     1       3.040   5.926  -2.286  1.00  0.00    -0.316 OA  
ATOM     30  C18 UNL     1       4.057   5.568  -1.326  1.00  0.00     0.337 C   
ENDBRANCH  21  22
ENDBRANCH  18  21
ENDBRANCH  17  18
BRANCH  17  31
ATOM     31  C19 UNL     1      -0.916  -1.656  -1.915  1.00  0.00     0.043 C   
ATOM     32  C20 UNL     1      -1.579  -1.367  -3.265  1.00  0.00     0.010 C   
ATOM     33  C23 UNL     1       0.499  -2.064  -2.330  1.00  0.00     0.010 C   
ATOM     34  C21 UNL     1      -1.008  -2.425  -4.209  1.00  0.00     0.001 C   
ATOM     35  C22 UNL     1       0.266  -2.951  -3.548  1.00  0.00     0.001 C   
ENDBRANCH  17  31
ENDBRANCH   3  17
TORSDOF 9
