REMARK SMILES OC[C@@H](c1ccncc1)n1cc([C@@H]([NH2+]Cc2ccc3c(c2)OCO3)C2CCCC2)nn1
REMARK SMILES IDX 10 1 11 2 12 3 30 4 31 5 3 7 2 8 1 9 4 11 5 12 9 13 6 14
REMARK SMILES IDX 8 15 7 16 13 17 14 18 15 21 16 22 17 23 21 24 18 25 20 26
REMARK SMILES IDX 19 27 22 28 24 29 23 30 25 31 26 32 29 33 27 34 28 35
REMARK H PARENT 11 6 1 10 14 19 14 20
ROOT
ATOM     1   N2  UNL     1       1.595  -1.000   0.105  1.00  0.00    -0.202 N   
ATOM     2   C8  UNL     1       0.592  -1.429   0.937  1.00  0.00     0.046 A   
ATOM     3   C9  UNL     1      -0.534  -1.395   0.146  1.00  0.00     0.127 A   
ATOM     4   N4  UNL     1      -0.199  -0.936  -1.101  1.00  0.00    -0.132 NA  
ATOM     5   N5  UNL     1       1.103  -0.704  -1.119  1.00  0.00    -0.075 NA  
ATOM     6   H9  UNL     1       0.776  -1.719   1.962  1.00  0.00     0.083 HD  
ENDROOT
BRANCH   1   7
ATOM     7   C2  UNL     1       3.025  -0.903   0.407  1.00  0.00     0.155 C   
BRANCH   7   8
ATOM     8   C1  UNL     1       3.845  -1.876  -0.458  1.00  0.00     0.185 C   
BRANCH   8   9
ATOM     9   O1  UNL     1       3.615  -3.221  -0.029  1.00  0.00    -0.394 OA  
ATOM     10  H1  UNL     1       4.150  -3.800  -0.604  1.00  0.00     0.210 HD  
ENDBRANCH   8   9
ENDBRANCH   7   8
BRANCH   7  11
ATOM     11  C3  UNL     1       3.505   0.537   0.334  1.00  0.00    -0.020 A   
ATOM     12  C4  UNL     1       3.771   1.248   1.513  1.00  0.00     0.026 A   
ATOM     13  C7  UNL     1       3.706   1.192  -0.888  1.00  0.00     0.026 A   
ATOM     14  C5  UNL     1       4.226   2.554   1.419  1.00  0.00     0.111 A   
ATOM     15  C6  UNL     1       4.159   2.502  -0.879  1.00  0.00     0.111 A   
ATOM     16  N1  UNL     1       4.422   3.196   0.249  1.00  0.00    -0.265 NA  
ENDBRANCH   7  11
ENDBRANCH   1   7
BRANCH   3  17
ATOM     17  C10 UNL     1      -1.960  -1.721   0.442  1.00  0.00     0.117 C   
BRANCH  17  18
ATOM     18  N3  UNL     1      -2.847  -0.678  -0.210  1.00  0.00     0.249 N   
ATOM     19  H11 UNL     1      -3.672  -1.109  -0.635  1.00  0.00     0.199 HD  
ATOM     20  H12 UNL     1      -2.300  -0.300  -1.002  1.00  0.00     0.199 HD  
BRANCH  18  21
ATOM     21  C11 UNL     1      -3.277   0.456   0.652  1.00  0.00     0.164 C   
BRANCH  21  22
ATOM     22  C12 UNL     1      -2.155   1.361   1.074  1.00  0.00    -0.002 A   
ATOM     23  C13 UNL     1      -1.658   1.325   2.399  1.00  0.00     0.012 A   
ATOM     24  C17 UNL     1      -1.579   2.246   0.145  1.00  0.00     0.045 A   
ATOM     25  C14 UNL     1      -0.604   2.157   2.795  1.00  0.00     0.037 A   
ATOM     26  C16 UNL     1      -0.548   3.057   0.571  1.00  0.00     0.109 A   
ATOM     27  C15 UNL     1      -0.073   3.014   1.857  1.00  0.00     0.108 A   
ATOM     28  O2  UNL     1       0.096   3.978  -0.192  1.00  0.00    -0.316 OA  
ATOM     29  O3  UNL     1       0.935   3.901   2.068  1.00  0.00    -0.316 OA  
ATOM     30  C18 UNL     1       1.011   4.542   0.775  1.00  0.00     0.337 C   
ENDBRANCH  21  22
ENDBRANCH  18  21
ENDBRANCH  17  18
BRANCH  17  31
ATOM     31  C19 UNL     1      -2.360  -3.108  -0.098  1.00  0.00     0.043 C   
ATOM     32  C20 UNL     1      -3.795  -3.525   0.251  1.00  0.00     0.010 C   
ATOM     33  C23 UNL     1      -1.547  -4.260   0.503  1.00  0.00     0.010 C   
ATOM     34  C21 UNL     1      -3.812  -5.050   0.153  1.00  0.00     0.001 C   
ATOM     35  C22 UNL     1      -2.353  -5.494   0.127  1.00  0.00     0.001 C   
ENDBRANCH  17  31
ENDBRANCH   3  17
TORSDOF 9
