REMARK SMILES Cc1cc(-n2cc([C@@H]([NH2+]Cc3ccc4c(c3)OCO4)C3CCCCC3)nn2)cc(=O)o1
REMARK SMILES IDX 8 1 7 2 5 3 6 4 27 5 26 6 4 7 2 8 3 9 31 10 29 11 28 12 1 13
REMARK SMILES IDX 30 14 9 15 10 18 11 19 12 20 16 21 13 22 15 23 14 24 17 25
REMARK SMILES IDX 19 26 18 27 20 28 21 29 25 30 22 31 24 32 23 33
REMARK H PARENT 9 16 9 17
ROOT
ATOM     1   C7  UNL     1       0.408  -0.732   1.496  1.00  0.00     0.117 C   
ENDROOT
BRANCH   1   2
ATOM     2   C6  UNL     1       0.647   0.348   0.487  1.00  0.00     0.127 A   
ATOM     3   N1  UNL     1       0.679   2.176  -0.766  1.00  0.00    -0.180 N   
ATOM     4   C5  UNL     1       0.387   1.697   0.514  1.00  0.00     0.135 A   
ATOM     5   N4  UNL     1       1.140   1.108  -1.487  1.00  0.00    -0.071 NA  
ATOM     6   N3  UNL     1       1.118   0.015  -0.745  1.00  0.00    -0.131 NA  
BRANCH   3   7
ATOM     7   C4  UNL     1       0.524   3.497  -1.246  1.00  0.00     0.066 A   
ATOM     8   C2  UNL     1       0.715   5.030  -3.125  1.00  0.00     0.062 A   
ATOM     9   C3  UNL     1       0.830   3.786  -2.638  1.00  0.00     0.055 A   
ATOM     10  O4  UNL     1       0.292   6.103  -2.312  1.00  0.00    -0.279 OA  
ATOM     11  C23 UNL     1      -0.027   5.894  -1.004  1.00  0.00     0.292 A   
ATOM     12  C22 UNL     1       0.103   4.520  -0.484  1.00  0.00     0.106 A   
ATOM     13  C1  UNL     1       0.999   5.412  -4.542  1.00  0.00     0.073 C   
ATOM     14  O3  UNL     1      -0.406   6.789  -0.259  1.00  0.00    -0.261 OA  
ENDBRANCH   3   7
ENDBRANCH   1   2
BRANCH   1  15
ATOM     15  N2  UNL     1      -0.083  -1.982   0.795  1.00  0.00     0.249 N   
ATOM     16  H7  UNL     1       0.336  -1.960  -0.147  1.00  0.00     0.199 HD  
ATOM     17  H8  UNL     1       0.283  -2.825   1.243  1.00  0.00     0.199 HD  
BRANCH  15  18
ATOM     18  C8  UNL     1      -1.563  -2.134   0.648  1.00  0.00     0.164 C   
BRANCH  18  19
ATOM     19  C9  UNL     1      -2.247  -0.981  -0.033  1.00  0.00    -0.002 A   
ATOM     20  C10 UNL     1      -3.055  -0.091   0.716  1.00  0.00     0.012 A   
ATOM     21  C14 UNL     1      -2.052  -0.744  -1.405  1.00  0.00     0.045 A   
ATOM     22  C11 UNL     1      -3.636   1.032   0.116  1.00  0.00     0.037 A   
ATOM     23  C13 UNL     1      -2.633   0.376  -1.963  1.00  0.00     0.109 A   
ATOM     24  C12 UNL     1      -3.397   1.241  -1.223  1.00  0.00     0.108 A   
ATOM     25  O1  UNL     1      -2.516   0.766  -3.260  1.00  0.00    -0.316 OA  
ATOM     26  O2  UNL     1      -3.856   2.286  -1.959  1.00  0.00    -0.316 OA  
ATOM     27  C15 UNL     1      -3.325   1.962  -3.262  1.00  0.00     0.337 C   
ENDBRANCH  18  19
ENDBRANCH  15  18
ENDBRANCH   1  15
BRANCH   1  28
ATOM     28  C16 UNL     1       1.671  -1.035   2.347  1.00  0.00     0.043 C   
ATOM     29  C17 UNL     1       2.827  -1.687   1.559  1.00  0.00     0.010 C   
ATOM     30  C21 UNL     1       1.319  -1.882   3.586  1.00  0.00     0.010 C   
ATOM     31  C18 UNL     1       4.041  -1.949   2.449  1.00  0.00     0.001 C   
ATOM     32  C20 UNL     1       2.542  -2.141   4.464  1.00  0.00     0.001 C   
ATOM     33  C19 UNL     1       3.674  -2.780   3.675  1.00  0.00     0.000 C   
ENDBRANCH   1  28
TORSDOF 6
