REMARK SMILES CC(C)[C@H]([NH2+]Cc1ccc2c(c1)OCO2)c1cn(Cc2c[nH]c3ccccc23)nn1
REMARK SMILES IDX 16 1 17 2 18 3 29 4 30 5 4 7 2 8 1 9 3 10 5 11 6 14 7 15
REMARK SMILES IDX 8 16 12 17 9 18 11 19 10 20 13 21 15 22 14 23 19 24 20 25
REMARK SMILES IDX 21 26 28 27 22 28 23 29 27 30 24 31 26 32 25 33
REMARK H PARENT 17 6 5 12 5 13 22 34
ROOT
ATOM     1   C13 UNL     1       1.326  -1.448   1.067  1.00  0.00     0.127 A   
ATOM     2   C14 UNL     1       2.201  -0.624   0.397  1.00  0.00     0.046 A   
ATOM     3   N2  UNL     1       2.615  -1.374  -0.671  1.00  0.00    -0.208 N   
ATOM     4   N4  UNL     1       2.081  -2.612  -0.618  1.00  0.00    -0.076 NA  
ATOM     5   N5  UNL     1       1.292  -2.668   0.442  1.00  0.00    -0.132 NA  
ATOM     6   H18 UNL     1       2.509   0.404   0.533  1.00  0.00     0.083 HD  
ENDROOT
BRANCH   1   7
ATOM     7   C4  UNL     1       0.412  -1.175   2.215  1.00  0.00     0.117 C   
BRANCH   7   8
ATOM     8   C2  UNL     1       0.993  -1.559   3.602  1.00  0.00     0.037 C   
ATOM     9   C1  UNL     1       2.216  -0.701   3.953  1.00  0.00     0.014 C   
ATOM     10  C3  UNL     1       1.342  -3.043   3.758  1.00  0.00     0.014 C   
ENDBRANCH   7   8
BRANCH   7  11
ATOM     11  N1  UNL     1      -0.903  -1.904   2.023  1.00  0.00     0.249 N   
ATOM     12  H9  UNL     1      -1.473  -1.837   2.874  1.00  0.00     0.199 HD  
ATOM     13  H10 UNL     1      -0.666  -2.897   1.883  1.00  0.00     0.199 HD  
BRANCH  11  14
ATOM     14  C5  UNL     1      -1.726  -1.499   0.841  1.00  0.00     0.164 C   
BRANCH  14  15
ATOM     15  C6  UNL     1      -2.215  -0.079   0.907  1.00  0.00    -0.002 A   
ATOM     16  C7  UNL     1      -1.585   0.928   0.131  1.00  0.00     0.012 A   
ATOM     17  C11 UNL     1      -3.288   0.264   1.748  1.00  0.00     0.045 A   
ATOM     18  C8  UNL     1      -2.014   2.259   0.191  1.00  0.00     0.037 A   
ATOM     19  C10 UNL     1      -3.691   1.584   1.777  1.00  0.00     0.109 A   
ATOM     20  C9  UNL     1      -3.072   2.554   1.022  1.00  0.00     0.108 A   
ATOM     21  O1  UNL     1      -4.709   2.080   2.527  1.00  0.00    -0.316 OA  
ATOM     22  O2  UNL     1      -3.622   3.783   1.204  1.00  0.00    -0.316 OA  
ATOM     23  C12 UNL     1      -4.691   3.472   2.126  1.00  0.00     0.337 C   
ENDBRANCH  14  15
ENDBRANCH  11  14
ENDBRANCH   7  11
ENDBRANCH   1   7
BRANCH   3  24
ATOM     24  C15 UNL     1       3.445  -0.970  -1.799  1.00  0.00     0.171 C   
BRANCH  24  25
ATOM     25  C16 UNL     1       2.973   0.329  -2.372  1.00  0.00    -0.006 A   
ATOM     26  C17 UNL     1       3.694   1.507  -2.439  1.00  0.00     0.078 A   
ATOM     27  C23 UNL     1       1.685   0.601  -2.943  1.00  0.00     0.002 A   
ATOM     28  N3  UNL     1       2.902   2.470  -3.006  1.00  0.00    -0.320 N   
ATOM     29  C18 UNL     1       1.663   1.950  -3.297  1.00  0.00     0.037 A   
ATOM     30  C22 UNL     1       0.530  -0.174  -3.178  1.00  0.00     0.010 A   
ATOM     31  C19 UNL     1       0.539   2.568  -3.858  1.00  0.00     0.024 A   
ATOM     32  C21 UNL     1      -0.601   0.428  -3.742  1.00  0.00     0.001 A   
ATOM     33  C20 UNL     1      -0.595   1.781  -4.071  1.00  0.00     0.002 A   
ATOM     34  H22 UNL     1       3.182   3.427  -3.185  1.00  0.00     0.152 HD  
ENDBRANCH  24  25
ENDBRANCH   3  24
TORSDOF 7
