REMARK SMILES Cc1cc(O)c(Cn2cc([C@@H]([NH2+]Cc3ccc4c(c3)OCO4)C3CCCCC3)nn2)cc1C
REMARK SMILES IDX 8 1 9 2 10 3 29 4 30 5 7 7 6 8 2 9 3 10 32 11 4 12 31 13
REMARK SMILES IDX 1 14 33 15 5 16 11 18 12 19 13 22 14 23 15 24 19 25 16 26
REMARK SMILES IDX 18 27 17 28 20 29 22 30 21 31 23 32 24 33 28 34 25 35 27 36
REMARK SMILES IDX 26 37
REMARK H PARENT 9 6 5 17 12 20 12 21
ROOT
ATOM     1   N1  UNL     1       2.115   0.080  -1.572  1.00  0.00    -0.208 N   
ATOM     2   C7  UNL     1       1.209   0.541  -0.657  1.00  0.00     0.046 A   
ATOM     3   C8  UNL     1       1.097  -0.484   0.253  1.00  0.00     0.127 A   
ATOM     4   N3  UNL     1       1.927  -1.509  -0.124  1.00  0.00    -0.132 NA  
ATOM     5   N4  UNL     1       2.549  -1.151  -1.236  1.00  0.00    -0.076 NA  
ATOM     6   H8  UNL     1       0.733   1.506  -0.760  1.00  0.00     0.083 HD  
ENDROOT
BRANCH   1   7
ATOM     7   C6  UNL     1       2.598   0.742  -2.771  1.00  0.00     0.172 C   
BRANCH   7   8
ATOM     8   C5  UNL     1       1.663   0.510  -3.929  1.00  0.00     0.002 A   
ATOM     9   C2  UNL     1      -0.088   0.025  -6.093  1.00  0.00    -0.046 A   
ATOM     10  C3  UNL     1      -0.284   1.124  -5.243  1.00  0.00     0.037 A   
ATOM     11  C25 UNL     1       0.994  -0.846  -5.856  1.00  0.00    -0.048 A   
ATOM     12  C4  UNL     1       0.585   1.358  -4.178  1.00  0.00     0.076 A   
ATOM     13  C24 UNL     1       1.854  -0.596  -4.773  1.00  0.00     0.011 A   
ATOM     14  C1  UNL     1      -1.042  -0.206  -7.234  1.00  0.00     0.045 C   
ATOM     15  C26 UNL     1       1.259  -2.028  -6.749  1.00  0.00     0.044 C   
BRANCH  12  16
ATOM     16  O1  UNL     1       0.383   2.429  -3.354  1.00  0.00    -0.361 OA  
ATOM     17  H5  UNL     1      -0.217   3.051  -3.802  1.00  0.00     0.218 HD  
ENDBRANCH  12  16
ENDBRANCH   7   8
ENDBRANCH   1   7
BRANCH   3  18
ATOM     18  C9  UNL     1       0.212  -0.654   1.451  1.00  0.00     0.117 C   
BRANCH  18  19
ATOM     19  N2  UNL     1      -0.051  -2.137   1.609  1.00  0.00     0.249 N   
ATOM     20  H10 UNL     1      -0.332  -2.475   0.679  1.00  0.00     0.199 HD  
ATOM     21  H11 UNL     1       0.857  -2.598   1.755  1.00  0.00     0.199 HD  
BRANCH  19  22
ATOM     22  C10 UNL     1      -1.048  -2.598   2.604  1.00  0.00     0.164 C   
BRANCH  22  23
ATOM     23  C11 UNL     1      -2.417  -2.011   2.402  1.00  0.00    -0.002 A   
ATOM     24  C12 UNL     1      -2.987  -1.178   3.395  1.00  0.00     0.012 A   
ATOM     25  C16 UNL     1      -3.138  -2.272   1.224  1.00  0.00     0.045 A   
ATOM     26  C13 UNL     1      -4.248  -0.601   3.215  1.00  0.00     0.037 A   
ATOM     27  C15 UNL     1      -4.376  -1.683   1.076  1.00  0.00     0.109 A   
ATOM     28  C14 UNL     1      -4.915  -0.870   2.042  1.00  0.00     0.108 A   
ATOM     29  O2  UNL     1      -5.193  -1.822  -0.001  1.00  0.00    -0.316 OA  
ATOM     30  O3  UNL     1      -6.141  -0.396   1.696  1.00  0.00    -0.316 OA  
ATOM     31  C17 UNL     1      -6.321  -1.012   0.402  1.00  0.00     0.337 C   
ENDBRANCH  22  23
ENDBRANCH  19  22
ENDBRANCH  18  19
BRANCH  18  32
ATOM     32  C18 UNL     1       0.785  -0.048   2.759  1.00  0.00     0.043 C   
ATOM     33  C19 UNL     1       0.916   1.487   2.663  1.00  0.00     0.010 C   
ATOM     34  C23 UNL     1       2.122  -0.667   3.211  1.00  0.00     0.010 C   
ATOM     35  C20 UNL     1       1.415   2.098   3.972  1.00  0.00     0.001 C   
ATOM     36  C22 UNL     1       2.627  -0.043   4.512  1.00  0.00     0.001 C   
ATOM     37  C21 UNL     1       2.735   1.474   4.408  1.00  0.00     0.000 C   
ENDBRANCH  18  32
ENDBRANCH   3  18
TORSDOF 8
