REMARK SMILES CC(C)C[C@H]([NH2+]Cc1ccc2c(c1)OCO2)c1cn(-c2ccccc2CN)nn1
REMARK SMILES IDX 17 1 18 2 19 3 28 4 29 5 5 6 4 7 2 8 1 9 3 10 6 11 7 14 8 15
REMARK SMILES IDX 9 16 13 17 10 18 12 19 11 20 14 21 16 22 15 23 20 24 21 25
REMARK SMILES IDX 25 26 22 27 24 28 23 29 26 30 27 31
REMARK H PARENT 6 12 6 13 27 32 27 33
ROOT
ATOM     1   C14 UNL     1      -1.007  -0.059   0.688  1.00  0.00     0.127 A   
ATOM     2   C15 UNL     1      -1.865   0.024  -0.385  1.00  0.00     0.135 A   
ATOM     3   N2  UNL     1      -2.928   0.806   0.045  1.00  0.00    -0.180 N   
ATOM     4   N4  UNL     1      -2.668   1.185   1.324  1.00  0.00    -0.071 NA  
ATOM     5   N5  UNL     1      -1.523   0.658   1.724  1.00  0.00    -0.131 NA  
ENDROOT
BRANCH   1   6
ATOM     6   C5  UNL     1       0.307  -0.758   0.840  1.00  0.00     0.114 C   
BRANCH   6   7
ATOM     7   C4  UNL     1       0.097  -2.192   1.372  1.00  0.00     0.064 C   
BRANCH   7   8
ATOM     8   C2  UNL     1       1.361  -3.069   1.503  1.00  0.00    -0.012 C   
ATOM     9   C1  UNL     1       0.974  -4.453   2.035  1.00  0.00     0.007 C   
ATOM     10  C3  UNL     1       2.110  -3.219   0.178  1.00  0.00     0.007 C   
ENDBRANCH   7   8
ENDBRANCH   6   7
BRANCH   6  11
ATOM     11  N1  UNL     1       1.213  -0.011   1.792  1.00  0.00     0.249 N   
ATOM     12  H11 UNL     1       0.689   0.107   2.668  1.00  0.00     0.199 HD  
ATOM     13  H12 UNL     1       2.042  -0.570   2.007  1.00  0.00     0.199 HD  
BRANCH  11  14
ATOM     14  C6  UNL     1       1.667   1.346   1.355  1.00  0.00     0.164 C   
BRANCH  14  15
ATOM     15  C7  UNL     1       2.476   1.316   0.088  1.00  0.00    -0.002 A   
ATOM     16  C8  UNL     1       1.952   1.874  -1.103  1.00  0.00     0.012 A   
ATOM     17  C12 UNL     1       3.743   0.704   0.066  1.00  0.00     0.045 A   
ATOM     18  C9  UNL     1       2.670   1.815  -2.302  1.00  0.00     0.037 A   
ATOM     19  C11 UNL     1       4.421   0.658  -1.134  1.00  0.00     0.109 A   
ATOM     20  C10 UNL     1       3.901   1.197  -2.285  1.00  0.00     0.108 A   
ATOM     21  O1  UNL     1       5.640   0.091  -1.329  1.00  0.00    -0.316 OA  
ATOM     22  O2  UNL     1       4.729   1.038  -3.350  1.00  0.00    -0.316 OA  
ATOM     23  C13 UNL     1       5.849   0.365  -2.734  1.00  0.00     0.337 C   
ENDBRANCH  14  15
ENDBRANCH  11  14
ENDBRANCH   6  11
ENDBRANCH   1   6
BRANCH   3  24
ATOM     24  C16 UNL     1      -4.098   1.192  -0.677  1.00  0.00     0.062 A   
ATOM     25  C17 UNL     1      -4.202   0.801  -2.032  1.00  0.00     0.026 A   
ATOM     26  C21 UNL     1      -5.156   1.937  -0.095  1.00  0.00    -0.011 A   
ATOM     27  C18 UNL     1      -5.324   1.126  -2.798  1.00  0.00     0.002 A   
ATOM     28  C20 UNL     1      -6.284   2.234  -0.896  1.00  0.00     0.007 A   
ATOM     29  C19 UNL     1      -6.367   1.838  -2.229  1.00  0.00     0.000 A   
BRANCH  26  30
ATOM     30  C22 UNL     1      -5.218   2.430   1.335  1.00  0.00     0.115 C   
BRANCH  30  31
ATOM     31  N3  UNL     1      -5.451   1.341   2.274  1.00  0.00    -0.326 NA  
ATOM     32  H27 UNL     1      -5.644   1.736   3.193  1.00  0.00     0.119 HD  
ATOM     33  H28 UNL     1      -4.572   0.831   2.380  1.00  0.00     0.119 HD  
ENDBRANCH  30  31
ENDBRANCH  26  30
ENDBRANCH   3  24
TORSDOF 9
