REMARK SMILES [O-]N([O-])c1cccc(-n2cc([C@@H]([NH2+]Cc3ccc4c(c3)OCO4)C3CCCCC3)nn2)c1
REMARK SMILES IDX 9 1 10 2 11 3 30 4 31 5 8 6 4 7 5 8 32 9 6 10 7 11 2 12 1 13
REMARK SMILES IDX 3 14 12 15 13 16 14 19 15 20 16 21 20 22 17 23 19 24 18 25
REMARK SMILES IDX 21 26 23 27 22 28 24 29 25 30 29 31 26 32 28 33 27 34
REMARK H PARENT 13 17 13 18
ROOT
ATOM     1   N2  UNL     1      -0.207   0.414   1.852  1.00  0.00    -0.181 N   
ATOM     2   C6  UNL     1      -0.760   0.074   0.632  1.00  0.00     0.135 A   
ATOM     3   C7  UNL     1      -0.156  -1.115   0.288  1.00  0.00     0.127 A   
ATOM     4   N4  UNL     1       0.691  -1.493   1.291  1.00  0.00    -0.131 NA  
ATOM     5   N5  UNL     1       0.625  -0.582   2.248  1.00  0.00    -0.071 NA  
ENDROOT
BRANCH   1   6
ATOM     6   C5  UNL     1      -0.367   1.603   2.608  1.00  0.00     0.060 A   
ATOM     7   C1  UNL     1      -1.204   3.863   2.859  1.00  0.00     0.120 A   
ATOM     8   C2  UNL     1      -0.603   3.965   4.119  1.00  0.00     0.031 A   
ATOM     9   C23 UNL     1      -1.099   2.684   2.100  1.00  0.00     0.057 A   
ATOM     10  C3  UNL     1       0.119   2.882   4.620  1.00  0.00     0.004 A   
ATOM     11  C4  UNL     1       0.243   1.710   3.869  1.00  0.00     0.026 A   
BRANCH   7  12
ATOM     12  N1  UNL     1      -1.935   5.010   2.308  1.00  0.00     0.092 N   
ATOM     13  O1  UNL     1      -2.246   4.961   1.108  1.00  0.00    -0.138 OA  
ATOM     14  O2  UNL     1      -2.188   5.954   3.066  1.00  0.00    -0.138 OA  
ENDBRANCH   7  12
ENDBRANCH   1   6
BRANCH   3  15
ATOM     15  C8  UNL     1      -0.190  -1.905  -0.983  1.00  0.00     0.117 C   
BRANCH  15  16
ATOM     16  N3  UNL     1       1.226  -2.250  -1.395  1.00  0.00     0.249 N   
ATOM     17  H6  UNL     1       1.269  -3.181  -1.818  1.00  0.00     0.199 HD  
ATOM     18  H7  UNL     1       1.769  -2.317  -0.520  1.00  0.00     0.199 HD  
BRANCH  16  19
ATOM     19  C9  UNL     1       1.913  -1.282  -2.305  1.00  0.00     0.164 C   
BRANCH  19  20
ATOM     20  C10 UNL     1       1.964   0.128  -1.786  1.00  0.00    -0.002 A   
ATOM     21  C11 UNL     1       2.807   0.468  -0.701  1.00  0.00     0.012 A   
ATOM     22  C15 UNL     1       1.123   1.111  -2.337  1.00  0.00     0.045 A   
ATOM     23  C12 UNL     1       2.792   1.756  -0.152  1.00  0.00     0.037 A   
ATOM     24  C14 UNL     1       1.131   2.370  -1.771  1.00  0.00     0.109 A   
ATOM     25  C13 UNL     1       1.938   2.683  -0.706  1.00  0.00     0.108 A   
ATOM     26  O3  UNL     1       0.355   3.414  -2.160  1.00  0.00    -0.316 OA  
ATOM     27  O4  UNL     1       1.768   3.964  -0.288  1.00  0.00    -0.316 OA  
ATOM     28  C16 UNL     1       0.815   4.449  -1.260  1.00  0.00     0.337 C   
ENDBRANCH  19  20
ENDBRANCH  16  19
ENDBRANCH  15  16
BRANCH  15  29
ATOM     29  C17 UNL     1      -1.063  -3.185  -0.872  1.00  0.00     0.043 C   
ATOM     30  C18 UNL     1      -1.358  -3.778  -2.265  1.00  0.00     0.010 C   
ATOM     31  C22 UNL     1      -0.493  -4.272   0.062  1.00  0.00     0.010 C   
ATOM     32  C19 UNL     1      -2.270  -5.000  -2.182  1.00  0.00     0.001 C   
ATOM     33  C21 UNL     1      -1.407  -5.495   0.132  1.00  0.00     0.001 C   
ATOM     34  C20 UNL     1      -1.698  -6.064  -1.252  1.00  0.00     0.000 C   
ENDBRANCH  15  29
ENDBRANCH   3  15
TORSDOF 7
