REMARK SMILES CC(C)[C@H]([NH2+]Cc1ccc2c(c1)OCO2)c1cn(CCc2ncccc2F)nn1
REMARK SMILES IDX 16 1 17 2 18 3 28 4 29 5 4 7 2 8 1 9 3 10 5 11 6 14 7 15
REMARK SMILES IDX 8 16 12 17 9 18 11 19 10 20 13 21 15 22 14 23 19 24 20 25
REMARK SMILES IDX 21 26 22 27 26 28 23 29 25 30 24 31 27 32
REMARK H PARENT 17 6 5 12 5 13
ROOT
ATOM     1   C13 UNL     1       0.540   1.102   1.588  1.00  0.00     0.127 A   
ATOM     2   C14 UNL     1       0.680   1.778   0.397  1.00  0.00     0.045 A   
ATOM     3   N2  UNL     1       2.006   1.648   0.098  1.00  0.00    -0.212 N   
ATOM     4   N4  UNL     1       2.647   0.940   1.047  1.00  0.00    -0.076 NA  
ATOM     5   N5  UNL     1       1.760   0.604   1.969  1.00  0.00    -0.132 NA  
ATOM     6   H18 UNL     1      -0.011   2.292  -0.258  1.00  0.00     0.083 HD  
ENDROOT
BRANCH   1   7
ATOM     7   C4  UNL     1      -0.671   0.788   2.403  1.00  0.00     0.117 C   
BRANCH   7   8
ATOM     8   C2  UNL     1      -0.774   1.681   3.673  1.00  0.00     0.037 C   
ATOM     9   C1  UNL     1      -0.851   3.171   3.305  1.00  0.00     0.014 C   
ATOM     10  C3  UNL     1      -1.990   1.337   4.544  1.00  0.00     0.014 C   
ENDBRANCH   7   8
BRANCH   7  11
ATOM     11  N1  UNL     1      -0.622  -0.669   2.826  1.00  0.00     0.249 N   
ATOM     12  H9  UNL     1      -1.391  -0.886   3.463  1.00  0.00     0.199 HD  
ATOM     13  H10 UNL     1       0.258  -0.785   3.347  1.00  0.00     0.199 HD  
BRANCH  11  14
ATOM     14  C5  UNL     1      -0.621  -1.686   1.730  1.00  0.00     0.164 C   
BRANCH  14  15
ATOM     15  C6  UNL     1      -1.898  -1.699   0.937  1.00  0.00    -0.002 A   
ATOM     16  C7  UNL     1      -3.079  -2.255   1.485  1.00  0.00     0.012 A   
ATOM     17  C11 UNL     1      -1.933  -1.130  -0.349  1.00  0.00     0.045 A   
ATOM     18  C8  UNL     1      -4.279  -2.241   0.766  1.00  0.00     0.037 A   
ATOM     19  C10 UNL     1      -3.131  -1.137  -1.033  1.00  0.00     0.109 A   
ATOM     20  C9  UNL     1      -4.272  -1.676  -0.490  1.00  0.00     0.108 A   
ATOM     21  O1  UNL     1      -3.338  -0.629  -2.278  1.00  0.00    -0.316 OA  
ATOM     22  O2  UNL     1      -5.340  -1.576  -1.323  1.00  0.00    -0.316 OA  
ATOM     23  C12 UNL     1      -4.742  -0.926  -2.464  1.00  0.00     0.337 C   
ENDBRANCH  14  15
ENDBRANCH  11  14
ENDBRANCH   7  11
ENDBRANCH   1   7
BRANCH   3  24
ATOM     24  C15 UNL     1       2.720   2.142  -1.062  1.00  0.00     0.140 C   
BRANCH  24  25
ATOM     25  C16 UNL     1       3.106   1.032  -2.038  1.00  0.00     0.081 C   
BRANCH  25  26
ATOM     26  C17 UNL     1       1.934   0.352  -2.703  1.00  0.00     0.078 A   
ATOM     27  N3  UNL     1       0.769   1.046  -2.818  1.00  0.00    -0.258 NA  
ATOM     28  C21 UNL     1       2.090  -0.925  -3.238  1.00  0.00     0.144 A   
ATOM     29  C18 UNL     1      -0.242   0.450  -3.496  1.00  0.00     0.111 A   
ATOM     30  C20 UNL     1       1.031  -1.524  -3.906  1.00  0.00     0.043 A   
ATOM     31  C19 UNL     1      -0.161  -0.822  -4.044  1.00  0.00     0.023 A   
ATOM     32  F1  UNL     1       3.251  -1.583  -3.117  1.00  0.00    -0.205 F   
ENDBRANCH  25  26
ENDBRANCH  24  25
ENDBRANCH   3  24
TORSDOF 8
