REMARK SMILES FC(F)(F)c1cc(Cn2cc([C@@H]([NH2+]Cc3ccc4c(c3)OCO4)C3CCCCC3)nn2)[nH]n1
REMARK SMILES IDX 9 1 10 2 11 3 30 4 31 5 8 7 7 8 5 9 6 10 33 11 32 12 2 14
REMARK SMILES IDX 1 15 3 16 4 17 12 18 13 19 14 22 15 23 16 24 20 25 17 26
REMARK SMILES IDX 19 27 18 28 21 29 23 30 22 31 24 32 25 33 29 34 26 35 28 36
REMARK SMILES IDX 27 37
REMARK H PARENT 10 6 32 13 13 20 13 21
ROOT
ATOM     1   N1  UNL     1       0.904  -1.679  -1.871  1.00  0.00    -0.206 N   
ATOM     2   C6  UNL     1       0.131  -0.602  -1.532  1.00  0.00     0.046 A   
ATOM     3   C7  UNL     1       0.984   0.210  -0.818  1.00  0.00     0.127 A   
ATOM     4   N3  UNL     1       2.219  -0.388  -0.750  1.00  0.00    -0.132 NA  
ATOM     5   N4  UNL     1       2.152  -1.549  -1.382  1.00  0.00    -0.076 NA  
ATOM     6   H4  UNL     1      -0.910  -0.525  -1.814  1.00  0.00     0.083 HD  
ENDROOT
BRANCH   1   7
ATOM     7   C5  UNL     1       0.535  -2.850  -2.654  1.00  0.00     0.186 C   
BRANCH   7   8
ATOM     8   C4  UNL     1      -0.594  -3.586  -2.024  1.00  0.00     0.047 A   
ATOM     9   C2  UNL     1      -2.504  -4.544  -1.385  1.00  0.00     0.164 A   
ATOM     10  C3  UNL     1      -1.910  -3.747  -2.401  1.00  0.00     0.057 A   
ATOM     11  N6  UNL     1      -1.593  -4.859  -0.444  1.00  0.00    -0.179 NA  
ATOM     12  N5  UNL     1      -0.453  -4.289  -0.859  1.00  0.00    -0.240 N   
ATOM     13  H26 UNL     1       0.378  -4.411  -0.283  1.00  0.00     0.175 HD  
BRANCH   9  14
ATOM     14  C1  UNL     1      -3.945  -4.991  -1.320  1.00  0.00     0.434 C   
ATOM     15  F1  UNL     1      -4.431  -5.022  -0.051  1.00  0.00    -0.164 F   
ATOM     16  F2  UNL     1      -4.753  -4.148  -2.021  1.00  0.00    -0.164 F   
ATOM     17  F3  UNL     1      -4.122  -6.228  -1.851  1.00  0.00    -0.164 F   
ENDBRANCH   9  14
ENDBRANCH   7   8
ENDBRANCH   1   7
BRANCH   3  18
ATOM     18  C8  UNL     1       0.765   1.516  -0.124  1.00  0.00     0.117 C   
BRANCH  18  19
ATOM     19  N2  UNL     1       1.710   1.630   1.060  1.00  0.00     0.249 N   
ATOM     20  H6  UNL     1       2.069   2.584   1.145  1.00  0.00     0.199 HD  
ATOM     21  H7  UNL     1       2.523   1.037   0.832  1.00  0.00     0.199 HD  
BRANCH  19  22
ATOM     22  C9  UNL     1       1.171   1.206   2.383  1.00  0.00     0.164 C   
BRANCH  22  23
ATOM     23  C10 UNL     1       0.813  -0.250   2.473  1.00  0.00    -0.002 A   
ATOM     24  C11 UNL     1       1.825  -1.241   2.459  1.00  0.00     0.012 A   
ATOM     25  C15 UNL     1      -0.533  -0.642   2.566  1.00  0.00     0.045 A   
ATOM     26  C12 UNL     1       1.504  -2.600   2.531  1.00  0.00     0.037 A   
ATOM     27  C14 UNL     1      -0.815  -1.990   2.644  1.00  0.00     0.109 A   
ATOM     28  C13 UNL     1       0.174  -2.942   2.625  1.00  0.00     0.108 A   
ATOM     29  O1  UNL     1      -2.056  -2.533   2.752  1.00  0.00    -0.316 OA  
ATOM     30  O2  UNL     1      -0.319  -4.204   2.710  1.00  0.00    -0.316 OA  
ATOM     31  C16 UNL     1      -1.732  -3.938   2.869  1.00  0.00     0.337 C   
ENDBRANCH  22  23
ENDBRANCH  19  22
ENDBRANCH  18  19
BRANCH  18  32
ATOM     32  C17 UNL     1       0.972   2.759  -1.032  1.00  0.00     0.043 C   
ATOM     33  C18 UNL     1      -0.112   2.857  -2.123  1.00  0.00     0.010 C   
ATOM     34  C22 UNL     1       2.374   2.850  -1.667  1.00  0.00     0.010 C   
ATOM     35  C19 UNL     1       0.045   4.125  -2.960  1.00  0.00     0.001 C   
ATOM     36  C21 UNL     1       2.527   4.117  -2.509  1.00  0.00     0.001 C   
ATOM     37  C20 UNL     1       1.439   4.223  -3.572  1.00  0.00     0.000 C   
ENDBRANCH  18  32
ENDBRANCH   3  18
TORSDOF 8
