REMARK SMILES CC(C)[C@H]([NH2+]Cc1ccc2c(c1)OCO2)c1cn([C@H](CO)c2ccc(F)cc2F)nn1
REMARK SMILES IDX 16 1 17 2 18 3 30 4 31 5 4 7 2 8 1 9 3 10 5 11 6 14 7 15
REMARK SMILES IDX 8 16 12 17 9 18 11 19 10 20 13 21 15 22 14 23 19 24 20 25
REMARK SMILES IDX 21 26 22 28 23 29 28 30 24 31 27 32 25 33 29 34 26 35
REMARK H PARENT 17 6 5 12 5 13 21 27
ROOT
ATOM     1   C13 UNL     1       0.641  -0.948   1.084  1.00  0.00     0.127 A   
ATOM     2   C14 UNL     1      -0.078  -0.983   2.257  1.00  0.00     0.046 A   
ATOM     3   N2  UNL     1      -0.648   0.260   2.341  1.00  0.00    -0.202 N   
ATOM     4   N3  UNL     1      -0.322   0.999   1.255  1.00  0.00    -0.075 NA  
ATOM     5   N4  UNL     1       0.475   0.274   0.489  1.00  0.00    -0.132 NA  
ATOM     6   H18 UNL     1      -0.221  -1.742   3.013  1.00  0.00     0.083 HD  
ENDROOT
BRANCH   1   7
ATOM     7   C4  UNL     1       1.485  -1.985   0.413  1.00  0.00     0.117 C   
BRANCH   7   8
ATOM     8   C2  UNL     1       2.904  -2.076   1.035  1.00  0.00     0.037 C   
ATOM     9   C1  UNL     1       3.776  -0.840   0.780  1.00  0.00     0.014 C   
ATOM     10  C3  UNL     1       3.646  -3.336   0.573  1.00  0.00     0.014 C   
ENDBRANCH   7   8
BRANCH   7  11
ATOM     11  N1  UNL     1       1.579  -1.707  -1.063  1.00  0.00     0.249 N   
ATOM     12  H9  UNL     1       2.384  -2.170  -1.496  1.00  0.00     0.199 HD  
ATOM     13  H10 UNL     1       1.741  -0.693  -1.161  1.00  0.00     0.199 HD  
BRANCH  11  14
ATOM     14  C5  UNL     1       0.354  -2.030  -1.848  1.00  0.00     0.164 C   
BRANCH  14  15
ATOM     15  C6  UNL     1       0.538  -1.645  -3.289  1.00  0.00    -0.002 A   
ATOM     16  C7  UNL     1       0.953  -2.605  -4.242  1.00  0.00     0.012 A   
ATOM     17  C11 UNL     1       0.349  -0.310  -3.687  1.00  0.00     0.045 A   
ATOM     18  C8  UNL     1       1.166  -2.245  -5.577  1.00  0.00     0.037 A   
ATOM     19  C10 UNL     1       0.569   0.011  -5.010  1.00  0.00     0.109 A   
ATOM     20  C9  UNL     1       0.966  -0.929  -5.929  1.00  0.00     0.108 A   
ATOM     21  O1  UNL     1       0.434   1.247  -5.557  1.00  0.00    -0.316 OA  
ATOM     22  O2  UNL     1       1.128  -0.404  -7.171  1.00  0.00    -0.316 OA  
ATOM     23  C12 UNL     1       0.773   0.976  -6.936  1.00  0.00     0.337 C   
ENDBRANCH  14  15
ENDBRANCH  11  14
ENDBRANCH   7  11
ENDBRANCH   1   7
BRANCH   3  24
ATOM     24  C15 UNL     1      -1.525   0.831   3.366  1.00  0.00     0.158 C   
BRANCH  24  25
ATOM     25  C16 UNL     1      -1.364   0.201   4.764  1.00  0.00     0.186 C   
BRANCH  25  26
ATOM     26  O3  UNL     1      -0.046   0.417   5.267  1.00  0.00    -0.394 OA  
ATOM     27  H22 UNL     1      -0.051   0.179   6.213  1.00  0.00     0.210 HD  
ENDBRANCH  25  26
ENDBRANCH  24  25
BRANCH  24  28
ATOM     28  C17 UNL     1      -2.969   0.804   2.894  1.00  0.00     0.013 A   
ATOM     29  C18 UNL     1      -3.651   2.004   2.626  1.00  0.00     0.012 A   
ATOM     30  C22 UNL     1      -3.655  -0.405   2.708  1.00  0.00     0.131 A   
ATOM     31  C19 UNL     1      -4.978   1.979   2.192  1.00  0.00     0.040 A   
ATOM     32  C21 UNL     1      -4.976  -0.438   2.278  1.00  0.00     0.078 A   
ATOM     33  C20 UNL     1      -5.627   0.760   2.023  1.00  0.00     0.126 A   
ATOM     34  F2  UNL     1      -3.029  -1.567   2.945  1.00  0.00    -0.207 F   
ATOM     35  F1  UNL     1      -6.898   0.741   1.606  1.00  0.00    -0.207 F   
ENDBRANCH  24  28
ENDBRANCH   3  24
TORSDOF 9
