REMARK SMILES CC(C)[C@H]([NH2+]Cc1ccc2c(c1)OCO2)c1cn([C@@H](CO)c2ccc(F)cc2F)nn1
REMARK SMILES IDX 16 1 17 2 18 3 30 4 31 5 4 7 2 8 1 9 3 10 5 11 6 14 7 15
REMARK SMILES IDX 8 16 12 17 9 18 11 19 10 20 13 21 15 22 14 23 19 24 20 25
REMARK SMILES IDX 21 26 22 28 23 29 28 30 24 31 27 32 25 33 29 34 26 35
REMARK H PARENT 17 6 5 12 5 13 21 27
ROOT
ATOM     1   C13 UNL     1       0.724   0.868   0.080  1.00  0.00     0.127 A   
ATOM     2   C14 UNL     1       1.887   0.155  -0.096  1.00  0.00     0.046 A   
ATOM     3   N2  UNL     1       1.997  -0.590   1.047  1.00  0.00    -0.202 N   
ATOM     4   N3  UNL     1       0.945  -0.368   1.865  1.00  0.00    -0.075 NA  
ATOM     5   N4  UNL     1       0.159   0.522   1.282  1.00  0.00    -0.132 NA  
ATOM     6   H18 UNL     1       2.626   0.113  -0.885  1.00  0.00     0.083 HD  
ENDROOT
BRANCH   1   7
ATOM     7   C4  UNL     1       0.026   1.849  -0.802  1.00  0.00     0.117 C   
BRANCH   7   8
ATOM     8   C2  UNL     1       0.412   3.327  -0.528  1.00  0.00     0.037 C   
ATOM     9   C1  UNL     1       1.878   3.604  -0.882  1.00  0.00     0.014 C   
ATOM     10  C3  UNL     1       0.129   3.796   0.904  1.00  0.00     0.014 C   
ENDBRANCH   7   8
BRANCH   7  11
ATOM     11  N1  UNL     1      -1.474   1.707  -0.644  1.00  0.00     0.249 N   
ATOM     12  H9  UNL     1      -1.926   2.626  -0.666  1.00  0.00     0.199 HD  
ATOM     13  H10 UNL     1      -1.625   1.335   0.308  1.00  0.00     0.199 HD  
BRANCH  11  14
ATOM     14  C5  UNL     1      -2.159   0.810  -1.615  1.00  0.00     0.164 C   
BRANCH  14  15
ATOM     15  C6  UNL     1      -1.854  -0.648  -1.423  1.00  0.00    -0.002 A   
ATOM     16  C7  UNL     1      -0.950  -1.316  -2.283  1.00  0.00     0.012 A   
ATOM     17  C11 UNL     1      -2.458  -1.359  -0.371  1.00  0.00     0.045 A   
ATOM     18  C8  UNL     1      -0.653  -2.671  -2.103  1.00  0.00     0.037 A   
ATOM     19  C10 UNL     1      -2.151  -2.696  -0.227  1.00  0.00     0.109 A   
ATOM     20  C9  UNL     1      -1.275  -3.334  -1.068  1.00  0.00     0.108 A   
ATOM     21  O1  UNL     1      -2.662  -3.526   0.720  1.00  0.00    -0.316 OA  
ATOM     22  O2  UNL     1      -1.124  -4.648  -0.758  1.00  0.00    -0.316 OA  
ATOM     23  C12 UNL     1      -2.026  -4.773   0.362  1.00  0.00     0.337 C   
ENDBRANCH  14  15
ENDBRANCH  11  14
ENDBRANCH   7  11
ENDBRANCH   1   7
BRANCH   3  24
ATOM     24  C15 UNL     1       3.075  -1.509   1.415  1.00  0.00     0.158 C   
BRANCH  24  25
ATOM     25  C16 UNL     1       3.812  -1.022   2.676  1.00  0.00     0.186 C   
BRANCH  25  26
ATOM     26  O3  UNL     1       4.585   0.142   2.374  1.00  0.00    -0.394 OA  
ATOM     27  H22 UNL     1       5.056   0.393   3.191  1.00  0.00     0.210 HD  
ENDBRANCH  25  26
ENDBRANCH  24  25
BRANCH  24  28
ATOM     28  C17 UNL     1       2.548  -2.930   1.483  1.00  0.00     0.013 A   
ATOM     29  C18 UNL     1       2.067  -3.512   2.667  1.00  0.00     0.012 A   
ATOM     30  C22 UNL     1       2.506  -3.693   0.305  1.00  0.00     0.131 A   
ATOM     31  C19 UNL     1       1.589  -4.825   2.664  1.00  0.00     0.040 A   
ATOM     32  C21 UNL     1       2.035  -5.000   0.295  1.00  0.00     0.078 A   
ATOM     33  C20 UNL     1       1.582  -5.555   1.480  1.00  0.00     0.126 A   
ATOM     34  F2  UNL     1       2.921  -3.148  -0.848  1.00  0.00    -0.207 F   
ATOM     35  F1  UNL     1       1.105  -6.806   1.483  1.00  0.00    -0.207 F   
ENDBRANCH  24  28
ENDBRANCH   3  24
TORSDOF 9
