REMARK SMILES CCn1ccnc1CCn1cc([C@@H]([NH2+]Cc2ccc3c(c2)OCO3)C(C)(C)C)nn1
REMARK SMILES IDX 10 1 11 2 12 3 29 4 30 5 9 7 8 8 7 9 3 10 4 11 5 12 6 13
REMARK SMILES IDX 2 14 1 15 13 16 14 17 15 20 16 21 17 22 21 23 18 24 20 25
REMARK SMILES IDX 19 26 22 27 24 28 23 29 25 30 26 31 27 32 28 33
REMARK H PARENT 11 6 14 18 14 19
ROOT
ATOM     1   N3  UNL     1      -2.194   2.166  -0.440  1.00  0.00    -0.212 N   
ATOM     2   C8  UNL     1      -1.799   1.084   0.292  1.00  0.00     0.045 A   
ATOM     3   C9  UNL     1      -0.491   1.362   0.615  1.00  0.00     0.127 A   
ATOM     4   N5  UNL     1      -0.152   2.591   0.109  1.00  0.00    -0.132 NA  
ATOM     5   N6  UNL     1      -1.209   3.081  -0.521  1.00  0.00    -0.076 NA  
ATOM     6   H12 UNL     1      -2.441   0.227   0.447  1.00  0.00     0.083 HD  
ENDROOT
BRANCH   1   7
ATOM     7   C7  UNL     1      -3.468   2.392  -1.089  1.00  0.00     0.142 C   
BRANCH   7   8
ATOM     8   C6  UNL     1      -3.385   2.349  -2.613  1.00  0.00     0.094 C   
BRANCH   8   9
ATOM     9   C5  UNL     1      -3.170   0.967  -3.152  1.00  0.00     0.102 A   
ATOM     10  N1  UNL     1      -3.365   0.627  -4.475  1.00  0.00    -0.294 N   
ATOM     11  C3  UNL     1      -3.110  -0.711  -4.603  1.00  0.00     0.096 A   
ATOM     12  C4  UNL     1      -2.763  -1.135  -3.346  1.00  0.00     0.128 A   
ATOM     13  N2  UNL     1      -2.779  -0.088  -2.460  1.00  0.00    -0.244 NA  
BRANCH  10  14
ATOM     14  C2  UNL     1      -3.760   1.502  -5.564  1.00  0.00     0.108 C   
ATOM     15  C1  UNL     1      -5.266   1.528  -5.767  1.00  0.00     0.025 C   
ENDBRANCH  10  14
ENDBRANCH   8   9
ENDBRANCH   7   8
ENDBRANCH   1   7
BRANCH   3  16
ATOM     16  C10 UNL     1       0.553   0.511   1.264  1.00  0.00     0.120 C   
BRANCH  16  17
ATOM     17  N4  UNL     1       1.834   0.622   0.460  1.00  0.00     0.250 N   
ATOM     18  H14 UNL     1       2.626   0.222   0.966  1.00  0.00     0.199 HD  
ATOM     19  H15 UNL     1       2.011   1.630   0.348  1.00  0.00     0.199 HD  
BRANCH  17  20
ATOM     20  C11 UNL     1       1.797   0.036  -0.916  1.00  0.00     0.164 C   
BRANCH  20  21
ATOM     21  C12 UNL     1       1.676  -1.462  -0.910  1.00  0.00    -0.002 A   
ATOM     22  C13 UNL     1       2.782  -2.274  -0.564  1.00  0.00     0.012 A   
ATOM     23  C17 UNL     1       0.443  -2.066  -1.218  1.00  0.00     0.045 A   
ATOM     24  C14 UNL     1       2.663  -3.668  -0.520  1.00  0.00     0.037 A   
ATOM     25  C16 UNL     1       0.360  -3.441  -1.165  1.00  0.00     0.109 A   
ATOM     26  C15 UNL     1       1.438  -4.220  -0.825  1.00  0.00     0.108 A   
ATOM     27  O1  UNL     1      -0.752  -4.178  -1.429  1.00  0.00    -0.316 OA  
ATOM     28  O2  UNL     1       1.142  -5.545  -0.831  1.00  0.00    -0.316 OA  
ATOM     29  C18 UNL     1      -0.244  -5.517  -1.234  1.00  0.00     0.337 C   
ENDBRANCH  20  21
ENDBRANCH  17  20
ENDBRANCH  16  17
BRANCH  16  30
ATOM     30  C19 UNL     1       0.821   0.854   2.772  1.00  0.00     0.010 C   
ATOM     31  C20 UNL     1       1.425   2.257   2.976  1.00  0.00     0.017 C   
ATOM     32  C21 UNL     1      -0.498   0.772   3.575  1.00  0.00     0.017 C   
ATOM     33  C22 UNL     1       1.788  -0.182   3.391  1.00  0.00     0.017 C   
ENDBRANCH  16  30
ENDBRANCH   3  16
TORSDOF 9
