REMARK SMILES Cc1ccc(F)cc1CCn1cc([C@H](CC(C)C)[NH2+]Cc2ccc3c(c2)OCO3)nn1
REMARK SMILES IDX 11 1 12 2 13 3 30 4 31 5 10 7 9 8 8 9 2 10 3 11 4 12 7 13
REMARK SMILES IDX 5 14 1 15 6 16 14 17 15 18 16 19 17 20 18 21 19 22 20 25
REMARK SMILES IDX 21 26 22 27 26 28 23 29 25 30 24 31 27 32 29 33 28 34
REMARK H PARENT 12 6 19 23 19 24
ROOT
ATOM     1   N1  UNL     1       2.488  -2.346  -0.355  1.00  0.00    -0.212 N   
ATOM     2   C10 UNL     1       2.546  -1.001  -0.596  1.00  0.00     0.045 A   
ATOM     3   C11 UNL     1       1.285  -0.549  -0.277  1.00  0.00     0.127 A   
ATOM     4   N3  UNL     1       0.533  -1.609   0.169  1.00  0.00    -0.132 NA  
ATOM     5   N4  UNL     1       1.287  -2.696   0.138  1.00  0.00    -0.076 NA  
ATOM     6   H11 UNL     1       3.429  -0.526  -1.003  1.00  0.00     0.083 HD  
ENDROOT
BRANCH   1   7
ATOM     7   C9  UNL     1       3.500  -3.347  -0.624  1.00  0.00     0.139 C   
BRANCH   7   8
ATOM     8   C8  UNL     1       3.232  -4.143  -1.905  1.00  0.00     0.057 C   
BRANCH   8   9
ATOM     9   C7  UNL     1       3.270  -3.285  -3.154  1.00  0.00    -0.041 A   
ATOM     10  C2  UNL     1       4.468  -2.995  -3.843  1.00  0.00    -0.048 A   
ATOM     11  C3  UNL     1       4.426  -2.151  -4.968  1.00  0.00     0.007 A   
ATOM     12  C4  UNL     1       3.225  -1.589  -5.400  1.00  0.00     0.039 A   
ATOM     13  C6  UNL     1       2.065  -2.724  -3.615  1.00  0.00     0.043 A   
ATOM     14  C5  UNL     1       2.055  -1.881  -4.719  1.00  0.00     0.123 A   
ATOM     15  C1  UNL     1       5.789  -3.599  -3.446  1.00  0.00     0.044 C   
ATOM     16  F1  UNL     1       0.900  -1.327  -5.113  1.00  0.00    -0.207 F   
ENDBRANCH   8   9
ENDBRANCH   7   8
ENDBRANCH   1   7
BRANCH   3  17
ATOM     17  C12 UNL     1       0.649   0.804  -0.382  1.00  0.00     0.114 C   
BRANCH  17  18
ATOM     18  C13 UNL     1       1.606   1.971  -0.078  1.00  0.00     0.064 C   
BRANCH  18  19
ATOM     19  C14 UNL     1       1.006   3.387  -0.210  1.00  0.00    -0.012 C   
ATOM     20  C15 UNL     1       2.056   4.429   0.187  1.00  0.00     0.007 C   
ATOM     21  C16 UNL     1       0.503   3.676  -1.625  1.00  0.00     0.007 C   
ENDBRANCH  18  19
ENDBRANCH  17  18
BRANCH  17  22
ATOM     22  N2  UNL     1      -0.594   0.880   0.461  1.00  0.00     0.249 N   
ATOM     23  H22 UNL     1      -1.186   1.669   0.181  1.00  0.00     0.199 HD  
ATOM     24  H23 UNL     1      -1.135   0.032   0.230  1.00  0.00     0.199 HD  
BRANCH  22  25
ATOM     25  C17 UNL     1      -0.430   0.868   1.943  1.00  0.00     0.164 C   
BRANCH  25  26
ATOM     26  C18 UNL     1      -1.768   0.722   2.614  1.00  0.00    -0.002 A   
ATOM     27  C19 UNL     1      -2.288  -0.566   2.884  1.00  0.00     0.012 A   
ATOM     28  C23 UNL     1      -2.533   1.860   2.922  1.00  0.00     0.045 A   
ATOM     29  C20 UNL     1      -3.551  -0.722   3.465  1.00  0.00     0.037 A   
ATOM     30  C22 UNL     1      -3.773   1.670   3.496  1.00  0.00     0.109 A   
ATOM     31  C21 UNL     1      -4.269   0.417   3.760  1.00  0.00     0.108 A   
ATOM     32  O1  UNL     1      -4.636   2.656   3.854  1.00  0.00    -0.316 OA  
ATOM     33  O2  UNL     1      -5.505   0.457   4.320  1.00  0.00    -0.316 OA  
ATOM     34  C24 UNL     1      -5.723   1.881   4.408  1.00  0.00     0.337 C   
ENDBRANCH  25  26
ENDBRANCH  22  25
ENDBRANCH  17  22
ENDBRANCH   3  17
TORSDOF 9
