REMARK SMILES Cc1ccnc(-n2cc([C@@H]([NH2+]Cc3ccc4c(c3)OCO4)C(C)(C)C)nn2)n1
REMARK SMILES IDX 10 1 9 2 7 3 8 4 27 5 26 6 6 7 2 8 3 9 28 10 4 11 5 12 1 13
REMARK SMILES IDX 11 14 12 17 13 18 14 19 18 20 15 21 17 22 16 23 19 24 21 25
REMARK SMILES IDX 20 26 22 27 23 28 24 29 25 30
REMARK H PARENT 11 15 11 16
ROOT
ATOM     1   C8  UNL     1       0.873   1.013  -0.435  1.00  0.00     0.120 C   
ENDROOT
BRANCH   1   2
ATOM     2   C7  UNL     1       0.107  -0.130  -1.036  1.00  0.00     0.128 A   
ATOM     3   N2  UNL     1      -1.335  -1.541  -1.891  1.00  0.00    -0.146 N   
ATOM     4   C6  UNL     1      -1.187  -0.222  -1.495  1.00  0.00     0.138 A   
ATOM     5   N5  UNL     1      -0.180  -2.211  -1.629  1.00  0.00    -0.068 NA  
ATOM     6   N4  UNL     1       0.699  -1.362  -1.121  1.00  0.00    -0.131 NA  
BRANCH   3   7
ATOM     7   C5  UNL     1      -2.491  -2.150  -2.462  1.00  0.00     0.242 A   
ATOM     8   C2  UNL     1      -4.665  -1.937  -3.200  1.00  0.00     0.043 A   
ATOM     9   C3  UNL     1      -4.697  -3.274  -3.547  1.00  0.00     0.044 A   
ATOM     10  N6  UNL     1      -3.572  -1.358  -2.655  1.00  0.00    -0.219 NA  
ATOM     11  C4  UNL     1      -3.551  -3.994  -3.307  1.00  0.00     0.117 A   
ATOM     12  N1  UNL     1      -2.440  -3.462  -2.767  1.00  0.00    -0.222 NA  
ATOM     13  C1  UNL     1      -5.869  -1.072  -3.426  1.00  0.00     0.067 C   
ENDBRANCH   3   7
ENDBRANCH   1   2
BRANCH   1  14
ATOM     14  N3  UNL     1       1.829   0.460   0.598  1.00  0.00     0.250 N   
ATOM     15  H8  UNL     1       2.588   1.108   0.820  1.00  0.00     0.199 HD  
ATOM     16  H9  UNL     1       2.276  -0.367   0.174  1.00  0.00     0.199 HD  
BRANCH  14  17
ATOM     17  C9  UNL     1       1.204   0.011   1.874  1.00  0.00     0.164 C   
BRANCH  17  18
ATOM     18  C10 UNL     1       2.235  -0.618   2.767  1.00  0.00    -0.002 A   
ATOM     19  C11 UNL     1       2.549  -1.992   2.630  1.00  0.00     0.012 A   
ATOM     20  C15 UNL     1       2.936   0.163   3.701  1.00  0.00     0.045 A   
ATOM     21  C12 UNL     1       3.539  -2.585   3.420  1.00  0.00     0.037 A   
ATOM     22  C14 UNL     1       3.906  -0.454   4.465  1.00  0.00     0.109 A   
ATOM     23  C13 UNL     1       4.199  -1.788   4.329  1.00  0.00     0.108 A   
ATOM     24  O1  UNL     1       4.672   0.153   5.408  1.00  0.00    -0.316 OA  
ATOM     25  O2  UNL     1       5.185  -2.190   5.172  1.00  0.00    -0.316 OA  
ATOM     26  C16 UNL     1       5.468  -0.961   5.873  1.00  0.00     0.337 C   
ENDBRANCH  17  18
ENDBRANCH  14  17
ENDBRANCH   1  14
BRANCH   1  27
ATOM     27  C17 UNL     1       1.650   1.887  -1.481  1.00  0.00     0.010 C   
ATOM     28  C18 UNL     1       0.677   2.434  -2.551  1.00  0.00     0.017 C   
ATOM     29  C19 UNL     1       2.286   3.115  -0.788  1.00  0.00     0.017 C   
ATOM     30  C20 UNL     1       2.767   1.103  -2.197  1.00  0.00     0.017 C   
ENDBRANCH   1  27
TORSDOF 6
