REMARK SMILES COc1cc(O)ccc1CCn1cc([C@H](CC(C)C)[NH2+]Cc2ccc3c(c2)OCO3)nn1
REMARK SMILES IDX 12 1 13 2 14 3 31 4 32 5 11 7 10 8 9 9 3 10 4 11 5 12 8 13
REMARK SMILES IDX 7 14 2 15 1 16 6 17 15 19 16 20 17 21 18 22 19 23 20 24
REMARK SMILES IDX 21 27 22 28 23 29 27 30 24 31 26 32 25 33 28 34 30 35 29 36
REMARK H PARENT 13 6 6 18 20 25 20 26
ROOT
ATOM     1   N1  UNL     1       0.305   2.758  -1.415  1.00  0.00    -0.212 N   
ATOM     2   C10 UNL     1       0.048   1.442  -1.674  1.00  0.00     0.045 A   
ATOM     3   C11 UNL     1       0.707   0.774  -0.668  1.00  0.00     0.127 A   
ATOM     4   N3  UNL     1       1.389   1.678   0.107  1.00  0.00    -0.132 NA  
ATOM     5   N4  UNL     1       1.158   2.886  -0.382  1.00  0.00    -0.076 NA  
ATOM     6   H12 UNL     1      -0.585   1.122  -2.494  1.00  0.00     0.083 HD  
ENDROOT
BRANCH   1   7
ATOM     7   C9  UNL     1      -0.189   3.918  -2.124  1.00  0.00     0.139 C   
BRANCH   7   8
ATOM     8   C8  UNL     1      -1.548   4.399  -1.611  1.00  0.00     0.059 C   
BRANCH   8   9
ATOM     9   C7  UNL     1      -2.652   3.363  -1.661  1.00  0.00    -0.016 A   
ATOM     10  C2  UNL     1      -3.101   2.818  -2.879  1.00  0.00     0.080 A   
ATOM     11  C3  UNL     1      -4.077   1.824  -2.867  1.00  0.00     0.066 A   
ATOM     12  C4  UNL     1      -4.634   1.415  -1.661  1.00  0.00     0.074 A   
ATOM     13  C6  UNL     1      -3.237   2.935  -0.457  1.00  0.00     0.009 A   
ATOM     14  C5  UNL     1      -4.237   1.971  -0.453  1.00  0.00     0.033 A   
BRANCH  10  15
ATOM     15  O1  UNL     1      -2.503   3.301  -4.011  1.00  0.00    -0.349 OA  
ATOM     16  C1  UNL     1      -3.085   2.932  -5.260  1.00  0.00     0.203 C   
ENDBRANCH  10  15
BRANCH  12  17
ATOM     17  O2  UNL     1      -5.570   0.421  -1.709  1.00  0.00    -0.361 OA  
ATOM     18  H5  UNL     1      -6.112   0.459  -0.899  1.00  0.00     0.218 HD  
ENDBRANCH  12  17
ENDBRANCH   8   9
ENDBRANCH   7   8
ENDBRANCH   1   7
BRANCH   3  19
ATOM     19  C12 UNL     1       0.807  -0.680  -0.370  1.00  0.00     0.114 C   
BRANCH  19  20
ATOM     20  C13 UNL     1      -0.009  -1.089   0.870  1.00  0.00     0.064 C   
BRANCH  20  21
ATOM     21  C14 UNL     1      -1.530  -0.840   0.770  1.00  0.00    -0.012 C   
ATOM     22  C15 UNL     1      -2.173  -1.606  -0.387  1.00  0.00     0.007 C   
ATOM     23  C16 UNL     1      -2.200  -1.237   2.087  1.00  0.00     0.007 C   
ENDBRANCH  20  21
ENDBRANCH  19  20
BRANCH  19  24
ATOM     24  N2  UNL     1       2.247  -1.043  -0.098  1.00  0.00     0.249 N   
ATOM     25  H23 UNL     1       2.603  -0.361   0.588  1.00  0.00     0.199 HD  
ATOM     26  H24 UNL     1       2.321  -1.964   0.348  1.00  0.00     0.199 HD  
BRANCH  24  27
ATOM     27  C17 UNL     1       3.137  -0.995  -1.287  1.00  0.00     0.164 C   
BRANCH  27  28
ATOM     28  C18 UNL     1       4.543  -1.379  -0.929  1.00  0.00    -0.002 A   
ATOM     29  C19 UNL     1       5.481  -0.386  -0.551  1.00  0.00     0.012 A   
ATOM     30  C23 UNL     1       4.933  -2.730  -0.940  1.00  0.00     0.045 A   
ATOM     31  C20 UNL     1       6.791  -0.732  -0.199  1.00  0.00     0.037 A   
ATOM     32  C22 UNL     1       6.234  -3.034  -0.591  1.00  0.00     0.109 A   
ATOM     33  C21 UNL     1       7.136  -2.064  -0.231  1.00  0.00     0.108 A   
ATOM     34  O3  UNL     1       6.765  -4.286  -0.537  1.00  0.00    -0.316 OA  
ATOM     35  O4  UNL     1       8.349  -2.581   0.097  1.00  0.00    -0.316 OA  
ATOM     36  C24 UNL     1       8.117  -3.989  -0.123  1.00  0.00     0.337 C   
ENDBRANCH  27  28
ENDBRANCH  24  27
ENDBRANCH  19  24
ENDBRANCH   3  19
TORSDOF 11
