REMARK SMILES CC(C)[C@H]([NH2+]Cc1ccc2c(c1)OCO2)c1cn(CCc2ccc(O)cc2O)nn1
REMARK SMILES IDX 16 1 17 2 18 3 29 4 30 5 4 7 2 8 1 9 3 10 5 11 6 14 7 15
REMARK SMILES IDX 8 16 12 17 9 18 11 19 10 20 13 21 15 22 14 23 19 24 20 25
REMARK SMILES IDX 21 26 22 27 27 28 23 29 26 30 24 31 28 32 25 34
REMARK H PARENT 17 6 5 12 5 13 28 33 25 35
ROOT
ATOM     1   C13 UNL     1      -1.115  -0.648   1.881  1.00  0.00     0.127 A   
ATOM     2   C14 UNL     1      -0.270  -1.673   1.521  1.00  0.00     0.045 A   
ATOM     3   N2  UNL     1      -1.100  -2.747   1.369  1.00  0.00    -0.212 N   
ATOM     4   N3  UNL     1      -2.379  -2.408   1.616  1.00  0.00    -0.076 NA  
ATOM     5   N4  UNL     1      -2.401  -1.123   1.933  1.00  0.00    -0.132 NA  
ATOM     6   H18 UNL     1       0.795  -1.737   1.343  1.00  0.00     0.083 HD  
ENDROOT
BRANCH   1   7
ATOM     7   C4  UNL     1      -0.851   0.802   2.117  1.00  0.00     0.117 C   
BRANCH   7   8
ATOM     8   C2  UNL     1      -0.606   1.171   3.604  1.00  0.00     0.037 C   
ATOM     9   C1  UNL     1       0.686   0.539   4.134  1.00  0.00     0.014 C   
ATOM     10  C3  UNL     1      -1.768   0.830   4.543  1.00  0.00     0.014 C   
ENDBRANCH   7   8
BRANCH   7  11
ATOM     11  N1  UNL     1      -2.008   1.634   1.603  1.00  0.00     0.249 N   
ATOM     12  H9  UNL     1      -2.858   1.237   2.025  1.00  0.00     0.199 HD  
ATOM     13  H10 UNL     1      -1.920   2.601   1.930  1.00  0.00     0.199 HD  
BRANCH  11  14
ATOM     14  C5  UNL     1      -2.222   1.629   0.125  1.00  0.00     0.164 C   
BRANCH  14  15
ATOM     15  C6  UNL     1      -1.093   2.257  -0.641  1.00  0.00    -0.002 A   
ATOM     16  C7  UNL     1      -0.177   1.444  -1.351  1.00  0.00     0.012 A   
ATOM     17  C11 UNL     1      -0.919   3.651  -0.636  1.00  0.00     0.045 A   
ATOM     18  C8  UNL     1       0.895   2.007  -2.050  1.00  0.00     0.037 A   
ATOM     19  C10 UNL     1       0.150   4.175  -1.334  1.00  0.00     0.109 A   
ATOM     20  C9  UNL     1       1.032   3.377  -2.021  1.00  0.00     0.108 A   
ATOM     21  O1  UNL     1       0.460   5.494  -1.428  1.00  0.00    -0.316 OA  
ATOM     22  O2  UNL     1       2.007   4.093  -2.636  1.00  0.00    -0.316 OA  
ATOM     23  C12 UNL     1       1.626   5.440  -2.282  1.00  0.00     0.337 C   
ENDBRANCH  14  15
ENDBRANCH  11  14
ENDBRANCH   7  11
ENDBRANCH   1   7
BRANCH   3  24
ATOM     24  C15 UNL     1      -0.750  -4.094   0.973  1.00  0.00     0.139 C   
BRANCH  24  25
ATOM     25  C16 UNL     1      -1.141  -4.420  -0.469  1.00  0.00     0.059 C   
BRANCH  25  26
ATOM     26  C17 UNL     1      -0.590  -3.477  -1.519  1.00  0.00    -0.016 A   
ATOM     27  C18 UNL     1      -1.478  -2.792  -2.367  1.00  0.00     0.009 A   
ATOM     28  C22 UNL     1       0.784  -3.289  -1.705  1.00  0.00     0.077 A   
ATOM     29  C19 UNL     1      -1.000  -1.937  -3.363  1.00  0.00     0.033 A   
ATOM     30  C21 UNL     1       1.270  -2.425  -2.684  1.00  0.00     0.066 A   
ATOM     31  C20 UNL     1       0.371  -1.757  -3.507  1.00  0.00     0.074 A   
BRANCH  28  32
ATOM     32  O4  UNL     1       1.659  -3.969  -0.906  1.00  0.00    -0.361 OA  
ATOM     33  H27 UNL     1       2.539  -3.948  -1.326  1.00  0.00     0.218 HD  
ENDBRANCH  28  32
BRANCH  31  34
ATOM     34  O3  UNL     1       0.882  -0.915  -4.448  1.00  0.00    -0.361 OA  
ATOM     35  H25 UNL     1       0.180  -0.675  -5.077  1.00  0.00     0.218 HD  
ENDBRANCH  31  34
ENDBRANCH  25  26
ENDBRANCH  24  25
ENDBRANCH   3  24
TORSDOF 10
