REMARK SMILES CC(C)(C)[C@H]([NH2+]Cc1ccc2c(c1)OCO2)c1cn(Cc2ccc(N)cn2)nn1
REMARK SMILES IDX 17 1 18 2 19 3 28 4 29 5 5 7 2 8 1 9 3 10 4 11 6 12 7 15
REMARK SMILES IDX 8 16 9 17 13 18 10 19 12 20 11 21 14 22 16 23 15 24 20 25
REMARK SMILES IDX 21 26 22 27 27 28 23 29 26 30 24 31 25 32
REMARK H PARENT 18 6 6 13 6 14 25 33 25 34
ROOT
ATOM     1   C14 UNL     1      -1.206  -1.235  -0.316  1.00  0.00     0.127 A   
ATOM     2   C15 UNL     1      -1.716   0.030  -0.134  1.00  0.00     0.046 A   
ATOM     3   N2  UNL     1      -2.306  -0.026   1.099  1.00  0.00    -0.206 N   
ATOM     4   N5  UNL     1      -2.205  -1.263   1.624  1.00  0.00    -0.076 NA  
ATOM     5   N6  UNL     1      -1.530  -2.012   0.767  1.00  0.00    -0.132 NA  
ATOM     6   H20 UNL     1      -1.659   0.948  -0.703  1.00  0.00     0.083 HD  
ENDROOT
BRANCH   1   7
ATOM     7   C5  UNL     1      -0.303  -1.773  -1.381  1.00  0.00     0.120 C   
BRANCH   7   8
ATOM     8   C2  UNL     1      -1.031  -2.641  -2.467  1.00  0.00     0.010 C   
ATOM     9   C1  UNL     1      -0.045  -3.031  -3.592  1.00  0.00     0.017 C   
ATOM     10  C3  UNL     1      -1.644  -3.935  -1.897  1.00  0.00     0.017 C   
ATOM     11  C4  UNL     1      -2.163  -1.818  -3.125  1.00  0.00     0.017 C   
ENDBRANCH   7   8
BRANCH   7  12
ATOM     12  N1  UNL     1       0.820  -2.564  -0.734  1.00  0.00     0.250 N   
ATOM     13  H11 UNL     1       0.373  -3.298  -0.169  1.00  0.00     0.199 HD  
ATOM     14  H12 UNL     1       1.394  -3.023  -1.442  1.00  0.00     0.199 HD  
BRANCH  12  15
ATOM     15  C6  UNL     1       1.723  -1.805   0.191  1.00  0.00     0.164 C   
BRANCH  15  16
ATOM     16  C7  UNL     1       2.432  -0.658  -0.472  1.00  0.00    -0.002 A   
ATOM     17  C8  UNL     1       2.096   0.675  -0.133  1.00  0.00     0.012 A   
ATOM     18  C12 UNL     1       3.411  -0.896  -1.452  1.00  0.00     0.045 A   
ATOM     19  C9  UNL     1       2.717   1.757  -0.765  1.00  0.00     0.037 A   
ATOM     20  C11 UNL     1       4.003   0.194  -2.057  1.00  0.00     0.109 A   
ATOM     21  C10 UNL     1       3.665   1.483  -1.725  1.00  0.00     0.108 A   
ATOM     22  O1  UNL     1       4.956   0.138  -3.023  1.00  0.00    -0.316 OA  
ATOM     23  O2  UNL     1       4.364   2.402  -2.440  1.00  0.00    -0.316 OA  
ATOM     24  C13 UNL     1       5.204   1.546  -3.245  1.00  0.00     0.337 C   
ENDBRANCH  15  16
ENDBRANCH  12  15
ENDBRANCH   7  12
ENDBRANCH   1   7
BRANCH   3  25
ATOM     25  C16 UNL     1      -2.880   1.065   1.861  1.00  0.00     0.190 C   
BRANCH  25  26
ATOM     26  C17 UNL     1      -1.779   1.822   2.555  1.00  0.00     0.060 A   
ATOM     27  C18 UNL     1      -1.442   1.537   3.875  1.00  0.00     0.027 A   
ATOM     28  N4  UNL     1      -1.097   2.734   1.816  1.00  0.00    -0.258 NA  
ATOM     29  C19 UNL     1      -0.391   2.236   4.470  1.00  0.00     0.026 A   
ATOM     30  C21 UNL     1      -0.091   3.403   2.435  1.00  0.00     0.134 A   
ATOM     31  C20 UNL     1       0.278   3.233   3.766  1.00  0.00     0.042 A   
BRANCH  31  32
ATOM     32  N3  UNL     1       1.413   3.846   4.306  1.00  0.00    -0.357 N   
ATOM     33  H25 UNL     1       1.640   4.747   3.895  1.00  0.00     0.143 HD  
ATOM     34  H26 UNL     1       1.417   3.891   5.322  1.00  0.00     0.143 HD  
ENDBRANCH  31  32
ENDBRANCH  25  26
ENDBRANCH   3  25
TORSDOF 8
