REMARK SMILES CC(C)(C)[C@H]([NH2+]Cc1ccc2c(c1)OCO2)c1cn(Cc2cc(F)c(F)c(F)c2)nn1
REMARK SMILES IDX 17 1 18 2 19 3 30 4 31 5 5 7 2 8 1 9 3 10 4 11 6 12 7 15
REMARK SMILES IDX 8 16 9 17 13 18 10 19 12 20 11 21 14 22 16 23 15 24 20 25
REMARK SMILES IDX 21 26 22 27 29 28 23 29 27 30 25 31 24 32 28 33 26 34
REMARK H PARENT 18 6 6 13 6 14
ROOT
ATOM     1   C14 UNL     1      -0.831   1.853   0.732  1.00  0.00     0.127 A   
ATOM     2   C15 UNL     1      -0.122   2.115  -0.422  1.00  0.00     0.046 A   
ATOM     3   N2  UNL     1       0.691   3.160  -0.082  1.00  0.00    -0.208 N   
ATOM     4   N3  UNL     1       0.488   3.528   1.197  1.00  0.00    -0.076 NA  
ATOM     5   N4  UNL     1      -0.451   2.743   1.702  1.00  0.00    -0.132 NA  
ATOM     6   H20 UNL     1      -0.093   1.647  -1.397  1.00  0.00     0.083 HD  
ENDROOT
BRANCH   1   7
ATOM     7   C5  UNL     1      -1.794   0.750   1.053  1.00  0.00     0.120 C   
BRANCH   7   8
ATOM     8   C2  UNL     1      -3.304   1.145   0.858  1.00  0.00     0.010 C   
ATOM     9   C1  UNL     1      -3.546   1.601  -0.600  1.00  0.00     0.017 C   
ATOM     10  C3  UNL     1      -4.219  -0.076   1.106  1.00  0.00     0.017 C   
ATOM     11  C4  UNL     1      -3.755   2.281   1.798  1.00  0.00     0.017 C   
ENDBRANCH   7   8
BRANCH   7  12
ATOM     12  N1  UNL     1      -1.567   0.228   2.462  1.00  0.00     0.250 N   
ATOM     13  H11 UNL     1      -1.768   1.002   3.106  1.00  0.00     0.199 HD  
ATOM     14  H12 UNL     1      -2.226  -0.526   2.668  1.00  0.00     0.199 HD  
BRANCH  12  15
ATOM     15  C6  UNL     1      -0.190  -0.254   2.808  1.00  0.00     0.164 C   
BRANCH  15  16
ATOM     16  C7  UNL     1       0.394  -1.228   1.825  1.00  0.00    -0.002 A   
ATOM     17  C8  UNL     1      -0.145  -2.527   1.676  1.00  0.00     0.012 A   
ATOM     18  C12 UNL     1       1.478  -0.833   1.020  1.00  0.00     0.045 A   
ATOM     19  C9  UNL     1       0.378  -3.416   0.729  1.00  0.00     0.037 A   
ATOM     20  C11 UNL     1       1.965  -1.730   0.094  1.00  0.00     0.109 A   
ATOM     21  C10 UNL     1       1.431  -2.985  -0.049  1.00  0.00     0.108 A   
ATOM     22  O1  UNL     1       2.989  -1.497  -0.767  1.00  0.00    -0.316 OA  
ATOM     23  O2  UNL     1       2.056  -3.705  -1.016  1.00  0.00    -0.316 OA  
ATOM     24  C13 UNL     1       3.078  -2.775  -1.438  1.00  0.00     0.337 C   
ENDBRANCH  15  16
ENDBRANCH  12  15
ENDBRANCH   7  12
ENDBRANCH   1   7
BRANCH   3  25
ATOM     25  C16 UNL     1       1.724   3.792  -0.886  1.00  0.00     0.169 C   
BRANCH  25  26
ATOM     26  C17 UNL     1       2.927   2.887  -1.012  1.00  0.00    -0.023 A   
ATOM     27  C18 UNL     1       3.151   2.149  -2.186  1.00  0.00     0.048 A   
ATOM     28  C22 UNL     1       3.823   2.737   0.060  1.00  0.00     0.048 A   
ATOM     29  C19 UNL     1       4.241   1.280  -2.271  1.00  0.00     0.162 A   
ATOM     30  C21 UNL     1       4.906   1.863  -0.046  1.00  0.00     0.162 A   
ATOM     31  C20 UNL     1       5.118   1.133  -1.207  1.00  0.00     0.194 A   
ATOM     32  F1  UNL     1       4.419   0.572  -3.395  1.00  0.00    -0.204 F   
ATOM     33  F3  UNL     1       5.732   1.723   1.000  1.00  0.00    -0.204 F   
ATOM     34  F2  UNL     1       6.150   0.283  -1.293  1.00  0.00    -0.201 F   
ENDBRANCH  25  26
ENDBRANCH   3  25
TORSDOF 7
