REMARK SMILES CC(C)[C@H]([NH2+]Cc1ccc2c(c1)OCO2)c1cn(Cc2ccc3c(c2)CCN3C)nn1
REMARK SMILES IDX 16 1 17 2 18 3 30 4 31 5 4 7 2 8 1 9 3 10 5 11 6 14 7 15
REMARK SMILES IDX 8 16 12 17 9 18 11 19 10 20 13 21 15 22 14 23 19 24 20 25
REMARK SMILES IDX 21 26 25 27 22 28 24 29 23 30 26 31 28 32 27 33 29 34
REMARK H PARENT 17 6 5 12 5 13
ROOT
ATOM     1   C13 UNL     1       0.853  -2.391   1.275  1.00  0.00     0.127 A   
ATOM     2   C14 UNL     1       0.656  -2.459  -0.086  1.00  0.00     0.046 A   
ATOM     3   N2  UNL     1      -0.462  -3.237  -0.219  1.00  0.00    -0.208 N   
ATOM     4   N4  UNL     1      -0.885  -3.678   0.982  1.00  0.00    -0.076 NA  
ATOM     5   N5  UNL     1      -0.086  -3.167   1.905  1.00  0.00    -0.132 NA  
ATOM     6   H18 UNL     1       1.131  -1.978  -0.930  1.00  0.00     0.083 HD  
ENDROOT
BRANCH   1   7
ATOM     7   C4  UNL     1       1.780  -1.541   2.075  1.00  0.00     0.117 C   
BRANCH   7   8
ATOM     8   C2  UNL     1       3.042  -2.279   2.594  1.00  0.00     0.037 C   
ATOM     9   C1  UNL     1       3.944  -2.721   1.437  1.00  0.00     0.014 C   
ATOM     10  C3  UNL     1       2.754  -3.475   3.508  1.00  0.00     0.014 C   
ENDBRANCH   7   8
BRANCH   7  11
ATOM     11  N1  UNL     1       1.056  -0.929   3.259  1.00  0.00     0.249 N   
ATOM     12  H9  UNL     1       0.677  -1.711   3.809  1.00  0.00     0.199 HD  
ATOM     13  H10 UNL     1       1.723  -0.426   3.851  1.00  0.00     0.199 HD  
BRANCH  11  14
ATOM     14  C5  UNL     1      -0.104  -0.035   2.945  1.00  0.00     0.164 C   
BRANCH  14  15
ATOM     15  C6  UNL     1       0.235   1.120   2.045  1.00  0.00    -0.002 A   
ATOM     16  C7  UNL     1      -0.339   1.200   0.753  1.00  0.00     0.012 A   
ATOM     17  C11 UNL     1       1.127   2.119   2.466  1.00  0.00     0.045 A   
ATOM     18  C8  UNL     1      -0.023   2.250  -0.115  1.00  0.00     0.037 A   
ATOM     19  C10 UNL     1       1.421   3.139   1.584  1.00  0.00     0.109 A   
ATOM     20  C9  UNL     1       0.866   3.203   0.329  1.00  0.00     0.108 A   
ATOM     21  O1  UNL     1       2.270   4.173   1.829  1.00  0.00    -0.316 OA  
ATOM     22  O2  UNL     1       1.296   4.283  -0.373  1.00  0.00    -0.316 OA  
ATOM     23  C12 UNL     1       2.158   4.917   0.594  1.00  0.00     0.337 C   
ENDBRANCH  14  15
ENDBRANCH  11  14
ENDBRANCH   7  11
ENDBRANCH   1   7
BRANCH   3  24
ATOM     24  C15 UNL     1      -1.266  -3.439  -1.415  1.00  0.00     0.169 C   
BRANCH  24  25
ATOM     25  C16 UNL     1      -1.936  -2.139  -1.796  1.00  0.00    -0.028 A   
ATOM     26  C17 UNL     1      -1.407  -1.342  -2.834  1.00  0.00     0.007 A   
ATOM     27  C21 UNL     1      -3.030  -1.668  -1.054  1.00  0.00     0.011 A   
ATOM     28  C18 UNL     1      -1.938  -0.078  -3.114  1.00  0.00     0.024 A   
ATOM     29  C20 UNL     1      -3.544  -0.417  -1.356  1.00  0.00    -0.025 A   
ATOM     30  C19 UNL     1      -3.007   0.385  -2.367  1.00  0.00     0.032 A   
ATOM     31  C22 UNL     1      -4.655   0.317  -0.682  1.00  0.00     0.056 C   
ATOM     32  N3  UNL     1      -3.637   1.640  -2.440  1.00  0.00    -0.333 N   
ATOM     33  C23 UNL     1      -4.901   1.439  -1.705  1.00  0.00     0.110 C   
ATOM     34  C24 UNL     1      -3.715   2.285  -3.743  1.00  0.00     0.130 C   
ENDBRANCH  24  25
ENDBRANCH   3  24
TORSDOF 7
