REMARK SMILES CC(C)[C@H]([NH2+]Cc1ccc2c(c1)OCO2)c1cn(CCc2cnc3ccccc3n2)nn1
REMARK SMILES IDX 16 1 17 2 18 3 31 4 32 5 4 7 2 8 1 9 3 10 5 11 6 14 7 15
REMARK SMILES IDX 8 16 12 17 9 18 11 19 10 20 13 21 15 22 14 23 19 24 20 25
REMARK SMILES IDX 21 26 22 27 30 28 23 29 29 30 24 31 28 32 25 33 27 34 26 35
REMARK H PARENT 17 6 5 12 5 13
ROOT
ATOM     1   C13 UNL     1      -1.588  -1.795   0.507  1.00  0.00     0.127 A   
ATOM     2   C14 UNL     1      -0.823  -2.928   0.337  1.00  0.00     0.045 A   
ATOM     3   N2  UNL     1      -1.248  -3.430  -0.862  1.00  0.00    -0.212 N   
ATOM     4   N5  UNL     1      -2.230  -2.671  -1.384  1.00  0.00    -0.076 NA  
ATOM     5   N6  UNL     1      -2.446  -1.664  -0.554  1.00  0.00    -0.132 NA  
ATOM     6   H18 UNL     1      -0.008  -3.371   0.894  1.00  0.00     0.083 HD  
ENDROOT
BRANCH   1   7
ATOM     7   C4  UNL     1      -1.518  -0.707   1.531  1.00  0.00     0.117 C   
BRANCH   7   8
ATOM     8   C2  UNL     1      -2.776  -0.651   2.443  1.00  0.00     0.037 C   
ATOM     9   C1  UNL     1      -3.036  -2.002   3.132  1.00  0.00     0.014 C   
ATOM     10  C3  UNL     1      -2.658   0.424   3.534  1.00  0.00     0.014 C   
ENDBRANCH   7   8
BRANCH   7  11
ATOM     11  N1  UNL     1      -1.382   0.612   0.792  1.00  0.00     0.249 N   
ATOM     12  H9  UNL     1      -1.594   1.407   1.398  1.00  0.00     0.199 HD  
ATOM     13  H10 UNL     1      -2.099   0.597   0.052  1.00  0.00     0.199 HD  
BRANCH  11  14
ATOM     14  C5  UNL     1      -0.060   0.860   0.136  1.00  0.00     0.164 C   
BRANCH  14  15
ATOM     15  C6  UNL     1       0.995   1.259   1.129  1.00  0.00    -0.002 A   
ATOM     16  C7  UNL     1       1.004   2.572   1.667  1.00  0.00     0.012 A   
ATOM     17  C11 UNL     1       1.952   0.325   1.565  1.00  0.00     0.045 A   
ATOM     18  C8  UNL     1       1.950   2.948   2.626  1.00  0.00     0.037 A   
ATOM     19  C10 UNL     1       2.875   0.730   2.506  1.00  0.00     0.109 A   
ATOM     20  C9  UNL     1       2.872   2.002   3.024  1.00  0.00     0.108 A   
ATOM     21  O1  UNL     1       3.865  -0.045   3.028  1.00  0.00    -0.316 OA  
ATOM     22  O2  UNL     1       3.859   2.192   3.938  1.00  0.00    -0.316 OA  
ATOM     23  C12 UNL     1       4.503   0.897   3.921  1.00  0.00     0.337 C   
ENDBRANCH  14  15
ENDBRANCH  11  14
ENDBRANCH   7  11
ENDBRANCH   1   7
BRANCH   3  24
ATOM     24  C15 UNL     1      -0.640  -4.485  -1.649  1.00  0.00     0.140 C   
BRANCH  24  25
ATOM     25  C16 UNL     1       0.020  -3.950  -2.922  1.00  0.00     0.079 C   
BRANCH  25  26
ATOM     26  C17 UNL     1       1.023  -2.872  -2.615  1.00  0.00     0.061 A   
ATOM     27  C18 UNL     1       0.833  -1.563  -3.044  1.00  0.00     0.135 A   
ATOM     28  N4  UNL     1       2.088  -3.208  -1.849  1.00  0.00    -0.250 NA  
ATOM     29  N3  UNL     1       1.681  -0.558  -2.723  1.00  0.00    -0.253 NA  
ATOM     30  C24 UNL     1       2.979  -2.234  -1.571  1.00  0.00     0.089 A   
ATOM     31  C19 UNL     1       2.779  -0.903  -2.018  1.00  0.00     0.089 A   
ATOM     32  C23 UNL     1       4.107  -2.532  -0.813  1.00  0.00     0.030 A   
ATOM     33  C20 UNL     1       3.724   0.067  -1.703  1.00  0.00     0.030 A   
ATOM     34  C22 UNL     1       5.044  -1.548  -0.492  1.00  0.00     0.002 A   
ATOM     35  C21 UNL     1       4.857  -0.244  -0.947  1.00  0.00     0.002 A   
ENDBRANCH  25  26
ENDBRANCH  24  25
ENDBRANCH   3  24
TORSDOF 8
