REMARK SMILES CC(C)C[C@H]([NH2+]Cc1ccc2c(c1)OCO2)c1cn(Cc2cc(N([O-])[O-])ccc2F)nn1
REMARK SMILES IDX 17 1 18 2 19 3 31 4 32 5 5 7 4 8 2 9 1 10 3 11 6 12 7 15
REMARK SMILES IDX 8 16 9 17 13 18 10 19 12 20 11 21 14 22 16 23 15 24 20 25
REMARK SMILES IDX 21 26 22 27 29 28 23 29 28 30 27 31 30 32 24 33 25 34 26 35
REMARK H PARENT 18 6 6 13 6 14
ROOT
ATOM     1   C14 UNL     1      -1.457  -0.041   1.421  1.00  0.00     0.127 A   
ATOM     2   C15 UNL     1      -2.260  -0.630   0.469  1.00  0.00     0.046 A   
ATOM     3   N2  UNL     1      -3.329   0.219   0.369  1.00  0.00    -0.208 N   
ATOM     4   N4  UNL     1      -3.205   1.249   1.229  1.00  0.00    -0.076 NA  
ATOM     5   N5  UNL     1      -2.066   1.098   1.881  1.00  0.00    -0.132 NA  
ATOM     6   H20 UNL     1      -2.157  -1.509  -0.154  1.00  0.00     0.083 HD  
ENDROOT
BRANCH   1   7
ATOM     7   C5  UNL     1      -0.095  -0.399   1.922  1.00  0.00     0.114 C   
BRANCH   7   8
ATOM     8   C4  UNL     1      -0.189  -1.141   3.271  1.00  0.00     0.064 C   
BRANCH   8   9
ATOM     9   C2  UNL     1       1.141  -1.638   3.876  1.00  0.00    -0.012 C   
ATOM     10  C1  UNL     1       1.907  -2.564   2.931  1.00  0.00     0.007 C   
ATOM     11  C3  UNL     1       0.864  -2.364   5.197  1.00  0.00     0.007 C   
ENDBRANCH   8   9
ENDBRANCH   7   8
BRANCH   7  12
ATOM     12  N1  UNL     1       0.739   0.849   2.102  1.00  0.00     0.249 N   
ATOM     13  H11 UNL     1       0.190   1.484   2.697  1.00  0.00     0.199 HD  
ATOM     14  H12 UNL     1       1.605   0.635   2.603  1.00  0.00     0.199 HD  
BRANCH  12  15
ATOM     15  C6  UNL     1       1.090   1.601   0.855  1.00  0.00     0.164 C   
BRANCH  15  16
ATOM     16  C7  UNL     1       1.967   0.809  -0.075  1.00  0.00    -0.002 A   
ATOM     17  C8  UNL     1       1.454   0.340  -1.308  1.00  0.00     0.012 A   
ATOM     18  C12 UNL     1       3.291   0.504   0.285  1.00  0.00     0.045 A   
ATOM     19  C9  UNL     1       2.242  -0.434  -2.167  1.00  0.00     0.037 A   
ATOM     20  C11 UNL     1       4.040  -0.263  -0.584  1.00  0.00     0.109 A   
ATOM     21  C10 UNL     1       3.530  -0.720  -1.774  1.00  0.00     0.108 A   
ATOM     22  O1  UNL     1       5.325  -0.655  -0.384  1.00  0.00    -0.316 OA  
ATOM     23  O2  UNL     1       4.431  -1.456  -2.475  1.00  0.00    -0.316 OA  
ATOM     24  C13 UNL     1       5.583  -1.382  -1.608  1.00  0.00     0.337 C   
ENDBRANCH  15  16
ENDBRANCH  12  15
ENDBRANCH   7  12
ENDBRANCH   1   7
BRANCH   3  25
ATOM     25  C16 UNL     1      -4.401   0.207  -0.619  1.00  0.00     0.172 C   
BRANCH  25  26
ATOM     26  C17 UNL     1      -3.902   0.616  -1.986  1.00  0.00     0.009 A   
ATOM     27  C18 UNL     1      -2.966   1.648  -2.168  1.00  0.00     0.039 A   
ATOM     28  C22 UNL     1      -4.409  -0.022  -3.124  1.00  0.00     0.128 A   
ATOM     29  C19 UNL     1      -2.510   1.968  -3.456  1.00  0.00     0.118 A   
ATOM     30  C21 UNL     1      -3.982   0.320  -4.409  1.00  0.00     0.042 A   
ATOM     31  C20 UNL     1      -3.019   1.315  -4.583  1.00  0.00     0.034 A   
ATOM     32  F1  UNL     1      -5.316  -0.998  -2.984  1.00  0.00    -0.207 F   
BRANCH  29  33
ATOM     33  N3  UNL     1      -1.442   2.960  -3.602  1.00  0.00     0.092 N   
ATOM     34  O3  UNL     1      -0.693   3.123  -2.625  1.00  0.00    -0.138 OA  
ATOM     35  O4  UNL     1      -1.340   3.542  -4.688  1.00  0.00    -0.138 OA  
ENDBRANCH  29  33
ENDBRANCH  25  26
ENDBRANCH   3  25
TORSDOF 9
