REMARK SMILES CC(C)(C)[C@H]([NH2+]Cc1ccc2c(c1)OCO2)c1cn(C[C@@H](O)c2ccco2)nn1
REMARK SMILES IDX 17 1 18 2 19 3 28 4 29 5 5 7 2 8 1 9 3 10 4 11 6 12 7 15
REMARK SMILES IDX 8 16 9 17 13 18 10 19 12 20 11 21 14 22 16 23 15 24 20 25
REMARK SMILES IDX 21 26 22 27 23 29 24 30 27 31 25 32 26 33
REMARK H PARENT 18 6 6 13 6 14 22 28
ROOT
ATOM     1   C14 UNL     1      -0.204  -0.106  -0.758  1.00  0.00     0.127 A   
ATOM     2   C15 UNL     1      -1.194  -0.961  -0.329  1.00  0.00     0.046 A   
ATOM     3   N2  UNL     1      -1.439  -1.753  -1.415  1.00  0.00    -0.209 N   
ATOM     4   N3  UNL     1      -0.596  -1.462  -2.422  1.00  0.00    -0.076 NA  
ATOM     5   N4  UNL     1       0.155  -0.443  -2.039  1.00  0.00    -0.132 NA  
ATOM     6   H20 UNL     1      -1.748  -1.056   0.596  1.00  0.00     0.083 HD  
ENDROOT
BRANCH   1   7
ATOM     7   C5  UNL     1       0.525   1.001  -0.059  1.00  0.00     0.120 C   
BRANCH   7   8
ATOM     8   C2  UNL     1      -0.129   2.417  -0.239  1.00  0.00     0.010 C   
ATOM     9   C1  UNL     1      -1.601   2.389   0.234  1.00  0.00     0.017 C   
ATOM     10  C3  UNL     1      -0.101   2.906  -1.700  1.00  0.00     0.017 C   
ATOM     11  C4  UNL     1       0.602   3.461   0.638  1.00  0.00     0.017 C   
ENDBRANCH   7   8
BRANCH   7  12
ATOM     12  N1  UNL     1       1.961   1.022  -0.552  1.00  0.00     0.250 N   
ATOM     13  H11 UNL     1       1.904   0.948  -1.579  1.00  0.00     0.199 HD  
ATOM     14  H12 UNL     1       2.419   1.909  -0.339  1.00  0.00     0.199 HD  
BRANCH  12  15
ATOM     15  C6  UNL     1       2.836  -0.094  -0.084  1.00  0.00     0.164 C   
BRANCH  15  16
ATOM     16  C7  UNL     1       3.165   0.005   1.379  1.00  0.00    -0.002 A   
ATOM     17  C8  UNL     1       4.075   0.984   1.846  1.00  0.00     0.012 A   
ATOM     18  C12 UNL     1       2.543  -0.855   2.301  1.00  0.00     0.045 A   
ATOM     19  C9  UNL     1       4.358   1.110   3.210  1.00  0.00     0.037 A   
ATOM     20  C11 UNL     1       2.842  -0.702   3.639  1.00  0.00     0.109 A   
ATOM     21  C10 UNL     1       3.723   0.253   4.081  1.00  0.00     0.108 A   
ATOM     22  O1  UNL     1       2.322  -1.441   4.654  1.00  0.00    -0.316 OA  
ATOM     23  O2  UNL     1       3.872   0.234   5.431  1.00  0.00    -0.316 OA  
ATOM     24  C13 UNL     1       3.006  -0.863   5.790  1.00  0.00     0.337 C   
ENDBRANCH  15  16
ENDBRANCH  12  15
ENDBRANCH   7  12
ENDBRANCH   1   7
BRANCH   3  25
ATOM     25  C16 UNL     1      -2.411  -2.813  -1.553  1.00  0.00     0.172 C   
BRANCH  25  26
ATOM     26  C17 UNL     1      -3.648  -2.377  -2.332  1.00  0.00     0.187 C   
BRANCH  26  27
ATOM     27  O3  UNL     1      -4.437  -3.534  -2.623  1.00  0.00    -0.385 OA  
ATOM     28  H24 UNL     1      -5.183  -3.235  -3.176  1.00  0.00     0.211 HD  
ENDBRANCH  26  27
BRANCH  26  29
ATOM     29  C18 UNL     1      -4.508  -1.450  -1.542  1.00  0.00     0.089 A   
ATOM     30  C19 UNL     1      -5.526  -1.634  -0.627  1.00  0.00     0.034 A   
ATOM     31  O4  UNL     1      -4.278  -0.115  -1.715  1.00  0.00    -0.320 OA  
ATOM     32  C20 UNL     1      -5.951  -0.343  -0.235  1.00  0.00     0.028 A   
ATOM     33  C21 UNL     1      -5.166   0.547  -0.929  1.00  0.00     0.136 A   
ENDBRANCH  26  29
ENDBRANCH  25  26
ENDBRANCH   3  25
TORSDOF 9
