REMARK SMILES CC(C)(C)[C@H]([NH2+]Cc1ccc2c(c1)OCO2)c1cn(C[C@H](O)c2ccco2)nn1
REMARK SMILES IDX 17 1 18 2 19 3 28 4 29 5 5 7 2 8 1 9 3 10 4 11 6 12 7 15
REMARK SMILES IDX 8 16 9 17 13 18 10 19 12 20 11 21 14 22 16 23 15 24 20 25
REMARK SMILES IDX 21 26 22 27 23 29 24 30 27 31 25 32 26 33
REMARK H PARENT 18 6 6 13 6 14 22 28
ROOT
ATOM     1   C14 UNL     1      -0.277   1.337  -2.179  1.00  0.00     0.127 A   
ATOM     2   C15 UNL     1      -1.430   0.585  -2.157  1.00  0.00     0.046 A   
ATOM     3   N2  UNL     1      -1.111  -0.533  -2.875  1.00  0.00    -0.209 N   
ATOM     4   N3  UNL     1       0.151  -0.458  -3.345  1.00  0.00    -0.076 NA  
ATOM     5   N4  UNL     1       0.673   0.681  -2.921  1.00  0.00    -0.132 NA  
ATOM     6   H20 UNL     1      -2.398   0.718  -1.694  1.00  0.00     0.083 HD  
ENDROOT
BRANCH   1   7
ATOM     7   C5  UNL     1       0.075   2.610  -1.477  1.00  0.00     0.120 C   
BRANCH   7   8
ATOM     8   C2  UNL     1      -0.166   3.902  -2.333  1.00  0.00     0.010 C   
ATOM     9   C1  UNL     1       0.153   5.165  -1.505  1.00  0.00     0.017 C   
ATOM     10  C3  UNL     1      -1.655   3.996  -2.738  1.00  0.00     0.017 C   
ATOM     11  C4  UNL     1       0.687   3.941  -3.614  1.00  0.00     0.017 C   
ENDBRANCH   7   8
BRANCH   7  12
ATOM     12  N1  UNL     1       1.520   2.540  -1.020  1.00  0.00     0.250 N   
ATOM     13  H11 UNL     1       1.836   3.442  -0.663  1.00  0.00     0.199 HD  
ATOM     14  H12 UNL     1       2.077   2.320  -1.857  1.00  0.00     0.199 HD  
BRANCH  12  15
ATOM     15  C6  UNL     1       1.842   1.489  -0.006  1.00  0.00     0.164 C   
BRANCH  15  16
ATOM     16  C7  UNL     1       1.162   1.712   1.316  1.00  0.00    -0.002 A   
ATOM     17  C8  UNL     1       0.035   0.935   1.676  1.00  0.00     0.012 A   
ATOM     18  C12 UNL     1       1.619   2.711   2.192  1.00  0.00     0.045 A   
ATOM     19  C9  UNL     1      -0.626   1.142   2.890  1.00  0.00     0.037 A   
ATOM     20  C11 UNL     1       0.945   2.890   3.383  1.00  0.00     0.109 A   
ATOM     21  C10 UNL     1      -0.145   2.128   3.723  1.00  0.00     0.108 A   
ATOM     22  O1  UNL     1       1.256   3.804   4.340  1.00  0.00    -0.316 OA  
ATOM     23  O2  UNL     1      -0.656   2.465   4.936  1.00  0.00    -0.316 OA  
ATOM     24  C13 UNL     1       0.258   3.505   5.341  1.00  0.00     0.337 C   
ENDBRANCH  15  16
ENDBRANCH  12  15
ENDBRANCH   7  12
ENDBRANCH   1   7
BRANCH   3  25
ATOM     25  C16 UNL     1      -1.959  -1.649  -3.236  1.00  0.00     0.172 C   
BRANCH  25  26
ATOM     26  C17 UNL     1      -2.517  -2.453  -2.063  1.00  0.00     0.187 C   
BRANCH  26  27
ATOM     27  O3  UNL     1      -3.393  -1.657  -1.257  1.00  0.00    -0.385 OA  
ATOM     28  H24 UNL     1      -3.674  -2.219  -0.512  1.00  0.00     0.211 HD  
ENDBRANCH  26  27
BRANCH  26  29
ATOM     29  C18 UNL     1      -1.481  -3.054  -1.175  1.00  0.00     0.089 A   
ATOM     30  C19 UNL     1      -1.061  -4.356  -0.982  1.00  0.00     0.034 A   
ATOM     31  O4  UNL     1      -0.807  -2.215  -0.328  1.00  0.00    -0.320 OA  
ATOM     32  C20 UNL     1      -0.076  -4.312   0.033  1.00  0.00     0.028 A   
ATOM     33  C21 UNL     1       0.043  -2.989   0.396  1.00  0.00     0.136 A   
ENDBRANCH  26  29
ENDBRANCH  25  26
ENDBRANCH   3  25
TORSDOF 9
