REMARK SMILES Clc1cnccc1CCn1cc([C@@H]([NH2+]Cc2ccc3c(c2)OCO3)C2CCCCC2)nn1
REMARK SMILES IDX 10 1 11 2 12 3 31 4 32 5 9 7 8 8 7 9 2 10 3 11 4 12 6 13
REMARK SMILES IDX 5 14 1 15 13 16 14 17 15 20 16 21 17 22 21 23 18 24 20 25
REMARK SMILES IDX 19 26 22 27 24 28 23 29 25 30 26 31 30 32 27 33 29 34 28 35
REMARK H PARENT 11 6 14 18 14 19
ROOT
ATOM     1   N2  UNL     1       3.123   1.944   0.770  1.00  0.00    -0.212 N   
ATOM     2   C8  UNL     1       1.987   1.802   0.025  1.00  0.00     0.045 A   
ATOM     3   C9  UNL     1       1.026   1.450   0.949  1.00  0.00     0.127 A   
ATOM     4   N4  UNL     1       1.593   1.438   2.200  1.00  0.00    -0.132 NA  
ATOM     5   N5  UNL     1       2.874   1.734   2.076  1.00  0.00    -0.076 NA  
ATOM     6   H8  UNL     1       1.977   1.933  -1.050  1.00  0.00     0.083 HD  
ENDROOT
BRANCH   1   7
ATOM     7   C7  UNL     1       4.464   2.280   0.328  1.00  0.00     0.139 C   
BRANCH   7   8
ATOM     8   C6  UNL     1       5.328   1.045   0.037  1.00  0.00     0.058 C   
BRANCH   8   9
ATOM     9   C5  UNL     1       4.940   0.333  -1.245  1.00  0.00    -0.025 A   
ATOM     10  C1  UNL     1       4.114  -0.800  -1.286  1.00  0.00     0.062 A   
ATOM     11  C2  UNL     1       3.797  -1.347  -2.530  1.00  0.00     0.131 A   
ATOM     12  N1  UNL     1       4.232  -0.852  -3.713  1.00  0.00    -0.263 NA  
ATOM     13  C4  UNL     1       5.415   0.847  -2.468  1.00  0.00     0.025 A   
ATOM     14  C3  UNL     1       5.046   0.225  -3.656  1.00  0.00     0.111 A   
ATOM     15  CL1 UNL     1       3.431  -1.522   0.121  1.00  0.00    -0.082 Cl  
ENDBRANCH   8   9
ENDBRANCH   7   8
ENDBRANCH   1   7
BRANCH   3  16
ATOM     16  C10 UNL     1      -0.419   1.082   0.806  1.00  0.00     0.117 C   
BRANCH  16  17
ATOM     17  N3  UNL     1      -0.963   0.672   2.153  1.00  0.00     0.249 N   
ATOM     18  H10 UNL     1      -0.422   1.212   2.847  1.00  0.00     0.199 HD  
ATOM     19  H11 UNL     1      -1.944   0.939   2.273  1.00  0.00     0.199 HD  
BRANCH  17  20
ATOM     20  C11 UNL     1      -0.796  -0.772   2.498  1.00  0.00     0.164 C   
BRANCH  20  21
ATOM     21  C12 UNL     1      -1.990  -1.587   2.066  1.00  0.00    -0.002 A   
ATOM     22  C13 UNL     1      -1.957  -2.345   0.870  1.00  0.00     0.012 A   
ATOM     23  C17 UNL     1      -3.162  -1.573   2.847  1.00  0.00     0.045 A   
ATOM     24  C14 UNL     1      -3.070  -3.091   0.461  1.00  0.00     0.037 A   
ATOM     25  C16 UNL     1      -4.240  -2.323   2.418  1.00  0.00     0.109 A   
ATOM     26  C15 UNL     1      -4.196  -3.061   1.259  1.00  0.00     0.108 A   
ATOM     27  O1  UNL     1      -5.437  -2.426   3.058  1.00  0.00    -0.316 OA  
ATOM     28  O2  UNL     1      -5.359  -3.728   1.024  1.00  0.00    -0.316 OA  
ATOM     29  C18 UNL     1      -6.120  -3.376   2.203  1.00  0.00     0.337 C   
ENDBRANCH  20  21
ENDBRANCH  17  20
ENDBRANCH  16  17
BRANCH  16  30
ATOM     30  C19 UNL     1      -1.278   2.217   0.194  1.00  0.00     0.043 C   
ATOM     31  C20 UNL     1      -2.678   1.711  -0.203  1.00  0.00     0.010 C   
ATOM     32  C24 UNL     1      -1.382   3.474   1.082  1.00  0.00     0.010 C   
ATOM     33  C21 UNL     1      -3.512   2.812  -0.857  1.00  0.00     0.001 C   
ATOM     34  C23 UNL     1      -2.235   4.561   0.427  1.00  0.00     0.001 C   
ATOM     35  C22 UNL     1      -3.616   4.036   0.044  1.00  0.00     0.000 C   
ENDBRANCH  16  30
ENDBRANCH   3  16
TORSDOF 8
