REMARK SMILES CCn1cnc(Cl)c1CCn1cc([C@@H]([NH2+]Cc2ccc3c(c2)OCO3)C(C)C)nn1
REMARK SMILES IDX 11 1 12 2 13 3 29 4 30 5 10 7 9 8 8 9 3 10 4 11 5 12 6 13
REMARK SMILES IDX 7 14 2 15 1 16 14 17 15 18 16 21 17 22 18 23 22 24 19 25
REMARK SMILES IDX 21 26 20 27 23 28 25 29 24 30 26 31 27 32 28 33
REMARK H PARENT 12 6 15 19 15 20
ROOT
ATOM     1   N3  UNL     1      -2.004   1.492   1.736  1.00  0.00    -0.212 N   
ATOM     2   C8  UNL     1      -1.142   1.594   0.680  1.00  0.00     0.045 A   
ATOM     3   C9  UNL     1      -1.542   0.589  -0.172  1.00  0.00     0.127 A   
ATOM     4   N5  UNL     1      -2.616  -0.063   0.376  1.00  0.00    -0.132 NA  
ATOM     5   N6  UNL     1      -2.899   0.510   1.535  1.00  0.00    -0.076 NA  
ATOM     6   H11 UNL     1      -0.338   2.315   0.652  1.00  0.00     0.083 HD  
ENDROOT
BRANCH   1   7
ATOM     7   C7  UNL     1      -1.988   2.237   2.977  1.00  0.00     0.140 C   
BRANCH   7   8
ATOM     8   C6  UNL     1      -1.394   1.452   4.152  1.00  0.00     0.076 C   
BRANCH   8   9
ATOM     9   C5  UNL     1      -0.002   0.963   3.887  1.00  0.00     0.050 A   
ATOM     10  N1  UNL     1       1.153   1.704   4.006  1.00  0.00    -0.293 N   
ATOM     11  C3  UNL     1       2.193   0.912   3.597  1.00  0.00     0.190 A   
ATOM     12  N2  UNL     1       1.782  -0.279   3.230  1.00  0.00    -0.227 NA  
ATOM     13  C4  UNL     1       0.434  -0.286   3.476  1.00  0.00     0.147 A   
ATOM     14  CL1 UNL     1      -0.516  -1.676   3.218  1.00  0.00    -0.061 Cl  
BRANCH  10  15
ATOM     15  C2  UNL     1       1.317   3.058   4.502  1.00  0.00     0.108 C   
ATOM     16  C1  UNL     1       1.593   4.058   3.392  1.00  0.00     0.025 C   
ENDBRANCH  10  15
ENDBRANCH   8   9
ENDBRANCH   7   8
ENDBRANCH   1   7
BRANCH   3  17
ATOM     17  C10 UNL     1      -0.960   0.099  -1.460  1.00  0.00     0.117 C   
BRANCH  17  18
ATOM     18  N4  UNL     1      -1.005  -1.413  -1.500  1.00  0.00     0.249 N   
ATOM     19  H13 UNL     1      -1.935  -1.681  -1.143  1.00  0.00     0.199 HD  
ATOM     20  H14 UNL     1      -0.940  -1.751  -2.463  1.00  0.00     0.199 HD  
BRANCH  18  21
ATOM     21  C11 UNL     1       0.007  -2.120  -0.659  1.00  0.00     0.164 C   
BRANCH  21  22
ATOM     22  C12 UNL     1       1.411  -1.964  -1.176  1.00  0.00    -0.002 A   
ATOM     23  C13 UNL     1       2.367  -1.232  -0.430  1.00  0.00     0.012 A   
ATOM     24  C17 UNL     1       1.783  -2.531  -2.409  1.00  0.00     0.045 A   
ATOM     25  C14 UNL     1       3.672  -1.057  -0.905  1.00  0.00     0.037 A   
ATOM     26  C16 UNL     1       3.078  -2.343  -2.847  1.00  0.00     0.109 A   
ATOM     27  C15 UNL     1       3.996  -1.628  -2.117  1.00  0.00     0.108 A   
ATOM     28  O1  UNL     1       3.597  -2.825  -4.008  1.00  0.00    -0.316 OA  
ATOM     29  O2  UNL     1       5.209  -1.567  -2.727  1.00  0.00    -0.316 OA  
ATOM     30  C18 UNL     1       4.960  -2.349  -3.917  1.00  0.00     0.337 C   
ENDBRANCH  21  22
ENDBRANCH  18  21
ENDBRANCH  17  18
BRANCH  17  31
ATOM     31  C19 UNL     1      -1.671   0.645  -2.726  1.00  0.00     0.037 C   
ATOM     32  C20 UNL     1      -1.505   2.163  -2.857  1.00  0.00     0.014 C   
ATOM     33  C21 UNL     1      -3.155   0.278  -2.828  1.00  0.00     0.014 C   
ENDBRANCH  17  31
ENDBRANCH   3  17
TORSDOF 9
