REMARK SMILES O[C@@H](Cn1cc([C@@H]([NH2+]Cc2ccc3c(c2)OCO3)C2CCCC2)nn1)c1ccccc1
REMARK SMILES IDX 4 1 5 2 6 3 24 4 25 5 3 7 2 8 1 9 26 11 27 12 31 13 28 14
REMARK SMILES IDX 30 15 29 16 7 17 8 18 9 21 10 22 11 23 15 24 12 25 14 26
REMARK SMILES IDX 13 27 16 28 18 29 17 30 19 31 20 32 23 33 21 34 22 35
REMARK H PARENT 5 6 1 10 8 19 8 20
ROOT
ATOM     1   N1  UNL     1       1.672  -1.976   1.978  1.00  0.00    -0.209 N   
ATOM     2   C3  UNL     1       2.275  -0.920   1.356  1.00  0.00     0.045 A   
ATOM     3   C4  UNL     1       1.324   0.075   1.390  1.00  0.00     0.127 A   
ATOM     4   N3  UNL     1       0.193  -0.408   1.998  1.00  0.00    -0.132 NA  
ATOM     5   N4  UNL     1       0.420  -1.661   2.357  1.00  0.00    -0.076 NA  
ATOM     6   H5  UNL     1       3.278  -0.980   0.956  1.00  0.00     0.083 HD  
ENDROOT
BRANCH   1   7
ATOM     7   C2  UNL     1       2.205  -3.299   2.210  1.00  0.00     0.170 C   
BRANCH   7   8
ATOM     8   C1  UNL     1       1.550  -4.372   1.336  1.00  0.00     0.164 C   
BRANCH   8   9
ATOM     9   O1  UNL     1       2.136  -5.638   1.651  1.00  0.00    -0.387 OA  
ATOM     10  H1  UNL     1       1.884  -6.260   0.944  1.00  0.00     0.211 HD  
ENDBRANCH   8   9
BRANCH   8  11
ATOM     11  C19 UNL     1       1.707  -4.110  -0.150  1.00  0.00    -0.018 A   
ATOM     12  C20 UNL     1       0.594  -3.735  -0.919  1.00  0.00     0.006 A   
ATOM     13  C24 UNL     1       2.958  -4.219  -0.777  1.00  0.00     0.006 A   
ATOM     14  C21 UNL     1       0.730  -3.479  -2.284  1.00  0.00     0.000 A   
ATOM     15  C23 UNL     1       3.091  -3.960  -2.142  1.00  0.00     0.000 A   
ATOM     16  C22 UNL     1       1.978  -3.590  -2.894  1.00  0.00     0.000 A   
ENDBRANCH   8  11
ENDBRANCH   7   8
ENDBRANCH   1   7
BRANCH   3  17
ATOM     17  C5  UNL     1       1.327   1.463   0.831  1.00  0.00     0.117 C   
BRANCH  17  18
ATOM     18  N2  UNL     1      -0.082   1.796   0.409  1.00  0.00     0.249 N   
ATOM     19  H7  UNL     1      -0.675   1.842   1.250  1.00  0.00     0.199 HD  
ATOM     20  H8  UNL     1      -0.451   0.969  -0.081  1.00  0.00     0.199 HD  
BRANCH  18  21
ATOM     21  C6  UNL     1      -0.288   2.984  -0.450  1.00  0.00     0.164 C   
BRANCH  21  22
ATOM     22  C7  UNL     1      -1.711   3.050  -0.927  1.00  0.00    -0.002 A   
ATOM     23  C8  UNL     1      -2.687   3.745  -0.173  1.00  0.00     0.012 A   
ATOM     24  C12 UNL     1      -2.094   2.374  -2.098  1.00  0.00     0.045 A   
ATOM     25  C9  UNL     1      -4.024   3.777  -0.584  1.00  0.00     0.037 A   
ATOM     26  C11 UNL     1      -3.420   2.425  -2.474  1.00  0.00     0.109 A   
ATOM     27  C10 UNL     1      -4.358   3.106  -1.739  1.00  0.00     0.108 A   
ATOM     28  O2  UNL     1      -3.953   1.827  -3.573  1.00  0.00    -0.316 OA  
ATOM     29  O3  UNL     1      -5.600   3.026  -2.283  1.00  0.00    -0.316 OA  
ATOM     30  C13 UNL     1      -5.337   2.230  -3.458  1.00  0.00     0.337 C   
ENDBRANCH  21  22
ENDBRANCH  18  21
ENDBRANCH  17  18
BRANCH  17  31
ATOM     31  C14 UNL     1       1.859   2.543   1.789  1.00  0.00     0.043 C   
ATOM     32  C15 UNL     1       3.286   2.317   2.295  1.00  0.00     0.010 C   
ATOM     33  C18 UNL     1       1.074   2.752   3.090  1.00  0.00     0.010 C   
ATOM     34  C16 UNL     1       3.427   3.367   3.388  1.00  0.00     0.001 C   
ATOM     35  C17 UNL     1       2.049   3.450   4.041  1.00  0.00     0.001 C   
ENDBRANCH  17  31
ENDBRANCH   3  17
TORSDOF 9
