REMARK SMILES O[C@H](Cn1cc([C@@H]([NH2+]Cc2ccc3c(c2)OCO3)C2CCCC2)nn1)c1ccccc1
REMARK SMILES IDX 4 1 5 2 6 3 24 4 25 5 3 7 2 8 1 9 26 11 27 12 31 13 28 14
REMARK SMILES IDX 30 15 29 16 7 17 8 18 9 21 10 22 11 23 15 24 12 25 14 26
REMARK SMILES IDX 13 27 16 28 18 29 17 30 19 31 20 32 23 33 21 34 22 35
REMARK H PARENT 5 6 1 10 8 19 8 20
ROOT
ATOM     1   N1  UNL     1       0.199  -0.245   2.881  1.00  0.00    -0.209 N   
ATOM     2   C3  UNL     1      -0.293  -0.815   1.742  1.00  0.00     0.045 A   
ATOM     3   C4  UNL     1      -0.248   0.203   0.816  1.00  0.00     0.127 A   
ATOM     4   N3  UNL     1       0.177   1.352   1.429  1.00  0.00    -0.132 NA  
ATOM     5   N4  UNL     1       0.421   1.072   2.696  1.00  0.00    -0.076 NA  
ATOM     6   H5  UNL     1      -0.569  -1.860   1.693  1.00  0.00     0.083 HD  
ENDROOT
BRANCH   1   7
ATOM     7   C2  UNL     1       0.414  -0.852   4.178  1.00  0.00     0.170 C   
BRANCH   7   8
ATOM     8   C1  UNL     1       1.445  -1.989   4.185  1.00  0.00     0.164 C   
BRANCH   8   9
ATOM     9   O1  UNL     1       0.914  -3.143   3.524  1.00  0.00    -0.387 OA  
ATOM     10  H1  UNL     1       1.619  -3.818   3.543  1.00  0.00     0.211 HD  
ENDBRANCH   8   9
BRANCH   8  11
ATOM     11  C19 UNL     1       2.800  -1.607   3.624  1.00  0.00    -0.018 A   
ATOM     12  C20 UNL     1       3.724  -0.931   4.438  1.00  0.00     0.006 A   
ATOM     13  C24 UNL     1       3.157  -1.886   2.294  1.00  0.00     0.006 A   
ATOM     14  C21 UNL     1       4.970  -0.552   3.936  1.00  0.00     0.000 A   
ATOM     15  C23 UNL     1       4.403  -1.504   1.795  1.00  0.00     0.000 A   
ATOM     16  C22 UNL     1       5.309  -0.838   2.616  1.00  0.00     0.000 A   
ENDBRANCH   8  11
ENDBRANCH   7   8
ENDBRANCH   1   7
BRANCH   3  17
ATOM     17  C5  UNL     1      -0.582   0.229  -0.639  1.00  0.00     0.117 C   
BRANCH  17  18
ATOM     18  N2  UNL     1      -1.006   1.622  -1.042  1.00  0.00     0.249 N   
ATOM     19  H7  UNL     1      -0.872   1.780  -2.043  1.00  0.00     0.199 HD  
ATOM     20  H8  UNL     1      -0.365   2.263  -0.550  1.00  0.00     0.199 HD  
BRANCH  18  21
ATOM     21  C6  UNL     1      -2.392   2.019  -0.659  1.00  0.00     0.164 C   
BRANCH  21  22
ATOM     22  C7  UNL     1      -3.451   1.262  -1.413  1.00  0.00    -0.002 A   
ATOM     23  C8  UNL     1      -4.329   0.392  -0.722  1.00  0.00     0.012 A   
ATOM     24  C12 UNL     1      -3.572   1.399  -2.806  1.00  0.00     0.045 A   
ATOM     25  C9  UNL     1      -5.305  -0.338  -1.408  1.00  0.00     0.037 A   
ATOM     26  C11 UNL     1      -4.543   0.661  -3.452  1.00  0.00     0.109 A   
ATOM     27  C10 UNL     1      -5.386  -0.183  -2.773  1.00  0.00     0.108 A   
ATOM     28  O2  UNL     1      -4.783   0.672  -4.789  1.00  0.00    -0.316 OA  
ATOM     29  O3  UNL     1      -6.267  -0.806  -3.596  1.00  0.00    -0.316 OA  
ATOM     30  C13 UNL     1      -5.906  -0.235  -4.873  1.00  0.00     0.337 C   
ENDBRANCH  21  22
ENDBRANCH  18  21
ENDBRANCH  17  18
BRANCH  17  31
ATOM     31  C14 UNL     1       0.609  -0.246  -1.498  1.00  0.00     0.043 C   
ATOM     32  C15 UNL     1       0.287  -0.460  -2.980  1.00  0.00     0.010 C   
ATOM     33  C18 UNL     1       1.850   0.664  -1.511  1.00  0.00     0.010 C   
ATOM     34  C16 UNL     1       1.668  -0.574  -3.605  1.00  0.00     0.001 C   
ATOM     35  C17 UNL     1       2.475   0.508  -2.900  1.00  0.00     0.001 C   
ENDBRANCH  17  31
ENDBRANCH   3  17
TORSDOF 9
