REMARK SMILES CC(C)C[C@H]([NH2+]Cc1ccc2c(c1)OCO2)c1cn(CCn2ccccc2=O)nn1
REMARK SMILES IDX 17 1 18 2 19 3 29 4 30 5 5 7 4 8 2 9 1 10 3 11 6 12 7 15
REMARK SMILES IDX 8 16 9 17 13 18 10 19 12 20 11 21 14 22 16 23 15 24 20 25
REMARK SMILES IDX 21 26 22 27 23 28 27 29 24 30 26 31 25 32 28 33
REMARK H PARENT 18 6 6 13 6 14
ROOT
ATOM     1   C14 UNL     1      -1.066  -1.363  -1.111  1.00  0.00     0.127 A   
ATOM     2   C15 UNL     1      -0.056  -2.293  -0.996  1.00  0.00     0.045 A   
ATOM     3   N2  UNL     1       0.321  -2.499  -2.293  1.00  0.00    -0.211 N   
ATOM     4   N4  UNL     1      -0.532  -1.912  -3.149  1.00  0.00    -0.076 NA  
ATOM     5   N5  UNL     1      -1.378  -1.189  -2.433  1.00  0.00    -0.132 NA  
ATOM     6   H20 UNL     1       0.521  -2.655  -0.157  1.00  0.00     0.083 HD  
ENDROOT
BRANCH   1   7
ATOM     7   C5  UNL     1      -1.575  -0.402  -0.091  1.00  0.00     0.114 C   
BRANCH   7   8
ATOM     8   C4  UNL     1      -3.107  -0.291  -0.054  1.00  0.00     0.064 C   
BRANCH   8   9
ATOM     9   C2  UNL     1      -3.838  -1.605   0.298  1.00  0.00    -0.012 C   
ATOM     10  C1  UNL     1      -5.353  -1.382   0.252  1.00  0.00     0.007 C   
ATOM     11  C3  UNL     1      -3.438  -2.143   1.672  1.00  0.00     0.007 C   
ENDBRANCH   8   9
ENDBRANCH   7   8
BRANCH   7  12
ATOM     12  N1  UNL     1      -0.980   0.938  -0.464  1.00  0.00     0.249 N   
ATOM     13  H11 UNL     1       0.010   0.760  -0.742  1.00  0.00     0.199 HD  
ATOM     14  H12 UNL     1      -1.409   1.232  -1.349  1.00  0.00     0.199 HD  
BRANCH  12  15
ATOM     15  C6  UNL     1      -0.992   2.029   0.533  1.00  0.00     0.164 C   
BRANCH  15  16
ATOM     16  C7  UNL     1      -0.230   1.700   1.787  1.00  0.00    -0.002 A   
ATOM     17  C8  UNL     1       1.181   1.588   1.757  1.00  0.00     0.012 A   
ATOM     18  C12 UNL     1      -0.916   1.469   2.992  1.00  0.00     0.045 A   
ATOM     19  C9  UNL     1       1.901   1.251   2.908  1.00  0.00     0.037 A   
ATOM     20  C11 UNL     1      -0.175   1.138   4.108  1.00  0.00     0.109 A   
ATOM     21  C10 UNL     1       1.193   1.031   4.068  1.00  0.00     0.108 A   
ATOM     22  O1  UNL     1      -0.680   0.879   5.344  1.00  0.00    -0.316 OA  
ATOM     23  O2  UNL     1       1.723   0.695   5.273  1.00  0.00    -0.316 OA  
ATOM     24  C13 UNL     1       0.534   0.630   6.089  1.00  0.00     0.337 C   
ENDBRANCH  15  16
ENDBRANCH  12  15
ENDBRANCH   7  12
ENDBRANCH   1   7
BRANCH   3  25
ATOM     25  C16 UNL     1       1.609  -2.977  -2.750  1.00  0.00     0.153 C   
BRANCH  25  26
ATOM     26  C17 UNL     1       2.728  -1.968  -2.448  1.00  0.00     0.135 C   
BRANCH  26  27
ATOM     27  N3  UNL     1       2.655  -0.733  -3.242  1.00  0.00    -0.273 N   
ATOM     28  C18 UNL     1       3.204  -0.746  -4.518  1.00  0.00     0.078 A   
ATOM     29  C22 UNL     1       2.013   0.402  -2.731  1.00  0.00     0.242 A   
ATOM     30  C19 UNL     1       3.170   0.335  -5.304  1.00  0.00     0.016 A   
ATOM     31  C21 UNL     1       2.010   1.603  -3.613  1.00  0.00     0.069 A   
ATOM     32  C20 UNL     1       2.562   1.549  -4.832  1.00  0.00     0.007 A   
ATOM     33  O3  UNL     1       1.456   0.486  -1.630  1.00  0.00    -0.272 OA  
ENDBRANCH  26  27
ENDBRANCH  25  26
ENDBRANCH   3  25
TORSDOF 9
