REMARK SMILES Cc1cc(CCn2cc([C@@H]([NH2+]Cc3ccc4c(c3)OCO4)C(C)C)nn2)cnc1Cl
REMARK SMILES IDX 7 1 8 2 9 3 25 4 26 5 6 7 5 8 4 9 2 10 3 11 29 12 28 13
REMARK SMILES IDX 27 14 1 15 30 16 10 17 11 18 12 21 13 22 14 23 18 24 15 25
REMARK SMILES IDX 17 26 16 27 19 28 21 29 20 30 22 31 23 32 24 33
REMARK H PARENT 8 6 11 19 11 20
ROOT
ATOM     1   N1  UNL     1      -1.342  -0.495  -2.888  1.00  0.00    -0.212 N   
ATOM     2   C7  UNL     1      -0.474  -1.005  -1.959  1.00  0.00     0.045 A   
ATOM     3   C8  UNL     1      -1.160  -0.884  -0.767  1.00  0.00     0.127 A   
ATOM     4   N3  UNL     1      -2.419  -0.414  -1.024  1.00  0.00    -0.132 NA  
ATOM     5   N4  UNL     1      -2.533  -0.221  -2.328  1.00  0.00    -0.076 NA  
ATOM     6   H9  UNL     1       0.547  -1.266  -2.201  1.00  0.00     0.083 HD  
ENDROOT
BRANCH   1   7
ATOM     7   C6  UNL     1      -0.999   0.069  -4.181  1.00  0.00     0.139 C   
BRANCH   7   8
ATOM     8   C5  UNL     1      -0.961   1.610  -4.166  1.00  0.00     0.058 C   
BRANCH   8   9
ATOM     9   C4  UNL     1      -0.058   2.174  -3.091  1.00  0.00    -0.028 A   
ATOM     10  C2  UNL     1       2.112   2.879  -2.272  1.00  0.00    -0.013 A   
ATOM     11  C3  UNL     1       1.297   2.426  -3.318  1.00  0.00     0.012 A   
ATOM     12  C22 UNL     1       1.521   3.001  -1.017  1.00  0.00     0.131 A   
ATOM     13  N5  UNL     1       0.230   2.696  -0.735  1.00  0.00    -0.244 NA  
ATOM     14  C21 UNL     1      -0.541   2.383  -1.801  1.00  0.00     0.116 A   
ATOM     15  C1  UNL     1       3.556   3.198  -2.517  1.00  0.00     0.048 C   
ATOM     16  CL1 UNL     1       2.388   3.516   0.375  1.00  0.00    -0.062 Cl  
ENDBRANCH   8   9
ENDBRANCH   7   8
ENDBRANCH   1   7
BRANCH   3  17
ATOM     17  C9  UNL     1      -0.651  -0.989   0.638  1.00  0.00     0.117 C   
BRANCH  17  18
ATOM     18  N2  UNL     1      -0.480   0.416   1.171  1.00  0.00     0.249 N   
ATOM     19  H11 UNL     1       0.031   0.981   0.470  1.00  0.00     0.199 HD  
ATOM     20  H12 UNL     1      -1.403   0.869   1.180  1.00  0.00     0.199 HD  
BRANCH  18  21
ATOM     21  C10 UNL     1       0.188   0.617   2.484  1.00  0.00     0.164 C   
BRANCH  21  22
ATOM     22  C11 UNL     1       1.491  -0.118   2.658  1.00  0.00    -0.002 A   
ATOM     23  C12 UNL     1       1.693  -0.932   3.800  1.00  0.00     0.012 A   
ATOM     24  C16 UNL     1       2.526   0.001   1.714  1.00  0.00     0.045 A   
ATOM     25  C13 UNL     1       2.892  -1.629   3.990  1.00  0.00     0.037 A   
ATOM     26  C15 UNL     1       3.694  -0.700   1.929  1.00  0.00     0.109 A   
ATOM     27  C14 UNL     1       3.873  -1.493   3.034  1.00  0.00     0.108 A   
ATOM     28  O1  UNL     1       4.776  -0.703   1.106  1.00  0.00    -0.316 OA  
ATOM     29  O2  UNL     1       5.091  -2.092   3.051  1.00  0.00    -0.316 OA  
ATOM     30  C17 UNL     1       5.677  -1.561   1.843  1.00  0.00     0.337 C   
ENDBRANCH  21  22
ENDBRANCH  18  21
ENDBRANCH  17  18
BRANCH  17  31
ATOM     31  C18 UNL     1      -1.504  -1.865   1.590  1.00  0.00     0.037 C   
ATOM     32  C19 UNL     1      -2.905  -1.329   1.906  1.00  0.00     0.014 C   
ATOM     33  C20 UNL     1      -1.607  -3.305   1.072  1.00  0.00     0.014 C   
ENDBRANCH  17  31
ENDBRANCH   3  17
TORSDOF 8
