REMARK SMILES CC(C)(C)[C@H]([NH2+]Cc1ccc2c(c1)OCO2)c1cn(Cc2c[nH]nc2-c2ccccc2)nn1
REMARK SMILES IDX 17 1 18 2 19 3 32 4 33 5 5 7 2 8 1 9 3 10 4 11 6 12 7 15
REMARK SMILES IDX 8 16 9 17 13 18 10 19 12 20 11 21 14 22 16 23 15 24 20 25
REMARK SMILES IDX 21 26 22 27 25 28 23 29 24 30 26 32 27 33 31 34 28 35 30 36
REMARK SMILES IDX 29 37
REMARK H PARENT 18 6 6 13 6 14 23 31
ROOT
ATOM     1   C14 UNL     1       0.198   1.332   0.254  1.00  0.00     0.127 A   
ATOM     2   C15 UNL     1       1.057   1.012  -0.774  1.00  0.00     0.046 A   
ATOM     3   N2  UNL     1       2.196   0.600  -0.135  1.00  0.00    -0.208 N   
ATOM     4   N5  UNL     1       2.071   0.739   1.199  1.00  0.00    -0.076 NA  
ATOM     5   N6  UNL     1       0.842   1.155   1.450  1.00  0.00    -0.132 NA  
ATOM     6   H20 UNL     1       0.950   0.975  -1.850  1.00  0.00     0.083 HD  
ENDROOT
BRANCH   1   7
ATOM     7   C5  UNL     1      -1.261   1.664   0.241  1.00  0.00     0.120 C   
BRANCH   7   8
ATOM     8   C2  UNL     1      -1.592   3.161   0.570  1.00  0.00     0.010 C   
ATOM     9   C1  UNL     1      -0.844   4.091  -0.412  1.00  0.00     0.017 C   
ATOM     10  C3  UNL     1      -1.212   3.568   2.008  1.00  0.00     0.017 C   
ATOM     11  C4  UNL     1      -3.105   3.425   0.380  1.00  0.00     0.017 C   
ENDBRANCH   7   8
BRANCH   7  12
ATOM     12  N1  UNL     1      -1.970   0.734   1.207  1.00  0.00     0.250 N   
ATOM     13  H11 UNL     1      -1.459   0.799   2.099  1.00  0.00     0.199 HD  
ATOM     14  H12 UNL     1      -2.929   1.041   1.380  1.00  0.00     0.199 HD  
BRANCH  12  15
ATOM     15  C6  UNL     1      -1.992  -0.714   0.825  1.00  0.00     0.164 C   
BRANCH  15  16
ATOM     16  C7  UNL     1      -2.787  -0.972  -0.425  1.00  0.00    -0.002 A   
ATOM     17  C8  UNL     1      -2.126  -1.278  -1.640  1.00  0.00     0.012 A   
ATOM     18  C12 UNL     1      -4.189  -0.864  -0.410  1.00  0.00     0.045 A   
ATOM     19  C9  UNL     1      -2.845  -1.464  -2.825  1.00  0.00     0.037 A   
ATOM     20  C11 UNL     1      -4.868  -1.051  -1.597  1.00  0.00     0.109 A   
ATOM     21  C10 UNL     1      -4.216  -1.339  -2.770  1.00  0.00     0.108 A   
ATOM     22  O1  UNL     1      -6.215  -0.966  -1.758  1.00  0.00    -0.316 OA  
ATOM     23  O2  UNL     1      -5.069  -1.472  -3.818  1.00  0.00    -0.316 OA  
ATOM     24  C13 UNL     1      -6.341  -1.259  -3.168  1.00  0.00     0.337 C   
ENDBRANCH  15  16
ENDBRANCH  12  15
ENDBRANCH   7  12
ENDBRANCH   1   7
BRANCH   3  25
ATOM     25  C16 UNL     1       3.405   0.026  -0.706  1.00  0.00     0.173 C   
BRANCH  25  26
ATOM     26  C17 UNL     1       3.101  -1.114  -1.623  1.00  0.00     0.015 A   
ATOM     27  C18 UNL     1       3.510  -1.208  -2.942  1.00  0.00     0.099 A   
ATOM     28  C19 UNL     1       2.352  -2.320  -1.391  1.00  0.00     0.095 A   
ATOM     29  N3  UNL     1       3.006  -2.376  -3.421  1.00  0.00    -0.245 N   
ATOM     30  N4  UNL     1       2.248  -3.024  -2.532  1.00  0.00    -0.184 NA  
ATOM     31  H24 UNL     1       3.121  -2.783  -4.347  1.00  0.00     0.175 HD  
BRANCH  28  32
ATOM     32  C20 UNL     1       1.688  -2.817  -0.177  1.00  0.00     0.002 A   
ATOM     33  C21 UNL     1       0.516  -3.587  -0.290  1.00  0.00     0.010 A   
ATOM     34  C25 UNL     1       2.201  -2.580   1.103  1.00  0.00     0.010 A   
ATOM     35  C22 UNL     1      -0.145  -4.071   0.845  1.00  0.00     0.001 A   
ATOM     36  C24 UNL     1       1.536  -3.058   2.240  1.00  0.00     0.001 A   
ATOM     37  C23 UNL     1       0.362  -3.798   2.111  1.00  0.00     0.000 A   
ENDBRANCH  28  32
ENDBRANCH  25  26
ENDBRANCH   3  25
TORSDOF 8
