REMARK SMILES Cc1ccc(O)c(Cn2cc([C@H](CC(C)C)[NH2+]Cc3ccc4c(c3)OCO4)nn2)n1
REMARK SMILES IDX 9 1 10 2 11 3 28 4 29 5 8 7 7 8 2 9 3 10 30 11 4 12 5 13
REMARK SMILES IDX 1 14 6 15 12 17 13 18 14 19 15 20 16 21 17 22 18 25 19 26
REMARK SMILES IDX 20 27 24 28 21 29 23 30 22 31 25 32 27 33 26 34
REMARK H PARENT 10 6 6 16 17 23 17 24
ROOT
ATOM     1   N1  UNL     1       0.801  -0.495  -2.471  1.00  0.00    -0.206 N   
ATOM     2   C8  UNL     1      -0.190  -0.521  -1.528  1.00  0.00     0.046 A   
ATOM     3   C9  UNL     1      -0.453   0.807  -1.286  1.00  0.00     0.127 A   
ATOM     4   N3  UNL     1       0.329   1.580  -2.105  1.00  0.00    -0.132 NA  
ATOM     5   N4  UNL     1       1.092   0.773  -2.825  1.00  0.00    -0.076 NA  
ATOM     6   H9  UNL     1      -0.548  -1.447  -1.097  1.00  0.00     0.083 HD  
ENDROOT
BRANCH   1   7
ATOM     7   C7  UNL     1       1.519  -1.620  -3.042  1.00  0.00     0.192 C   
BRANCH   7   8
ATOM     8   C6  UNL     1       2.655  -2.018  -2.138  1.00  0.00     0.090 A   
ATOM     9   C2  UNL     1       3.324  -2.981  -0.121  1.00  0.00     0.038 A   
ATOM     10  C3  UNL     1       4.666  -2.817  -0.447  1.00  0.00     0.026 A   
ATOM     11  N5  UNL     1       2.320  -2.580  -0.940  1.00  0.00    -0.254 NA  
ATOM     12  C4  UNL     1       4.998  -2.226  -1.663  1.00  0.00     0.037 A   
ATOM     13  C5  UNL     1       3.982  -1.825  -2.520  1.00  0.00     0.095 A   
ATOM     14  C1  UNL     1       2.940  -3.634   1.174  1.00  0.00     0.067 C   
BRANCH  13  15
ATOM     15  O1  UNL     1       4.274  -1.256  -3.723  1.00  0.00    -0.359 OA  
ATOM     16  H6  UNL     1       5.239  -1.209  -3.833  1.00  0.00     0.218 HD  
ENDBRANCH  13  15
ENDBRANCH   7   8
ENDBRANCH   1   7
BRANCH   3  17
ATOM     17  C10 UNL     1      -1.320   1.459  -0.263  1.00  0.00     0.114 C   
BRANCH  17  18
ATOM     18  C11 UNL     1      -2.615   1.998  -0.903  1.00  0.00     0.064 C   
BRANCH  18  19
ATOM     19  C12 UNL     1      -3.626   2.668   0.053  1.00  0.00    -0.012 C   
ATOM     20  C13 UNL     1      -4.054   1.747   1.196  1.00  0.00     0.007 C   
ATOM     21  C14 UNL     1      -4.859   3.119  -0.738  1.00  0.00     0.007 C   
ENDBRANCH  18  19
ENDBRANCH  17  18
BRANCH  17  22
ATOM     22  N2  UNL     1      -0.581   2.601   0.396  1.00  0.00     0.249 N   
ATOM     23  H20 UNL     1      -1.200   3.105   1.035  1.00  0.00     0.199 HD  
ATOM     24  H21 UNL     1      -0.315   3.248  -0.359  1.00  0.00     0.199 HD  
BRANCH  22  25
ATOM     25  C15 UNL     1       0.673   2.242   1.129  1.00  0.00     0.164 C   
BRANCH  25  26
ATOM     26  C16 UNL     1       0.436   1.316   2.289  1.00  0.00    -0.002 A   
ATOM     27  C17 UNL     1       0.819  -0.044   2.203  1.00  0.00     0.012 A   
ATOM     28  C21 UNL     1      -0.196   1.785   3.453  1.00  0.00     0.045 A   
ATOM     29  C18 UNL     1       0.571  -0.929   3.258  1.00  0.00     0.037 A   
ATOM     30  C20 UNL     1      -0.422   0.886   4.475  1.00  0.00     0.109 A   
ATOM     31  C19 UNL     1      -0.052  -0.432   4.381  1.00  0.00     0.108 A   
ATOM     32  O2  UNL     1      -1.021   1.174   5.660  1.00  0.00    -0.316 OA  
ATOM     33  O3  UNL     1      -0.369  -1.141   5.495  1.00  0.00    -0.316 OA  
ATOM     34  C22 UNL     1      -0.961  -0.113   6.318  1.00  0.00     0.337 C   
ENDBRANCH  25  26
ENDBRANCH  22  25
ENDBRANCH  17  22
ENDBRANCH   3  17
TORSDOF 9
