REMARK SMILES CC(C)(C)[C@H]([NH2+]Cc1ccc2c(c1)OCO2)c1cn(Cc2cccc(Cl)n2)nn1
REMARK SMILES IDX 17 1 18 2 19 3 28 4 29 5 5 7 2 8 1 9 3 10 4 11 6 12 7 15
REMARK SMILES IDX 8 16 9 17 13 18 10 19 12 20 11 21 14 22 16 23 15 24 20 25
REMARK SMILES IDX 21 26 22 27 27 28 23 29 25 30 24 31 26 32
REMARK H PARENT 18 6 6 13 6 14
ROOT
ATOM     1   C14 UNL     1       0.476   1.055  -0.739  1.00  0.00     0.127 A   
ATOM     2   C15 UNL     1       1.774   1.124  -1.192  1.00  0.00     0.046 A   
ATOM     3   N2  UNL     1       2.415   1.858  -0.230  1.00  0.00    -0.206 N   
ATOM     4   N4  UNL     1       1.541   2.318   0.686  1.00  0.00    -0.076 NA  
ATOM     5   N5  UNL     1       0.353   1.813   0.398  1.00  0.00    -0.132 NA  
ATOM     6   H20 UNL     1       2.307   0.643  -2.000  1.00  0.00     0.083 HD  
ENDROOT
BRANCH   1   7
ATOM     7   C5  UNL     1      -0.662   0.190  -1.180  1.00  0.00     0.120 C   
BRANCH   7   8
ATOM     8   C2  UNL     1      -1.790   0.947  -1.961  1.00  0.00     0.010 C   
ATOM     9   C1  UNL     1      -1.188   1.645  -3.201  1.00  0.00     0.017 C   
ATOM     10  C3  UNL     1      -2.510   2.009  -1.108  1.00  0.00     0.017 C   
ATOM     11  C4  UNL     1      -2.848  -0.056  -2.477  1.00  0.00     0.017 C   
ENDBRANCH   7   8
BRANCH   7  12
ATOM     12  N1  UNL     1      -1.224  -0.508   0.035  1.00  0.00     0.250 N   
ATOM     13  H11 UNL     1      -1.386   0.219   0.746  1.00  0.00     0.199 HD  
ATOM     14  H12 UNL     1      -2.130  -0.943  -0.148  1.00  0.00     0.199 HD  
BRANCH  12  15
ATOM     15  C6  UNL     1      -0.325  -1.528   0.658  1.00  0.00     0.164 C   
BRANCH  15  16
ATOM     16  C7  UNL     1      -1.034  -2.216   1.792  1.00  0.00    -0.002 A   
ATOM     17  C8  UNL     1      -1.661  -3.467   1.591  1.00  0.00     0.012 A   
ATOM     18  C12 UNL     1      -1.133  -1.583   3.043  1.00  0.00     0.045 A   
ATOM     19  C9  UNL     1      -2.369  -4.089   2.624  1.00  0.00     0.037 A   
ATOM     20  C11 UNL     1      -1.846  -2.219   4.037  1.00  0.00     0.109 A   
ATOM     21  C10 UNL     1      -2.444  -3.438   3.835  1.00  0.00     0.108 A   
ATOM     22  O1  UNL     1      -2.053  -1.740   5.292  1.00  0.00    -0.316 OA  
ATOM     23  O2  UNL     1      -3.092  -3.888   4.940  1.00  0.00    -0.316 OA  
ATOM     24  C13 UNL     1      -2.865  -2.794   5.856  1.00  0.00     0.337 C   
ENDBRANCH  15  16
ENDBRANCH  12  15
ENDBRANCH   7  12
ENDBRANCH   1   7
BRANCH   3  25
ATOM     25  C16 UNL     1       3.845   2.060  -0.066  1.00  0.00     0.190 C   
BRANCH  25  26
ATOM     26  C17 UNL     1       4.513   0.853   0.557  1.00  0.00     0.062 A   
ATOM     27  C18 UNL     1       5.783   0.991   1.121  1.00  0.00     0.026 A   
ATOM     28  N3  UNL     1       3.881  -0.351   0.498  1.00  0.00    -0.239 NA  
ATOM     29  C19 UNL     1       6.407  -0.130   1.671  1.00  0.00     0.005 A   
ATOM     30  C21 UNL     1       4.512  -1.411   1.048  1.00  0.00     0.129 A   
ATOM     31  C20 UNL     1       5.758  -1.360   1.643  1.00  0.00     0.041 A   
ATOM     32  CL1 UNL     1       3.611  -2.869   0.970  1.00  0.00    -0.062 Cl  
ENDBRANCH  25  26
ENDBRANCH   3  25
TORSDOF 7
