REMARK SMILES CC(C)(C)[C@H]([NH2+]Cc1ccc2c(c1)OCO2)c1cn(Cc2ccnc(F)c2F)nn1
REMARK SMILES IDX 17 1 18 2 19 3 29 4 30 5 5 7 2 8 1 9 3 10 4 11 6 12 7 15
REMARK SMILES IDX 8 16 9 17 13 18 10 19 12 20 11 21 14 22 16 23 15 24 20 25
REMARK SMILES IDX 21 26 22 27 27 28 23 29 25 30 24 31 28 32 26 33
REMARK H PARENT 18 6 6 13 6 14
ROOT
ATOM     1   C14 UNL     1      -0.164   0.078   1.082  1.00  0.00     0.127 A   
ATOM     2   C15 UNL     1      -0.347  -1.049   0.310  1.00  0.00     0.046 A   
ATOM     3   N2  UNL     1      -1.701  -1.107   0.127  1.00  0.00    -0.208 N   
ATOM     4   N4  UNL     1      -2.314  -0.070   0.731  1.00  0.00    -0.076 NA  
ATOM     5   N5  UNL     1      -1.386   0.655   1.330  1.00  0.00    -0.132 NA  
ATOM     6   H20 UNL     1       0.329  -1.777  -0.117  1.00  0.00     0.083 HD  
ENDROOT
BRANCH   1   7
ATOM     7   C5  UNL     1       1.078   0.753   1.582  1.00  0.00     0.120 C   
BRANCH   7   8
ATOM     8   C2  UNL     1       1.575   0.238   2.979  1.00  0.00     0.010 C   
ATOM     9   C1  UNL     1       1.863  -1.280   2.915  1.00  0.00     0.017 C   
ATOM     10  C3  UNL     1       2.907   0.926   3.361  1.00  0.00     0.017 C   
ATOM     11  C4  UNL     1       0.552   0.491   4.105  1.00  0.00     0.017 C   
ENDBRANCH   7   8
BRANCH   7  12
ATOM     12  N1  UNL     1       0.813   2.249   1.633  1.00  0.00     0.250 N   
ATOM     13  H11 UNL     1      -0.214   2.348   1.683  1.00  0.00     0.199 HD  
ATOM     14  H12 UNL     1       1.164   2.666   2.497  1.00  0.00     0.199 HD  
BRANCH  12  15
ATOM     15  C6  UNL     1       1.303   3.049   0.477  1.00  0.00     0.164 C   
BRANCH  15  16
ATOM     16  C7  UNL     1       0.639   2.717  -0.830  1.00  0.00    -0.002 A   
ATOM     17  C8  UNL     1      -0.723   3.042  -1.044  1.00  0.00     0.012 A   
ATOM     18  C12 UNL     1       1.365   2.084  -1.852  1.00  0.00     0.045 A   
ATOM     19  C9  UNL     1      -1.353   2.744  -2.257  1.00  0.00     0.037 A   
ATOM     20  C11 UNL     1       0.717   1.814  -3.040  1.00  0.00     0.109 A   
ATOM     21  C10 UNL     1      -0.602   2.138  -3.238  1.00  0.00     0.108 A   
ATOM     22  O1  UNL     1       1.276   1.226  -4.130  1.00  0.00    -0.316 OA  
ATOM     23  O2  UNL     1      -1.037   1.804  -4.480  1.00  0.00    -0.316 OA  
ATOM     24  C13 UNL     1       0.176   1.283  -5.067  1.00  0.00     0.337 C   
ENDBRANCH  15  16
ENDBRANCH  12  15
ENDBRANCH   7  12
ENDBRANCH   1   7
BRANCH   3  25
ATOM     25  C16 UNL     1      -2.470  -2.106  -0.594  1.00  0.00     0.172 C   
BRANCH  25  26
ATOM     26  C17 UNL     1      -2.442  -1.848  -2.072  1.00  0.00     0.014 A   
ATOM     27  C18 UNL     1      -3.401  -1.043  -2.697  1.00  0.00     0.029 A   
ATOM     28  C21 UNL     1      -1.428  -2.389  -2.862  1.00  0.00     0.182 A   
ATOM     29  C19 UNL     1      -3.307  -0.834  -4.069  1.00  0.00     0.115 A   
ATOM     30  C20 UNL     1      -1.415  -2.128  -4.223  1.00  0.00     0.249 A   
ATOM     31  N3  UNL     1      -2.336  -1.360  -4.846  1.00  0.00    -0.226 NA  
ATOM     32  F2  UNL     1      -0.468  -3.135  -2.299  1.00  0.00    -0.202 F   
ATOM     33  F1  UNL     1      -0.423  -2.631  -4.972  1.00  0.00    -0.182 F   
ENDBRANCH  25  26
ENDBRANCH   3  25
TORSDOF 7
