REMARK SMILES Cc1ccc(N([O-])[O-])cc1-n1cc([C@@H]([NH2+]Cc2ccc3c(c2)OCO3)C2CCCCC2)nn1
REMARK SMILES IDX 11 1 12 2 13 3 32 4 33 5 10 6 2 7 3 8 4 9 9 10 5 11 1 12
REMARK SMILES IDX 6 13 7 14 8 15 14 16 15 17 16 20 17 21 18 22 22 23 19 24
REMARK SMILES IDX 21 25 20 26 23 27 25 28 24 29 26 30 27 31 31 32 28 33 30 34
REMARK SMILES IDX 29 35
REMARK H PARENT 15 18 15 19
ROOT
ATOM     1   N2  UNL     1      -0.213   1.113   1.478  1.00  0.00    -0.180 N   
ATOM     2   C8  UNL     1      -1.266   1.131   0.575  1.00  0.00     0.135 A   
ATOM     3   C9  UNL     1      -1.248  -0.105  -0.031  1.00  0.00     0.127 A   
ATOM     4   N4  UNL     1      -0.261  -0.859   0.528  1.00  0.00    -0.131 NA  
ATOM     5   N5  UNL     1       0.339  -0.125   1.448  1.00  0.00    -0.071 NA  
ENDROOT
BRANCH   1   6
ATOM     6   C7  UNL     1       0.282   2.178   2.293  1.00  0.00     0.063 A   
ATOM     7   C2  UNL     1       1.392   2.030   3.163  1.00  0.00    -0.027 A   
ATOM     8   C3  UNL     1       1.819   3.141   3.924  1.00  0.00     0.007 A   
ATOM     9   C4  UNL     1       1.178   4.376   3.843  1.00  0.00     0.031 A   
ATOM     10  C6  UNL     1      -0.359   3.432   2.216  1.00  0.00     0.057 A   
ATOM     11  C5  UNL     1       0.091   4.517   2.985  1.00  0.00     0.120 A   
ATOM     12  C1  UNL     1       2.179   0.756   3.342  1.00  0.00     0.046 C   
BRANCH  11  13
ATOM     13  N1  UNL     1      -0.593   5.813   2.879  1.00  0.00     0.092 N   
ATOM     14  O1  UNL     1      -0.229   6.723   3.634  1.00  0.00    -0.138 OA  
ATOM     15  O2  UNL     1      -1.495   5.912   2.034  1.00  0.00    -0.138 OA  
ENDBRANCH  11  13
ENDBRANCH   1   6
BRANCH   3  16
ATOM     16  C10 UNL     1      -2.011  -0.641  -1.201  1.00  0.00     0.117 C   
BRANCH  16  17
ATOM     17  N3  UNL     1      -1.067  -1.384  -2.123  1.00  0.00     0.249 N   
ATOM     18  H9  UNL     1      -1.528  -2.192  -2.550  1.00  0.00     0.199 HD  
ATOM     19  H10 UNL     1      -0.326  -1.771  -1.518  1.00  0.00     0.199 HD  
BRANCH  17  20
ATOM     20  C11 UNL     1      -0.417  -0.578  -3.203  1.00  0.00     0.164 C   
BRANCH  20  21
ATOM     21  C12 UNL     1       0.393   0.585  -2.700  1.00  0.00    -0.002 A   
ATOM     22  C13 UNL     1      -0.081   1.909  -2.862  1.00  0.00     0.012 A   
ATOM     23  C17 UNL     1       1.598   0.364  -2.010  1.00  0.00     0.045 A   
ATOM     24  C14 UNL     1       0.614   2.994  -2.317  1.00  0.00     0.037 A   
ATOM     25  C16 UNL     1       2.254   1.455  -1.480  1.00  0.00     0.109 A   
ATOM     26  C15 UNL     1       1.772   2.732  -1.622  1.00  0.00     0.108 A   
ATOM     27  O3  UNL     1       3.403   1.412  -0.756  1.00  0.00    -0.316 OA  
ATOM     28  O4  UNL     1       2.553   3.653  -1.000  1.00  0.00    -0.316 OA  
ATOM     29  C18 UNL     1       3.607   2.815  -0.478  1.00  0.00     0.337 C   
ENDBRANCH  20  21
ENDBRANCH  17  20
ENDBRANCH  16  17
BRANCH  16  30
ATOM     30  C19 UNL     1      -3.197  -1.547  -0.774  1.00  0.00     0.043 C   
ATOM     31  C20 UNL     1      -4.160  -1.797  -1.954  1.00  0.00     0.010 C   
ATOM     32  C24 UNL     1      -2.780  -2.885  -0.131  1.00  0.00     0.010 C   
ATOM     33  C21 UNL     1      -5.367  -2.631  -1.532  1.00  0.00     0.001 C   
ATOM     34  C23 UNL     1      -3.994  -3.718   0.280  1.00  0.00     0.001 C   
ATOM     35  C22 UNL     1      -4.944  -3.947  -0.891  1.00  0.00     0.000 C   
ENDBRANCH  16  30
ENDBRANCH   3  16
TORSDOF 7
