REMARK SMILES CC(C)(C)[C@H]([NH2+]Cc1ccc2c(c1)OCO2)c1cn(CCn2cnc3ccccc32)nn1
REMARK SMILES IDX 17 1 18 2 19 3 31 4 32 5 5 7 2 8 1 9 3 10 4 11 6 12 7 15
REMARK SMILES IDX 8 16 9 17 13 18 10 19 12 20 11 21 14 22 16 23 15 24 20 25
REMARK SMILES IDX 21 26 22 27 23 28 30 29 24 30 25 31 29 32 26 33 28 34 27 35
REMARK H PARENT 18 6 6 13 6 14
ROOT
ATOM     1   C14 UNL     1      -0.328   2.382  -0.465  1.00  0.00     0.127 A   
ATOM     2   C15 UNL     1      -1.338   2.180  -1.383  1.00  0.00     0.045 A   
ATOM     3   N2  UNL     1      -2.451   2.688  -0.771  1.00  0.00    -0.211 N   
ATOM     4   N5  UNL     1      -2.127   3.313   0.373  1.00  0.00    -0.076 NA  
ATOM     5   N6  UNL     1      -0.831   3.132   0.575  1.00  0.00    -0.132 NA  
ATOM     6   H20 UNL     1      -1.407   1.618  -2.303  1.00  0.00     0.083 HD  
ENDROOT
BRANCH   1   7
ATOM     7   C5  UNL     1       1.065   1.829  -0.344  1.00  0.00     0.120 C   
BRANCH   7   8
ATOM     8   C2  UNL     1       1.835   1.476  -1.663  1.00  0.00     0.010 C   
ATOM     9   C1  UNL     1       1.758   2.646  -2.670  1.00  0.00     0.017 C   
ATOM     10  C3  UNL     1       3.338   1.278  -1.333  1.00  0.00     0.017 C   
ATOM     11  C4  UNL     1       1.338   0.187  -2.349  1.00  0.00     0.017 C   
ENDBRANCH   7   8
BRANCH   7  12
ATOM     12  N1  UNL     1       1.061   0.645   0.603  1.00  0.00     0.250 N   
ATOM     13  H11 UNL     1       1.725  -0.079   0.327  1.00  0.00     0.199 HD  
ATOM     14  H12 UNL     1       0.137   0.164   0.560  1.00  0.00     0.199 HD  
BRANCH  12  15
ATOM     15  C6  UNL     1       1.300   0.987   2.032  1.00  0.00     0.164 C   
BRANCH  15  16
ATOM     16  C7  UNL     1       1.311  -0.236   2.906  1.00  0.00    -0.002 A   
ATOM     17  C8  UNL     1       2.387  -1.158   2.847  1.00  0.00     0.012 A   
ATOM     18  C12 UNL     1       0.240  -0.481   3.783  1.00  0.00     0.045 A   
ATOM     19  C9  UNL     1       2.395  -2.307   3.647  1.00  0.00     0.037 A   
ATOM     20  C11 UNL     1       0.280  -1.621   4.560  1.00  0.00     0.109 A   
ATOM     21  C10 UNL     1       1.327  -2.509   4.493  1.00  0.00     0.108 A   
ATOM     22  O1  UNL     1      -0.663  -1.995   5.462  1.00  0.00    -0.316 OA  
ATOM     23  O2  UNL     1       1.174  -3.557   5.344  1.00  0.00    -0.316 OA  
ATOM     24  C13 UNL     1      -0.094  -3.230   5.956  1.00  0.00     0.337 C   
ENDBRANCH  15  16
ENDBRANCH  12  15
ENDBRANCH   7  12
ENDBRANCH   1   7
BRANCH   3  25
ATOM     25  C16 UNL     1      -3.826   2.296  -1.025  1.00  0.00     0.153 C   
BRANCH  25  26
ATOM     26  C17 UNL     1      -4.294   1.166  -0.093  1.00  0.00     0.133 C   
BRANCH  26  27
ATOM     27  N3  UNL     1      -3.319   0.091   0.024  1.00  0.00    -0.288 N   
ATOM     28  C18 UNL     1      -2.394  -0.008   1.032  1.00  0.00     0.189 A   
ATOM     29  C24 UNL     1      -3.003  -0.845  -0.930  1.00  0.00     0.060 A   
ATOM     30  N4  UNL     1      -1.395  -0.800   0.696  1.00  0.00    -0.239 NA  
ATOM     31  C19 UNL     1      -1.808  -1.401  -0.475  1.00  0.00     0.086 A   
ATOM     32  C23 UNL     1      -3.608  -1.232  -2.130  1.00  0.00     0.026 A   
ATOM     33  C20 UNL     1      -1.182  -2.405  -1.228  1.00  0.00     0.030 A   
ATOM     34  C22 UNL     1      -2.963  -2.227  -2.873  1.00  0.00     0.002 A   
ATOM     35  C21 UNL     1      -1.774  -2.809  -2.431  1.00  0.00     0.002 A   
ENDBRANCH  26  27
ENDBRANCH  25  26
ENDBRANCH   3  25
TORSDOF 8
