REMARK SMILES CC(C)(C)[C@H]([NH2+]Cc1ccc2c(c1)OCO2)c1cn(CCc2[nH]nc3c2CCC3)nn1
REMARK SMILES IDX 17 1 18 2 19 3 30 4 31 5 5 7 2 8 1 9 3 10 4 11 6 12 7 15
REMARK SMILES IDX 8 16 9 17 13 18 10 19 12 20 11 21 14 22 16 23 15 24 20 25
REMARK SMILES IDX 21 26 22 27 23 28 26 29 24 30 25 31 27 32 29 33 28 34
REMARK H PARENT 18 6 6 13 6 14 23 35
ROOT
ATOM     1   C14 UNL     1       1.170   0.127   1.408  1.00  0.00     0.127 A   
ATOM     2   C15 UNL     1       0.980  -0.980   2.211  1.00  0.00     0.045 A   
ATOM     3   N2  UNL     1       2.052  -1.789   1.933  1.00  0.00    -0.212 N   
ATOM     4   N5  UNL     1       2.916  -1.170   1.106  1.00  0.00    -0.076 NA  
ATOM     5   N6  UNL     1       2.387  -0.000   0.776  1.00  0.00    -0.132 NA  
ATOM     6   H20 UNL     1       0.166  -1.327   2.830  1.00  0.00     0.083 HD  
ENDROOT
BRANCH   1   7
ATOM     7   C5  UNL     1       0.269   1.263   1.011  1.00  0.00     0.120 C   
BRANCH   7   8
ATOM     8   C2  UNL     1      -0.886   1.669   1.994  1.00  0.00     0.010 C   
ATOM     9   C1  UNL     1      -0.334   1.888   3.422  1.00  0.00     0.017 C   
ATOM     10  C3  UNL     1      -1.488   3.028   1.547  1.00  0.00     0.017 C   
ATOM     11  C4  UNL     1      -2.041   0.650   2.049  1.00  0.00     0.017 C   
ENDBRANCH   7   8
BRANCH   7  12
ATOM     12  N1  UNL     1      -0.290   1.007  -0.373  1.00  0.00     0.250 N   
ATOM     13  H11 UNL     1      -1.236   1.375  -0.485  1.00  0.00     0.199 HD  
ATOM     14  H12 UNL     1      -0.402  -0.020  -0.524  1.00  0.00     0.199 HD  
BRANCH  12  15
ATOM     15  C6  UNL     1       0.536   1.495  -1.514  1.00  0.00     0.164 C   
BRANCH  15  16
ATOM     16  C7  UNL     1      -0.329   1.733  -2.723  1.00  0.00    -0.002 A   
ATOM     17  C8  UNL     1      -0.650   0.670  -3.601  1.00  0.00     0.012 A   
ATOM     18  C12 UNL     1      -0.896   3.001  -2.939  1.00  0.00     0.045 A   
ATOM     19  C9  UNL     1      -1.516   0.866  -4.683  1.00  0.00     0.037 A   
ATOM     20  C11 UNL     1      -1.743   3.162  -4.016  1.00  0.00     0.109 A   
ATOM     21  C10 UNL     1      -2.046   2.124  -4.863  1.00  0.00     0.108 A   
ATOM     22  O1  UNL     1      -2.378   4.313  -4.356  1.00  0.00    -0.316 OA  
ATOM     23  O2  UNL     1      -2.910   2.492  -5.844  1.00  0.00    -0.316 OA  
ATOM     24  C13 UNL     1      -3.093   3.892  -5.540  1.00  0.00     0.337 C   
ENDBRANCH  15  16
ENDBRANCH  12  15
ENDBRANCH   7  12
ENDBRANCH   1   7
BRANCH   3  25
ATOM     25  C16 UNL     1       2.097  -3.232   2.105  1.00  0.00     0.140 C   
BRANCH  25  26
ATOM     26  C17 UNL     1       1.774  -3.997   0.806  1.00  0.00     0.074 C   
BRANCH  26  27
ATOM     27  C18 UNL     1       0.602  -3.413   0.083  1.00  0.00     0.032 A   
ATOM     28  N3  UNL     1       0.765  -2.386  -0.831  1.00  0.00    -0.242 N   
ATOM     29  C20 UNL     1      -0.750  -3.595   0.147  1.00  0.00    -0.006 A   
ATOM     30  N4  UNL     1      -0.398  -1.716  -1.104  1.00  0.00    -0.189 NA  
ATOM     31  C19 UNL     1      -1.301  -2.562  -0.613  1.00  0.00     0.063 A   
ATOM     32  C21 UNL     1      -1.784  -4.419   0.798  1.00  0.00     0.039 C   
ATOM     33  C23 UNL     1      -2.776  -2.546  -0.579  1.00  0.00     0.058 C   
ATOM     34  C22 UNL     1      -3.070  -3.547   0.589  1.00  0.00     0.011 C   
ATOM     35  H25 UNL     1       1.649  -2.000  -1.157  1.00  0.00     0.175 HD  
ENDBRANCH  26  27
ENDBRANCH  25  26
ENDBRANCH   3  25
TORSDOF 8
