REMARK SMILES Cc1nn(C)c(C)c1Cn1cc([C@@H]([NH2+]Cc2ccc3c(c2)OCO3)C(C)C)nn1
REMARK SMILES IDX 10 1 11 2 12 3 28 4 29 5 9 7 8 8 2 9 3 10 4 11 6 12 1 13
REMARK SMILES IDX 5 14 7 15 13 16 14 17 15 20 16 21 17 22 21 23 18 24 20 25
REMARK SMILES IDX 19 26 22 27 24 28 23 29 25 30 26 31 27 32
REMARK H PARENT 11 6 14 18 14 19
ROOT
ATOM     1   N3  UNL     1       0.290   3.082   1.696  1.00  0.00    -0.208 N   
ATOM     2   C8  UNL     1       1.110   2.318   0.909  1.00  0.00     0.046 A   
ATOM     3   C9  UNL     1       0.623   2.511  -0.364  1.00  0.00     0.127 A   
ATOM     4   N5  UNL     1      -0.410   3.410  -0.320  1.00  0.00    -0.132 NA  
ATOM     5   N6  UNL     1      -0.604   3.754   0.943  1.00  0.00    -0.076 NA  
ATOM     6   H12 UNL     1       1.875   1.676   1.324  1.00  0.00     0.083 HD  
ENDROOT
BRANCH   1   7
ATOM     7   C7  UNL     1       0.206   3.096   3.149  1.00  0.00     0.173 C   
BRANCH   7   8
ATOM     8   C6  UNL     1      -0.250   1.758   3.630  1.00  0.00     0.013 A   
ATOM     9   C2  UNL     1      -1.551   1.198   3.485  1.00  0.00     0.062 A   
ATOM     10  N1  UNL     1      -1.598  -0.058   3.933  1.00  0.00    -0.187 NA  
ATOM     11  N2  UNL     1      -0.392  -0.266   4.484  1.00  0.00    -0.232 N   
ATOM     12  C4  UNL     1       0.482   0.773   4.281  1.00  0.00     0.031 A   
ATOM     13  C1  UNL     1      -2.763   1.810   2.881  1.00  0.00     0.069 C   
ATOM     14  C3  UNL     1      -0.138  -1.517   5.163  1.00  0.00     0.159 C   
ATOM     15  C5  UNL     1       1.896   0.731   4.735  1.00  0.00     0.064 C   
ENDBRANCH   7   8
ENDBRANCH   1   7
BRANCH   3  16
ATOM     16  C10 UNL     1       0.961   1.822  -1.643  1.00  0.00     0.117 C   
BRANCH  16  17
ATOM     17  N4  UNL     1      -0.298   1.470  -2.411  1.00  0.00     0.249 N   
ATOM     18  H14 UNL     1      -0.803   2.350  -2.572  1.00  0.00     0.199 HD  
ATOM     19  H15 UNL     1      -0.050   1.083  -3.326  1.00  0.00     0.199 HD  
BRANCH  17  20
ATOM     20  C11 UNL     1      -1.265   0.549  -1.729  1.00  0.00     0.164 C   
BRANCH  20  21
ATOM     21  C12 UNL     1      -0.664  -0.758  -1.295  1.00  0.00    -0.002 A   
ATOM     22  C13 UNL     1      -0.572  -1.069   0.084  1.00  0.00     0.012 A   
ATOM     23  C17 UNL     1      -0.178  -1.674  -2.243  1.00  0.00     0.045 A   
ATOM     24  C14 UNL     1       0.007  -2.267   0.516  1.00  0.00     0.037 A   
ATOM     25  C16 UNL     1       0.389  -2.845  -1.782  1.00  0.00     0.109 A   
ATOM     26  C15 UNL     1       0.482  -3.132  -0.442  1.00  0.00     0.108 A   
ATOM     27  O1  UNL     1       0.913  -3.827  -2.562  1.00  0.00    -0.316 OA  
ATOM     28  O2  UNL     1       1.075  -4.332  -0.210  1.00  0.00    -0.316 OA  
ATOM     29  C18 UNL     1       1.314  -4.788  -1.558  1.00  0.00     0.337 C   
ENDBRANCH  20  21
ENDBRANCH  17  20
ENDBRANCH  16  17
BRANCH  16  30
ATOM     30  C19 UNL     1       1.901   2.628  -2.577  1.00  0.00     0.037 C   
ATOM     31  C20 UNL     1       1.347   3.984  -3.028  1.00  0.00     0.014 C   
ATOM     32  C21 UNL     1       3.284   2.822  -1.943  1.00  0.00     0.014 C   
ENDBRANCH  16  30
ENDBRANCH   3  16
TORSDOF 7
