REMARK SMILES CC(C)[C@H]([NH2+]Cc1ccc2c(c1)OCO2)c1cn(CCc2cccs2)nn1
REMARK SMILES IDX 16 1 17 2 18 3 26 4 27 5 4 7 2 8 1 9 3 10 5 11 6 14 7 15
REMARK SMILES IDX 8 16 12 17 9 18 11 19 10 20 13 21 15 22 14 23 19 24 20 25
REMARK SMILES IDX 21 26 22 27 25 28 23 29 24 30
REMARK H PARENT 17 6 5 12 5 13
ROOT
ATOM     1   C13 UNL     1      -1.571  -0.979  -1.059  1.00  0.00     0.127 A   
ATOM     2   C14 UNL     1      -1.543  -2.322  -1.362  1.00  0.00     0.045 A   
ATOM     3   N2  UNL     1      -1.036  -2.359  -2.631  1.00  0.00    -0.212 N   
ATOM     4   N3  UNL     1      -0.800  -1.119  -3.095  1.00  0.00    -0.076 NA  
ATOM     5   N4  UNL     1      -1.124  -0.263  -2.141  1.00  0.00    -0.132 NA  
ATOM     6   H18 UNL     1      -1.783  -3.218  -0.807  1.00  0.00     0.083 HD  
ENDROOT
BRANCH   1   7
ATOM     7   C4  UNL     1      -1.922  -0.260   0.204  1.00  0.00     0.117 C   
BRANCH   7   8
ATOM     8   C2  UNL     1      -3.440   0.036   0.312  1.00  0.00     0.037 C   
ATOM     9   C1  UNL     1      -3.950   1.067  -0.702  1.00  0.00     0.014 C   
ATOM     10  C3  UNL     1      -3.831   0.471   1.730  1.00  0.00     0.014 C   
ENDBRANCH   7   8
BRANCH   7  11
ATOM     11  N1  UNL     1      -1.128   1.015   0.306  1.00  0.00     0.249 N   
ATOM     12  H9  UNL     1      -1.170   1.463  -0.622  1.00  0.00     0.199 HD  
ATOM     13  H10 UNL     1      -1.542   1.680   0.966  1.00  0.00     0.199 HD  
BRANCH  11  14
ATOM     14  C5  UNL     1       0.315   0.837   0.635  1.00  0.00     0.164 C   
BRANCH  14  15
ATOM     15  C6  UNL     1       1.026   2.159   0.597  1.00  0.00    -0.002 A   
ATOM     16  C7  UNL     1       1.555   2.644  -0.623  1.00  0.00     0.012 A   
ATOM     17  C11 UNL     1       1.119   2.948   1.756  1.00  0.00     0.045 A   
ATOM     18  C8  UNL     1       2.181   3.893  -0.688  1.00  0.00     0.037 A   
ATOM     19  C10 UNL     1       1.742   4.175   1.656  1.00  0.00     0.109 A   
ATOM     20  C9  UNL     1       2.259   4.635   0.470  1.00  0.00     0.108 A   
ATOM     21  O1  UNL     1       1.915   5.058   2.675  1.00  0.00    -0.316 OA  
ATOM     22  O2  UNL     1       2.824   5.863   0.593  1.00  0.00    -0.316 OA  
ATOM     23  C12 UNL     1       2.625   6.120   1.999  1.00  0.00     0.337 C   
ENDBRANCH  14  15
ENDBRANCH  11  14
ENDBRANCH   7  11
ENDBRANCH   1   7
BRANCH   3  24
ATOM     24  C15 UNL     1      -0.705  -3.520  -3.430  1.00  0.00     0.139 C   
BRANCH  24  25
ATOM     25  C16 UNL     1       0.794  -3.822  -3.443  1.00  0.00     0.064 C   
BRANCH  25  26
ATOM     26  C17 UNL     1       1.295  -4.305  -2.108  1.00  0.00    -0.009 A   
ATOM     27  C18 UNL     1       1.217  -5.579  -1.580  1.00  0.00     0.011 A   
ATOM     28  S1  UNL     1       2.092  -3.229  -1.036  1.00  0.00    -0.102 S   
ATOM     29  C19 UNL     1       1.812  -5.667  -0.289  1.00  0.00     0.008 A   
ATOM     30  C20 UNL     1       2.330  -4.460   0.124  1.00  0.00     0.046 A   
ENDBRANCH  25  26
ENDBRANCH  24  25
ENDBRANCH   3  24
TORSDOF 8
