REMARK SMILES COc1ccc(CCn2cc([C@@H]([NH2+]Cc3ccc4c(c3)OCO4)C(C)C)nn2)cn1
REMARK SMILES IDX 9 1 10 2 11 3 27 4 28 5 8 7 7 8 6 9 3 10 4 11 30 12 5 13
REMARK SMILES IDX 29 14 2 15 1 16 12 17 13 18 14 21 15 22 16 23 20 24 17 25
REMARK SMILES IDX 19 26 18 27 21 28 23 29 22 30 24 31 25 32 26 33
REMARK H PARENT 10 6 13 19 13 20
ROOT
ATOM     1   N1  UNL     1       3.248  -0.926  -1.913  1.00  0.00    -0.212 N   
ATOM     2   C8  UNL     1       2.717   0.316  -1.682  1.00  0.00     0.045 A   
ATOM     3   C9  UNL     1       2.376   0.280  -0.346  1.00  0.00     0.127 A   
ATOM     4   N3  UNL     1       2.872  -0.869   0.209  1.00  0.00    -0.132 NA  
ATOM     5   N4  UNL     1       3.399  -1.602  -0.760  1.00  0.00    -0.076 NA  
ATOM     6   H10 UNL     1       2.491   1.006  -2.484  1.00  0.00     0.083 HD  
ENDROOT
BRANCH   1   7
ATOM     7   C7  UNL     1       3.274  -1.624  -3.186  1.00  0.00     0.139 C   
BRANCH   7   8
ATOM     8   C6  UNL     1       2.024  -2.502  -3.407  1.00  0.00     0.058 C   
BRANCH   8   9
ATOM     9   C5  UNL     1       0.735  -1.760  -3.135  1.00  0.00    -0.028 A   
ATOM     10  C2  UNL     1      -1.375  -0.184  -2.395  1.00  0.00     0.166 A   
ATOM     11  C3  UNL     1      -0.900  -0.085  -3.693  1.00  0.00     0.055 A   
ATOM     12  N5  UNL     1      -0.837  -0.983  -1.443  1.00  0.00    -0.233 NA  
ATOM     13  C4  UNL     1       0.178  -0.883  -4.066  1.00  0.00     0.010 A   
ATOM     14  C22 UNL     1       0.154  -1.808  -1.866  1.00  0.00     0.117 A   
BRANCH  10  15
ATOM     15  O1  UNL     1      -2.369   0.688  -2.020  1.00  0.00    -0.333 OA  
ATOM     16  C1  UNL     1      -3.362   0.029  -1.234  1.00  0.00     0.205 C   
ENDBRANCH  10  15
ENDBRANCH   8   9
ENDBRANCH   7   8
ENDBRANCH   1   7
BRANCH   3  17
ATOM     17  C10 UNL     1       1.487   1.200   0.431  1.00  0.00     0.117 C   
BRANCH  17  18
ATOM     18  N2  UNL     1       0.215   0.504   0.857  1.00  0.00     0.249 N   
ATOM     19  H12 UNL     1      -0.482   1.191   1.153  1.00  0.00     0.199 HD  
ATOM     20  H13 UNL     1      -0.203   0.064   0.013  1.00  0.00     0.199 HD  
BRANCH  18  21
ATOM     21  C11 UNL     1       0.305  -0.583   1.873  1.00  0.00     0.164 C   
BRANCH  21  22
ATOM     22  C12 UNL     1      -1.065  -0.953   2.381  1.00  0.00    -0.002 A   
ATOM     23  C13 UNL     1      -1.645  -0.241   3.459  1.00  0.00     0.012 A   
ATOM     24  C17 UNL     1      -1.797  -1.975   1.757  1.00  0.00     0.045 A   
ATOM     25  C14 UNL     1      -2.935  -0.542   3.909  1.00  0.00     0.037 A   
ATOM     26  C16 UNL     1      -3.066  -2.248   2.223  1.00  0.00     0.109 A   
ATOM     27  C15 UNL     1      -3.620  -1.551   3.268  1.00  0.00     0.108 A   
ATOM     28  O2  UNL     1      -3.907  -3.193   1.725  1.00  0.00    -0.316 OA  
ATOM     29  O3  UNL     1      -4.878  -1.971   3.563  1.00  0.00    -0.316 OA  
ATOM     30  C18 UNL     1      -5.042  -3.040   2.607  1.00  0.00     0.337 C   
ENDBRANCH  21  22
ENDBRANCH  18  21
ENDBRANCH  17  18
BRANCH  17  31
ATOM     31  C19 UNL     1       2.196   1.908   1.615  1.00  0.00     0.037 C   
ATOM     32  C20 UNL     1       1.256   2.841   2.388  1.00  0.00     0.014 C   
ATOM     33  C21 UNL     1       3.399   2.730   1.125  1.00  0.00     0.014 C   
ENDBRANCH  17  31
ENDBRANCH   3  17
TORSDOF 9
