REMARK SMILES Cc1cccc2c1O[C@@H](Cn1cc([C@H](CC(C)C)[NH2+]Cc3ccc4c(c3)OCO4)nn1)C2
REMARK SMILES IDX 11 1 12 2 13 3 30 4 31 5 10 7 9 8 2 9 3 10 7 11 4 12 6 13
REMARK SMILES IDX 8 14 5 15 32 16 1 17 14 18 15 19 16 20 17 21 18 22 19 23
REMARK SMILES IDX 20 26 21 27 22 28 26 29 23 30 25 31 24 32 27 33 29 34 28 35
REMARK H PARENT 12 6 19 24 19 25
ROOT
ATOM     1   N1  UNL     1       0.029   1.670  -2.272  1.00  0.00    -0.210 N   
ATOM     2   C10 UNL     1      -0.792   0.915  -1.482  1.00  0.00     0.045 A   
ATOM     3   C11 UNL     1      -1.208   1.791  -0.506  1.00  0.00     0.127 A   
ATOM     4   N3  UNL     1      -0.660   3.025  -0.742  1.00  0.00    -0.132 NA  
ATOM     5   N4  UNL     1       0.088   2.939  -1.830  1.00  0.00    -0.076 NA  
ATOM     6   H10 UNL     1      -0.964  -0.138  -1.664  1.00  0.00     0.083 HD  
ENDROOT
BRANCH   1   7
ATOM     7   C9  UNL     1       0.768   1.262  -3.447  1.00  0.00     0.166 C   
BRANCH   7   8
ATOM     8   C8  UNL     1       2.148   0.667  -3.147  1.00  0.00     0.149 C   
ATOM     9   C2  UNL     1       2.527  -1.302  -0.169  1.00  0.00    -0.020 A   
ATOM     10  C3  UNL     1       3.141  -0.929   1.034  1.00  0.00     0.006 A   
ATOM     11  C7  UNL     1       2.547  -0.378  -1.202  1.00  0.00     0.082 A   
ATOM     12  C4  UNL     1       3.746   0.332   1.175  1.00  0.00     0.001 A   
ATOM     13  C6  UNL     1       3.153   0.862  -1.071  1.00  0.00    -0.015 A   
ATOM     14  O1  UNL     1       1.989  -0.591  -2.436  1.00  0.00    -0.340 OA  
ATOM     15  C5  UNL     1       3.759   1.237   0.114  1.00  0.00     0.006 A   
ATOM     16  C25 UNL     1       3.099   1.585  -2.362  1.00  0.00     0.072 C   
ATOM     17  C1  UNL     1       1.898  -2.650  -0.340  1.00  0.00     0.047 C   
ENDBRANCH   7   8
ENDBRANCH   1   7
BRANCH   3  18
ATOM     18  C12 UNL     1      -2.046   1.579   0.711  1.00  0.00     0.114 C   
BRANCH  18  19
ATOM     19  C13 UNL     1      -3.486   2.091   0.494  1.00  0.00     0.064 C   
BRANCH  19  20
ATOM     20  C14 UNL     1      -4.605   1.315   1.224  1.00  0.00    -0.012 C   
ATOM     21  C15 UNL     1      -4.432   1.256   2.738  1.00  0.00     0.007 C   
ATOM     22  C16 UNL     1      -4.781  -0.096   0.656  1.00  0.00     0.007 C   
ENDBRANCH  19  20
ENDBRANCH  18  19
BRANCH  18  23
ATOM     23  N2  UNL     1      -1.439   2.330   1.875  1.00  0.00     0.249 N   
ATOM     24  H21 UNL     1      -1.267   3.287   1.533  1.00  0.00     0.199 HD  
ATOM     25  H22 UNL     1      -2.100   2.396   2.651  1.00  0.00     0.199 HD  
BRANCH  23  26
ATOM     26  C17 UNL     1      -0.137   1.809   2.390  1.00  0.00     0.164 C   
BRANCH  26  27
ATOM     27  C18 UNL     1      -0.303   0.550   3.196  1.00  0.00    -0.002 A   
ATOM     28  C19 UNL     1      -0.658   0.614   4.563  1.00  0.00     0.012 A   
ATOM     29  C23 UNL     1      -0.138  -0.704   2.584  1.00  0.00     0.045 A   
ATOM     30  C20 UNL     1      -0.846  -0.553   5.312  1.00  0.00     0.037 A   
ATOM     31  C22 UNL     1      -0.330  -1.835   3.349  1.00  0.00     0.109 A   
ATOM     32  C21 UNL     1      -0.676  -1.762   4.674  1.00  0.00     0.108 A   
ATOM     33  O2  UNL     1      -0.213  -3.115   2.909  1.00  0.00    -0.316 OA  
ATOM     34  O3  UNL     1      -0.818  -2.989   5.240  1.00  0.00    -0.316 OA  
ATOM     35  C24 UNL     1      -0.494  -3.847   4.125  1.00  0.00     0.337 C   
ENDBRANCH  26  27
ENDBRANCH  23  26
ENDBRANCH  18  23
ENDBRANCH   3  18
TORSDOF 8
