REMARK SMILES Cc1cccc2c1O[C@H](Cn1cc([C@H](CC(C)C)[NH2+]Cc3ccc4c(c3)OCO4)nn1)C2
REMARK SMILES IDX 11 1 12 2 13 3 30 4 31 5 10 7 9 8 2 9 3 10 7 11 4 12 6 13
REMARK SMILES IDX 8 14 5 15 32 16 1 17 14 18 15 19 16 20 17 21 18 22 19 23
REMARK SMILES IDX 20 26 21 27 22 28 26 29 23 30 25 31 24 32 27 33 29 34 28 35
REMARK H PARENT 12 6 19 24 19 25
ROOT
ATOM     1   N1  UNL     1      -0.774  -3.555   1.503  1.00  0.00    -0.210 N   
ATOM     2   C10 UNL     1      -0.363  -3.160   0.262  1.00  0.00     0.045 A   
ATOM     3   C11 UNL     1      -1.363  -2.308  -0.159  1.00  0.00     0.127 A   
ATOM     4   N3  UNL     1      -2.353  -2.277   0.788  1.00  0.00    -0.132 NA  
ATOM     5   N4  UNL     1      -1.993  -3.067   1.788  1.00  0.00    -0.076 NA  
ATOM     6   H10 UNL     1       0.608  -3.428  -0.137  1.00  0.00     0.083 HD  
ENDROOT
BRANCH   1   7
ATOM     7   C9  UNL     1      -0.000  -4.245   2.513  1.00  0.00     0.166 C   
BRANCH   7   8
ATOM     8   C8  UNL     1       0.930  -3.318   3.312  1.00  0.00     0.149 C   
ATOM     9   C2  UNL     1       2.272  -0.543   1.461  1.00  0.00    -0.020 A   
ATOM     10  C3  UNL     1       1.839   0.789   1.482  1.00  0.00     0.006 A   
ATOM     11  C7  UNL     1       1.643  -1.429   2.325  1.00  0.00     0.082 A   
ATOM     12  C4  UNL     1       0.794   1.193   2.332  1.00  0.00     0.001 A   
ATOM     13  C6  UNL     1       0.620  -1.031   3.174  1.00  0.00    -0.015 A   
ATOM     14  O1  UNL     1       1.951  -2.764   2.430  1.00  0.00    -0.340 OA  
ATOM     15  C5  UNL     1       0.173   0.278   3.184  1.00  0.00     0.006 A   
ATOM     16  C25 UNL     1       0.224  -2.163   4.043  1.00  0.00     0.072 C   
ATOM     17  C1  UNL     1       3.421  -0.978   0.606  1.00  0.00     0.047 C   
ENDBRANCH   7   8
ENDBRANCH   1   7
BRANCH   3  18
ATOM     18  C12 UNL     1      -1.425  -1.341  -1.293  1.00  0.00     0.114 C   
BRANCH  18  19
ATOM     19  C13 UNL     1      -0.502  -1.682  -2.478  1.00  0.00     0.064 C   
BRANCH  19  20
ATOM     20  C14 UNL     1      -0.855  -2.991  -3.219  1.00  0.00    -0.012 C   
ATOM     21  C15 UNL     1      -2.219  -2.916  -3.904  1.00  0.00     0.007 C   
ATOM     22  C16 UNL     1       0.227  -3.300  -4.258  1.00  0.00     0.007 C   
ENDBRANCH  19  20
ENDBRANCH  18  19
BRANCH  18  23
ATOM     23  N2  UNL     1      -1.014   0.004  -0.742  1.00  0.00     0.249 N   
ATOM     24  H21 UNL     1       0.010   0.044  -0.668  1.00  0.00     0.199 HD  
ATOM     25  H22 UNL     1      -1.326   0.047   0.241  1.00  0.00     0.199 HD  
BRANCH  23  26
ATOM     26  C17 UNL     1      -1.542   1.200  -1.444  1.00  0.00     0.164 C   
BRANCH  26  27
ATOM     27  C18 UNL     1      -0.678   2.398  -1.164  1.00  0.00    -0.002 A   
ATOM     28  C19 UNL     1      -1.028   3.328  -0.158  1.00  0.00     0.012 A   
ATOM     29  C23 UNL     1       0.528   2.559  -1.873  1.00  0.00     0.045 A   
ATOM     30  C20 UNL     1      -0.188   4.407   0.141  1.00  0.00     0.037 A   
ATOM     31  C22 UNL     1       1.334   3.632  -1.553  1.00  0.00     0.109 A   
ATOM     32  C21 UNL     1       0.988   4.529  -0.572  1.00  0.00     0.108 A   
ATOM     33  O2  UNL     1       2.527   3.927  -2.130  1.00  0.00    -0.316 OA  
ATOM     34  O3  UNL     1       1.924   5.502  -0.408  1.00  0.00    -0.316 OA  
ATOM     35  C24 UNL     1       2.847   5.174  -1.469  1.00  0.00     0.337 C   
ENDBRANCH  26  27
ENDBRANCH  23  26
ENDBRANCH  18  23
ENDBRANCH   3  18
TORSDOF 8
