REMARK SMILES CC(C)C[C@H]([NH2+]Cc1ccc2c(c1)OCO2)c1cn(Cc2cn[nH]c2C2CC2)nn1
REMARK SMILES IDX 17 1 18 2 19 3 29 4 30 5 5 7 4 8 2 9 1 10 3 11 6 12 7 15
REMARK SMILES IDX 8 16 9 17 13 18 10 19 12 20 11 21 14 22 16 23 15 24 20 25
REMARK SMILES IDX 21 26 22 27 25 28 23 29 24 30 26 32 27 33 28 34
REMARK H PARENT 18 6 6 13 6 14 24 31
ROOT
ATOM     1   C14 UNL     1       1.981   0.333   1.256  1.00  0.00     0.127 A   
ATOM     2   C15 UNL     1       2.124   1.260   0.248  1.00  0.00     0.046 A   
ATOM     3   N2  UNL     1       3.441   1.157  -0.108  1.00  0.00    -0.208 N   
ATOM     4   N5  UNL     1       4.075   0.248   0.659  1.00  0.00    -0.076 NA  
ATOM     5   N6  UNL     1       3.192  -0.257   1.505  1.00  0.00    -0.132 NA  
ATOM     6   H20 UNL     1       1.433   1.912  -0.267  1.00  0.00     0.083 HD  
ENDROOT
BRANCH   1   7
ATOM     7   C5  UNL     1       0.765  -0.135   1.983  1.00  0.00     0.114 C   
BRANCH   7   8
ATOM     8   C4  UNL     1       0.672   0.521   3.377  1.00  0.00     0.064 C   
BRANCH   8   9
ATOM     9   C2  UNL     1      -0.599   0.207   4.195  1.00  0.00    -0.012 C   
ATOM     10  C1  UNL     1      -0.536   0.937   5.540  1.00  0.00     0.007 C   
ATOM     11  C3  UNL     1      -1.881   0.598   3.458  1.00  0.00     0.007 C   
ENDBRANCH   8   9
ENDBRANCH   7   8
BRANCH   7  12
ATOM     12  N1  UNL     1       0.786  -1.639   2.146  1.00  0.00     0.249 N   
ATOM     13  H11 UNL     1       0.004  -1.946   2.728  1.00  0.00     0.199 HD  
ATOM     14  H12 UNL     1       1.654  -1.868   2.650  1.00  0.00     0.199 HD  
BRANCH  12  15
ATOM     15  C6  UNL     1       0.786  -2.445   0.883  1.00  0.00     0.164 C   
BRANCH  15  16
ATOM     16  C7  UNL     1      -0.403  -2.175   0.003  1.00  0.00    -0.002 A   
ATOM     17  C8  UNL     1      -0.225  -1.578  -1.268  1.00  0.00     0.012 A   
ATOM     18  C12 UNL     1      -1.701  -2.491   0.442  1.00  0.00     0.045 A   
ATOM     19  C9  UNL     1      -1.322  -1.286  -2.087  1.00  0.00     0.037 A   
ATOM     20  C11 UNL     1      -2.760  -2.183  -0.387  1.00  0.00     0.109 A   
ATOM     21  C10 UNL     1      -2.577  -1.595  -1.615  1.00  0.00     0.108 A   
ATOM     22  O1  UNL     1      -4.068  -2.409  -0.108  1.00  0.00    -0.316 OA  
ATOM     23  O2  UNL     1      -3.750  -1.375  -2.262  1.00  0.00    -0.316 OA  
ATOM     24  C13 UNL     1      -4.696  -1.906  -1.309  1.00  0.00     0.337 C   
ENDBRANCH  15  16
ENDBRANCH  12  15
ENDBRANCH   7  12
ENDBRANCH   1   7
BRANCH   3  25
ATOM     25  C16 UNL     1       4.123   1.799  -1.221  1.00  0.00     0.172 C   
BRANCH  25  26
ATOM     26  C17 UNL     1       3.764   1.111  -2.490  1.00  0.00     0.010 A   
ATOM     27  C18 UNL     1       4.086  -0.222  -2.854  1.00  0.00     0.138 A   
ATOM     28  C19 UNL     1       3.059   1.580  -3.579  1.00  0.00     0.034 A   
ATOM     29  N3  UNL     1       3.587  -0.566  -4.042  1.00  0.00    -0.192 NA  
ATOM     30  N4  UNL     1       3.026   0.567  -4.495  1.00  0.00    -0.242 N   
ATOM     31  H24 UNL     1       2.629   0.573  -5.428  1.00  0.00     0.175 HD  
BRANCH  28  32
ATOM     32  C20 UNL     1       2.459   2.994  -3.762  1.00  0.00     0.036 C   
ATOM     33  C21 UNL     1       1.216   3.184  -4.588  1.00  0.00     0.010 C   
ATOM     34  C22 UNL     1       1.143   3.302  -3.095  1.00  0.00     0.010 C   
ENDBRANCH  28  32
ENDBRANCH  25  26
ENDBRANCH   3  25
TORSDOF 9
