REMARK SMILES Cc1cc(Cn2cc([C@@H]([NH2+]Cc3ccc4c(c3)OCO4)C3CCCCC3)nn2)n(C)n1
REMARK SMILES IDX 6 1 7 2 8 3 27 4 28 5 5 7 4 8 2 9 3 10 31 11 29 12 1 13
REMARK SMILES IDX 30 14 9 15 10 16 11 19 12 20 13 21 17 22 14 23 16 24 15 25
REMARK SMILES IDX 18 26 20 27 19 28 21 29 22 30 26 31 23 32 25 33 24 34
REMARK H PARENT 7 6 10 17 10 18
ROOT
ATOM     1   N1  UNL     1       0.701  -0.345  -2.729  1.00  0.00    -0.206 N   
ATOM     2   C6  UNL     1       0.443   0.215  -1.507  1.00  0.00     0.046 A   
ATOM     3   C7  UNL     1       1.195  -0.538  -0.633  1.00  0.00     0.127 A   
ATOM     4   N3  UNL     1       1.913  -1.467  -1.339  1.00  0.00    -0.132 NA  
ATOM     5   N4  UNL     1       1.601  -1.342  -2.620  1.00  0.00    -0.076 NA  
ATOM     6   H7  UNL     1      -0.281   1.007  -1.375  1.00  0.00     0.083 HD  
ENDROOT
BRANCH   1   7
ATOM     7   C5  UNL     1      -0.016  -0.119  -3.977  1.00  0.00     0.187 C   
BRANCH   7   8
ATOM     8   C4  UNL     1      -1.375  -0.724  -3.874  1.00  0.00     0.049 A   
ATOM     9   C2  UNL     1      -3.511  -1.205  -3.504  1.00  0.00     0.057 A   
ATOM     10  C3  UNL     1      -2.604  -0.135  -3.649  1.00  0.00     0.047 A   
ATOM     11  N6  UNL     1      -2.893  -2.385  -3.625  1.00  0.00    -0.187 NA  
ATOM     12  N5  UNL     1      -1.626  -2.072  -3.948  1.00  0.00    -0.231 N   
ATOM     13  C1  UNL     1      -4.963  -1.145  -3.217  1.00  0.00     0.068 C   
ATOM     14  C23 UNL     1      -0.709  -3.147  -4.254  1.00  0.00     0.159 C   
ENDBRANCH   7   8
ENDBRANCH   1   7
BRANCH   3  15
ATOM     15  C8  UNL     1       1.223  -0.552   0.861  1.00  0.00     0.117 C   
BRANCH  15  16
ATOM     16  N2  UNL     1       1.006  -1.973   1.350  1.00  0.00     0.249 N   
ATOM     17  H9  UNL     1       1.778  -2.535   0.968  1.00  0.00     0.199 HD  
ATOM     18  H10 UNL     1       1.069  -2.015   2.368  1.00  0.00     0.199 HD  
BRANCH  16  19
ATOM     19  C9  UNL     1      -0.273  -2.640   0.941  1.00  0.00     0.164 C   
BRANCH  19  20
ATOM     20  C10 UNL     1      -1.504  -1.910   1.401  1.00  0.00    -0.002 A   
ATOM     21  C11 UNL     1      -1.800  -1.788   2.781  1.00  0.00     0.012 A   
ATOM     22  C15 UNL     1      -2.365  -1.325   0.455  1.00  0.00     0.045 A   
ATOM     23  C12 UNL     1      -2.927  -1.080   3.214  1.00  0.00     0.037 A   
ATOM     24  C14 UNL     1      -3.464  -0.631   0.915  1.00  0.00     0.109 A   
ATOM     25  C13 UNL     1      -3.736  -0.511   2.256  1.00  0.00     0.108 A   
ATOM     26  O1  UNL     1      -4.382   0.003   0.140  1.00  0.00    -0.316 OA  
ATOM     27  O2  UNL     1      -4.862   0.211   2.494  1.00  0.00    -0.316 OA  
ATOM     28  C16 UNL     1      -5.296   0.495   1.147  1.00  0.00     0.337 C   
ENDBRANCH  19  20
ENDBRANCH  16  19
ENDBRANCH  15  16
BRANCH  15  29
ATOM     29  C17 UNL     1       2.567  -0.006   1.435  1.00  0.00     0.043 C   
ATOM     30  C18 UNL     1       2.813   1.446   0.961  1.00  0.00     0.010 C   
ATOM     31  C22 UNL     1       2.615  -0.060   2.978  1.00  0.00     0.010 C   
ATOM     32  C19 UNL     1       4.091   2.045   1.541  1.00  0.00     0.001 C   
ATOM     33  C21 UNL     1       3.891   0.555   3.549  1.00  0.00     0.001 C   
ATOM     34  C20 UNL     1       4.100   1.982   3.062  1.00  0.00     0.000 C   
ENDBRANCH  15  29
ENDBRANCH   3  15
TORSDOF 7
