REMARK SMILES Cc1ccc(C(=O)Cn2cc([C@@H]([NH2+]Cc3ccc4c(c3)OCO4)C(C)C)nn2)cc1
REMARK SMILES IDX 9 1 10 2 11 3 27 4 28 5 8 7 6 8 7 9 5 10 2 11 3 12 30 13
REMARK SMILES IDX 4 14 29 15 1 16 12 17 13 18 14 21 15 22 16 23 20 24 17 25
REMARK SMILES IDX 19 26 18 27 21 28 23 29 22 30 24 31 25 32 26 33
REMARK H PARENT 10 6 13 19 13 20
ROOT
ATOM     1   N1  UNL     1      -0.234  -0.375  -2.136  1.00  0.00    -0.204 N   
ATOM     2   C8  UNL     1       0.747   0.538  -1.869  1.00  0.00     0.046 A   
ATOM     3   C9  UNL     1       1.891  -0.222  -1.762  1.00  0.00     0.127 A   
ATOM     4   N3  UNL     1       1.573  -1.543  -1.958  1.00  0.00    -0.132 NA  
ATOM     5   N4  UNL     1       0.272  -1.625  -2.185  1.00  0.00    -0.076 NA  
ATOM     6   H8  UNL     1       0.548   1.599  -1.796  1.00  0.00     0.083 HD  
ENDROOT
BRANCH   1   7
ATOM     7   C7  UNL     1      -1.638  -0.145  -2.388  1.00  0.00     0.214 C   
BRANCH   7   8
ATOM     8   C6  UNL     1      -2.289   0.576  -1.239  1.00  0.00     0.182 C   
ATOM     9   O1  UNL     1      -2.143   1.791  -1.092  1.00  0.00    -0.292 OA  
BRANCH   8  10
ATOM     10  C5  UNL     1      -3.113  -0.188  -0.260  1.00  0.00     0.019 A   
ATOM     11  C2  UNL     1      -4.693  -1.522   1.645  1.00  0.00    -0.051 A   
ATOM     12  C3  UNL     1      -3.744  -2.224   0.891  1.00  0.00     0.004 A   
ATOM     13  C23 UNL     1      -4.857  -0.150   1.428  1.00  0.00     0.004 A   
ATOM     14  C4  UNL     1      -2.951  -1.562  -0.052  1.00  0.00     0.012 A   
ATOM     15  C22 UNL     1      -4.069   0.514   0.487  1.00  0.00     0.012 A   
ATOM     16  C1  UNL     1      -5.562  -2.240   2.638  1.00  0.00     0.044 C   
ENDBRANCH   8  10
ENDBRANCH   7   8
ENDBRANCH   1   7
BRANCH   3  17
ATOM     17  C10 UNL     1       3.304   0.159  -1.462  1.00  0.00     0.117 C   
BRANCH  17  18
ATOM     18  N2  UNL     1       3.973  -0.950  -0.673  1.00  0.00     0.249 N   
ATOM     19  H10 UNL     1       4.941  -1.078  -0.979  1.00  0.00     0.199 HD  
ATOM     20  H11 UNL     1       3.476  -1.820  -0.929  1.00  0.00     0.199 HD  
BRANCH  18  21
ATOM     21  C11 UNL     1       3.950  -0.811   0.811  1.00  0.00     0.164 C   
BRANCH  21  22
ATOM     22  C12 UNL     1       2.574  -0.867   1.409  1.00  0.00    -0.002 A   
ATOM     23  C13 UNL     1       1.865  -2.093   1.456  1.00  0.00     0.012 A   
ATOM     24  C17 UNL     1       1.968   0.301   1.903  1.00  0.00     0.045 A   
ATOM     25  C14 UNL     1       0.572  -2.156   1.986  1.00  0.00     0.037 A   
ATOM     26  C16 UNL     1       0.692   0.204   2.418  1.00  0.00     0.109 A   
ATOM     27  C15 UNL     1       0.013  -0.989   2.458  1.00  0.00     0.108 A   
ATOM     28  O2  UNL     1      -0.030   1.233   2.933  1.00  0.00    -0.316 OA  
ATOM     29  O3  UNL     1      -1.222  -0.863   3.010  1.00  0.00    -0.316 OA  
ATOM     30  C18 UNL     1      -1.248   0.550   3.312  1.00  0.00     0.337 C   
ENDBRANCH  21  22
ENDBRANCH  18  21
ENDBRANCH  17  18
BRANCH  17  31
ATOM     31  C19 UNL     1       4.161   0.446  -2.726  1.00  0.00     0.037 C   
ATOM     32  C20 UNL     1       3.668   1.692  -3.472  1.00  0.00     0.014 C   
ATOM     33  C21 UNL     1       4.263  -0.735  -3.702  1.00  0.00     0.014 C   
ENDBRANCH  17  31
ENDBRANCH   3  17
TORSDOF 8
