REMARK SMILES Cc1cscc1[C@H](CO)n1cc([C@@H]([NH2+]Cc2ccc3c(c2)OCO3)C2CCCC2)nn1
REMARK SMILES IDX 10 1 11 2 12 3 30 4 31 5 7 7 6 8 2 9 3 10 4 11 5 12 1 13
REMARK SMILES IDX 8 14 9 15 13 17 14 18 15 21 16 22 17 23 21 24 18 25 20 26
REMARK SMILES IDX 19 27 22 28 24 29 23 30 25 31 26 32 29 33 27 34 28 35
REMARK H PARENT 11 6 9 16 14 19 14 20
ROOT
ATOM     1   N1  UNL     1       0.692   0.858   1.661  1.00  0.00    -0.202 N   
ATOM     2   C8  UNL     1       0.876   1.613   0.533  1.00  0.00     0.046 A   
ATOM     3   C9  UNL     1       0.380   0.831  -0.484  1.00  0.00     0.127 A   
ATOM     4   N3  UNL     1      -0.029  -0.371   0.034  1.00  0.00    -0.132 NA  
ATOM     5   N4  UNL     1       0.176  -0.350   1.341  1.00  0.00    -0.075 NA  
ATOM     6   H10 UNL     1       1.310   2.603   0.569  1.00  0.00     0.083 HD  
ENDROOT
BRANCH   1   7
ATOM     7   C6  UNL     1       0.967   1.195   3.057  1.00  0.00     0.156 C   
BRANCH   7   8
ATOM     8   C5  UNL     1       0.382   2.561   3.400  1.00  0.00    -0.013 A   
ATOM     9   C2  UNL     1      -1.013   2.788   3.742  1.00  0.00    -0.039 A   
ATOM     10  C3  UNL     1      -1.260   4.124   3.998  1.00  0.00     0.049 A   
ATOM     11  S1  UNL     1       0.124   5.102   3.828  1.00  0.00    -0.105 S   
ATOM     12  C4  UNL     1       1.086   3.755   3.421  1.00  0.00     0.051 A   
ATOM     13  C1  UNL     1      -2.067   1.728   3.817  1.00  0.00     0.045 C   
ENDBRANCH   7   8
BRANCH   7  14
ATOM     14  C7  UNL     1       2.453   0.993   3.404  1.00  0.00     0.185 C   
BRANCH  14  15
ATOM     15  O1  UNL     1       3.333   1.750   2.569  1.00  0.00    -0.394 OA  
ATOM     16  H9  UNL     1       4.232   1.638   2.930  1.00  0.00     0.210 HD  
ENDBRANCH  14  15
ENDBRANCH   7  14
ENDBRANCH   1   7
BRANCH   3  17
ATOM     17  C10 UNL     1       0.292   1.074  -1.955  1.00  0.00     0.117 C   
BRANCH  17  18
ATOM     18  N2  UNL     1       0.428  -0.232  -2.700  1.00  0.00     0.249 N   
ATOM     19  H12 UNL     1      -0.189  -0.908  -2.226  1.00  0.00     0.199 HD  
ATOM     20  H13 UNL     1       0.086  -0.152  -3.663  1.00  0.00     0.199 HD  
BRANCH  18  21
ATOM     21  C11 UNL     1       1.798  -0.815  -2.714  1.00  0.00     0.164 C   
BRANCH  21  22
ATOM     22  C12 UNL     1       1.801  -2.133  -3.436  1.00  0.00    -0.002 A   
ATOM     23  C13 UNL     1       2.147  -2.200  -4.806  1.00  0.00     0.012 A   
ATOM     24  C17 UNL     1       1.410  -3.303  -2.761  1.00  0.00     0.045 A   
ATOM     25  C14 UNL     1       2.117  -3.418  -5.494  1.00  0.00     0.037 A   
ATOM     26  C16 UNL     1       1.391  -4.486  -3.469  1.00  0.00     0.109 A   
ATOM     27  C15 UNL     1       1.735  -4.543  -4.797  1.00  0.00     0.108 A   
ATOM     28  O2  UNL     1       1.041  -5.701  -2.971  1.00  0.00    -0.316 OA  
ATOM     29  O3  UNL     1       1.648  -5.801  -5.302  1.00  0.00    -0.316 OA  
ATOM     30  C18 UNL     1       1.231  -6.539  -4.133  1.00  0.00     0.337 C   
ENDBRANCH  21  22
ENDBRANCH  18  21
ENDBRANCH  17  18
BRANCH  17  31
ATOM     31  C19 UNL     1      -1.013   1.746  -2.419  1.00  0.00     0.043 C   
ATOM     32  C20 UNL     1      -1.287   3.122  -1.809  1.00  0.00     0.010 C   
ATOM     33  C23 UNL     1      -2.314   0.986  -2.134  1.00  0.00     0.010 C   
ATOM     34  C21 UNL     1      -2.723   3.400  -2.233  1.00  0.00     0.001 C   
ATOM     35  C22 UNL     1      -3.421   2.042  -2.198  1.00  0.00     0.001 C   
ENDBRANCH  17  31
ENDBRANCH   3  17
TORSDOF 9
