REMARK SMILES Cc1cscc1[C@@H](CO)n1cc([C@@H]([NH2+]Cc2ccc3c(c2)OCO3)C2CCCC2)nn1
REMARK SMILES IDX 10 1 11 2 12 3 30 4 31 5 7 7 6 8 2 9 3 10 4 11 5 12 1 13
REMARK SMILES IDX 8 14 9 15 13 17 14 18 15 21 16 22 17 23 21 24 18 25 20 26
REMARK SMILES IDX 19 27 22 28 24 29 23 30 25 31 26 32 29 33 27 34 28 35
REMARK H PARENT 11 6 9 16 14 19 14 20
ROOT
ATOM     1   N1  UNL     1       2.510  -1.692   0.045  1.00  0.00    -0.202 N   
ATOM     2   C8  UNL     1       2.496  -0.476  -0.587  1.00  0.00     0.046 A   
ATOM     3   C9  UNL     1       1.470   0.209   0.019  1.00  0.00     0.127 A   
ATOM     4   N3  UNL     1       0.894  -0.591   0.972  1.00  0.00    -0.132 NA  
ATOM     5   N4  UNL     1       1.532  -1.750   0.977  1.00  0.00    -0.075 NA  
ATOM     6   H10 UNL     1       3.198  -0.229  -1.371  1.00  0.00     0.083 HD  
ENDROOT
BRANCH   1   7
ATOM     7   C6  UNL     1       3.379  -2.845  -0.185  1.00  0.00     0.156 C   
BRANCH   7   8
ATOM     8   C5  UNL     1       3.239  -3.331  -1.622  1.00  0.00    -0.013 A   
ATOM     9   C2  UNL     1       2.252  -4.303  -2.064  1.00  0.00    -0.039 A   
ATOM     10  C3  UNL     1       2.353  -4.546  -3.421  1.00  0.00     0.049 A   
ATOM     11  S1  UNL     1       3.584  -3.639  -4.170  1.00  0.00    -0.105 S   
ATOM     12  C4  UNL     1       4.018  -2.913  -2.690  1.00  0.00     0.051 A   
ATOM     13  C1  UNL     1       1.245  -4.973  -1.182  1.00  0.00     0.045 C   
ENDBRANCH   7   8
BRANCH   7  14
ATOM     14  C7  UNL     1       4.820  -2.591   0.299  1.00  0.00     0.185 C   
BRANCH  14  15
ATOM     15  O1  UNL     1       5.439  -1.466  -0.328  1.00  0.00    -0.394 OA  
ATOM     16  H9  UNL     1       6.361  -1.438  -0.012  1.00  0.00     0.210 HD  
ENDBRANCH  14  15
ENDBRANCH   7  14
ENDBRANCH   1   7
BRANCH   3  17
ATOM     17  C10 UNL     1       0.923   1.579  -0.225  1.00  0.00     0.117 C   
BRANCH  17  18
ATOM     18  N2  UNL     1      -0.536   1.616   0.139  1.00  0.00     0.249 N   
ATOM     19  H12 UNL     1      -0.630   1.091   1.022  1.00  0.00     0.199 HD  
ATOM     20  H13 UNL     1      -0.868   2.564   0.333  1.00  0.00     0.199 HD  
BRANCH  18  21
ATOM     21  C11 UNL     1      -1.447   0.974  -0.849  1.00  0.00     0.164 C   
BRANCH  21  22
ATOM     22  C12 UNL     1      -2.852   0.938  -0.318  1.00  0.00    -0.002 A   
ATOM     23  C13 UNL     1      -3.279  -0.150   0.482  1.00  0.00     0.012 A   
ATOM     24  C17 UNL     1      -3.730   2.007  -0.561  1.00  0.00     0.045 A   
ATOM     25  C14 UNL     1      -4.569  -0.181   1.021  1.00  0.00     0.037 A   
ATOM     26  C16 UNL     1      -4.994   1.944  -0.012  1.00  0.00     0.109 A   
ATOM     27  C15 UNL     1      -5.403   0.882   0.755  1.00  0.00     0.108 A   
ATOM     28  O2  UNL     1      -5.961   2.890  -0.147  1.00  0.00    -0.316 OA  
ATOM     29  O3  UNL     1      -6.680   1.022   1.196  1.00  0.00    -0.316 OA  
ATOM     30  C18 UNL     1      -7.040   2.288   0.605  1.00  0.00     0.337 C   
ENDBRANCH  21  22
ENDBRANCH  18  21
ENDBRANCH  17  18
BRANCH  17  31
ATOM     31  C19 UNL     1       1.712   2.649   0.555  1.00  0.00     0.043 C   
ATOM     32  C20 UNL     1       1.527   2.658   2.074  1.00  0.00     0.010 C   
ATOM     33  C23 UNL     1       1.379   4.095   0.173  1.00  0.00     0.010 C   
ATOM     34  C21 UNL     1       2.166   3.977   2.489  1.00  0.00     0.001 C   
ATOM     35  C22 UNL     1       1.901   4.942   1.334  1.00  0.00     0.001 C   
ENDBRANCH  17  31
ENDBRANCH   3  17
TORSDOF 9
