REMARK SMILES c1cc2c(cc1C[NH2+][C@H](c1cn(-c3ccc4c(c3)CCO4)nn1)C1CCCC1)OCO2
REMARK SMILES IDX 8 1 7 4 6 5 1 6 2 7 3 8 5 9 4 10 31 11 29 12 30 13 9 14
REMARK SMILES IDX 10 15 11 16 23 17 12 18 22 19 13 20 14 21 18 22 15 23 17 24
REMARK SMILES IDX 16 25 19 26 21 27 20 28 24 29 25 30 28 31 26 32 27 33
REMARK H PARENT 8 2 8 3
ROOT
ATOM     1   N1  UNL     1      -2.104  -0.377  -1.812  1.00  0.00     0.249 N   
ATOM     2   H6  UNL     1      -2.973  -0.011  -1.396  1.00  0.00     0.199 HD  
ATOM     3   H7  UNL     1      -2.191  -0.280  -2.826  1.00  0.00     0.199 HD  
ENDROOT
BRANCH   1   4
ATOM     4   C7  UNL     1      -2.032  -1.832  -1.480  1.00  0.00     0.164 C   
BRANCH   4   5
ATOM     5   C6  UNL     1      -0.900  -2.530  -2.181  1.00  0.00    -0.002 A   
ATOM     6   C1  UNL     1      -0.970  -2.794  -3.570  1.00  0.00     0.012 A   
ATOM     7   C2  UNL     1       0.093  -3.412  -4.239  1.00  0.00     0.037 A   
ATOM     8   C3  UNL     1       1.206  -3.754  -3.502  1.00  0.00     0.108 A   
ATOM     9   C5  UNL     1       0.252  -2.900  -1.464  1.00  0.00     0.045 A   
ATOM     10  C4  UNL     1       1.281  -3.506  -2.154  1.00  0.00     0.109 A   
ATOM     11  O3  UNL     1       2.325  -4.355  -3.981  1.00  0.00    -0.316 OA  
ATOM     12  O2  UNL     1       2.458  -3.917  -1.614  1.00  0.00    -0.316 OA  
ATOM     13  C24 UNL     1       3.102  -4.497  -2.773  1.00  0.00     0.337 C   
ENDBRANCH   4   5
ENDBRANCH   1   4
BRANCH   1  14
ATOM     14  C8  UNL     1      -0.982   0.493  -1.281  1.00  0.00     0.117 C   
BRANCH  14  15
ATOM     15  C9  UNL     1      -1.083   0.595   0.208  1.00  0.00     0.127 A   
ATOM     16  C10 UNL     1      -0.115   0.705   1.181  1.00  0.00     0.135 A   
ATOM     17  N4  UNL     1      -2.311   0.538   0.804  1.00  0.00    -0.131 NA  
ATOM     18  N2  UNL     1      -0.807   0.730   2.377  1.00  0.00    -0.181 N   
ATOM     19  N3  UNL     1      -2.134   0.602   2.113  1.00  0.00    -0.071 NA  
BRANCH  18  20
ATOM     20  C11 UNL     1      -0.310   0.843   3.700  1.00  0.00     0.058 A   
ATOM     21  C12 UNL     1       1.075   0.986   3.940  1.00  0.00     0.029 A   
ATOM     22  C16 UNL     1      -1.212   0.801   4.779  1.00  0.00     0.032 A   
ATOM     23  C13 UNL     1       1.560   1.088   5.249  1.00  0.00     0.036 A   
ATOM     24  C15 UNL     1      -0.707   0.913   6.063  1.00  0.00    -0.013 A   
ATOM     25  C14 UNL     1       0.652   1.055   6.285  1.00  0.00     0.078 A   
ATOM     26  C17 UNL     1      -1.405   0.833   7.366  1.00  0.00     0.067 C   
ATOM     27  O1  UNL     1       0.990   1.134   7.609  1.00  0.00    -0.346 OA  
ATOM     28  C18 UNL     1      -0.280   1.332   8.275  1.00  0.00     0.173 C   
ENDBRANCH  18  20
ENDBRANCH  14  15
BRANCH  14  29
ATOM     29  C19 UNL     1      -1.080   1.873  -1.963  1.00  0.00     0.043 C   
ATOM     30  C20 UNL     1      -0.945   1.830  -3.490  1.00  0.00     0.010 C   
ATOM     31  C23 UNL     1       0.057   2.826  -1.578  1.00  0.00     0.010 C   
ATOM     32  C21 UNL     1      -0.521   3.239  -3.901  1.00  0.00     0.001 C   
ATOM     33  C22 UNL     1      -0.009   3.920  -2.635  1.00  0.00     0.001 C   
ENDBRANCH  14  29
ENDBRANCH   1  14
TORSDOF 6
