REMARK SMILES COc1cncc(CCn2cc([C@@H]([NH2+]Cc3ccc4c(c3)OCO4)C(C)(C)C)nn2)c1
REMARK SMILES IDX 10 1 11 2 12 3 29 4 30 5 9 7 8 8 7 9 3 10 4 11 31 12 5 13
REMARK SMILES IDX 6 14 2 15 1 16 13 17 14 18 15 21 16 22 17 23 21 24 18 25
REMARK SMILES IDX 20 26 19 27 22 28 24 29 23 30 25 31 26 32 27 33 28 34
REMARK H PARENT 11 6 14 19 14 20
ROOT
ATOM     1   N2  UNL     1      -0.023  -4.089   0.328  1.00  0.00    -0.212 N   
ATOM     2   C8  UNL     1      -0.832  -2.983   0.372  1.00  0.00     0.045 A   
ATOM     3   C9  UNL     1      -0.164  -2.110   1.204  1.00  0.00     0.127 A   
ATOM     4   N4  UNL     1       0.923  -2.764   1.734  1.00  0.00    -0.132 NA  
ATOM     5   N5  UNL     1       1.003  -3.965   1.183  1.00  0.00    -0.076 NA  
ATOM     6   H10 UNL     1      -1.692  -2.893  -0.275  1.00  0.00     0.083 HD  
ENDROOT
BRANCH   1   7
ATOM     7   C7  UNL     1       0.014  -5.090  -0.725  1.00  0.00     0.139 C   
BRANCH   7   8
ATOM     8   C6  UNL     1       1.034  -4.744  -1.828  1.00  0.00     0.058 C   
BRANCH   8   9
ATOM     9   C5  UNL     1       0.838  -3.351  -2.383  1.00  0.00    -0.025 A   
ATOM     10  C2  UNL     1      -0.362  -1.763  -3.754  1.00  0.00     0.093 A   
ATOM     11  C3  UNL     1       0.325  -0.754  -3.089  1.00  0.00     0.144 A   
ATOM     12  C23 UNL     1      -0.114  -3.079  -3.366  1.00  0.00     0.040 A   
ATOM     13  N1  UNL     1       1.222  -0.966  -2.086  1.00  0.00    -0.262 NA  
ATOM     14  C4  UNL     1       1.512  -2.267  -1.825  1.00  0.00     0.114 A   
BRANCH  10  15
ATOM     15  O1  UNL     1      -1.297  -1.609  -4.733  1.00  0.00    -0.348 OA  
ATOM     16  C1  UNL     1      -1.394  -0.322  -5.335  1.00  0.00     0.203 C   
ENDBRANCH  10  15
ENDBRANCH   8   9
ENDBRANCH   7   8
ENDBRANCH   1   7
BRANCH   3  17
ATOM     17  C10 UNL     1      -0.312  -0.637   1.470  1.00  0.00     0.120 C   
BRANCH  17  18
ATOM     18  N3  UNL     1       0.633   0.135   0.562  1.00  0.00     0.250 N   
ATOM     19  H12 UNL     1       0.632  -0.305  -0.378  1.00  0.00     0.199 HD  
ATOM     20  H13 UNL     1       0.313   1.093   0.418  1.00  0.00     0.199 HD  
BRANCH  18  21
ATOM     21  C11 UNL     1       2.064   0.197   0.986  1.00  0.00     0.164 C   
BRANCH  21  22
ATOM     22  C12 UNL     1       2.276   1.082   2.183  1.00  0.00    -0.002 A   
ATOM     23  C13 UNL     1       2.226   2.491   2.050  1.00  0.00     0.012 A   
ATOM     24  C17 UNL     1       2.493   0.515   3.451  1.00  0.00     0.045 A   
ATOM     25  C14 UNL     1       2.384   3.324   3.163  1.00  0.00     0.037 A   
ATOM     26  C16 UNL     1       2.643   1.364   4.527  1.00  0.00     0.109 A   
ATOM     27  C15 UNL     1       2.589   2.729   4.388  1.00  0.00     0.108 A   
ATOM     28  O2  UNL     1       2.850   0.982   5.814  1.00  0.00    -0.316 OA  
ATOM     29  O3  UNL     1       2.757   3.378   5.569  1.00  0.00    -0.316 OA  
ATOM     30  C18 UNL     1       2.950   2.265   6.470  1.00  0.00     0.337 C   
ENDBRANCH  21  22
ENDBRANCH  18  21
ENDBRANCH  17  18
BRANCH  17  31
ATOM     31  C19 UNL     1      -1.755  -0.023   1.394  1.00  0.00     0.010 C   
ATOM     32  C20 UNL     1      -1.745   1.390   2.035  1.00  0.00     0.017 C   
ATOM     33  C21 UNL     1      -2.290   0.127  -0.044  1.00  0.00     0.017 C   
ATOM     34  C22 UNL     1      -2.752  -0.868   2.217  1.00  0.00     0.017 C   
ENDBRANCH  17  31
ENDBRANCH   3  17
TORSDOF 9
