REMARK SMILES COc1ccc(-n2cc([C@@H]([NH2+]Cc3ccc4c(c3)OCO4)C3CCCCC3)nn2)c(C)c1
REMARK SMILES IDX 7 1 8 2 9 3 28 4 29 5 6 6 3 7 4 8 32 9 5 10 30 11 31 12 2 13
REMARK SMILES IDX 1 14 10 15 11 16 12 19 13 20 14 21 18 22 15 23 17 24 16 25
REMARK SMILES IDX 19 26 21 27 20 28 22 29 23 30 27 31 24 32 26 33 25 34
REMARK H PARENT 11 17 11 18
ROOT
ATOM     1   N1  UNL     1       3.107   1.004  -0.190  1.00  0.00    -0.180 N   
ATOM     2   C6  UNL     1       1.790   0.927  -0.620  1.00  0.00     0.135 A   
ATOM     3   C7  UNL     1       1.331  -0.297  -0.186  1.00  0.00     0.127 A   
ATOM     4   N3  UNL     1       2.348  -0.952   0.441  1.00  0.00    -0.131 NA  
ATOM     5   N4  UNL     1       3.411  -0.168   0.423  1.00  0.00    -0.071 NA  
ENDROOT
BRANCH   1   6
ATOM     6   C5  UNL     1       4.034   2.080  -0.338  1.00  0.00     0.061 A   
ATOM     7   C2  UNL     1       5.762   4.299  -0.689  1.00  0.00     0.075 A   
ATOM     8   C3  UNL     1       4.468   4.339  -1.187  1.00  0.00     0.035 A   
ATOM     9   C25 UNL     1       6.191   3.151  -0.021  1.00  0.00     0.038 A   
ATOM     10  C4  UNL     1       3.612   3.243  -1.014  1.00  0.00     0.029 A   
ATOM     11  C23 UNL     1       5.353   2.031   0.169  1.00  0.00    -0.025 A   
ATOM     12  C24 UNL     1       5.951   0.867   0.916  1.00  0.00     0.046 C   
BRANCH   7  13
ATOM     13  O1  UNL     1       6.696   5.292  -0.781  1.00  0.00    -0.349 OA  
ATOM     14  C1  UNL     1       6.299   6.501  -1.416  1.00  0.00     0.203 C   
ENDBRANCH   7  13
ENDBRANCH   1   6
BRANCH   3  15
ATOM     15  C8  UNL     1       0.006  -0.973  -0.333  1.00  0.00     0.117 C   
BRANCH  15  16
ATOM     16  N2  UNL     1       0.200  -2.476  -0.358  1.00  0.00     0.249 N   
ATOM     17  H8  UNL     1       0.889  -2.687   0.379  1.00  0.00     0.199 HD  
ATOM     18  H9  UNL     1      -0.669  -2.956  -0.106  1.00  0.00     0.199 HD  
BRANCH  16  19
ATOM     19  C9  UNL     1       0.723  -3.051  -1.632  1.00  0.00     0.164 C   
BRANCH  19  20
ATOM     20  C10 UNL     1      -0.322  -3.092  -2.712  1.00  0.00    -0.002 A   
ATOM     21  C11 UNL     1      -1.367  -4.046  -2.659  1.00  0.00     0.012 A   
ATOM     22  C15 UNL     1      -0.289  -2.162  -3.766  1.00  0.00     0.045 A   
ATOM     23  C12 UNL     1      -2.369  -4.070  -3.635  1.00  0.00     0.037 A   
ATOM     24  C14 UNL     1      -1.294  -2.211  -4.709  1.00  0.00     0.109 A   
ATOM     25  C13 UNL     1      -2.305  -3.137  -4.646  1.00  0.00     0.108 A   
ATOM     26  O2  UNL     1      -1.415  -1.382  -5.779  1.00  0.00    -0.316 OA  
ATOM     27  O3  UNL     1      -3.190  -3.010  -5.668  1.00  0.00    -0.316 OA  
ATOM     28  C16 UNL     1      -2.605  -1.915  -6.406  1.00  0.00     0.337 C   
ENDBRANCH  19  20
ENDBRANCH  16  19
ENDBRANCH  15  16
BRANCH  15  29
ATOM     29  C17 UNL     1      -1.012  -0.637   0.791  1.00  0.00     0.043 C   
ATOM     30  C18 UNL     1      -0.534  -1.008   2.209  1.00  0.00     0.010 C   
ATOM     31  C22 UNL     1      -1.446   0.841   0.746  1.00  0.00     0.010 C   
ATOM     32  C19 UNL     1      -1.596  -0.690   3.262  1.00  0.00     0.001 C   
ATOM     33  C21 UNL     1      -2.511   1.147   1.797  1.00  0.00     0.001 C   
ATOM     34  C20 UNL     1      -2.041   0.767   3.196  1.00  0.00     0.000 C   
ENDBRANCH  15  29
ENDBRANCH   3  15
TORSDOF 7
