REMARK SMILES O[C@@H](Cn1cc([C@@H]([NH2+]Cc2ccc3c(c2)OCO3)C2CCCC2)nn1)c1cccc(F)c1F
REMARK SMILES IDX 4 1 5 2 6 3 24 4 25 5 3 7 2 8 1 9 26 11 27 12 32 13 28 14
REMARK SMILES IDX 30 15 29 16 33 17 31 18 7 19 8 20 9 23 10 24 11 25 15 26
REMARK SMILES IDX 12 27 14 28 13 29 16 30 18 31 17 32 19 33 20 34 23 35 21 36
REMARK SMILES IDX 22 37
REMARK H PARENT 5 6 1 10 8 21 8 22
ROOT
ATOM     1   N1  UNL     1       1.402   0.936   2.929  1.00  0.00    -0.209 N   
ATOM     2   C3  UNL     1       0.054   1.143   3.002  1.00  0.00     0.045 A   
ATOM     3   C4  UNL     1      -0.478   0.121   2.248  1.00  0.00     0.127 A   
ATOM     4   N3  UNL     1       0.535  -0.707   1.835  1.00  0.00    -0.132 NA  
ATOM     5   N4  UNL     1       1.680  -0.198   2.259  1.00  0.00    -0.076 NA  
ATOM     6   H5  UNL     1      -0.369   2.015   3.480  1.00  0.00     0.083 HD  
ENDROOT
BRANCH   1   7
ATOM     7   C2  UNL     1       2.467   1.800   3.393  1.00  0.00     0.170 C   
BRANCH   7   8
ATOM     8   C1  UNL     1       2.636   3.087   2.567  1.00  0.00     0.167 C   
BRANCH   8   9
ATOM     9   O1  UNL     1       1.512   3.951   2.757  1.00  0.00    -0.387 OA  
ATOM     10  H1  UNL     1       1.609   4.702   2.142  1.00  0.00     0.211 HD  
ENDBRANCH   8   9
BRANCH   8  11
ATOM     11  C19 UNL     1       2.931   2.872   1.097  1.00  0.00     0.021 A   
ATOM     12  C20 UNL     1       4.263   2.848   0.649  1.00  0.00     0.010 A   
ATOM     13  C24 UNL     1       1.921   2.658   0.151  1.00  0.00     0.164 A   
ATOM     14  C21 UNL     1       4.563   2.620  -0.701  1.00  0.00     0.004 A   
ATOM     15  C23 UNL     1       2.223   2.421  -1.188  1.00  0.00     0.159 A   
ATOM     16  C22 UNL     1       3.539   2.403  -1.624  1.00  0.00     0.042 A   
ATOM     17  F2  UNL     1       0.632   2.657   0.520  1.00  0.00    -0.203 F   
ATOM     18  F1  UNL     1       1.231   2.194  -2.063  1.00  0.00    -0.204 F   
ENDBRANCH   8  11
ENDBRANCH   7   8
ENDBRANCH   1   7
BRANCH   3  19
ATOM     19  C5  UNL     1      -1.868  -0.095   1.750  1.00  0.00     0.117 C   
BRANCH  19  20
ATOM     20  N2  UNL     1      -1.846  -0.655   0.348  1.00  0.00     0.249 N   
ATOM     21  H7  UNL     1      -1.267  -1.505   0.370  1.00  0.00     0.199 HD  
ATOM     22  H8  UNL     1      -2.784  -0.939   0.051  1.00  0.00     0.199 HD  
BRANCH  20  23
ATOM     23  C6  UNL     1      -1.263   0.246  -0.691  1.00  0.00     0.164 C   
BRANCH  23  24
ATOM     24  C7  UNL     1      -1.414  -0.356  -2.061  1.00  0.00    -0.002 A   
ATOM     25  C8  UNL     1      -2.359   0.168  -2.976  1.00  0.00     0.012 A   
ATOM     26  C12 UNL     1      -0.626  -1.462  -2.433  1.00  0.00     0.045 A   
ATOM     27  C9  UNL     1      -2.512  -0.394  -4.247  1.00  0.00     0.037 A   
ATOM     28  C11 UNL     1      -0.813  -1.998  -3.689  1.00  0.00     0.109 A   
ATOM     29  C10 UNL     1      -1.727  -1.478  -4.573  1.00  0.00     0.108 A   
ATOM     30  O2  UNL     1      -0.148  -3.067  -4.199  1.00  0.00    -0.316 OA  
ATOM     31  O3  UNL     1      -1.743  -2.148  -5.754  1.00  0.00    -0.316 OA  
ATOM     32  C13 UNL     1      -0.740  -3.155  -5.516  1.00  0.00     0.337 C   
ENDBRANCH  23  24
ENDBRANCH  20  23
ENDBRANCH  19  20
BRANCH  19  33
ATOM     33  C14 UNL     1      -2.734  -1.027   2.619  1.00  0.00     0.043 C   
ATOM     34  C15 UNL     1      -2.943  -0.555   4.059  1.00  0.00     0.010 C   
ATOM     35  C18 UNL     1      -2.227  -2.463   2.804  1.00  0.00     0.010 C   
ATOM     36  C16 UNL     1      -3.585  -1.767   4.719  1.00  0.00     0.001 C   
ATOM     37  C17 UNL     1      -2.913  -2.975   4.073  1.00  0.00     0.001 C   
ENDBRANCH  19  33
ENDBRANCH   3  19
TORSDOF 9
