REMARK SMILES O[C@H](Cn1cc([C@@H]([NH2+]Cc2ccc3c(c2)OCO3)C2CCCC2)nn1)c1cccc(F)c1F
REMARK SMILES IDX 4 1 5 2 6 3 24 4 25 5 3 7 2 8 1 9 26 11 27 12 32 13 28 14
REMARK SMILES IDX 30 15 29 16 33 17 31 18 7 19 8 20 9 23 10 24 11 25 15 26
REMARK SMILES IDX 12 27 14 28 13 29 16 30 18 31 17 32 19 33 20 34 23 35 21 36
REMARK SMILES IDX 22 37
REMARK H PARENT 5 6 1 10 8 21 8 22
ROOT
ATOM     1   N1  UNL     1       2.433  -0.585  -0.976  1.00  0.00    -0.209 N   
ATOM     2   C3  UNL     1       1.497   0.411  -0.968  1.00  0.00     0.045 A   
ATOM     3   C4  UNL     1       1.001   0.386   0.317  1.00  0.00     0.127 A   
ATOM     4   N3  UNL     1       1.663  -0.575   1.037  1.00  0.00    -0.132 NA  
ATOM     5   N4  UNL     1       2.536  -1.160   0.236  1.00  0.00    -0.076 NA  
ATOM     6   H5  UNL     1       1.253   0.988  -1.850  1.00  0.00     0.083 HD  
ENDROOT
BRANCH   1   7
ATOM     7   C2  UNL     1       3.171  -1.115  -2.100  1.00  0.00     0.170 C   
BRANCH   7   8
ATOM     8   C1  UNL     1       2.305  -1.978  -3.028  1.00  0.00     0.167 C   
BRANCH   8   9
ATOM     9   O1  UNL     1       3.089  -2.354  -4.163  1.00  0.00    -0.387 OA  
ATOM     10  H1  UNL     1       2.593  -3.030  -4.660  1.00  0.00     0.211 HD  
ENDBRANCH   8   9
BRANCH   8  11
ATOM     11  C19 UNL     1       1.739  -3.205  -2.350  1.00  0.00     0.021 A   
ATOM     12  C20 UNL     1       2.486  -4.384  -2.204  1.00  0.00     0.010 A   
ATOM     13  C24 UNL     1       0.461  -3.158  -1.783  1.00  0.00     0.164 A   
ATOM     14  C21 UNL     1       1.952  -5.484  -1.522  1.00  0.00     0.004 A   
ATOM     15  C23 UNL     1      -0.061  -4.247  -1.094  1.00  0.00     0.159 A   
ATOM     16  C22 UNL     1       0.674  -5.416  -0.966  1.00  0.00     0.042 A   
ATOM     17  F2  UNL     1      -0.267  -2.034  -1.872  1.00  0.00    -0.203 F   
ATOM     18  F1  UNL     1      -1.276  -4.158  -0.532  1.00  0.00    -0.204 F   
ENDBRANCH   8  11
ENDBRANCH   7   8
ENDBRANCH   1   7
BRANCH   3  19
ATOM     19  C5  UNL     1      -0.112   1.141   0.968  1.00  0.00     0.117 C   
BRANCH  19  20
ATOM     20  N2  UNL     1      -0.831   0.222   1.934  1.00  0.00     0.249 N   
ATOM     21  H7  UNL     1      -0.091  -0.270   2.458  1.00  0.00     0.199 HD  
ATOM     22  H8  UNL     1      -1.376   0.753   2.616  1.00  0.00     0.199 HD  
BRANCH  20  23
ATOM     23  C6  UNL     1      -1.708  -0.820   1.318  1.00  0.00     0.164 C   
BRANCH  23  24
ATOM     24  C7  UNL     1      -2.938  -0.245   0.670  1.00  0.00    -0.002 A   
ATOM     25  C8  UNL     1      -3.174  -0.449  -0.710  1.00  0.00     0.012 A   
ATOM     26  C12 UNL     1      -3.869   0.490   1.426  1.00  0.00     0.045 A   
ATOM     27  C9  UNL     1      -4.306   0.086  -1.335  1.00  0.00     0.037 A   
ATOM     28  C11 UNL     1      -4.972   1.006   0.780  1.00  0.00     0.109 A   
ATOM     29  C10 UNL     1      -5.186   0.808  -0.561  1.00  0.00     0.108 A   
ATOM     30  O2  UNL     1      -5.953   1.743   1.361  1.00  0.00    -0.316 OA  
ATOM     31  O3  UNL     1      -6.332   1.395  -0.993  1.00  0.00    -0.316 OA  
ATOM     32  C13 UNL     1      -6.831   1.966   0.234  1.00  0.00     0.337 C   
ENDBRANCH  23  24
ENDBRANCH  20  23
ENDBRANCH  19  20
BRANCH  19  33
ATOM     33  C14 UNL     1       0.406   2.362   1.755  1.00  0.00     0.043 C   
ATOM     34  C15 UNL     1      -0.694   3.190   2.429  1.00  0.00     0.010 C   
ATOM     35  C18 UNL     1       1.085   3.412   0.870  1.00  0.00     0.010 C   
ATOM     36  C16 UNL     1      -0.073   4.566   2.665  1.00  0.00     0.001 C   
ATOM     37  C17 UNL     1       1.147   4.648   1.754  1.00  0.00     0.001 C   
ENDBRANCH  19  33
ENDBRANCH   3  19
TORSDOF 9
