REMARK SMILES CC(C)[C@H]([NH2+]Cc1ccc2c(c1)OCO2)c1cn(CCc2csc(C3CC3)n2)nn1
REMARK SMILES IDX 16 1 17 2 18 3 29 4 30 5 4 7 2 8 1 9 3 10 5 11 6 14 7 15
REMARK SMILES IDX 8 16 12 17 9 18 11 19 10 20 13 21 15 22 14 23 19 24 20 25
REMARK SMILES IDX 21 26 22 27 28 28 23 29 24 30 25 31 26 32 27 33
REMARK H PARENT 17 6 5 12 5 13
ROOT
ATOM     1   C13 UNL     1      -0.589  -1.709   1.213  1.00  0.00     0.127 A   
ATOM     2   C14 UNL     1       0.583  -2.431   1.256  1.00  0.00     0.045 A   
ATOM     3   N2  UNL     1       0.605  -3.080   0.056  1.00  0.00    -0.212 N   
ATOM     4   N4  UNL     1      -0.516  -2.842  -0.648  1.00  0.00    -0.076 NA  
ATOM     5   N5  UNL     1      -1.253  -1.993   0.047  1.00  0.00    -0.132 NA  
ATOM     6   H18 UNL     1       1.409  -2.470   1.952  1.00  0.00     0.083 HD  
ENDROOT
BRANCH   1   7
ATOM     7   C4  UNL     1      -1.101  -0.628   2.102  1.00  0.00     0.117 C   
BRANCH   7   8
ATOM     8   C2  UNL     1      -2.242  -1.059   3.054  1.00  0.00     0.037 C   
ATOM     9   C1  UNL     1      -3.507  -1.562   2.350  1.00  0.00     0.014 C   
ATOM     10  C3  UNL     1      -1.760  -2.109   4.062  1.00  0.00     0.014 C   
ENDBRANCH   7   8
BRANCH   7  11
ATOM     11  N1  UNL     1      -1.575   0.524   1.253  1.00  0.00     0.249 N   
ATOM     12  H9  UNL     1      -2.153   1.178   1.790  1.00  0.00     0.199 HD  
ATOM     13  H10 UNL     1      -2.180   0.125   0.520  1.00  0.00     0.199 HD  
BRANCH  11  14
ATOM     14  C5  UNL     1      -0.489   1.270   0.553  1.00  0.00     0.164 C   
BRANCH  14  15
ATOM     15  C6  UNL     1      -1.065   2.381  -0.279  1.00  0.00    -0.002 A   
ATOM     16  C7  UNL     1      -1.450   2.136  -1.619  1.00  0.00     0.012 A   
ATOM     17  C11 UNL     1      -1.272   3.652   0.281  1.00  0.00     0.045 A   
ATOM     18  C8  UNL     1      -2.022   3.147  -2.398  1.00  0.00     0.037 A   
ATOM     19  C10 UNL     1      -1.838   4.627  -0.515  1.00  0.00     0.109 A   
ATOM     20  C9  UNL     1      -2.203   4.383  -1.816  1.00  0.00     0.108 A   
ATOM     21  O1  UNL     1      -2.106   5.902  -0.131  1.00  0.00    -0.316 OA  
ATOM     22  O2  UNL     1      -2.743   5.474  -2.416  1.00  0.00    -0.316 OA  
ATOM     23  C12 UNL     1      -2.664   6.444  -1.350  1.00  0.00     0.337 C   
ENDBRANCH  14  15
ENDBRANCH  11  14
ENDBRANCH   7  11
ENDBRANCH   1   7
BRANCH   3  24
ATOM     24  C15 UNL     1       1.685  -3.848  -0.525  1.00  0.00     0.140 C   
BRANCH  24  25
ATOM     25  C16 UNL     1       2.546  -3.011  -1.467  1.00  0.00     0.078 C   
BRANCH  25  26
ATOM     26  C17 UNL     1       3.407  -2.017  -0.747  1.00  0.00     0.050 A   
ATOM     27  C18 UNL     1       4.721  -2.209  -0.360  1.00  0.00     0.071 A   
ATOM     28  N3  UNL     1       2.880  -0.769  -0.423  1.00  0.00    -0.250 NA  
ATOM     29  S1  UNL     1       5.329  -0.795   0.390  1.00  0.00    -0.080 S   
ATOM     30  C19 UNL     1       3.824  -0.031   0.120  1.00  0.00     0.081 A   
BRANCH  30  31
ATOM     31  C20 UNL     1       3.579   1.463   0.514  1.00  0.00     0.045 C   
ATOM     32  C21 UNL     1       4.290   2.540  -0.268  1.00  0.00     0.011 C   
ATOM     33  C22 UNL     1       2.809   2.360  -0.422  1.00  0.00     0.011 C   
ENDBRANCH  30  31
ENDBRANCH  25  26
ENDBRANCH  24  25
ENDBRANCH   3  24
TORSDOF 9
