REMARK SMILES CC(C)[C@H]([NH2+]Cc1ccc2c(c1)OCO2)c1cn([C@@H](CO)c2ccsc2)nn1
REMARK SMILES IDX 16 1 17 2 18 3 27 4 28 5 4 7 2 8 1 9 3 10 5 11 6 14 7 15
REMARK SMILES IDX 8 16 12 17 9 18 11 19 10 20 13 21 15 22 14 23 19 24 20 25
REMARK SMILES IDX 21 26 22 28 23 29 26 30 24 31 25 32
REMARK H PARENT 17 6 5 12 5 13 21 27
ROOT
ATOM     1   C13 UNL     1       0.230  -0.969  -0.062  1.00  0.00     0.127 A   
ATOM     2   C14 UNL     1       1.559  -0.674   0.137  1.00  0.00     0.046 A   
ATOM     3   N2  UNL     1       2.228  -1.592  -0.629  1.00  0.00    -0.202 N   
ATOM     4   N3  UNL     1       1.353  -2.367  -1.308  1.00  0.00    -0.075 NA  
ATOM     5   N4  UNL     1       0.130  -2.002  -0.958  1.00  0.00    -0.132 NA  
ATOM     6   H18 UNL     1       2.076   0.064   0.734  1.00  0.00     0.083 HD  
ENDROOT
BRANCH   1   7
ATOM     7   C4  UNL     1      -1.009  -0.334   0.477  1.00  0.00     0.117 C   
BRANCH   7   8
ATOM     8   C2  UNL     1      -1.505  -0.946   1.815  1.00  0.00     0.037 C   
ATOM     9   C1  UNL     1      -1.826  -2.443   1.743  1.00  0.00     0.014 C   
ATOM     10  C3  UNL     1      -0.516  -0.684   2.957  1.00  0.00     0.014 C   
ENDBRANCH   7   8
BRANCH   7  11
ATOM     11  N1  UNL     1      -2.128  -0.446  -0.539  1.00  0.00     0.249 N   
ATOM     12  H9  UNL     1      -2.111  -1.420  -0.872  1.00  0.00     0.199 HD  
ATOM     13  H10 UNL     1      -3.035  -0.289  -0.092  1.00  0.00     0.199 HD  
BRANCH  11  14
ATOM     14  C5  UNL     1      -2.011   0.429  -1.742  1.00  0.00     0.164 C   
BRANCH  14  15
ATOM     15  C6  UNL     1      -2.282   1.876  -1.435  1.00  0.00    -0.002 A   
ATOM     16  C7  UNL     1      -3.608   2.327  -1.227  1.00  0.00     0.012 A   
ATOM     17  C11 UNL     1      -1.217   2.786  -1.324  1.00  0.00     0.045 A   
ATOM     18  C8  UNL     1      -3.870   3.664  -0.910  1.00  0.00     0.037 A   
ATOM     19  C10 UNL     1      -1.510   4.096  -1.009  1.00  0.00     0.109 A   
ATOM     20  C9  UNL     1      -2.799   4.523  -0.807  1.00  0.00     0.108 A   
ATOM     21  O1  UNL     1      -0.602   5.095  -0.857  1.00  0.00    -0.316 OA  
ATOM     22  O2  UNL     1      -2.865   5.846  -0.507  1.00  0.00    -0.316 OA  
ATOM     23  C12 UNL     1      -1.470   6.213  -0.564  1.00  0.00     0.337 C   
ENDBRANCH  14  15
ENDBRANCH  11  14
ENDBRANCH   7  11
ENDBRANCH   1   7
BRANCH   3  24
ATOM     24  C15 UNL     1       3.667  -1.797  -0.785  1.00  0.00     0.156 C   
BRANCH  24  25
ATOM     25  C16 UNL     1       4.294  -0.764  -1.738  1.00  0.00     0.185 C   
BRANCH  25  26
ATOM     26  O3  UNL     1       4.079   0.586  -1.321  1.00  0.00    -0.394 OA  
ATOM     27  H22 UNL     1       4.604   1.153  -1.917  1.00  0.00     0.210 HD  
ENDBRANCH  25  26
ENDBRANCH  24  25
BRANCH  24  28
ATOM     28  C17 UNL     1       4.338  -1.931   0.571  1.00  0.00    -0.016 A   
ATOM     29  C18 UNL     1       4.464  -3.183   1.272  1.00  0.00     0.013 A   
ATOM     30  C20 UNL     1       4.908  -0.911   1.315  1.00  0.00     0.051 A   
ATOM     31  C19 UNL     1       5.104  -3.058   2.485  1.00  0.00     0.046 A   
ATOM     32  S1  UNL     1       5.558  -1.445   2.804  1.00  0.00    -0.106 S   
ENDBRANCH  24  28
ENDBRANCH   3  24
TORSDOF 9
