REMARK SMILES CC(C)[C@H]([NH2+]Cc1ccc2c(c1)OCO2)c1cn(Cc2cc(Cl)cnc2F)nn1
REMARK SMILES IDX 16 1 17 2 18 3 28 4 29 5 4 7 2 8 1 9 3 10 5 11 6 14 7 15
REMARK SMILES IDX 8 16 12 17 9 18 11 19 10 20 13 21 15 22 14 23 19 24 20 25
REMARK SMILES IDX 21 26 26 27 22 28 25 29 24 30 27 31 23 32
REMARK H PARENT 17 6 5 12 5 13
ROOT
ATOM     1   C13 UNL     1      -1.583   0.141  -0.745  1.00  0.00     0.127 A   
ATOM     2   C14 UNL     1      -1.734   0.658  -2.013  1.00  0.00     0.046 A   
ATOM     3   N2  UNL     1      -1.393   1.976  -1.877  1.00  0.00    -0.208 N   
ATOM     4   N4  UNL     1      -1.058   2.256  -0.603  1.00  0.00    -0.076 NA  
ATOM     5   N5  UNL     1      -1.169   1.141   0.100  1.00  0.00    -0.132 NA  
ATOM     6   H18 UNL     1      -2.017   0.227  -2.964  1.00  0.00     0.083 HD  
ENDROOT
BRANCH   1   7
ATOM     7   C4  UNL     1      -1.721  -1.252  -0.220  1.00  0.00     0.117 C   
BRANCH   7   8
ATOM     8   C2  UNL     1      -3.138  -1.595   0.309  1.00  0.00     0.037 C   
ATOM     9   C1  UNL     1      -3.613  -0.703   1.461  1.00  0.00     0.014 C   
ATOM     10  C3  UNL     1      -4.179  -1.587  -0.816  1.00  0.00     0.014 C   
ENDBRANCH   7   8
BRANCH   7  11
ATOM     11  N1  UNL     1      -0.728  -1.481   0.892  1.00  0.00     0.249 N   
ATOM     12  H9  UNL     1      -0.993  -2.280   1.477  1.00  0.00     0.199 HD  
ATOM     13  H10 UNL     1      -0.766  -0.649   1.501  1.00  0.00     0.199 HD  
BRANCH  11  14
ATOM     14  C5  UNL     1       0.689  -1.641   0.459  1.00  0.00     0.164 C   
BRANCH  14  15
ATOM     15  C6  UNL     1       1.589  -1.782   1.653  1.00  0.00    -0.002 A   
ATOM     16  C7  UNL     1       1.942  -3.063   2.139  1.00  0.00     0.012 A   
ATOM     17  C11 UNL     1       2.042  -0.635   2.328  1.00  0.00     0.045 A   
ATOM     18  C8  UNL     1       2.745  -3.203   3.276  1.00  0.00     0.037 A   
ATOM     19  C10 UNL     1       2.832  -0.808   3.446  1.00  0.00     0.109 A   
ATOM     20  C9  UNL     1       3.174  -2.055   3.907  1.00  0.00     0.108 A   
ATOM     21  O1  UNL     1       3.350   0.188   4.209  1.00  0.00    -0.316 OA  
ATOM     22  O2  UNL     1       3.953  -2.001   5.018  1.00  0.00    -0.316 OA  
ATOM     23  C12 UNL     1       4.084  -0.574   5.194  1.00  0.00     0.337 C   
ENDBRANCH  14  15
ENDBRANCH  11  14
ENDBRANCH   7  11
ENDBRANCH   1   7
BRANCH   3  24
ATOM     24  C15 UNL     1      -1.333   3.004  -2.902  1.00  0.00     0.174 C   
BRANCH  24  25
ATOM     25  C16 UNL     1       0.079   3.237  -3.351  1.00  0.00     0.028 A   
ATOM     26  C17 UNL     1       0.799   4.380  -2.980  1.00  0.00     0.032 A   
ATOM     27  C20 UNL     1       0.732   2.292  -4.137  1.00  0.00     0.217 A   
ATOM     28  C18 UNL     1       2.115   4.527  -3.409  1.00  0.00     0.059 A   
ATOM     29  N3  UNL     1       2.008   2.402  -4.557  1.00  0.00    -0.226 NA  
ATOM     30  C19 UNL     1       2.671   3.524  -4.189  1.00  0.00     0.134 A   
ATOM     31  F1  UNL     1       0.068   1.182  -4.492  1.00  0.00    -0.185 F   
ATOM     32  CL1 UNL     1       3.024   5.913  -2.971  1.00  0.00    -0.083 Cl  
ENDBRANCH  24  25
ENDBRANCH   3  24
TORSDOF 7
