REMARK SMILES CC(C)C[C@H]([NH2+]Cc1ccc2c(c1)OCO2)c1cn(Cc2c[nH]nc2-c2ccoc2)nn1
REMARK SMILES IDX 17 1 18 2 19 3 31 4 32 5 5 7 4 8 2 9 1 10 3 11 6 12 7 15
REMARK SMILES IDX 8 16 9 17 13 18 10 19 12 20 11 21 14 22 16 23 15 24 20 25
REMARK SMILES IDX 21 26 22 27 25 28 23 29 24 30 26 32 27 33 30 34 28 35 29 36
REMARK H PARENT 18 6 6 13 6 14 23 31
ROOT
ATOM     1   C14 UNL     1       0.045   2.360   0.224  1.00  0.00     0.127 A   
ATOM     2   C15 UNL     1      -1.043   2.736   0.982  1.00  0.00     0.046 A   
ATOM     3   N2  UNL     1      -0.545   2.821   2.257  1.00  0.00    -0.208 N   
ATOM     4   N5  UNL     1       0.794   2.671   2.254  1.00  0.00    -0.076 NA  
ATOM     5   N6  UNL     1       1.164   2.370   1.020  1.00  0.00    -0.132 NA  
ATOM     6   H20 UNL     1      -2.102   2.822   0.774  1.00  0.00     0.083 HD  
ENDROOT
BRANCH   1   7
ATOM     7   C5  UNL     1       0.179   1.811  -1.165  1.00  0.00     0.114 C   
BRANCH   7   8
ATOM     8   C4  UNL     1      -1.140   1.689  -1.945  1.00  0.00     0.064 C   
BRANCH   8   9
ATOM     9   C2  UNL     1      -1.746   3.038  -2.399  1.00  0.00    -0.012 C   
ATOM     10  C1  UNL     1      -3.155   2.808  -2.963  1.00  0.00     0.007 C   
ATOM     11  C3  UNL     1      -0.879   3.735  -3.454  1.00  0.00     0.007 C   
ENDBRANCH   8   9
ENDBRANCH   7   8
BRANCH   7  12
ATOM     12  N1  UNL     1       0.797   0.440  -1.011  1.00  0.00     0.249 N   
ATOM     13  H11 UNL     1       0.154  -0.189  -0.506  1.00  0.00     0.199 HD  
ATOM     14  H12 UNL     1       1.577   0.559  -0.345  1.00  0.00     0.199 HD  
BRANCH  12  15
ATOM     15  C6  UNL     1       1.326  -0.228  -2.221  1.00  0.00     0.164 C   
BRANCH  15  16
ATOM     16  C7  UNL     1       2.272  -1.336  -1.847  1.00  0.00    -0.002 A   
ATOM     17  C8  UNL     1       1.771  -2.578  -1.385  1.00  0.00     0.012 A   
ATOM     18  C12 UNL     1       3.663  -1.130  -1.905  1.00  0.00     0.045 A   
ATOM     19  C9  UNL     1       2.640  -3.605  -0.994  1.00  0.00     0.037 A   
ATOM     20  C11 UNL     1       4.492  -2.164  -1.515  1.00  0.00     0.109 A   
ATOM     21  C10 UNL     1       3.996  -3.367  -1.071  1.00  0.00     0.108 A   
ATOM     22  O1  UNL     1       5.853  -2.132  -1.519  1.00  0.00    -0.316 OA  
ATOM     23  O2  UNL     1       4.982  -4.243  -0.734  1.00  0.00    -0.316 OA  
ATOM     24  C13 UNL     1       6.162  -3.461  -1.032  1.00  0.00     0.337 C   
ENDBRANCH  15  16
ENDBRANCH  12  15
ENDBRANCH   7  12
ENDBRANCH   1   7
BRANCH   3  25
ATOM     25  C16 UNL     1      -1.268   2.874   3.523  1.00  0.00     0.173 C   
BRANCH  25  26
ATOM     26  C17 UNL     1      -2.464   1.975   3.550  1.00  0.00     0.015 A   
ATOM     27  C18 UNL     1      -3.718   2.293   4.040  1.00  0.00     0.099 A   
ATOM     28  C19 UNL     1      -2.623   0.635   3.087  1.00  0.00     0.097 A   
ATOM     29  N3  UNL     1      -4.518   1.213   3.815  1.00  0.00    -0.245 N   
ATOM     30  N4  UNL     1      -3.888   0.221   3.174  1.00  0.00    -0.184 NA  
ATOM     31  H24 UNL     1      -5.499   1.092   4.053  1.00  0.00     0.175 HD  
BRANCH  28  32
ATOM     32  C20 UNL     1      -1.597  -0.202   2.476  1.00  0.00     0.028 A   
ATOM     33  C21 UNL     1      -0.287  -0.432   2.964  1.00  0.00     0.038 A   
ATOM     34  C23 UNL     1      -1.716  -0.938   1.320  1.00  0.00     0.145 A   
ATOM     35  C22 UNL     1       0.320  -1.261   2.045  1.00  0.00     0.136 A   
ATOM     36  O3  UNL     1      -0.525  -1.523   1.008  1.00  0.00    -0.325 OA  
ENDBRANCH  28  32
ENDBRANCH  25  26
ENDBRANCH   3  25
TORSDOF 9
