REMARK SMILES Fc1cc(F)cc(Cn2cc([C@@H]([NH2+]Cc3ccc4c(c3)OCO4)C3CCCCC3)nn2)c1
REMARK SMILES IDX 9 1 10 2 11 3 30 4 31 5 8 7 7 8 2 9 3 10 32 11 4 12 6 13
REMARK SMILES IDX 1 14 5 15 12 16 13 17 14 20 15 21 16 22 20 23 17 24 19 25
REMARK SMILES IDX 18 26 21 27 23 28 22 29 24 30 25 31 29 32 26 33 28 34 27 35
REMARK H PARENT 10 6 13 18 13 19
ROOT
ATOM     1   N1  UNL     1      -1.011   2.399   0.928  1.00  0.00    -0.208 N   
ATOM     2   C7  UNL     1      -0.994   1.036   0.812  1.00  0.00     0.046 A   
ATOM     3   C8  UNL     1       0.333   0.705   0.976  1.00  0.00     0.127 A   
ATOM     4   N3  UNL     1       1.060   1.850   1.182  1.00  0.00    -0.132 NA  
ATOM     5   N4  UNL     1       0.228   2.878   1.145  1.00  0.00    -0.076 NA  
ATOM     6   H5  UNL     1      -1.886   0.459   0.612  1.00  0.00     0.083 HD  
ENDROOT
BRANCH   1   7
ATOM     7   C6  UNL     1      -2.145   3.301   0.801  1.00  0.00     0.169 C   
BRANCH   7   8
ATOM     8   C5  UNL     1      -2.573   3.425  -0.640  1.00  0.00    -0.023 A   
ATOM     9   C1  UNL     1      -4.128   2.932  -2.433  1.00  0.00     0.126 A   
ATOM     10  C2  UNL     1      -3.343   3.622  -3.345  1.00  0.00     0.078 A   
ATOM     11  C24 UNL     1      -3.758   2.827  -1.093  1.00  0.00     0.045 A   
ATOM     12  C3  UNL     1      -2.173   4.216  -2.899  1.00  0.00     0.126 A   
ATOM     13  C4  UNL     1      -1.782   4.128  -1.563  1.00  0.00     0.045 A   
ATOM     14  F1  UNL     1      -5.258   2.345  -2.845  1.00  0.00    -0.207 F   
ATOM     15  F2  UNL     1      -1.396   4.877  -3.765  1.00  0.00    -0.207 F   
ENDBRANCH   7   8
ENDBRANCH   1   7
BRANCH   3  16
ATOM     16  C9  UNL     1       1.039  -0.609   0.883  1.00  0.00     0.117 C   
BRANCH  16  17
ATOM     17  N2  UNL     1       2.411  -0.427   0.263  1.00  0.00     0.249 N   
ATOM     18  H7  UNL     1       2.964  -1.281   0.376  1.00  0.00     0.199 HD  
ATOM     19  H8  UNL     1       2.876   0.318   0.800  1.00  0.00     0.199 HD  
BRANCH  17  20
ATOM     20  C10 UNL     1       2.445  -0.004  -1.170  1.00  0.00     0.164 C   
BRANCH  20  21
ATOM     21  C11 UNL     1       1.839  -1.016  -2.101  1.00  0.00    -0.002 A   
ATOM     22  C12 UNL     1       2.518  -2.223  -2.392  1.00  0.00     0.012 A   
ATOM     23  C16 UNL     1       0.571  -0.782  -2.663  1.00  0.00     0.045 A   
ATOM     24  C13 UNL     1       1.942  -3.188  -3.226  1.00  0.00     0.037 A   
ATOM     25  C15 UNL     1       0.031  -1.755  -3.478  1.00  0.00     0.109 A   
ATOM     26  C14 UNL     1       0.697  -2.924  -3.751  1.00  0.00     0.108 A   
ATOM     27  O1  UNL     1      -1.181  -1.692  -4.088  1.00  0.00    -0.316 OA  
ATOM     28  O2  UNL     1      -0.012  -3.744  -4.571  1.00  0.00    -0.316 OA  
ATOM     29  C17 UNL     1      -1.188  -2.943  -4.814  1.00  0.00     0.337 C   
ENDBRANCH  20  21
ENDBRANCH  17  20
ENDBRANCH  16  17
BRANCH  16  30
ATOM     30  C18 UNL     1       1.211  -1.342   2.241  1.00  0.00     0.043 C   
ATOM     31  C19 UNL     1      -0.149  -1.780   2.822  1.00  0.00     0.010 C   
ATOM     32  C23 UNL     1       2.009  -0.551   3.297  1.00  0.00     0.010 C   
ATOM     33  C20 UNL     1       0.020  -2.575   4.115  1.00  0.00     0.001 C   
ATOM     34  C22 UNL     1       2.168  -1.345   4.594  1.00  0.00     0.001 C   
ATOM     35  C21 UNL     1       0.822  -1.795   5.151  1.00  0.00     0.000 C   
ENDBRANCH  16  30
ENDBRANCH   3  16
TORSDOF 7
