REMARK SMILES CC(C)[C@H]([NH2+]Cc1ccc2c(c1)OCO2)c1cn(Cc2cccc(N([O-])[O-])c2F)nn1
REMARK SMILES IDX 16 1 17 2 18 3 30 4 31 5 4 7 2 8 1 9 3 10 5 11 6 14 7 15
REMARK SMILES IDX 8 16 12 17 9 18 11 19 10 20 13 21 15 22 14 23 19 24 20 25
REMARK SMILES IDX 21 26 28 27 22 28 24 29 23 30 29 31 25 32 26 33 27 34
REMARK H PARENT 17 6 5 12 5 13
ROOT
ATOM     1   C13 UNL     1      -1.521   0.100   0.147  1.00  0.00     0.127 A   
ATOM     2   C14 UNL     1      -1.507  -1.117  -0.496  1.00  0.00     0.046 A   
ATOM     3   N2  UNL     1      -1.758  -0.795  -1.804  1.00  0.00    -0.208 N   
ATOM     4   N4  UNL     1      -2.062   0.510  -1.925  1.00  0.00    -0.076 NA  
ATOM     5   N5  UNL     1      -1.900   1.073  -0.740  1.00  0.00    -0.132 NA  
ATOM     6   H18 UNL     1      -1.245  -2.119  -0.184  1.00  0.00     0.083 HD  
ENDROOT
BRANCH   1   7
ATOM     7   C4  UNL     1      -1.072   0.489   1.517  1.00  0.00     0.117 C   
BRANCH   7   8
ATOM     8   C2  UNL     1      -2.216   0.629   2.553  1.00  0.00     0.037 C   
ATOM     9   C1  UNL     1      -3.254   1.704   2.210  1.00  0.00     0.014 C   
ATOM     10  C3  UNL     1      -2.920  -0.714   2.795  1.00  0.00     0.014 C   
ENDBRANCH   7   8
BRANCH   7  11
ATOM     11  N1  UNL     1      -0.310   1.790   1.449  1.00  0.00     0.249 N   
ATOM     12  H9  UNL     1      -0.204   2.216   2.376  1.00  0.00     0.199 HD  
ATOM     13  H10 UNL     1      -0.878   2.441   0.889  1.00  0.00     0.199 HD  
BRANCH  11  14
ATOM     14  C5  UNL     1       1.031   1.718   0.791  1.00  0.00     0.164 C   
BRANCH  14  15
ATOM     15  C6  UNL     1       1.663   3.081   0.760  1.00  0.00    -0.002 A   
ATOM     16  C7  UNL     1       2.625   3.450   1.730  1.00  0.00     0.012 A   
ATOM     17  C11 UNL     1       1.266   4.017  -0.211  1.00  0.00     0.045 A   
ATOM     18  C8  UNL     1       3.191   4.730   1.730  1.00  0.00     0.037 A   
ATOM     19  C10 UNL     1       1.837   5.272  -0.178  1.00  0.00     0.109 A   
ATOM     20  C9  UNL     1       2.775   5.619   0.763  1.00  0.00     0.108 A   
ATOM     21  O1  UNL     1       1.567   6.290  -1.034  1.00  0.00    -0.316 OA  
ATOM     22  O2  UNL     1       3.216   6.897   0.615  1.00  0.00    -0.316 OA  
ATOM     23  C12 UNL     1       2.451   7.317  -0.535  1.00  0.00     0.337 C   
ENDBRANCH  14  15
ENDBRANCH  11  14
ENDBRANCH   7  11
ENDBRANCH   1   7
BRANCH   3  24
ATOM     24  C15 UNL     1      -1.559  -1.617  -2.993  1.00  0.00     0.172 C   
BRANCH  24  25
ATOM     25  C16 UNL     1      -0.196  -2.273  -3.024  1.00  0.00     0.009 A   
ATOM     26  C17 UNL     1      -0.064  -3.609  -3.439  1.00  0.00     0.008 A   
ATOM     27  C21 UNL     1       0.965  -1.573  -2.667  1.00  0.00     0.156 A   
ATOM     28  C18 UNL     1       1.189  -4.239  -3.450  1.00  0.00     0.003 A   
ATOM     29  C20 UNL     1       2.201  -2.217  -2.636  1.00  0.00     0.154 A   
ATOM     30  C19 UNL     1       2.329  -3.550  -3.035  1.00  0.00     0.034 A   
ATOM     31  F1  UNL     1       0.874  -0.278  -2.332  1.00  0.00    -0.204 F   
BRANCH  29  32
ATOM     32  N3  UNL     1       3.354  -1.501  -2.123  1.00  0.00     0.095 N   
ATOM     33  O3  UNL     1       3.174  -0.761  -1.138  1.00  0.00    -0.138 OA  
ATOM     34  O4  UNL     1       4.441  -1.709  -2.675  1.00  0.00    -0.138 OA  
ENDBRANCH  29  32
ENDBRANCH  24  25
ENDBRANCH   3  24
TORSDOF 8
