REMARK SMILES O=C(c1ccc2c(c1)OCO2)n1cc([C@@H]([NH2+]Cc2ccc3c(c2)OCO3)C2CCCC2)nn1
REMARK SMILES IDX 15 1 14 2 12 3 13 4 33 5 32 6 2 7 1 8 3 9 4 10 8 11 5 12
REMARK SMILES IDX 7 13 6 14 9 15 11 16 10 17 16 18 17 21 18 22 19 23 23 24
REMARK SMILES IDX 20 25 22 26 21 27 24 28 26 29 25 30 27 31 28 32 31 33 29 34
REMARK SMILES IDX 30 35
REMARK H PARENT 16 19 16 20
ROOT
ATOM     1   C11 UNL     1       1.749  -0.182   0.472  1.00  0.00     0.117 C   
ENDROOT
BRANCH   1   2
ATOM     2   C10 UNL     1       0.463  -0.282   1.233  1.00  0.00     0.128 A   
ATOM     3   N1  UNL     1      -1.172  -0.588   2.659  1.00  0.00    -0.143 N   
ATOM     4   C9  UNL     1       0.192  -0.760   2.492  1.00  0.00     0.139 A   
ATOM     5   N4  UNL     1      -1.686  -0.042   1.529  1.00  0.00    -0.068 NA  
ATOM     6   N3  UNL     1      -0.705   0.146   0.661  1.00  0.00    -0.131 NA  
BRANCH   3   7
ATOM     7   C1  UNL     1      -1.950  -0.870   3.793  1.00  0.00     0.271 C   
ATOM     8   O1  UNL     1      -1.331  -1.278   4.775  1.00  0.00    -0.269 OA  
BRANCH   7   9
ATOM     9   C2  UNL     1      -3.425  -0.701   3.902  1.00  0.00     0.042 A   
ATOM     10  C3  UNL     1      -3.960  -0.383   5.174  1.00  0.00     0.016 A   
ATOM     11  C7  UNL     1      -4.281  -0.890   2.810  1.00  0.00     0.050 A   
ATOM     12  C4  UNL     1      -5.338  -0.225   5.354  1.00  0.00     0.037 A   
ATOM     13  C6  UNL     1      -5.636  -0.729   3.024  1.00  0.00     0.109 A   
ATOM     14  C5  UNL     1      -6.149  -0.403   4.256  1.00  0.00     0.108 A   
ATOM     15  O2  UNL     1      -6.605  -0.874   2.081  1.00  0.00    -0.316 OA  
ATOM     16  O3  UNL     1      -7.504  -0.296   4.242  1.00  0.00    -0.316 OA  
ATOM     17  C8  UNL     1      -7.790  -0.601   2.861  1.00  0.00     0.337 C   
ENDBRANCH   7   9
ENDBRANCH   3   7
ENDBRANCH   1   2
BRANCH   1  18
ATOM     18  N2  UNL     1       1.481  -0.093  -1.006  1.00  0.00     0.249 N   
ATOM     19  H8  UNL     1       2.253   0.350  -1.513  1.00  0.00     0.199 HD  
ATOM     20  H9  UNL     1       0.668   0.530  -1.129  1.00  0.00     0.199 HD  
BRANCH  18  21
ATOM     21  C12 UNL     1       1.148  -1.384  -1.671  1.00  0.00     0.164 C   
BRANCH  21  22
ATOM     22  C13 UNL     1       0.812  -1.155  -3.116  1.00  0.00    -0.002 A   
ATOM     23  C14 UNL     1      -0.517  -0.851  -3.497  1.00  0.00     0.012 A   
ATOM     24  C18 UNL     1       1.823  -1.186  -4.092  1.00  0.00     0.045 A   
ATOM     25  C15 UNL     1      -0.840  -0.594  -4.834  1.00  0.00     0.037 A   
ATOM     26  C17 UNL     1       1.470  -0.927  -5.400  1.00  0.00     0.109 A   
ATOM     27  C16 UNL     1       0.177  -0.639  -5.762  1.00  0.00     0.108 A   
ATOM     28  O4  UNL     1       2.320  -0.920  -6.460  1.00  0.00    -0.316 OA  
ATOM     29  O5  UNL     1       0.050  -0.418  -7.096  1.00  0.00    -0.316 OA  
ATOM     30  C19 UNL     1       1.408  -0.621  -7.542  1.00  0.00     0.337 C   
ENDBRANCH  21  22
ENDBRANCH  18  21
ENDBRANCH   1  18
BRANCH   1  31
ATOM     31  C20 UNL     1       2.594   1.022   0.935  1.00  0.00     0.043 C   
ATOM     32  C21 UNL     1       4.028   1.046   0.370  1.00  0.00     0.010 C   
ATOM     33  C24 UNL     1       2.023   2.409   0.612  1.00  0.00     0.010 C   
ATOM     34  C22 UNL     1       4.330   2.506   0.032  1.00  0.00     0.001 C   
ATOM     35  C23 UNL     1       3.240   3.313   0.718  1.00  0.00     0.001 C   
ENDBRANCH   1  31
TORSDOF 7
