REMARK SMILES CCc1n[nH]c(CC)c1Cn1cc([C@@H]([NH2+]Cc2ccc3c(c2)OCO3)C(C)C)nn1
REMARK SMILES IDX 11 1 12 2 13 3 29 4 30 5 10 7 9 8 3 9 4 10 5 11 6 12 2 14
REMARK SMILES IDX 1 15 7 16 8 17 14 18 15 19 16 22 17 23 18 24 22 25 19 26
REMARK SMILES IDX 21 27 20 28 23 29 25 30 24 31 26 32 27 33 28 34
REMARK H PARENT 12 6 5 13 15 20 15 21
ROOT
ATOM     1   N3  UNL     1       1.801   0.506   1.658  1.00  0.00    -0.208 N   
ATOM     2   C9  UNL     1       1.027   1.394   0.959  1.00  0.00     0.046 A   
ATOM     3   C10 UNL     1      -0.220   0.810   0.946  1.00  0.00     0.127 A   
ATOM     4   N5  UNL     1      -0.172  -0.372   1.640  1.00  0.00    -0.132 NA  
ATOM     5   N6  UNL     1       1.063  -0.539   2.082  1.00  0.00    -0.076 NA  
ATOM     6   H14 UNL     1       1.433   2.298   0.528  1.00  0.00     0.083 HD  
ENDROOT
BRANCH   1   7
ATOM     7   C8  UNL     1       3.229   0.571   1.932  1.00  0.00     0.173 C   
BRANCH   7   8
ATOM     8   C7  UNL     1       4.012   0.379   0.676  1.00  0.00     0.013 A   
ATOM     9   C3  UNL     1       4.167  -0.831  -0.068  1.00  0.00     0.065 A   
ATOM     10  N1  UNL     1       4.919  -0.644  -1.157  1.00  0.00    -0.189 NA  
ATOM     11  N2  UNL     1       5.306   0.634  -1.085  1.00  0.00    -0.242 N   
ATOM     12  C4  UNL     1       4.777   1.308  -0.017  1.00  0.00     0.031 A   
ATOM     13  H6  UNL     1       5.937   0.985  -1.800  1.00  0.00     0.175 HD  
BRANCH   9  14
ATOM     14  C2  UNL     1       3.629  -2.196   0.226  1.00  0.00     0.055 C   
ATOM     15  C1  UNL     1       2.412  -2.546  -0.613  1.00  0.00     0.011 C   
ENDBRANCH   9  14
BRANCH  12  16
ATOM     16  C5  UNL     1       5.103   2.744   0.234  1.00  0.00     0.050 C   
ATOM     17  C6  UNL     1       4.368   3.674  -0.721  1.00  0.00     0.010 C   
ENDBRANCH  12  16
ENDBRANCH   7   8
ENDBRANCH   1   7
BRANCH   3  18
ATOM     18  C11 UNL     1      -1.491   1.216   0.271  1.00  0.00     0.117 C   
BRANCH  18  19
ATOM     19  N4  UNL     1      -2.248  -0.003  -0.183  1.00  0.00     0.249 N   
ATOM     20  H16 UNL     1      -2.228  -0.675   0.599  1.00  0.00     0.199 HD  
ATOM     21  H17 UNL     1      -3.235   0.201  -0.361  1.00  0.00     0.199 HD  
BRANCH  19  22
ATOM     22  C12 UNL     1      -1.676  -0.697  -1.371  1.00  0.00     0.164 C   
BRANCH  22  23
ATOM     23  C13 UNL     1      -2.489  -1.914  -1.707  1.00  0.00    -0.002 A   
ATOM     24  C14 UNL     1      -2.188  -3.161  -1.103  1.00  0.00     0.012 A   
ATOM     25  C18 UNL     1      -3.590  -1.811  -2.575  1.00  0.00     0.045 A   
ATOM     26  C15 UNL     1      -2.963  -4.295  -1.371  1.00  0.00     0.037 A   
ATOM     27  C17 UNL     1      -4.335  -2.948  -2.813  1.00  0.00     0.109 A   
ATOM     28  C16 UNL     1      -4.031  -4.155  -2.230  1.00  0.00     0.108 A   
ATOM     29  O1  UNL     1      -5.428  -3.020  -3.617  1.00  0.00    -0.316 OA  
ATOM     30  O2  UNL     1      -4.890  -5.141  -2.599  1.00  0.00    -0.316 OA  
ATOM     31  C19 UNL     1      -5.763  -4.423  -3.498  1.00  0.00     0.337 C   
ENDBRANCH  22  23
ENDBRANCH  19  22
ENDBRANCH  18  19
BRANCH  18  32
ATOM     32  C20 UNL     1      -2.383   2.105   1.176  1.00  0.00     0.037 C   
ATOM     33  C21 UNL     1      -3.499   2.786   0.372  1.00  0.00     0.014 C   
ATOM     34  C22 UNL     1      -2.991   1.368   2.375  1.00  0.00     0.014 C   
ENDBRANCH  18  32
ENDBRANCH   3  18
TORSDOF 9
