REMARK SMILES Cc1ccc(C(=O)Cn2cc([C@@H]([NH2+]Cc3ccc4c(c3)OCO4)C3CCCC3)nn2)cc1
REMARK SMILES IDX 9 1 10 2 11 3 29 4 30 5 8 7 6 8 7 9 5 10 2 11 3 12 32 13
REMARK SMILES IDX 4 14 31 15 1 16 12 17 13 18 14 21 15 22 16 23 20 24 17 25
REMARK SMILES IDX 19 26 18 27 21 28 23 29 22 30 24 31 25 32 28 33 26 34 27 35
REMARK H PARENT 10 6 13 19 13 20
ROOT
ATOM     1   N1  UNL     1      -2.216  -0.789   1.930  1.00  0.00    -0.204 N   
ATOM     2   C8  UNL     1      -1.026  -0.689   2.594  1.00  0.00     0.046 A   
ATOM     3   C9  UNL     1      -0.280   0.162   1.808  1.00  0.00     0.127 A   
ATOM     4   N3  UNL     1      -1.032   0.553   0.730  1.00  0.00    -0.132 NA  
ATOM     5   N4  UNL     1      -2.213  -0.038   0.814  1.00  0.00    -0.076 NA  
ATOM     6   H8  UNL     1      -0.824  -1.234   3.506  1.00  0.00     0.083 HD  
ENDROOT
BRANCH   1   7
ATOM     7   C7  UNL     1      -3.355  -1.614   2.263  1.00  0.00     0.214 C   
BRANCH   7   8
ATOM     8   C6  UNL     1      -3.048  -3.057   1.955  1.00  0.00     0.182 C   
ATOM     9   O1  UNL     1      -2.469  -3.757   2.792  1.00  0.00    -0.292 OA  
BRANCH   8  10
ATOM     10  C5  UNL     1      -3.390  -3.636   0.618  1.00  0.00     0.019 A   
ATOM     11  C2  UNL     1      -3.963  -4.849  -1.864  1.00  0.00    -0.051 A   
ATOM     12  C3  UNL     1      -4.222  -3.489  -1.658  1.00  0.00     0.004 A   
ATOM     13  C25 UNL     1      -3.419  -5.601  -0.820  1.00  0.00     0.004 A   
ATOM     14  C4  UNL     1      -3.936  -2.883  -0.426  1.00  0.00     0.012 A   
ATOM     15  C24 UNL     1      -3.134  -5.000   0.411  1.00  0.00     0.012 A   
ATOM     16  C1  UNL     1      -4.282  -5.484  -3.187  1.00  0.00     0.044 C   
ENDBRANCH   8  10
ENDBRANCH   7   8
ENDBRANCH   1   7
BRANCH   3  17
ATOM     17  C10 UNL     1       1.132   0.630   1.936  1.00  0.00     0.117 C   
BRANCH  17  18
ATOM     18  N2  UNL     1       1.715   0.902   0.575  1.00  0.00     0.249 N   
ATOM     19  H10 UNL     1       2.523   1.528   0.622  1.00  0.00     0.199 HD  
ATOM     20  H11 UNL     1       0.993   1.404   0.037  1.00  0.00     0.199 HD  
BRANCH  18  21
ATOM     21  C11 UNL     1       2.078  -0.308  -0.215  1.00  0.00     0.164 C   
BRANCH  21  22
ATOM     22  C12 UNL     1       2.627   0.089  -1.557  1.00  0.00    -0.002 A   
ATOM     23  C13 UNL     1       4.008   0.364  -1.714  1.00  0.00     0.012 A   
ATOM     24  C17 UNL     1       1.759   0.247  -2.652  1.00  0.00     0.045 A   
ATOM     25  C14 UNL     1       4.520   0.782  -2.948  1.00  0.00     0.037 A   
ATOM     26  C16 UNL     1       2.297   0.659  -3.853  1.00  0.00     0.109 A   
ATOM     27  C15 UNL     1       3.638   0.920  -3.998  1.00  0.00     0.108 A   
ATOM     28  O2  UNL     1       1.600   0.859  -5.003  1.00  0.00    -0.316 OA  
ATOM     29  O3  UNL     1       3.955   1.317  -5.258  1.00  0.00    -0.316 OA  
ATOM     30  C18 UNL     1       2.662   1.270  -5.897  1.00  0.00     0.337 C   
ENDBRANCH  21  22
ENDBRANCH  18  21
ENDBRANCH  17  18
BRANCH  17  31
ATOM     31  C19 UNL     1       1.241   1.881   2.829  1.00  0.00     0.043 C   
ATOM     32  C20 UNL     1       2.681   2.253   3.225  1.00  0.00     0.010 C   
ATOM     33  C23 UNL     1       0.655   3.178   2.258  1.00  0.00     0.010 C   
ATOM     34  C21 UNL     1       2.732   3.781   3.270  1.00  0.00     0.001 C   
ATOM     35  C22 UNL     1       1.291   4.247   3.133  1.00  0.00     0.001 C   
ENDBRANCH  17  31
ENDBRANCH   3  17
TORSDOF 8
