REMARK SMILES CN1CCc2cc(-n3cc([C@@H]([NH2+]Cc4ccc5c(c4)OCO5)C4CCCCC4)nn3)ccc2C1
REMARK SMILES IDX 11 1 10 2 8 3 9 4 30 5 29 6 7 7 2 8 3 9 34 10 4 11 33 12
REMARK SMILES IDX 5 13 32 14 6 15 31 16 1 17 12 18 13 21 14 22 15 23 19 24
REMARK SMILES IDX 16 25 18 26 17 27 20 28 22 29 21 30 23 31 24 32 28 33 25 34
REMARK SMILES IDX 27 35 26 36
REMARK H PARENT 12 19 12 20
ROOT
ATOM     1   C9  UNL     1       1.538  -0.665  -0.845  1.00  0.00     0.117 C   
ENDROOT
BRANCH   1   2
ATOM     2   C8  UNL     1       0.328  -1.028  -0.038  1.00  0.00     0.127 A   
ATOM     3   N2  UNL     1      -1.494  -1.133   1.178  1.00  0.00    -0.181 N   
ATOM     4   C7  UNL     1      -0.749  -0.278   0.385  1.00  0.00     0.135 A   
ATOM     5   N5  UNL     1      -0.865  -2.336   1.224  1.00  0.00    -0.071 NA  
ATOM     6   N4  UNL     1       0.231  -2.285   0.488  1.00  0.00    -0.131 NA  
BRANCH   3   7
ATOM     7   C6  UNL     1      -2.684  -0.878   1.901  1.00  0.00     0.058 A   
ATOM     8   N1  UNL     1      -6.456   1.271   4.587  1.00  0.00    -0.302 NA  
ATOM     9   C2  UNL     1      -6.396   2.092   3.369  1.00  0.00     0.089 C   
ATOM     10  C27 UNL     1      -6.254  -0.147   4.240  1.00  0.00     0.120 C   
ATOM     11  C3  UNL     1      -4.988   2.043   2.757  1.00  0.00     0.051 C   
ATOM     12  C26 UNL     1      -4.995  -0.389   3.432  1.00  0.00    -0.031 A   
ATOM     13  C4  UNL     1      -4.414   0.646   2.680  1.00  0.00    -0.040 A   
ATOM     14  C25 UNL     1      -4.433  -1.672   3.383  1.00  0.00     0.007 A   
ATOM     15  C5  UNL     1      -3.257   0.401   1.921  1.00  0.00     0.030 A   
ATOM     16  C24 UNL     1      -3.282  -1.915   2.631  1.00  0.00     0.026 A   
ATOM     17  C1  UNL     1      -7.734   1.445   5.277  1.00  0.00     0.105 C   
ENDBRANCH   3   7
ENDBRANCH   1   2
BRANCH   1  18
ATOM     18  N3  UNL     1       2.722  -1.350  -0.195  1.00  0.00     0.249 N   
ATOM     19  H11 UNL     1       2.669  -1.134   0.809  1.00  0.00     0.199 HD  
ATOM     20  H12 UNL     1       2.548  -2.364  -0.228  1.00  0.00     0.199 HD  
BRANCH  18  21
ATOM     21  C10 UNL     1       4.093  -1.041  -0.668  1.00  0.00     0.164 C   
BRANCH  21  22
ATOM     22  C11 UNL     1       4.478   0.401  -0.495  1.00  0.00    -0.002 A   
ATOM     23  C12 UNL     1       4.635   0.953   0.800  1.00  0.00     0.012 A   
ATOM     24  C16 UNL     1       4.682   1.215  -1.621  1.00  0.00     0.045 A   
ATOM     25  C13 UNL     1       4.985   2.296   0.972  1.00  0.00     0.037 A   
ATOM     26  C15 UNL     1       5.035   2.533  -1.417  1.00  0.00     0.109 A   
ATOM     27  C14 UNL     1       5.180   3.060  -0.157  1.00  0.00     0.108 A   
ATOM     28  O1  UNL     1       5.277   3.447  -2.393  1.00  0.00    -0.316 OA  
ATOM     29  O2  UNL     1       5.530   4.372  -0.180  1.00  0.00    -0.316 OA  
ATOM     30  C17 UNL     1       5.653   4.598  -1.601  1.00  0.00     0.337 C   
ENDBRANCH  21  22
ENDBRANCH  18  21
ENDBRANCH   1  18
BRANCH   1  31
ATOM     31  C18 UNL     1       1.436  -1.027  -2.351  1.00  0.00     0.043 C   
ATOM     32  C19 UNL     1       1.339  -2.538  -2.643  1.00  0.00     0.010 C   
ATOM     33  C23 UNL     1       0.270  -0.276  -3.033  1.00  0.00     0.010 C   
ATOM     34  C20 UNL     1       1.260  -2.823  -4.143  1.00  0.00     0.001 C   
ATOM     35  C22 UNL     1       0.205  -0.568  -4.530  1.00  0.00     0.001 C   
ATOM     36  C21 UNL     1       0.113  -2.066  -4.803  1.00  0.00     0.000 C   
ENDBRANCH   1  31
TORSDOF 6
