REMARK SMILES CCn1cncc1CCn1cc([C@@H]([NH2+]Cc2ccc3c(c2)OCO3)C2CCCCC2)nn1
REMARK SMILES IDX 10 1 11 2 12 3 31 4 32 5 9 7 8 8 7 9 3 10 4 11 5 12 6 13
REMARK SMILES IDX 2 14 1 15 13 16 14 17 15 20 16 21 17 22 21 23 18 24 20 25
REMARK SMILES IDX 19 26 22 27 24 28 23 29 25 30 26 31 30 32 27 33 29 34 28 35
REMARK H PARENT 11 6 14 18 14 19
ROOT
ATOM     1   N3  UNL     1       1.148   1.799  -2.374  1.00  0.00    -0.212 N   
ATOM     2   C8  UNL     1       1.288   0.445  -2.214  1.00  0.00     0.045 A   
ATOM     3   C9  UNL     1       2.164   0.328  -1.155  1.00  0.00     0.127 A   
ATOM     4   N5  UNL     1       2.672   1.573  -0.870  1.00  0.00    -0.132 NA  
ATOM     5   N6  UNL     1       2.045   2.463  -1.626  1.00  0.00    -0.076 NA  
ATOM     6   H12 UNL     1       0.653  -0.256  -2.735  1.00  0.00     0.083 HD  
ENDROOT
BRANCH   1   7
ATOM     7   C7  UNL     1      -0.007   2.479  -2.932  1.00  0.00     0.140 C   
BRANCH   7   8
ATOM     8   C6  UNL     1      -1.052   2.887  -1.870  1.00  0.00     0.074 C   
BRANCH   8   9
ATOM     9   C5  UNL     1      -1.258   1.843  -0.813  1.00  0.00     0.031 A   
ATOM     10  N1  UNL     1      -2.124   0.779  -0.847  1.00  0.00    -0.294 N   
ATOM     11  C3  UNL     1      -1.814  -0.030   0.220  1.00  0.00     0.188 A   
ATOM     12  N2  UNL     1      -0.804   0.445   0.919  1.00  0.00    -0.247 NA  
ATOM     13  C4  UNL     1      -0.570   1.682   0.373  1.00  0.00     0.131 A   
BRANCH  10  14
ATOM     14  C2  UNL     1      -3.200   0.519  -1.785  1.00  0.00     0.108 C   
ATOM     15  C1  UNL     1      -2.784  -0.422  -2.901  1.00  0.00     0.025 C   
ENDBRANCH  10  14
ENDBRANCH   8   9
ENDBRANCH   7   8
ENDBRANCH   1   7
BRANCH   3  16
ATOM     16  C10 UNL     1       2.504  -0.830  -0.258  1.00  0.00     0.117 C   
BRANCH  16  17
ATOM     17  N4  UNL     1       1.843  -0.679   1.081  1.00  0.00     0.249 N   
ATOM     18  H14 UNL     1       1.767  -1.572   1.566  1.00  0.00     0.199 HD  
ATOM     19  H15 UNL     1       0.859  -0.355   0.958  1.00  0.00     0.199 HD  
BRANCH  17  20
ATOM     20  C11 UNL     1       2.495   0.280   2.018  1.00  0.00     0.164 C   
BRANCH  20  21
ATOM     21  C12 UNL     1       2.019   0.057   3.428  1.00  0.00    -0.002 A   
ATOM     22  C13 UNL     1       2.653  -0.905   4.251  1.00  0.00     0.012 A   
ATOM     23  C17 UNL     1       0.911   0.765   3.922  1.00  0.00     0.045 A   
ATOM     24  C14 UNL     1       2.198  -1.152   5.551  1.00  0.00     0.037 A   
ATOM     25  C16 UNL     1       0.492   0.504   5.210  1.00  0.00     0.109 A   
ATOM     26  C15 UNL     1       1.116  -0.429   6.001  1.00  0.00     0.108 A   
ATOM     27  O1  UNL     1      -0.551   1.106   5.840  1.00  0.00    -0.316 OA  
ATOM     28  O2  UNL     1       0.543  -0.534   7.229  1.00  0.00    -0.316 OA  
ATOM     29  C18 UNL     1      -0.499   0.462   7.131  1.00  0.00     0.337 C   
ENDBRANCH  20  21
ENDBRANCH  17  20
ENDBRANCH  16  17
BRANCH  16  30
ATOM     30  C19 UNL     1       2.220  -2.232  -0.885  1.00  0.00     0.043 C   
ATOM     31  C20 UNL     1       3.129  -3.344  -0.314  1.00  0.00     0.010 C   
ATOM     32  C24 UNL     1       0.745  -2.683  -0.921  1.00  0.00     0.010 C   
ATOM     33  C21 UNL     1       2.609  -4.027   0.944  1.00  0.00     0.001 C   
ATOM     34  C23 UNL     1       0.242  -3.413   0.322  1.00  0.00     0.001 C   
ATOM     35  C22 UNL     1       1.182  -4.525   0.762  1.00  0.00     0.000 C   
ENDBRANCH  16  30
ENDBRANCH   3  16
TORSDOF 9
