REMARK SMILES CC(C)[C@H]([NH2+]Cc1ccc2c(c1)OCO2)c1cn([C@H](CO)c2ccco2)nn1
REMARK SMILES IDX 16 1 17 2 18 3 27 4 28 5 4 7 2 8 1 9 3 10 5 11 6 14 7 15
REMARK SMILES IDX 8 16 12 17 9 18 11 19 10 20 13 21 15 22 14 23 19 24 20 25
REMARK SMILES IDX 21 26 22 28 23 29 26 30 24 31 25 32
REMARK H PARENT 17 6 5 12 5 13 21 27
ROOT
ATOM     1   C13 UNL     1      -0.193   0.298   0.976  1.00  0.00     0.127 A   
ATOM     2   C14 UNL     1      -0.223  -0.748   1.868  1.00  0.00     0.046 A   
ATOM     3   N2  UNL     1      -1.508  -1.221   1.793  1.00  0.00    -0.200 N   
ATOM     4   N3  UNL     1      -2.224  -0.500   0.902  1.00  0.00    -0.075 NA  
ATOM     5   N4  UNL     1      -1.429   0.431   0.399  1.00  0.00    -0.132 NA  
ATOM     6   H18 UNL     1       0.511  -1.180   2.533  1.00  0.00     0.083 HD  
ENDROOT
BRANCH   1   7
ATOM     7   C4  UNL     1       0.919   1.202   0.554  1.00  0.00     0.117 C   
BRANCH   7   8
ATOM     8   C2  UNL     1       1.069   2.475   1.430  1.00  0.00     0.037 C   
ATOM     9   C1  UNL     1      -0.173   3.376   1.447  1.00  0.00     0.014 C   
ATOM     10  C3  UNL     1       1.480   2.135   2.866  1.00  0.00     0.014 C   
ENDBRANCH   7   8
BRANCH   7  11
ATOM     11  N1  UNL     1       0.712   1.635  -0.877  1.00  0.00     0.249 N   
ATOM     12  H9  UNL     1       1.273   2.462  -1.106  1.00  0.00     0.199 HD  
ATOM     13  H10 UNL     1      -0.275   1.920  -0.957  1.00  0.00     0.199 HD  
BRANCH  11  14
ATOM     14  C5  UNL     1       0.943   0.586  -1.908  1.00  0.00     0.164 C   
BRANCH  14  15
ATOM     15  C6  UNL     1       0.654   1.132  -3.279  1.00  0.00    -0.002 A   
ATOM     16  C7  UNL     1       1.705   1.580  -4.114  1.00  0.00     0.012 A   
ATOM     17  C11 UNL     1      -0.676   1.251  -3.717  1.00  0.00     0.045 A   
ATOM     18  C8  UNL     1       1.439   2.130  -5.374  1.00  0.00     0.037 A   
ATOM     19  C10 UNL     1      -0.904   1.805  -4.962  1.00  0.00     0.109 A   
ATOM     20  C9  UNL     1       0.123   2.231  -5.767  1.00  0.00     0.108 A   
ATOM     21  O1  UNL     1      -2.122   2.002  -5.527  1.00  0.00    -0.316 OA  
ATOM     22  O2  UNL     1      -0.319   2.744  -6.945  1.00  0.00    -0.316 OA  
ATOM     23  C12 UNL     1      -1.746   2.588  -6.794  1.00  0.00     0.337 C   
ENDBRANCH  14  15
ENDBRANCH  11  14
ENDBRANCH   7  11
ENDBRANCH   1   7
BRANCH   3  24
ATOM     24  C15 UNL     1      -2.145  -2.309   2.533  1.00  0.00     0.179 C   
BRANCH  24  25
ATOM     25  C16 UNL     1      -2.712  -1.812   3.872  1.00  0.00     0.188 C   
BRANCH  25  26
ATOM     26  O3  UNL     1      -1.707  -1.263   4.730  1.00  0.00    -0.394 OA  
ATOM     27  H22 UNL     1      -2.158  -0.980   5.547  1.00  0.00     0.210 HD  
ENDBRANCH  25  26
ENDBRANCH  24  25
BRANCH  24  28
ATOM     28  C17 UNL     1      -1.226  -3.486   2.655  1.00  0.00     0.083 A   
ATOM     29  C18 UNL     1      -0.465  -4.027   3.674  1.00  0.00     0.033 A   
ATOM     30  O4  UNL     1      -1.071  -4.236   1.522  1.00  0.00    -0.320 OA  
ATOM     31  C19 UNL     1       0.179  -5.166   3.136  1.00  0.00     0.028 A   
ATOM     32  C20 UNL     1      -0.225  -5.253   1.825  1.00  0.00     0.136 A   
ENDBRANCH  24  28
ENDBRANCH   3  24
TORSDOF 9
