REMARK SMILES CC(C)[C@H]([NH2+]Cc1ccc2c(c1)OCO2)c1cn([C@@H](CO)c2ccco2)nn1
REMARK SMILES IDX 16 1 17 2 18 3 27 4 28 5 4 7 2 8 1 9 3 10 5 11 6 14 7 15
REMARK SMILES IDX 8 16 12 17 9 18 11 19 10 20 13 21 15 22 14 23 19 24 20 25
REMARK SMILES IDX 21 26 22 28 23 29 26 30 24 31 25 32
REMARK H PARENT 17 6 5 12 5 13 21 27
ROOT
ATOM     1   C13 UNL     1       1.046   0.346  -1.337  1.00  0.00     0.127 A   
ATOM     2   C14 UNL     1       2.225  -0.011  -1.952  1.00  0.00     0.046 A   
ATOM     3   N2  UNL     1       3.145  -0.020  -0.934  1.00  0.00    -0.200 N   
ATOM     4   N3  UNL     1       2.555   0.301   0.240  1.00  0.00    -0.075 NA  
ATOM     5   N4  UNL     1       1.275   0.534   0.002  1.00  0.00    -0.132 NA  
ATOM     6   H18 UNL     1       2.493  -0.253  -2.971  1.00  0.00     0.083 HD  
ENDROOT
BRANCH   1   7
ATOM     7   C4  UNL     1      -0.337   0.509  -1.880  1.00  0.00     0.117 C   
BRANCH   7   8
ATOM     8   C2  UNL     1      -0.539   1.885  -2.569  1.00  0.00     0.037 C   
ATOM     9   C1  UNL     1      -0.517   3.075  -1.602  1.00  0.00     0.014 C   
ATOM     10  C3  UNL     1      -1.826   1.919  -3.402  1.00  0.00     0.014 C   
ENDBRANCH   7   8
BRANCH   7  11
ATOM     11  N1  UNL     1      -1.354   0.320  -0.786  1.00  0.00     0.249 N   
ATOM     12  H9  UNL     1      -2.263   0.728  -1.025  1.00  0.00     0.199 HD  
ATOM     13  H10 UNL     1      -1.006   0.845   0.032  1.00  0.00     0.199 HD  
BRANCH  11  14
ATOM     14  C5  UNL     1      -1.557  -1.089  -0.345  1.00  0.00     0.164 C   
BRANCH  14  15
ATOM     15  C6  UNL     1      -2.552  -1.150   0.779  1.00  0.00    -0.002 A   
ATOM     16  C7  UNL     1      -3.902  -1.495   0.527  1.00  0.00     0.012 A   
ATOM     17  C11 UNL     1      -2.154  -0.816   2.087  1.00  0.00     0.045 A   
ATOM     18  C8  UNL     1      -4.842  -1.521   1.564  1.00  0.00     0.037 A   
ATOM     19  C10 UNL     1      -3.108  -0.846   3.084  1.00  0.00     0.109 A   
ATOM     20  C9  UNL     1      -4.413  -1.190   2.831  1.00  0.00     0.108 A   
ATOM     21  O1  UNL     1      -2.892  -0.548   4.392  1.00  0.00    -0.316 OA  
ATOM     22  O2  UNL     1      -5.183  -1.159   3.949  1.00  0.00    -0.316 OA  
ATOM     23  C12 UNL     1      -4.213  -0.760   4.942  1.00  0.00     0.337 C   
ENDBRANCH  14  15
ENDBRANCH  11  14
ENDBRANCH   7  11
ENDBRANCH   1   7
BRANCH   3  24
ATOM     24  C15 UNL     1       4.567  -0.343  -1.019  1.00  0.00     0.179 C   
BRANCH  24  25
ATOM     25  C16 UNL     1       5.449   0.779  -0.458  1.00  0.00     0.188 C   
BRANCH  25  26
ATOM     26  O3  UNL     1       5.403   1.921  -1.316  1.00  0.00    -0.394 OA  
ATOM     27  H22 UNL     1       6.010   2.587  -0.941  1.00  0.00     0.210 HD  
ENDBRANCH  25  26
ENDBRANCH  24  25
BRANCH  24  28
ATOM     28  C17 UNL     1       4.818  -1.660  -0.360  1.00  0.00     0.083 A   
ATOM     29  C18 UNL     1       4.991  -2.068   0.950  1.00  0.00     0.033 A   
ATOM     30  O4  UNL     1       4.892  -2.741  -1.193  1.00  0.00    -0.320 OA  
ATOM     31  C19 UNL     1       5.193  -3.469   0.909  1.00  0.00     0.028 A   
ATOM     32  C20 UNL     1       5.126  -3.830  -0.416  1.00  0.00     0.136 A   
ENDBRANCH  24  28
ENDBRANCH   3  24
TORSDOF 9
