REMARK SMILES Cc1ncccc1[C@@H](CO)n1cc([C@@H]([NH2+]Cc2ccc3c(c2)OCO3)C(C)C)nn1
REMARK SMILES IDX 11 1 12 2 13 3 29 4 30 5 8 7 7 8 2 9 3 10 4 11 6 12 5 13
REMARK SMILES IDX 1 14 9 15 10 16 14 18 15 19 16 22 17 23 18 24 22 25 19 26
REMARK SMILES IDX 21 27 20 28 23 29 25 30 24 31 26 32 27 33 28 34
REMARK H PARENT 12 6 10 17 15 20 15 21
ROOT
ATOM     1   N2  UNL     1       1.964  -0.794   1.188  1.00  0.00    -0.202 N   
ATOM     2   C9  UNL     1       1.288  -0.693   0.001  1.00  0.00     0.046 A   
ATOM     3   C10 UNL     1       1.389   0.637  -0.335  1.00  0.00     0.127 A   
ATOM     4   N4  UNL     1       2.089   1.294   0.644  1.00  0.00    -0.132 NA  
ATOM     5   N5  UNL     1       2.449   0.410   1.560  1.00  0.00    -0.075 NA  
ATOM     6   H11 UNL     1       0.827  -1.550  -0.473  1.00  0.00     0.083 HD  
ENDROOT
BRANCH   1   7
ATOM     7   C7  UNL     1       2.156  -1.965   2.046  1.00  0.00     0.157 C   
BRANCH   7   8
ATOM     8   C6  UNL     1       0.812  -2.588   2.410  1.00  0.00    -0.002 A   
ATOM     9   C2  UNL     1      -0.018  -2.021   3.397  1.00  0.00     0.042 A   
ATOM     10  N1  UNL     1      -1.238  -2.527   3.712  1.00  0.00    -0.261 NA  
ATOM     11  C3  UNL     1      -1.658  -3.633   3.066  1.00  0.00     0.111 A   
ATOM     12  C5  UNL     1       0.324  -3.732   1.757  1.00  0.00     0.009 A   
ATOM     13  C4  UNL     1      -0.918  -4.265   2.089  1.00  0.00     0.020 A   
ATOM     14  C1  UNL     1       0.376  -0.809   4.196  1.00  0.00     0.067 C   
ENDBRANCH   7   8
BRANCH   7  15
ATOM     15  C8  UNL     1       3.245  -2.898   1.469  1.00  0.00     0.186 C   
BRANCH  15  16
ATOM     16  O1  UNL     1       2.962  -3.344   0.141  1.00  0.00    -0.394 OA  
ATOM     17  H10 UNL     1       3.699  -3.925  -0.127  1.00  0.00     0.210 HD  
ENDBRANCH  15  16
ENDBRANCH   7  15
ENDBRANCH   1   7
BRANCH   3  18
ATOM     18  C11 UNL     1       0.827   1.409  -1.489  1.00  0.00     0.117 C   
BRANCH  18  19
ATOM     19  N3  UNL     1       0.406   2.763  -0.961  1.00  0.00     0.249 N   
ATOM     20  H13 UNL     1      -0.186   2.579  -0.141  1.00  0.00     0.199 HD  
ATOM     21  H14 UNL     1       1.241   3.208  -0.556  1.00  0.00     0.199 HD  
BRANCH  19  22
ATOM     22  C12 UNL     1      -0.309   3.706  -1.855  1.00  0.00     0.164 C   
BRANCH  22  23
ATOM     23  C13 UNL     1      -1.583   3.147  -2.425  1.00  0.00    -0.002 A   
ATOM     24  C14 UNL     1      -2.696   2.889  -1.585  1.00  0.00     0.012 A   
ATOM     25  C18 UNL     1      -1.677   2.863  -3.799  1.00  0.00     0.045 A   
ATOM     26  C15 UNL     1      -3.878   2.349  -2.103  1.00  0.00     0.037 A   
ATOM     27  C17 UNL     1      -2.858   2.333  -4.277  1.00  0.00     0.109 A   
ATOM     28  C16 UNL     1      -3.927   2.081  -3.453  1.00  0.00     0.108 A   
ATOM     29  O2  UNL     1      -3.109   2.005  -5.572  1.00  0.00    -0.316 OA  
ATOM     30  O3  UNL     1      -4.987   1.561  -4.125  1.00  0.00    -0.316 OA  
ATOM     31  C19 UNL     1      -4.480   1.554  -5.478  1.00  0.00     0.337 C   
ENDBRANCH  22  23
ENDBRANCH  19  22
ENDBRANCH  18  19
BRANCH  18  32
ATOM     32  C20 UNL     1       1.804   1.548  -2.684  1.00  0.00     0.037 C   
ATOM     33  C21 UNL     1       3.103   2.296  -2.363  1.00  0.00     0.014 C   
ATOM     34  C22 UNL     1       2.136   0.181  -3.297  1.00  0.00     0.014 C   
ENDBRANCH  18  32
ENDBRANCH   3  18
TORSDOF 9
