REMARK SMILES Cc1ncccc1[C@H](CO)n1cc([C@@H]([NH2+]Cc2ccc3c(c2)OCO3)C(C)C)nn1
REMARK SMILES IDX 11 1 12 2 13 3 29 4 30 5 8 7 7 8 2 9 3 10 4 11 6 12 5 13
REMARK SMILES IDX 1 14 9 15 10 16 14 18 15 19 16 22 17 23 18 24 22 25 19 26
REMARK SMILES IDX 21 27 20 28 23 29 25 30 24 31 26 32 27 33 28 34
REMARK H PARENT 12 6 10 17 15 20 15 21
ROOT
ATOM     1   N2  UNL     1       1.965  -1.043   0.610  1.00  0.00    -0.202 N   
ATOM     2   C9  UNL     1       1.309   0.133   0.356  1.00  0.00     0.046 A   
ATOM     3   C10 UNL     1       0.140   0.029   1.073  1.00  0.00     0.127 A   
ATOM     4   N4  UNL     1       0.103  -1.193   1.697  1.00  0.00    -0.132 NA  
ATOM     5   N5  UNL     1       1.212  -1.846   1.393  1.00  0.00    -0.075 NA  
ATOM     6   H11 UNL     1       1.733   0.904  -0.272  1.00  0.00     0.083 HD  
ENDROOT
BRANCH   1   7
ATOM     7   C7  UNL     1       3.301  -1.469   0.188  1.00  0.00     0.157 C   
BRANCH   7   8
ATOM     8   C6  UNL     1       4.328  -0.370   0.445  1.00  0.00    -0.002 A   
ATOM     9   C2  UNL     1       4.752  -0.052   1.749  1.00  0.00     0.042 A   
ATOM     10  N1  UNL     1       5.634   0.944   2.011  1.00  0.00    -0.261 NA  
ATOM     11  C3  UNL     1       6.143   1.640   0.975  1.00  0.00     0.111 A   
ATOM     12  C5  UNL     1       4.879   0.390  -0.601  1.00  0.00     0.009 A   
ATOM     13  C4  UNL     1       5.798   1.401  -0.337  1.00  0.00     0.020 A   
ATOM     14  C1  UNL     1       4.258  -0.777   2.970  1.00  0.00     0.067 C   
ENDBRANCH   7   8
BRANCH   7  15
ATOM     15  C8  UNL     1       3.246  -2.084  -1.228  1.00  0.00     0.186 C   
BRANCH  15  16
ATOM     16  O1  UNL     1       2.710  -1.190  -2.205  1.00  0.00    -0.394 OA  
ATOM     17  H10 UNL     1       2.760  -1.649  -3.066  1.00  0.00     0.210 HD  
ENDBRANCH  15  16
ENDBRANCH   7  15
ENDBRANCH   1   7
BRANCH   3  18
ATOM     18  C11 UNL     1      -0.998   0.984   1.243  1.00  0.00     0.117 C   
BRANCH  18  19
ATOM     19  N3  UNL     1      -2.218   0.252   1.750  1.00  0.00     0.249 N   
ATOM     20  H13 UNL     1      -2.852   0.883   2.246  1.00  0.00     0.199 HD  
ATOM     21  H14 UNL     1      -1.868  -0.429   2.440  1.00  0.00     0.199 HD  
BRANCH  19  22
ATOM     22  C12 UNL     1      -2.987  -0.512   0.727  1.00  0.00     0.164 C   
BRANCH  22  23
ATOM     23  C13 UNL     1      -3.851   0.383  -0.118  1.00  0.00    -0.002 A   
ATOM     24  C14 UNL     1      -5.041   0.936   0.415  1.00  0.00     0.012 A   
ATOM     25  C18 UNL     1      -3.467   0.704  -1.431  1.00  0.00     0.045 A   
ATOM     26  C15 UNL     1      -5.834   1.803  -0.346  1.00  0.00     0.037 A   
ATOM     27  C17 UNL     1      -4.273   1.560  -2.153  1.00  0.00     0.109 A   
ATOM     28  C16 UNL     1      -5.421   2.095  -1.626  1.00  0.00     0.108 A   
ATOM     29  O2  UNL     1      -4.044   1.973  -3.427  1.00  0.00    -0.316 OA  
ATOM     30  O3  UNL     1      -6.062   2.911  -2.502  1.00  0.00    -0.316 OA  
ATOM     31  C19 UNL     1      -5.198   2.815  -3.654  1.00  0.00     0.337 C   
ENDBRANCH  22  23
ENDBRANCH  19  22
ENDBRANCH  18  19
BRANCH  18  32
ATOM     32  C20 UNL     1      -0.642   2.155   2.198  1.00  0.00     0.037 C   
ATOM     33  C21 UNL     1      -1.677   3.284   2.118  1.00  0.00     0.014 C   
ATOM     34  C22 UNL     1      -0.450   1.730   3.658  1.00  0.00     0.014 C   
ENDBRANCH  18  32
ENDBRANCH   3  18
TORSDOF 9
