REMARK SMILES CC(C)C[C@H]([NH2+]Cc1ccc2c(c1)OCO2)c1cn(-c2ccccc2N)nn1
REMARK SMILES IDX 17 1 18 2 19 3 27 4 28 5 5 6 4 7 2 8 1 9 3 10 6 11 7 14 8 15
REMARK SMILES IDX 9 16 13 17 10 18 12 19 11 20 14 21 16 22 15 23 20 24 21 25
REMARK SMILES IDX 25 26 22 27 24 28 23 29 26 30
REMARK H PARENT 6 12 6 13 26 31 26 32
ROOT
ATOM     1   C14 UNL     1      -1.466  -0.767   0.094  1.00  0.00     0.127 A   
ATOM     2   C15 UNL     1      -0.508  -0.448   1.030  1.00  0.00     0.135 A   
ATOM     3   N2  UNL     1       0.139  -1.641   1.314  1.00  0.00    -0.179 N   
ATOM     4   N4  UNL     1      -0.428  -2.619   0.554  1.00  0.00    -0.071 NA  
ATOM     5   N5  UNL     1      -1.400  -2.102  -0.177  1.00  0.00    -0.131 NA  
ENDROOT
BRANCH   1   6
ATOM     6   C5  UNL     1      -2.440   0.086  -0.646  1.00  0.00     0.114 C   
BRANCH   6   7
ATOM     7   C4  UNL     1      -3.864   0.003  -0.059  1.00  0.00     0.064 C   
BRANCH   7   8
ATOM     8   C2  UNL     1      -4.011   0.526   1.386  1.00  0.00    -0.012 C   
ATOM     9   C1  UNL     1      -5.451   0.319   1.864  1.00  0.00     0.007 C   
ATOM     10  C3  UNL     1      -3.634   2.003   1.514  1.00  0.00     0.007 C   
ENDBRANCH   7   8
ENDBRANCH   6   7
BRANCH   6  11
ATOM     11  N1  UNL     1      -2.539  -0.365  -2.092  1.00  0.00     0.249 N   
ATOM     12  H11 UNL     1      -3.329   0.100  -2.549  1.00  0.00     0.199 HD  
ATOM     13  H12 UNL     1      -2.749  -1.373  -2.069  1.00  0.00     0.199 HD  
BRANCH  11  14
ATOM     14  C6  UNL     1      -1.317  -0.185  -2.933  1.00  0.00     0.164 C   
BRANCH  14  15
ATOM     15  C7  UNL     1      -0.944   1.258  -3.123  1.00  0.00    -0.002 A   
ATOM     16  C8  UNL     1      -1.706   2.091  -3.977  1.00  0.00     0.012 A   
ATOM     17  C12 UNL     1       0.148   1.801  -2.421  1.00  0.00     0.045 A   
ATOM     18  C9  UNL     1      -1.391   3.446  -4.127  1.00  0.00     0.037 A   
ATOM     19  C11 UNL     1       0.428   3.140  -2.589  1.00  0.00     0.109 A   
ATOM     20  C10 UNL     1      -0.319   3.941  -3.417  1.00  0.00     0.108 A   
ATOM     21  O1  UNL     1       1.434   3.820  -1.979  1.00  0.00    -0.316 OA  
ATOM     22  O2  UNL     1       0.125   5.224  -3.437  1.00  0.00    -0.316 OA  
ATOM     23  C13 UNL     1       1.263   5.136  -2.552  1.00  0.00     0.337 C   
ENDBRANCH  14  15
ENDBRANCH  11  14
ENDBRANCH   6  11
ENDBRANCH   1   6
BRANCH   3  24
ATOM     24  C16 UNL     1       1.203  -1.883   2.227  1.00  0.00     0.078 A   
ATOM     25  C17 UNL     1       1.583  -0.860   3.118  1.00  0.00     0.028 A   
ATOM     26  C21 UNL     1       1.867  -3.130   2.271  1.00  0.00     0.047 A   
ATOM     27  C18 UNL     1       2.626  -1.056   4.024  1.00  0.00     0.002 A   
ATOM     28  C20 UNL     1       2.946  -3.280   3.159  1.00  0.00     0.025 A   
ATOM     29  C19 UNL     1       3.312  -2.263   4.041  1.00  0.00     0.002 A   
BRANCH  26  30
ATOM     30  N3  UNL     1       1.679  -4.146   1.319  1.00  0.00    -0.357 N   
ATOM     31  H25 UNL     1       1.943  -5.073   1.640  1.00  0.00     0.143 HD  
ATOM     32  H26 UNL     1       0.750  -4.140   0.894  1.00  0.00     0.143 HD  
ENDBRANCH  26  30
ENDBRANCH   3  24
TORSDOF 8
