REMARK SMILES CCc1n[nH]c(CC)c1Cn1cc([C@@H]([NH2+]Cc2ccc3c(c2)OCO3)C2CCCCC2)nn1
REMARK SMILES IDX 11 1 12 2 13 3 32 4 33 5 10 7 9 8 3 9 4 10 5 11 6 12 2 14
REMARK SMILES IDX 1 15 7 16 8 17 14 18 15 19 16 22 17 23 18 24 22 25 19 26
REMARK SMILES IDX 21 27 20 28 23 29 25 30 24 31 26 32 27 33 31 34 28 35 30 36
REMARK SMILES IDX 29 37
REMARK H PARENT 12 6 5 13 15 20 15 21
ROOT
ATOM     1   N3  UNL     1       1.632  -0.138  -0.011  1.00  0.00    -0.208 N   
ATOM     2   C9  UNL     1       0.764   0.744  -0.599  1.00  0.00     0.046 A   
ATOM     3   C10 UNL     1       0.353   1.550   0.438  1.00  0.00     0.127 A   
ATOM     4   N5  UNL     1       0.969   1.143   1.595  1.00  0.00    -0.132 NA  
ATOM     5   N6  UNL     1       1.765   0.128   1.305  1.00  0.00    -0.076 NA  
ATOM     6   H14 UNL     1       0.526   0.703  -1.651  1.00  0.00     0.083 HD  
ENDROOT
BRANCH   1   7
ATOM     7   C8  UNL     1       2.409  -1.194  -0.640  1.00  0.00     0.173 C   
BRANCH   7   8
ATOM     8   C7  UNL     1       1.621  -2.454  -0.728  1.00  0.00     0.013 A   
ATOM     9   C3  UNL     1       1.456  -3.439   0.292  1.00  0.00     0.065 A   
ATOM     10  N1  UNL     1       0.702  -4.460  -0.123  1.00  0.00    -0.189 NA  
ATOM     11  N2  UNL     1       0.398  -4.157  -1.389  1.00  0.00    -0.242 N   
ATOM     12  C4  UNL     1       0.913  -2.959  -1.808  1.00  0.00     0.031 A   
ATOM     13  H6  UNL     1      -0.167  -4.817  -1.915  1.00  0.00     0.175 HD  
BRANCH   9  14
ATOM     14  C2  UNL     1       2.005  -3.458   1.681  1.00  0.00     0.055 C   
ATOM     15  C1  UNL     1       3.165  -4.428   1.833  1.00  0.00     0.011 C   
ENDBRANCH   9  14
BRANCH  12  16
ATOM     16  C5  UNL     1       0.687  -2.463  -3.194  1.00  0.00     0.050 C   
ATOM     17  C6  UNL     1      -0.717  -1.908  -3.372  1.00  0.00     0.010 C   
ENDBRANCH  12  16
ENDBRANCH   7   8
ENDBRANCH   1   7
BRANCH   3  18
ATOM     18  C11 UNL     1      -0.629   2.672   0.497  1.00  0.00     0.117 C   
BRANCH  18  19
ATOM     19  N4  UNL     1      -1.406   2.590   1.796  1.00  0.00     0.249 N   
ATOM     20  H16 UNL     1      -0.814   2.044   2.444  1.00  0.00     0.199 HD  
ATOM     21  H17 UNL     1      -1.501   3.515   2.219  1.00  0.00     0.199 HD  
BRANCH  19  22
ATOM     22  C12 UNL     1      -2.750   1.954   1.729  1.00  0.00     0.164 C   
BRANCH  22  23
ATOM     23  C13 UNL     1      -2.735   0.512   1.304  1.00  0.00    -0.002 A   
ATOM     24  C14 UNL     1      -3.172   0.138   0.008  1.00  0.00     0.012 A   
ATOM     25  C18 UNL     1      -2.289  -0.482   2.191  1.00  0.00     0.045 A   
ATOM     26  C15 UNL     1      -3.174  -1.203  -0.395  1.00  0.00     0.037 A   
ATOM     27  C17 UNL     1      -2.317  -1.795   1.766  1.00  0.00     0.109 A   
ATOM     28  C16 UNL     1      -2.743  -2.147   0.509  1.00  0.00     0.108 A   
ATOM     29  O1  UNL     1      -1.964  -2.870   2.517  1.00  0.00    -0.316 OA  
ATOM     30  O2  UNL     1      -2.705  -3.490   0.303  1.00  0.00    -0.316 OA  
ATOM     31  C19 UNL     1      -2.255  -3.950   1.598  1.00  0.00     0.337 C   
ENDBRANCH  22  23
ENDBRANCH  19  22
ENDBRANCH  18  19
BRANCH  18  32
ATOM     32  C20 UNL     1       0.011   4.082   0.393  1.00  0.00     0.043 C   
ATOM     33  C21 UNL     1       0.633   4.320  -1.001  1.00  0.00     0.010 C   
ATOM     34  C25 UNL     1       1.045   4.399   1.496  1.00  0.00     0.010 C   
ATOM     35  C22 UNL     1       1.196   5.734  -1.129  1.00  0.00     0.001 C   
ATOM     36  C24 UNL     1       1.600   5.813   1.353  1.00  0.00     0.001 C   
ATOM     37  C23 UNL     1       2.206   6.037  -0.029  1.00  0.00     0.000 C   
ENDBRANCH  18  32
ENDBRANCH   3  18
TORSDOF 9
