REMARK SMILES Cc1ccc([C@@H](CO)n2cc([C@@H]([NH2+]Cc3ccc4c(c3)OCO4)C(C)C)nn2)cn1
REMARK SMILES IDX 9 1 10 2 11 3 27 4 28 5 6 7 5 8 2 9 3 10 30 11 4 12 29 13
REMARK SMILES IDX 1 14 7 15 8 16 12 18 13 19 14 22 15 23 16 24 20 25 17 26
REMARK SMILES IDX 19 27 18 28 21 29 23 30 22 31 24 32 25 33 26 34
REMARK H PARENT 10 6 8 17 13 20 13 21
ROOT
ATOM     1   N1  UNL     1       0.810  -0.553   2.959  1.00  0.00    -0.202 N   
ATOM     2   C8  UNL     1       0.892   0.556   2.158  1.00  0.00     0.046 A   
ATOM     3   C9  UNL     1      -0.365   1.111   2.220  1.00  0.00     0.127 A   
ATOM     4   N3  UNL     1      -1.140   0.375   3.079  1.00  0.00    -0.132 NA  
ATOM     5   N4  UNL     1      -0.413  -0.636   3.527  1.00  0.00    -0.075 NA  
ATOM     6   H10 UNL     1       1.778   0.783   1.580  1.00  0.00     0.083 HD  
ENDROOT
BRANCH   1   7
ATOM     7   C6  UNL     1       1.724  -1.697   3.014  1.00  0.00     0.157 C   
BRANCH   7   8
ATOM     8   C5  UNL     1       1.793  -2.329   1.633  1.00  0.00    -0.005 A   
ATOM     9   C2  UNL     1       1.634  -3.382  -0.922  1.00  0.00     0.037 A   
ATOM     10  C3  UNL     1       2.816  -2.779  -0.509  1.00  0.00     0.024 A   
ATOM     11  N5  UNL     1       0.551  -3.474  -0.118  1.00  0.00    -0.261 NA  
ATOM     12  C4  UNL     1       2.892  -2.244   0.777  1.00  0.00     0.009 A   
ATOM     13  C22 UNL     1       0.661  -2.974   1.132  1.00  0.00     0.117 A   
ATOM     14  C1  UNL     1       1.519  -3.949  -2.306  1.00  0.00     0.067 C   
ENDBRANCH   7   8
BRANCH   7  15
ATOM     15  C7  UNL     1       3.049  -1.334   3.712  1.00  0.00     0.186 C   
BRANCH  15  16
ATOM     16  O1  UNL     1       3.756  -0.277   3.063  1.00  0.00    -0.394 OA  
ATOM     17  H9  UNL     1       4.574  -0.126   3.572  1.00  0.00     0.210 HD  
ENDBRANCH  15  16
ENDBRANCH   7  15
ENDBRANCH   1   7
BRANCH   3  18
ATOM     18  C10 UNL     1      -0.970   2.218   1.424  1.00  0.00     0.117 C   
BRANCH  18  19
ATOM     19  N2  UNL     1      -2.339   1.821   0.922  1.00  0.00     0.249 N   
ATOM     20  H12 UNL     1      -2.883   1.541   1.749  1.00  0.00     0.199 HD  
ATOM     21  H13 UNL     1      -2.812   2.623   0.499  1.00  0.00     0.199 HD  
BRANCH  19  22
ATOM     22  C11 UNL     1      -2.386   0.667  -0.033  1.00  0.00     0.164 C   
BRANCH  22  23
ATOM     23  C12 UNL     1      -1.625   0.913  -1.307  1.00  0.00    -0.002 A   
ATOM     24  C13 UNL     1      -2.077   1.875  -2.242  1.00  0.00     0.012 A   
ATOM     25  C17 UNL     1      -0.439   0.202  -1.564  1.00  0.00     0.045 A   
ATOM     26  C14 UNL     1      -1.353   2.134  -3.411  1.00  0.00     0.037 A   
ATOM     27  C16 UNL     1       0.252   0.484  -2.724  1.00  0.00     0.109 A   
ATOM     28  C15 UNL     1      -0.191   1.424  -3.620  1.00  0.00     0.108 A   
ATOM     29  O2  UNL     1       1.415  -0.100  -3.116  1.00  0.00    -0.316 OA  
ATOM     30  O3  UNL     1       0.634   1.549  -4.691  1.00  0.00    -0.316 OA  
ATOM     31  C18 UNL     1       1.636   0.557  -4.384  1.00  0.00     0.337 C   
ENDBRANCH  22  23
ENDBRANCH  19  22
ENDBRANCH  18  19
BRANCH  18  32
ATOM     32  C19 UNL     1      -1.042   3.554   2.210  1.00  0.00     0.037 C   
ATOM     33  C20 UNL     1      -1.327   4.738   1.278  1.00  0.00     0.014 C   
ATOM     34  C21 UNL     1      -2.052   3.559   3.364  1.00  0.00     0.014 C   
ENDBRANCH  18  32
ENDBRANCH   3  18
TORSDOF 9
