REMARK SMILES Cc1ccc([C@H](CO)n2cc([C@@H]([NH2+]Cc3ccc4c(c3)OCO4)C(C)C)nn2)cn1
REMARK SMILES IDX 9 1 10 2 11 3 27 4 28 5 6 7 5 8 2 9 3 10 30 11 4 12 29 13
REMARK SMILES IDX 1 14 7 15 8 16 12 18 13 19 14 22 15 23 16 24 20 25 17 26
REMARK SMILES IDX 19 27 18 28 21 29 23 30 22 31 24 32 25 33 26 34
REMARK H PARENT 10 6 8 17 13 20 13 21
ROOT
ATOM     1   N1  UNL     1      -0.712  -2.118  -1.754  1.00  0.00    -0.202 N   
ATOM     2   C8  UNL     1      -0.251  -1.268  -0.785  1.00  0.00     0.046 A   
ATOM     3   C9  UNL     1      -0.170  -2.050   0.343  1.00  0.00     0.127 A   
ATOM     4   N3  UNL     1      -0.598  -3.318   0.042  1.00  0.00    -0.132 NA  
ATOM     5   N4  UNL     1      -0.937  -3.346  -1.236  1.00  0.00    -0.075 NA  
ATOM     6   H10 UNL     1      -0.032  -0.227  -0.985  1.00  0.00     0.083 HD  
ENDROOT
BRANCH   1   7
ATOM     7   C6  UNL     1      -0.973  -1.857  -3.170  1.00  0.00     0.157 C   
BRANCH   7   8
ATOM     8   C5  UNL     1       0.248  -1.255  -3.837  1.00  0.00    -0.005 A   
ATOM     9   C2  UNL     1       2.505  -0.153  -5.003  1.00  0.00     0.037 A   
ATOM     10  C3  UNL     1       2.404  -1.535  -4.909  1.00  0.00     0.024 A   
ATOM     11  N5  UNL     1       1.542   0.674  -4.535  1.00  0.00    -0.261 NA  
ATOM     12  C4  UNL     1       1.269  -2.087  -4.317  1.00  0.00     0.009 A   
ATOM     13  C22 UNL     1       0.446   0.115  -3.975  1.00  0.00     0.117 A   
ATOM     14  C1  UNL     1       3.709   0.476  -5.637  1.00  0.00     0.067 C   
ENDBRANCH   7   8
BRANCH   7  15
ATOM     15  C7  UNL     1      -2.310  -1.113  -3.370  1.00  0.00     0.186 C   
BRANCH  15  16
ATOM     16  O1  UNL     1      -2.372   0.123  -2.658  1.00  0.00    -0.394 OA  
ATOM     17  H9  UNL     1      -3.204   0.562  -2.921  1.00  0.00     0.210 HD  
ENDBRANCH  15  16
ENDBRANCH   7  15
ENDBRANCH   1   7
BRANCH   3  18
ATOM     18  C10 UNL     1       0.249  -1.713   1.737  1.00  0.00     0.117 C   
BRANCH  18  19
ATOM     19  N2  UNL     1      -0.431  -2.626   2.730  1.00  0.00     0.249 N   
ATOM     20  H12 UNL     1      -0.326  -3.580   2.356  1.00  0.00     0.199 HD  
ATOM     21  H13 UNL     1       0.041  -2.599   3.636  1.00  0.00     0.199 HD  
BRANCH  19  22
ATOM     22  C11 UNL     1      -1.893  -2.398   2.936  1.00  0.00     0.164 C   
BRANCH  22  23
ATOM     23  C12 UNL     1      -2.184  -1.112   3.659  1.00  0.00    -0.002 A   
ATOM     24  C13 UNL     1      -1.933  -0.996   5.048  1.00  0.00     0.012 A   
ATOM     25  C17 UNL     1      -2.678  -0.002   2.951  1.00  0.00     0.045 A   
ATOM     26  C14 UNL     1      -2.166   0.208   5.722  1.00  0.00     0.037 A   
ATOM     27  C16 UNL     1      -2.895   1.170   3.645  1.00  0.00     0.109 A   
ATOM     28  C15 UNL     1      -2.645   1.273   4.992  1.00  0.00     0.108 A   
ATOM     29  O2  UNL     1      -3.358   2.331   3.111  1.00  0.00    -0.316 OA  
ATOM     30  O3  UNL     1      -2.923   2.511   5.477  1.00  0.00    -0.316 OA  
ATOM     31  C18 UNL     1      -3.403   3.173   4.287  1.00  0.00     0.337 C   
ENDBRANCH  22  23
ENDBRANCH  19  22
ENDBRANCH  18  19
BRANCH  18  32
ATOM     32  C19 UNL     1       1.790  -1.781   1.916  1.00  0.00     0.037 C   
ATOM     33  C20 UNL     1       2.368  -3.199   1.835  1.00  0.00     0.014 C   
ATOM     34  C21 UNL     1       2.237  -1.115   3.223  1.00  0.00     0.014 C   
ENDBRANCH  18  32
ENDBRANCH   3  18
TORSDOF 9
