REMARK SMILES COc1cccc(CCn2cc([C@@H]([NH2+]Cc3ccc4c(c3)OCO4)C(C)C)nn2)c1O
REMARK SMILES IDX 10 1 11 2 12 3 28 4 29 5 9 7 8 8 7 9 3 10 4 11 30 12 5 13
REMARK SMILES IDX 6 14 2 15 1 16 31 17 13 19 14 20 15 23 16 24 17 25 21 26
REMARK SMILES IDX 18 27 20 28 19 29 22 30 24 31 23 32 25 33 26 34 27 35
REMARK H PARENT 11 6 31 18 14 21 14 22
ROOT
ATOM     1   N1  UNL     1      -1.919  -2.192  -1.506  1.00  0.00    -0.212 N   
ATOM     2   C9  UNL     1      -0.787  -2.004  -2.248  1.00  0.00     0.045 A   
ATOM     3   C10 UNL     1       0.214  -1.946  -1.304  1.00  0.00     0.127 A   
ATOM     4   N3  UNL     1      -0.320  -2.181  -0.063  1.00  0.00    -0.132 NA  
ATOM     5   N4  UNL     1      -1.624  -2.343  -0.202  1.00  0.00    -0.076 NA  
ATOM     6   H11 UNL     1      -0.815  -1.831  -3.314  1.00  0.00     0.083 HD  
ENDROOT
BRANCH   1   7
ATOM     7   C8  UNL     1      -3.297  -2.126  -1.944  1.00  0.00     0.139 C   
BRANCH   7   8
ATOM     8   C7  UNL     1      -3.691  -0.755  -2.505  1.00  0.00     0.060 C   
BRANCH   8   9
ATOM     9   C6  UNL     1      -3.480   0.387  -1.538  1.00  0.00    -0.014 A   
ATOM     10  C2  UNL     1      -2.257   2.381  -0.797  1.00  0.00     0.105 A   
ATOM     11  C3  UNL     1      -3.111   2.502   0.296  1.00  0.00     0.036 A   
ATOM     12  C23 UNL     1      -2.450   1.321  -1.699  1.00  0.00     0.105 A   
ATOM     13  C4  UNL     1      -4.145   1.579   0.474  1.00  0.00     0.003 A   
ATOM     14  C5  UNL     1      -4.329   0.533  -0.433  1.00  0.00     0.006 A   
BRANCH  10  15
ATOM     15  O1  UNL     1      -1.190   3.198  -1.083  1.00  0.00    -0.347 OA  
ATOM     16  C1  UNL     1      -1.088   4.390  -0.305  1.00  0.00     0.203 C   
ENDBRANCH  10  15
BRANCH  12  17
ATOM     17  O4  UNL     1      -1.592   1.210  -2.767  1.00  0.00    -0.358 OA  
ATOM     18  H29 UNL     1      -1.215   2.107  -2.864  1.00  0.00     0.218 HD  
ENDBRANCH  12  17
ENDBRANCH   8   9
ENDBRANCH   7   8
ENDBRANCH   1   7
BRANCH   3  19
ATOM     19  C11 UNL     1       1.637  -1.516  -1.417  1.00  0.00     0.117 C   
BRANCH  19  20
ATOM     20  N2  UNL     1       1.945  -0.533  -0.312  1.00  0.00     0.249 N   
ATOM     21  H13 UNL     1       1.604  -0.957   0.563  1.00  0.00     0.199 HD  
ATOM     22  H14 UNL     1       2.953  -0.389  -0.201  1.00  0.00     0.199 HD  
BRANCH  20  23
ATOM     23  C12 UNL     1       1.257   0.784  -0.444  1.00  0.00     0.164 C   
BRANCH  23  24
ATOM     24  C13 UNL     1       1.552   1.663   0.738  1.00  0.00    -0.002 A   
ATOM     25  C14 UNL     1       2.636   2.571   0.710  1.00  0.00     0.012 A   
ATOM     26  C18 UNL     1       0.764   1.557   1.898  1.00  0.00     0.045 A   
ATOM     27  C15 UNL     1       2.927   3.373   1.818  1.00  0.00     0.037 A   
ATOM     28  C17 UNL     1       1.079   2.362   2.972  1.00  0.00     0.109 A   
ATOM     29  C16 UNL     1       2.130   3.244   2.934  1.00  0.00     0.108 A   
ATOM     30  O2  UNL     1       0.419   2.392   4.159  1.00  0.00    -0.316 OA  
ATOM     31  O3  UNL     1       2.265   3.940   4.092  1.00  0.00    -0.316 OA  
ATOM     32  C19 UNL     1       1.183   3.389   4.873  1.00  0.00     0.337 C   
ENDBRANCH  23  24
ENDBRANCH  20  23
ENDBRANCH  19  20
BRANCH  19  33
ATOM     33  C20 UNL     1       2.669  -2.668  -1.368  1.00  0.00     0.037 C   
ATOM     34  C21 UNL     1       2.653  -3.486  -0.072  1.00  0.00     0.014 C   
ATOM     35  C22 UNL     1       2.514  -3.605  -2.572  1.00  0.00     0.014 C   
ENDBRANCH  19  33
ENDBRANCH   3  19
TORSDOF 10
