REMARK SMILES Cc1cc(-n2cc([C@H](CC(C)C)[NH2+]Cc3ccc4c(c3)OCO4)nn2)c2cc[nH]c2n1
REMARK SMILES IDX 8 1 7 2 5 3 6 4 25 5 24 6 4 7 2 8 3 9 31 10 30 11 26 12
REMARK SMILES IDX 29 13 27 14 28 15 1 16 9 18 10 19 11 20 12 21 13 22 14 25
REMARK SMILES IDX 15 26 16 27 20 28 17 29 19 30 18 31 21 32 23 33 22 34
REMARK H PARENT 29 17 13 23 13 24
ROOT
ATOM     1   C7  UNL     1       1.265  -0.872   1.482  1.00  0.00     0.114 C   
ENDROOT
BRANCH   1   2
ATOM     2   C6  UNL     1       0.198   0.021   0.938  1.00  0.00     0.127 A   
ATOM     3   N1  UNL     1      -1.590   1.212   0.485  1.00  0.00    -0.180 N   
ATOM     4   C5  UNL     1      -1.046   0.358   1.423  1.00  0.00     0.135 A   
ATOM     5   N4  UNL     1      -0.704   1.327  -0.545  1.00  0.00    -0.071 NA  
ATOM     6   N3  UNL     1       0.380   0.623  -0.272  1.00  0.00    -0.131 NA  
BRANCH   3   7
ATOM     7   C4  UNL     1      -2.834   1.888   0.463  1.00  0.00     0.070 A   
ATOM     8   C2  UNL     1      -4.357   3.355  -0.738  1.00  0.00     0.041 A   
ATOM     9   C3  UNL     1      -3.139   2.685  -0.661  1.00  0.00     0.050 A   
ATOM     10  N6  UNL     1      -5.301   3.301   0.220  1.00  0.00    -0.237 NA  
ATOM     11  C23 UNL     1      -4.974   2.547   1.279  1.00  0.00     0.131 A   
ATOM     12  C20 UNL     1      -3.800   1.824   1.495  1.00  0.00     0.040 A   
ATOM     13  N5  UNL     1      -5.803   2.384   2.354  1.00  0.00    -0.305 N   
ATOM     14  C21 UNL     1      -3.966   1.220   2.780  1.00  0.00     0.029 A   
ATOM     15  C22 UNL     1      -5.202   1.577   3.278  1.00  0.00     0.074 A   
ATOM     16  C1  UNL     1      -4.653   4.223  -1.928  1.00  0.00     0.067 C   
ATOM     17  H27 UNL     1      -6.714   2.814   2.426  1.00  0.00     0.154 HD  
ENDBRANCH   3   7
ENDBRANCH   1   2
BRANCH   1  18
ATOM     18  C8  UNL     1       2.332  -0.100   2.283  1.00  0.00     0.064 C   
BRANCH  18  19
ATOM     19  C9  UNL     1       1.824   0.588   3.568  1.00  0.00    -0.012 C   
ATOM     20  C10 UNL     1       2.969   1.365   4.223  1.00  0.00     0.007 C   
ATOM     21  C11 UNL     1       1.238  -0.407   4.570  1.00  0.00     0.007 C   
ENDBRANCH  18  19
ENDBRANCH   1  18
BRANCH   1  22
ATOM     22  N2  UNL     1       1.984  -1.560   0.345  1.00  0.00     0.249 N   
ATOM     23  H16 UNL     1       2.894  -1.926   0.644  1.00  0.00     0.199 HD  
ATOM     24  H17 UNL     1       2.185  -0.837  -0.365  1.00  0.00     0.199 HD  
BRANCH  22  25
ATOM     25  C12 UNL     1       1.223  -2.649  -0.328  1.00  0.00     0.164 C   
BRANCH  25  26
ATOM     26  C13 UNL     1       2.011  -3.201  -1.482  1.00  0.00    -0.002 A   
ATOM     27  C14 UNL     1       1.899  -2.612  -2.765  1.00  0.00     0.012 A   
ATOM     28  C18 UNL     1       2.909  -4.264  -1.282  1.00  0.00     0.045 A   
ATOM     29  C15 UNL     1       2.662  -3.082  -3.839  1.00  0.00     0.037 A   
ATOM     30  C17 UNL     1       3.648  -4.700  -2.361  1.00  0.00     0.109 A   
ATOM     31  C16 UNL     1       3.528  -4.127  -3.603  1.00  0.00     0.108 A   
ATOM     32  O1  UNL     1       4.557  -5.711  -2.341  1.00  0.00    -0.316 OA  
ATOM     33  O2  UNL     1       4.347  -4.703  -4.521  1.00  0.00    -0.316 OA  
ATOM     34  C19 UNL     1       4.995  -5.714  -3.718  1.00  0.00     0.337 C   
ENDBRANCH  25  26
ENDBRANCH  22  25
ENDBRANCH   1  22
TORSDOF 7
