REMARK SMILES CC(C)C[C@H]([NH2+]Cc1ccc2c(c1)OCO2)c1cn(-c2cccc([C@@H](C)O)c2)nn1
REMARK SMILES IDX 17 1 18 2 19 3 29 4 30 5 5 6 4 7 2 8 1 9 3 10 6 11 7 14 8 15
REMARK SMILES IDX 9 16 13 17 10 18 12 19 11 20 14 21 16 22 15 23 20 24 21 25
REMARK SMILES IDX 28 26 22 27 24 28 23 29 25 30 26 31 27 32
REMARK H PARENT 6 12 6 13 27 33
ROOT
ATOM     1   C14 UNL     1      -0.449  -0.404   2.392  1.00  0.00     0.127 A   
ATOM     2   C15 UNL     1      -1.555  -0.717   1.636  1.00  0.00     0.135 A   
ATOM     3   N2  UNL     1      -2.636  -0.294   2.386  1.00  0.00    -0.181 N   
ATOM     4   N3  UNL     1      -2.173   0.275   3.531  1.00  0.00    -0.071 NA  
ATOM     5   N4  UNL     1      -0.853   0.199   3.550  1.00  0.00    -0.131 NA  
ENDROOT
BRANCH   1   6
ATOM     6   C5  UNL     1       1.010  -0.595   2.127  1.00  0.00     0.114 C   
BRANCH   6   7
ATOM     7   C4  UNL     1       1.485  -1.956   2.677  1.00  0.00     0.064 C   
BRANCH   7   8
ATOM     8   C2  UNL     1       2.957  -2.333   2.404  1.00  0.00    -0.012 C   
ATOM     9   C1  UNL     1       3.248  -3.717   2.994  1.00  0.00     0.007 C   
ATOM     10  C3  UNL     1       3.299  -2.328   0.914  1.00  0.00     0.007 C   
ENDBRANCH   7   8
ENDBRANCH   6   7
BRANCH   6  11
ATOM     11  N1  UNL     1       1.818   0.505   2.776  1.00  0.00     0.249 N   
ATOM     12  H11 UNL     1       2.815   0.280   2.758  1.00  0.00     0.199 HD  
ATOM     13  H12 UNL     1       1.528   0.535   3.764  1.00  0.00     0.199 HD  
BRANCH  11  14
ATOM     14  C6  UNL     1       1.635   1.880   2.218  1.00  0.00     0.164 C   
BRANCH  14  15
ATOM     15  C7  UNL     1       2.124   2.005   0.802  1.00  0.00    -0.002 A   
ATOM     16  C8  UNL     1       1.199   2.149  -0.261  1.00  0.00     0.012 A   
ATOM     17  C12 UNL     1       3.499   1.948   0.518  1.00  0.00     0.045 A   
ATOM     18  C9  UNL     1       1.635   2.226  -1.588  1.00  0.00     0.037 A   
ATOM     19  C11 UNL     1       3.894   2.023  -0.801  1.00  0.00     0.109 A   
ATOM     20  C10 UNL     1       2.990   2.157  -1.824  1.00  0.00     0.108 A   
ATOM     21  O1  UNL     1       5.177   1.968  -1.245  1.00  0.00    -0.316 OA  
ATOM     22  O2  UNL     1       3.588   2.211  -3.042  1.00  0.00    -0.316 OA  
ATOM     23  C13 UNL     1       4.980   2.109  -2.671  1.00  0.00     0.337 C   
ENDBRANCH  14  15
ENDBRANCH  11  14
ENDBRANCH   6  11
ENDBRANCH   1   6
BRANCH   3  24
ATOM     24  C16 UNL     1      -4.019  -0.378   2.090  1.00  0.00     0.058 A   
ATOM     25  C17 UNL     1      -4.955   0.114   3.010  1.00  0.00     0.026 A   
ATOM     26  C23 UNL     1      -4.464  -0.951   0.890  1.00  0.00     0.032 A   
ATOM     27  C18 UNL     1      -6.318   0.030   2.730  1.00  0.00     0.002 A   
ATOM     28  C20 UNL     1      -5.837  -1.048   0.604  1.00  0.00    -0.018 A   
ATOM     29  C19 UNL     1      -6.756  -0.546   1.537  1.00  0.00     0.006 A   
BRANCH  28  30
ATOM     30  C21 UNL     1      -6.340  -1.658  -0.689  1.00  0.00     0.141 C   
ATOM     31  C22 UNL     1      -6.653  -0.589  -1.728  1.00  0.00     0.043 C   
BRANCH  30  32
ATOM     32  O3  UNL     1      -5.360  -2.548  -1.226  1.00  0.00    -0.389 OA  
ATOM     33  H28 UNL     1      -5.788  -3.022  -1.960  1.00  0.00     0.211 HD  
ENDBRANCH  30  32
ENDBRANCH  28  30
ENDBRANCH   3  24
TORSDOF 9
