REMARK SMILES CC(C)C[C@H]([NH2+]Cc1ccc2c(c1)OCO2)c1cn(-c2cccc([C@H](C)O)c2)nn1
REMARK SMILES IDX 17 1 18 2 19 3 29 4 30 5 5 6 4 7 2 8 1 9 3 10 6 11 7 14 8 15
REMARK SMILES IDX 9 16 13 17 10 18 12 19 11 20 14 21 16 22 15 23 20 24 21 25
REMARK SMILES IDX 28 26 22 27 24 28 23 29 25 30 26 31 27 32
REMARK H PARENT 6 12 6 13 27 33
ROOT
ATOM     1   C14 UNL     1      -0.582   0.399  -2.092  1.00  0.00     0.127 A   
ATOM     2   C15 UNL     1      -0.879   0.117  -0.778  1.00  0.00     0.135 A   
ATOM     3   N2  UNL     1      -2.119  -0.493  -0.811  1.00  0.00    -0.181 N   
ATOM     4   N3  UNL     1      -2.517  -0.596  -2.107  1.00  0.00    -0.071 NA  
ATOM     5   N4  UNL     1      -1.600  -0.047  -2.886  1.00  0.00    -0.131 NA  
ENDROOT
BRANCH   1   6
ATOM     6   C5  UNL     1       0.620   1.020  -2.719  1.00  0.00     0.114 C   
BRANCH   6   7
ATOM     7   C4  UNL     1       0.415   2.514  -3.038  1.00  0.00     0.064 C   
BRANCH   7   8
ATOM     8   C2  UNL     1       0.195   3.426  -1.812  1.00  0.00    -0.012 C   
ATOM     9   C1  UNL     1      -0.059   4.863  -2.277  1.00  0.00     0.007 C   
ATOM     10  C3  UNL     1       1.381   3.401  -0.846  1.00  0.00     0.007 C   
ENDBRANCH   7   8
ENDBRANCH   6   7
BRANCH   6  11
ATOM     11  N1  UNL     1       0.932   0.334  -4.036  1.00  0.00     0.249 N   
ATOM     12  H11 UNL     1       1.614   0.883  -4.567  1.00  0.00     0.199 HD  
ATOM     13  H12 UNL     1       0.054   0.332  -4.575  1.00  0.00     0.199 HD  
BRANCH  11  14
ATOM     14  C6  UNL     1       1.405  -1.081  -3.953  1.00  0.00     0.164 C   
BRANCH  14  15
ATOM     15  C7  UNL     1       2.759  -1.205  -3.312  1.00  0.00    -0.002 A   
ATOM     16  C8  UNL     1       3.925  -0.820  -4.018  1.00  0.00     0.012 A   
ATOM     17  C12 UNL     1       2.873  -1.672  -1.991  1.00  0.00     0.045 A   
ATOM     18  C9  UNL     1       5.186  -0.894  -3.416  1.00  0.00     0.037 A   
ATOM     19  C11 UNL     1       4.131  -1.729  -1.428  1.00  0.00     0.109 A   
ATOM     20  C10 UNL     1       5.255  -1.351  -2.119  1.00  0.00     0.108 A   
ATOM     21  O1  UNL     1       4.412  -2.144  -0.165  1.00  0.00    -0.316 OA  
ATOM     22  O2  UNL     1       6.386  -1.484  -1.381  1.00  0.00    -0.316 OA  
ATOM     23  C13 UNL     1       5.853  -2.018  -0.150  1.00  0.00     0.337 C   
ENDBRANCH  14  15
ENDBRANCH  11  14
ENDBRANCH   6  11
ENDBRANCH   1   6
BRANCH   3  24
ATOM     24  C16 UNL     1      -2.903  -0.984   0.261  1.00  0.00     0.058 A   
ATOM     25  C17 UNL     1      -4.131  -1.604  -0.006  1.00  0.00     0.026 A   
ATOM     26  C23 UNL     1      -2.464  -0.862   1.588  1.00  0.00     0.032 A   
ATOM     27  C18 UNL     1      -4.905  -2.101   1.043  1.00  0.00     0.002 A   
ATOM     28  C20 UNL     1      -3.233  -1.369   2.649  1.00  0.00    -0.018 A   
ATOM     29  C19 UNL     1      -4.460  -1.985   2.360  1.00  0.00     0.006 A   
BRANCH  28  30
ATOM     30  C21 UNL     1      -2.781  -1.238   4.089  1.00  0.00     0.141 C   
ATOM     31  C22 UNL     1      -3.380  -0.004   4.753  1.00  0.00     0.043 C   
BRANCH  30  32
ATOM     32  O3  UNL     1      -1.357  -1.148   4.147  1.00  0.00    -0.389 OA  
ATOM     33  H28 UNL     1      -1.114  -1.200   5.088  1.00  0.00     0.211 HD  
ENDBRANCH  30  32
ENDBRANCH  28  30
ENDBRANCH   3  24
TORSDOF 9
