REMARK SMILES COc1ccnc(Cn2cc([C@@H]([NH2+]Cc3ccc4c(c3)OCO4)C3CCCCC3)nn2)c1C
REMARK SMILES IDX 9 1 10 2 11 3 30 4 31 5 8 7 7 8 3 9 4 10 32 11 5 12 6 13
REMARK SMILES IDX 33 14 2 15 1 16 12 17 13 18 14 21 15 22 16 23 20 24 17 25
REMARK SMILES IDX 19 26 18 27 21 28 23 29 22 30 24 31 25 32 29 33 26 34 28 35
REMARK SMILES IDX 27 36
REMARK H PARENT 10 6 13 19 13 20
ROOT
ATOM     1   N2  UNL     1      -0.285  -2.661  -0.160  1.00  0.00    -0.206 N   
ATOM     2   C7  UNL     1       0.927  -2.096   0.134  1.00  0.00     0.046 A   
ATOM     3   C8  UNL     1       0.598  -0.927   0.787  1.00  0.00     0.127 A   
ATOM     4   N4  UNL     1      -0.766  -0.810   0.846  1.00  0.00    -0.132 NA  
ATOM     5   N5  UNL     1      -1.297  -1.891   0.296  1.00  0.00    -0.076 NA  
ATOM     6   H8  UNL     1       1.863  -2.541  -0.181  1.00  0.00     0.083 HD  
ENDROOT
BRANCH   1   7
ATOM     7   C6  UNL     1      -0.546  -3.890  -0.885  1.00  0.00     0.190 C   
BRANCH   7   8
ATOM     8   C5  UNL     1      -0.927  -3.578  -2.311  1.00  0.00     0.065 A   
ATOM     9   C2  UNL     1      -2.480  -3.406  -4.141  1.00  0.00     0.081 A   
ATOM     10  C3  UNL     1      -1.427  -2.983  -4.950  1.00  0.00     0.054 A   
ATOM     11  C24 UNL     1      -2.245  -3.697  -2.785  1.00  0.00     0.003 A   
ATOM     12  C4  UNL     1      -0.167  -2.883  -4.391  1.00  0.00     0.114 A   
ATOM     13  N1  UNL     1       0.107  -3.168  -3.102  1.00  0.00    -0.259 NA  
ATOM     14  C25 UNL     1      -3.363  -4.185  -1.896  1.00  0.00     0.049 C   
BRANCH   9  15
ATOM     15  O1  UNL     1      -3.773  -3.543  -4.576  1.00  0.00    -0.349 OA  
ATOM     16  C1  UNL     1      -4.006  -3.481  -5.980  1.00  0.00     0.203 C   
ENDBRANCH   9  15
ENDBRANCH   7   8
ENDBRANCH   1   7
BRANCH   3  17
ATOM     17  C9  UNL     1       1.460   0.208   1.232  1.00  0.00     0.117 C   
BRANCH  17  18
ATOM     18  N3  UNL     1       1.030   1.417   0.444  1.00  0.00     0.249 N   
ATOM     19  H10 UNL     1       0.037   1.593   0.654  1.00  0.00     0.199 HD  
ATOM     20  H11 UNL     1       1.017   1.143  -0.545  1.00  0.00     0.199 HD  
BRANCH  18  21
ATOM     21  C10 UNL     1       1.837   2.653   0.560  1.00  0.00     0.164 C   
BRANCH  21  22
ATOM     22  C11 UNL     1       1.378   3.673  -0.448  1.00  0.00    -0.002 A   
ATOM     23  C12 UNL     1       0.127   4.323  -0.294  1.00  0.00     0.012 A   
ATOM     24  C16 UNL     1       2.168   3.958  -1.576  1.00  0.00     0.045 A   
ATOM     25  C13 UNL     1      -0.342   5.223  -1.259  1.00  0.00     0.037 A   
ATOM     26  C15 UNL     1       1.682   4.856  -2.505  1.00  0.00     0.109 A   
ATOM     27  C14 UNL     1       0.458   5.462  -2.357  1.00  0.00     0.108 A   
ATOM     28  O2  UNL     1       2.315   5.220  -3.656  1.00  0.00    -0.316 OA  
ATOM     29  O3  UNL     1       0.161   6.276  -3.404  1.00  0.00    -0.316 OA  
ATOM     30  C17 UNL     1       1.359   6.159  -4.202  1.00  0.00     0.337 C   
ENDBRANCH  21  22
ENDBRANCH  18  21
ENDBRANCH  17  18
BRANCH  17  31
ATOM     31  C18 UNL     1       1.446   0.479   2.761  1.00  0.00     0.043 C   
ATOM     32  C19 UNL     1       1.846  -0.779   3.564  1.00  0.00     0.010 C   
ATOM     33  C23 UNL     1       0.133   1.067   3.315  1.00  0.00     0.010 C   
ATOM     34  C20 UNL     1       1.922  -0.498   5.065  1.00  0.00     0.001 C   
ATOM     35  C22 UNL     1       0.223   1.340   4.818  1.00  0.00     0.001 C   
ATOM     36  C21 UNL     1       0.613   0.085   5.591  1.00  0.00     0.000 C   
ENDBRANCH  17  31
ENDBRANCH   3  17
TORSDOF 8
