REMARK SMILES C[C@H](c1cccnc1)n1cc([C@@H]([NH2+]Cc2ccc3c(c2)OCO3)C2CCCC2)nn1
REMARK SMILES IDX 12 1 11 2 9 3 10 4 30 5 29 6 2 8 1 9 3 10 4 11 8 12 5 13
REMARK SMILES IDX 7 14 6 15 13 16 14 19 15 20 16 21 20 22 17 23 19 24 18 25
REMARK SMILES IDX 21 26 23 27 22 28 24 29 25 30 28 31 26 32 27 33
REMARK H PARENT 10 7 13 17 13 18
ROOT
ATOM     1   C10 UNL     1       0.916  -1.977   0.272  1.00  0.00     0.117 C   
ENDROOT
BRANCH   1   2
ATOM     2   C9  UNL     1       1.479  -1.168  -0.848  1.00  0.00     0.127 A   
ATOM     3   N2  UNL     1       2.033   0.369  -2.270  1.00  0.00    -0.205 N   
ATOM     4   C8  UNL     1       1.690   0.188  -0.956  1.00  0.00     0.046 A   
ATOM     5   N5  UNL     1       2.075  -0.813  -2.916  1.00  0.00    -0.075 NA  
ATOM     6   N4  UNL     1       1.739  -1.761  -2.056  1.00  0.00    -0.132 NA  
ATOM     7   H9  UNL     1       1.559   1.016  -0.271  1.00  0.00     0.083 HD  
BRANCH   3   8
ATOM     8   C2  UNL     1       2.114   1.627  -3.019  1.00  0.00     0.128 C   
ATOM     9   C1  UNL     1       3.271   2.489  -2.505  1.00  0.00     0.036 C   
BRANCH   8  10
ATOM     10  C3  UNL     1       0.740   2.275  -3.020  1.00  0.00    -0.007 A   
ATOM     11  C4  UNL     1       0.411   3.423  -2.290  1.00  0.00     0.009 A   
ATOM     12  C7  UNL     1      -0.298   1.661  -3.728  1.00  0.00     0.116 A   
ATOM     13  C5  UNL     1      -0.902   3.891  -2.288  1.00  0.00     0.020 A   
ATOM     14  N1  UNL     1      -1.583   2.078  -3.718  1.00  0.00    -0.264 NA  
ATOM     15  C6  UNL     1      -1.856   3.191  -3.007  1.00  0.00     0.111 A   
ENDBRANCH   8  10
ENDBRANCH   3   8
ENDBRANCH   1   2
BRANCH   1  16
ATOM     16  N3  UNL     1      -0.090  -2.979  -0.257  1.00  0.00     0.249 N   
ATOM     17  H11 UNL     1       0.402  -3.542  -0.965  1.00  0.00     0.199 HD  
ATOM     18  H12 UNL     1      -0.380  -3.613   0.493  1.00  0.00     0.199 HD  
BRANCH  16  19
ATOM     19  C11 UNL     1      -1.308  -2.415  -0.924  1.00  0.00     0.164 C   
BRANCH  19  20
ATOM     20  C12 UNL     1      -2.131  -1.535  -0.024  1.00  0.00    -0.002 A   
ATOM     21  C13 UNL     1      -2.844  -2.088   1.066  1.00  0.00     0.012 A   
ATOM     22  C17 UNL     1      -2.175  -0.146  -0.248  1.00  0.00     0.045 A   
ATOM     23  C14 UNL     1      -3.582  -1.270   1.929  1.00  0.00     0.037 A   
ATOM     24  C16 UNL     1      -2.911   0.631   0.622  1.00  0.00     0.109 A   
ATOM     25  C15 UNL     1      -3.593   0.085   1.681  1.00  0.00     0.108 A   
ATOM     26  O1  UNL     1      -3.050   1.982   0.555  1.00  0.00    -0.316 OA  
ATOM     27  O2  UNL     1      -4.249   1.021   2.413  1.00  0.00    -0.316 OA  
ATOM     28  C18 UNL     1      -3.939   2.220   1.671  1.00  0.00     0.337 C   
ENDBRANCH  19  20
ENDBRANCH  16  19
ENDBRANCH   1  16
BRANCH   1  29
ATOM     29  C19 UNL     1       1.957  -2.743   1.109  1.00  0.00     0.043 C   
ATOM     30  C20 UNL     1       3.011  -1.858   1.778  1.00  0.00     0.010 C   
ATOM     31  C23 UNL     1       2.820  -3.769   0.372  1.00  0.00     0.010 C   
ATOM     32  C21 UNL     1       4.045  -2.857   2.285  1.00  0.00     0.001 C   
ATOM     33  C22 UNL     1       3.983  -4.045   1.326  1.00  0.00     0.001 C   
ENDBRANCH   1  29
TORSDOF 7
