REMARK SMILES C[C@@H](c1cccnc1)n1cc([C@@H]([NH2+]Cc2ccc3c(c2)OCO3)C2CCCC2)nn1
REMARK SMILES IDX 12 1 11 2 9 3 10 4 30 5 29 6 2 8 1 9 3 10 4 11 8 12 5 13
REMARK SMILES IDX 7 14 6 15 13 16 14 19 15 20 16 21 20 22 17 23 19 24 18 25
REMARK SMILES IDX 21 26 23 27 22 28 24 29 25 30 28 31 26 32 27 33
REMARK H PARENT 10 7 13 17 13 18
ROOT
ATOM     1   C10 UNL     1      -0.988  -1.516  -0.374  1.00  0.00     0.117 C   
ENDROOT
BRANCH   1   2
ATOM     2   C9  UNL     1      -0.387  -1.022   0.900  1.00  0.00     0.127 A   
ATOM     3   N2  UNL     1       0.567   0.113   2.479  1.00  0.00    -0.205 N   
ATOM     4   C8  UNL     1      -0.268   0.256   1.399  1.00  0.00     0.046 A   
ATOM     5   N5  UNL     1       0.877  -1.187   2.667  1.00  0.00    -0.075 NA  
ATOM     6   N4  UNL     1       0.296  -1.889   1.710  1.00  0.00    -0.132 NA  
ATOM     7   H9  UNL     1      -0.602   1.224   1.052  1.00  0.00     0.083 HD  
BRANCH   3   8
ATOM     8   C2  UNL     1       1.277   1.183   3.184  1.00  0.00     0.128 C   
ATOM     9   C1  UNL     1       1.786   0.781   4.571  1.00  0.00     0.036 C   
BRANCH   8  10
ATOM     10  C3  UNL     1       2.383   1.705   2.288  1.00  0.00    -0.007 A   
ATOM     11  C4  UNL     1       2.386   3.029   1.833  1.00  0.00     0.009 A   
ATOM     12  C7  UNL     1       3.405   0.874   1.832  1.00  0.00     0.116 A   
ATOM     13  C5  UNL     1       3.376   3.454   0.951  1.00  0.00     0.020 A   
ATOM     14  N1  UNL     1       4.356   1.254   0.952  1.00  0.00    -0.264 NA  
ATOM     15  C6  UNL     1       4.330   2.539   0.540  1.00  0.00     0.111 A   
ENDBRANCH   8  10
ENDBRANCH   3   8
ENDBRANCH   1   2
BRANCH   1  16
ATOM     16  N3  UNL     1      -0.045  -2.481  -1.056  1.00  0.00     0.249 N   
ATOM     17  H11 UNL     1       0.160  -3.223  -0.373  1.00  0.00     0.199 HD  
ATOM     18  H12 UNL     1      -0.496  -2.920  -1.861  1.00  0.00     0.199 HD  
BRANCH  16  19
ATOM     19  C11 UNL     1       1.282  -1.930  -1.485  1.00  0.00     0.164 C   
BRANCH  19  20
ATOM     20  C12 UNL     1       1.172  -0.780  -2.447  1.00  0.00    -0.002 A   
ATOM     21  C13 UNL     1       0.686  -0.981  -3.761  1.00  0.00     0.012 A   
ATOM     22  C17 UNL     1       1.529   0.516  -2.032  1.00  0.00     0.045 A   
ATOM     23  C14 UNL     1       0.543   0.094  -4.645  1.00  0.00     0.037 A   
ATOM     24  C16 UNL     1       1.372   1.554  -2.926  1.00  0.00     0.109 A   
ATOM     25  C15 UNL     1       0.890   1.349  -4.196  1.00  0.00     0.108 A   
ATOM     26  O1  UNL     1       1.652   2.861  -2.681  1.00  0.00    -0.316 OA  
ATOM     27  O2  UNL     1       0.809   2.500  -4.911  1.00  0.00    -0.316 OA  
ATOM     28  C18 UNL     1       1.325   3.454  -3.958  1.00  0.00     0.337 C   
ENDBRANCH  19  20
ENDBRANCH  16  19
ENDBRANCH   1  16
BRANCH   1  29
ATOM     29  C19 UNL     1      -2.371  -2.156  -0.146  1.00  0.00     0.043 C   
ATOM     30  C20 UNL     1      -2.400  -3.515   0.559  1.00  0.00     0.010 C   
ATOM     31  C23 UNL     1      -3.158  -2.447  -1.427  1.00  0.00     0.010 C   
ATOM     32  C21 UNL     1      -3.829  -4.001   0.338  1.00  0.00     0.001 C   
ATOM     33  C22 UNL     1      -4.290  -3.367  -0.975  1.00  0.00     0.001 C   
ENDBRANCH   1  29
TORSDOF 7
