REMARK SMILES CC(C)(C)c1n[nH]cc1CCn1cc([C@@H]([NH2+]Cc2ccc3c(c2)OCO3)C(C)(C)C)nn1
REMARK SMILES IDX 12 1 13 2 14 3 31 4 32 5 11 7 10 8 9 9 5 10 6 11 7 12 8 13
REMARK SMILES IDX 2 15 1 16 3 17 4 18 15 19 16 20 17 23 18 24 19 25 23 26
REMARK SMILES IDX 20 27 22 28 21 29 24 30 26 31 25 32 27 33 28 34 29 35 30 36
REMARK H PARENT 13 6 7 14 16 21 16 22
ROOT
ATOM     1   N3  UNL     1      -1.933  -2.339  -0.544  1.00  0.00    -0.212 N   
ATOM     2   C10 UNL     1      -1.325  -1.187  -0.956  1.00  0.00     0.045 A   
ATOM     3   C11 UNL     1      -1.179  -0.454   0.201  1.00  0.00     0.127 A   
ATOM     4   N5  UNL     1      -1.747  -1.146   1.242  1.00  0.00    -0.132 NA  
ATOM     5   N6  UNL     1      -2.223  -2.286   0.769  1.00  0.00    -0.076 NA  
ATOM     6   H16 UNL     1      -1.039  -1.019  -1.985  1.00  0.00     0.083 HD  
ENDROOT
BRANCH   1   7
ATOM     7   C9  UNL     1      -2.309  -3.489  -1.341  1.00  0.00     0.139 C   
BRANCH   7   8
ATOM     8   C8  UNL     1      -1.280  -4.619  -1.298  1.00  0.00     0.060 C   
BRANCH   8   9
ATOM     9   C7  UNL     1       0.050  -4.236  -1.868  1.00  0.00    -0.007 A   
ATOM     10  C5  UNL     1       1.350  -4.226  -1.259  1.00  0.00     0.068 A   
ATOM     11  N1  UNL     1       2.265  -3.749  -2.117  1.00  0.00    -0.189 NA  
ATOM     12  N2  UNL     1       1.613  -3.584  -3.269  1.00  0.00    -0.245 N   
ATOM     13  C6  UNL     1       0.279  -3.825  -3.167  1.00  0.00     0.097 A   
ATOM     14  H10 UNL     1       2.144  -3.297  -4.085  1.00  0.00     0.175 HD  
BRANCH  10  15
ATOM     15  C2  UNL     1       1.798  -4.678   0.134  1.00  0.00     0.006 C   
ATOM     16  C1  UNL     1       1.079  -3.883   1.238  1.00  0.00     0.017 C   
ATOM     17  C3  UNL     1       1.527  -6.185   0.319  1.00  0.00     0.017 C   
ATOM     18  C4  UNL     1       3.319  -4.460   0.345  1.00  0.00     0.017 C   
ENDBRANCH  10  15
ENDBRANCH   8   9
ENDBRANCH   7   8
ENDBRANCH   1   7
BRANCH   3  19
ATOM     19  C12 UNL     1      -0.609   0.913   0.444  1.00  0.00     0.120 C   
BRANCH  19  20
ATOM     20  N4  UNL     1      -1.371   1.547   1.593  1.00  0.00     0.250 N   
ATOM     21  H18 UNL     1      -0.825   2.280   2.051  1.00  0.00     0.199 HD  
ATOM     22  H19 UNL     1      -1.497   0.796   2.288  1.00  0.00     0.199 HD  
BRANCH  20  23
ATOM     23  C13 UNL     1      -2.725   2.079   1.267  1.00  0.00     0.164 C   
BRANCH  23  24
ATOM     24  C14 UNL     1      -2.662   3.379   0.514  1.00  0.00    -0.002 A   
ATOM     25  C15 UNL     1      -2.995   3.428  -0.861  1.00  0.00     0.012 A   
ATOM     26  C19 UNL     1      -2.248   4.554   1.167  1.00  0.00     0.045 A   
ATOM     27  C16 UNL     1      -2.911   4.627  -1.579  1.00  0.00     0.037 A   
ATOM     28  C18 UNL     1      -2.177   5.717   0.431  1.00  0.00     0.109 A   
ATOM     29  C17 UNL     1      -2.498   5.754  -0.904  1.00  0.00     0.108 A   
ATOM     30  O1  UNL     1      -1.794   6.931   0.907  1.00  0.00    -0.316 OA  
ATOM     31  O2  UNL     1      -2.359   6.995  -1.436  1.00  0.00    -0.316 OA  
ATOM     32  C20 UNL     1      -1.952   7.750  -0.274  1.00  0.00     0.337 C   
ENDBRANCH  23  24
ENDBRANCH  20  23
ENDBRANCH  19  20
BRANCH  19  33
ATOM     33  C21 UNL     1       0.931   0.939   0.740  1.00  0.00     0.010 C   
ATOM     34  C22 UNL     1       1.441   2.401   0.754  1.00  0.00     0.017 C   
ATOM     35  C23 UNL     1       1.711   0.209  -0.377  1.00  0.00     0.017 C   
ATOM     36  C24 UNL     1       1.287   0.290   2.091  1.00  0.00     0.017 C   
ENDBRANCH  19  33
ENDBRANCH   3  19
TORSDOF 9
