REMARK SMILES COCc1ccoc1Cn1cc([C@@H]([NH2+]Cc2ccc3c(c2)OCO3)C(C)C)nn1
REMARK SMILES IDX 10 1 11 2 12 3 28 4 29 5 9 7 8 8 4 9 5 10 6 11 7 12 3 13
REMARK SMILES IDX 2 14 1 15 13 16 14 17 15 20 16 21 17 22 21 23 18 24 20 25
REMARK SMILES IDX 19 26 22 27 24 28 23 29 25 30 26 31 27 32
REMARK H PARENT 11 6 14 18 14 19
ROOT
ATOM     1   N1  UNL     1       1.812   2.310   1.128  1.00  0.00    -0.206 N   
ATOM     2   C8  UNL     1       0.754   1.629   1.670  1.00  0.00     0.046 A   
ATOM     3   C9  UNL     1       0.051   1.172   0.580  1.00  0.00     0.127 A   
ATOM     4   N3  UNL     1       0.633   1.655  -0.565  1.00  0.00    -0.132 NA  
ATOM     5   N4  UNL     1       1.691   2.368  -0.218  1.00  0.00    -0.076 NA  
ATOM     6   H10 UNL     1       0.636   1.501   2.737  1.00  0.00     0.083 HD  
ENDROOT
BRANCH   1   7
ATOM     7   C7  UNL     1       2.929   2.969   1.790  1.00  0.00     0.196 C   
BRANCH   7   8
ATOM     8   C6  UNL     1       3.279   2.318   3.080  1.00  0.00     0.083 A   
ATOM     9   C3  UNL     1       4.058   1.221   3.421  1.00  0.00     0.008 A   
ATOM     10  C4  UNL     1       3.982   1.129   4.841  1.00  0.00     0.034 A   
ATOM     11  C5  UNL     1       3.174   2.158   5.261  1.00  0.00     0.136 A   
ATOM     12  O2  UNL     1       2.739   2.880   4.201  1.00  0.00    -0.320 OA  
BRANCH   9  13
ATOM     13  C2  UNL     1       4.833   0.327   2.512  1.00  0.00     0.197 C   
BRANCH  13  14
ATOM     14  O1  UNL     1       4.213   0.245   1.225  1.00  0.00    -0.380 OA  
ATOM     15  C1  UNL     1       4.947  -0.597   0.345  1.00  0.00     0.195 C   
ENDBRANCH  13  14
ENDBRANCH   9  13
ENDBRANCH   7   8
ENDBRANCH   1   7
BRANCH   3  16
ATOM     16  C10 UNL     1      -1.172   0.322   0.485  1.00  0.00     0.117 C   
BRANCH  16  17
ATOM     17  N2  UNL     1      -1.944   0.652  -0.769  1.00  0.00     0.249 N   
ATOM     18  H12 UNL     1      -2.604  -0.097  -1.007  1.00  0.00     0.199 HD  
ATOM     19  H13 UNL     1      -1.260   0.699  -1.539  1.00  0.00     0.199 HD  
BRANCH  17  20
ATOM     20  C11 UNL     1      -2.669   1.953  -0.750  1.00  0.00     0.164 C   
BRANCH  20  21
ATOM     21  C12 UNL     1      -3.488   2.108  -2.000  1.00  0.00    -0.002 A   
ATOM     22  C13 UNL     1      -2.893   2.601  -3.186  1.00  0.00     0.012 A   
ATOM     23  C17 UNL     1      -4.834   1.703  -2.017  1.00  0.00     0.045 A   
ATOM     24  C14 UNL     1      -3.630   2.701  -4.372  1.00  0.00     0.037 A   
ATOM     25  C16 UNL     1      -5.531   1.813  -3.203  1.00  0.00     0.109 A   
ATOM     26  C15 UNL     1      -4.947   2.297  -4.348  1.00  0.00     0.108 A   
ATOM     27  O3  UNL     1      -6.830   1.459  -3.391  1.00  0.00    -0.316 OA  
ATOM     28  O4  UNL     1      -5.804   2.307  -5.400  1.00  0.00    -0.316 OA  
ATOM     29  C18 UNL     1      -7.012   1.818  -4.779  1.00  0.00     0.337 C   
ENDBRANCH  20  21
ENDBRANCH  17  20
ENDBRANCH  16  17
BRANCH  16  30
ATOM     30  C19 UNL     1      -0.883  -1.203   0.487  1.00  0.00     0.037 C   
ATOM     31  C20 UNL     1      -0.309  -1.674   1.829  1.00  0.00     0.014 C   
ATOM     32  C21 UNL     1       0.027  -1.669  -0.657  1.00  0.00     0.014 C   
ENDBRANCH  16  30
ENDBRANCH   3  16
TORSDOF 9
