REMARK SMILES COc1cc(CCn2cc([C@@H]([NH2+]Cc3ccc4c(c3)OCO4)C3CCCC3)nn2)ccc1F
REMARK SMILES IDX 8 1 9 2 10 3 28 4 29 5 7 7 6 8 5 9 3 10 4 11 32 12 31 13
REMARK SMILES IDX 30 14 33 15 2 16 1 17 11 18 12 19 13 22 14 23 15 24 19 25
REMARK SMILES IDX 16 26 18 27 17 28 20 29 22 30 21 31 23 32 24 33 27 34 25 35
REMARK SMILES IDX 26 36
REMARK H PARENT 9 6 12 20 12 21
ROOT
ATOM     1   N1  UNL     1       1.999   1.518  -2.703  1.00  0.00    -0.212 N   
ATOM     2   C7  UNL     1       1.834   1.047  -1.428  1.00  0.00     0.045 A   
ATOM     3   C8  UNL     1       1.127  -0.124  -1.598  1.00  0.00     0.127 A   
ATOM     4   N3  UNL     1       0.951  -0.350  -2.937  1.00  0.00    -0.132 NA  
ATOM     5   N4  UNL     1       1.522   0.641  -3.604  1.00  0.00    -0.076 NA  
ATOM     6   H9  UNL     1       2.128   1.613  -0.555  1.00  0.00     0.083 HD  
ENDROOT
BRANCH   1   7
ATOM     7   C6  UNL     1       2.350   2.869  -3.103  1.00  0.00     0.139 C   
BRANCH   7   8
ATOM     8   C5  UNL     1       1.135   3.687  -3.571  1.00  0.00     0.057 C   
BRANCH   8   9
ATOM     9   C4  UNL     1       0.016   3.704  -2.550  1.00  0.00    -0.044 A   
ATOM     10  C2  UNL     1      -1.911   2.611  -1.566  1.00  0.00     0.110 A   
ATOM     11  C3  UNL     1      -0.972   2.706  -2.586  1.00  0.00     0.040 A   
ATOM     12  C25 UNL     1      -1.891   3.524  -0.515  1.00  0.00     0.153 A   
ATOM     13  C24 UNL     1      -0.950   4.545  -0.489  1.00  0.00     0.042 A   
ATOM     14  C23 UNL     1       0.009   4.632  -1.502  1.00  0.00     0.007 A   
ATOM     15  F1  UNL     1      -2.757   3.401   0.500  1.00  0.00    -0.204 F   
BRANCH  10  16
ATOM     16  O1  UNL     1      -2.749   1.525  -1.573  1.00  0.00    -0.346 OA  
ATOM     17  C1  UNL     1      -4.095   1.953  -1.839  1.00  0.00     0.203 C   
ENDBRANCH  10  16
ENDBRANCH   8   9
ENDBRANCH   7   8
ENDBRANCH   1   7
BRANCH   3  18
ATOM     18  C9  UNL     1       0.463  -1.002  -0.586  1.00  0.00     0.117 C   
BRANCH  18  19
ATOM     19  N2  UNL     1      -1.022  -0.992  -0.871  1.00  0.00     0.249 N   
ATOM     20  H11 UNL     1      -1.309  -0.004  -0.970  1.00  0.00     0.199 HD  
ATOM     21  H12 UNL     1      -1.161  -1.377  -1.814  1.00  0.00     0.199 HD  
BRANCH  19  22
ATOM     22  C10 UNL     1      -1.946  -1.639   0.097  1.00  0.00     0.164 C   
BRANCH  22  23
ATOM     23  C11 UNL     1      -1.860  -1.069   1.487  1.00  0.00    -0.002 A   
ATOM     24  C12 UNL     1      -2.385   0.213   1.768  1.00  0.00     0.012 A   
ATOM     25  C16 UNL     1      -1.224  -1.788   2.513  1.00  0.00     0.045 A   
ATOM     26  C13 UNL     1      -2.267   0.779   3.042  1.00  0.00     0.037 A   
ATOM     27  C15 UNL     1      -1.121  -1.201   3.756  1.00  0.00     0.109 A   
ATOM     28  C14 UNL     1      -1.626   0.047   4.015  1.00  0.00     0.108 A   
ATOM     29  O2  UNL     1      -0.524  -1.754   4.844  1.00  0.00    -0.316 OA  
ATOM     30  O3  UNL     1      -1.414   0.438   5.297  1.00  0.00    -0.316 OA  
ATOM     31  C17 UNL     1      -0.727  -0.714   5.827  1.00  0.00     0.337 C   
ENDBRANCH  22  23
ENDBRANCH  19  22
ENDBRANCH  18  19
BRANCH  18  32
ATOM     32  C18 UNL     1       1.003  -2.444  -0.526  1.00  0.00     0.043 C   
ATOM     33  C19 UNL     1       2.519  -2.554  -0.344  1.00  0.00     0.010 C   
ATOM     34  C22 UNL     1       0.763  -3.339  -1.741  1.00  0.00     0.010 C   
ATOM     35  C20 UNL     1       2.837  -4.015  -0.656  1.00  0.00     0.001 C   
ATOM     36  C21 UNL     1       1.659  -4.544  -1.476  1.00  0.00     0.001 C   
ENDBRANCH  18  32
ENDBRANCH   3  18
TORSDOF 9
