REMARK SMILES CC(C)(C)[C@H]([NH2+]Cc1ccc2c(c1)OCO2)c1cn(Cc2cc(C(F)(F)F)n[nH]2)nn1
REMARK SMILES IDX 17 1 18 2 19 3 30 4 31 5 5 7 2 8 1 9 3 10 4 11 6 12 7 15
REMARK SMILES IDX 8 16 9 17 13 18 10 19 12 20 11 21 14 22 16 23 15 24 20 25
REMARK SMILES IDX 21 26 22 27 29 28 23 29 28 30 24 32 25 33 26 34 27 35
REMARK H PARENT 18 6 6 13 6 14 29 31
ROOT
ATOM     1   C14 UNL     1       0.913  -1.186   1.818  1.00  0.00     0.127 A   
ATOM     2   C15 UNL     1       1.508  -0.016   1.398  1.00  0.00     0.046 A   
ATOM     3   N2  UNL     1       2.537  -0.438   0.604  1.00  0.00    -0.206 N   
ATOM     4   N5  UNL     1       2.575  -1.784   0.535  1.00  0.00    -0.076 NA  
ATOM     5   N6  UNL     1       1.579  -2.253   1.267  1.00  0.00    -0.132 NA  
ATOM     6   H20 UNL     1       1.287   1.030   1.558  1.00  0.00     0.083 HD  
ENDROOT
BRANCH   1   7
ATOM     7   C5  UNL     1      -0.323  -1.439   2.629  1.00  0.00     0.120 C   
BRANCH   7   8
ATOM     8   C2  UNL     1      -0.051  -1.758   4.139  1.00  0.00     0.010 C   
ATOM     9   C1  UNL     1       0.763  -3.050   4.346  1.00  0.00     0.017 C   
ATOM     10  C3  UNL     1      -1.389  -1.893   4.903  1.00  0.00     0.017 C   
ATOM     11  C4  UNL     1       0.723  -0.590   4.792  1.00  0.00     0.017 C   
ENDBRANCH   7   8
BRANCH   7  12
ATOM     12  N1  UNL     1      -1.091  -2.572   1.969  1.00  0.00     0.250 N   
ATOM     13  H11 UNL     1      -0.404  -3.074   1.384  1.00  0.00     0.199 HD  
ATOM     14  H12 UNL     1      -1.406  -3.263   2.654  1.00  0.00     0.199 HD  
BRANCH  12  15
ATOM     15  C6  UNL     1      -2.244  -2.181   1.109  1.00  0.00     0.164 C   
BRANCH  15  16
ATOM     16  C7  UNL     1      -1.885  -1.264  -0.027  1.00  0.00    -0.002 A   
ATOM     17  C8  UNL     1      -1.123  -1.736  -1.123  1.00  0.00     0.012 A   
ATOM     18  C12 UNL     1      -2.285   0.083   0.004  1.00  0.00     0.045 A   
ATOM     19  C9  UNL     1      -0.761  -0.880  -2.169  1.00  0.00     0.037 A   
ATOM     20  C11 UNL     1      -1.910   0.900  -1.042  1.00  0.00     0.109 A   
ATOM     21  C10 UNL     1      -1.169   0.433  -2.098  1.00  0.00     0.108 A   
ATOM     22  O1  UNL     1      -2.207   2.221  -1.160  1.00  0.00    -0.316 OA  
ATOM     23  O2  UNL     1      -0.909   1.400  -3.014  1.00  0.00    -0.316 OA  
ATOM     24  C13 UNL     1      -1.626   2.518  -2.451  1.00  0.00     0.337 C   
ENDBRANCH  15  16
ENDBRANCH  12  15
ENDBRANCH   7  12
ENDBRANCH   1   7
BRANCH   3  25
ATOM     25  C16 UNL     1       3.482   0.365  -0.158  1.00  0.00     0.186 C   
BRANCH  25  26
ATOM     26  C17 UNL     1       3.074   0.435  -1.585  1.00  0.00     0.047 A   
ATOM     27  C18 UNL     1       2.628   1.472  -2.373  1.00  0.00     0.057 A   
ATOM     28  N4  UNL     1       3.094  -0.665  -2.399  1.00  0.00    -0.240 N   
ATOM     29  C19 UNL     1       2.371   0.899  -3.650  1.00  0.00     0.164 A   
ATOM     30  N3  UNL     1       2.655  -0.419  -3.640  1.00  0.00    -0.179 NA  
ATOM     31  H24 UNL     1       3.365  -1.617  -2.164  1.00  0.00     0.175 HD  
BRANCH  29  32
ATOM     32  C20 UNL     1       1.851   1.623  -4.869  1.00  0.00     0.434 C   
ATOM     33  F1  UNL     1       1.265   2.807  -4.531  1.00  0.00    -0.164 F   
ATOM     34  F2  UNL     1       2.848   1.927  -5.741  1.00  0.00    -0.164 F   
ATOM     35  F3  UNL     1       0.919   0.912  -5.556  1.00  0.00    -0.164 F   
ENDBRANCH  29  32
ENDBRANCH  25  26
ENDBRANCH   3  25
TORSDOF 8
