REMARK SMILES Cc1cc(F)cc(Cn2cc([C@@H]([NH2+]Cc3ccc4c(c3)OCO4)C3CCCC3)nn2)c1
REMARK SMILES IDX 9 1 10 2 11 3 29 4 30 5 8 7 7 8 2 9 3 10 31 11 4 12 6 13
REMARK SMILES IDX 1 14 5 15 12 16 13 17 14 20 15 21 16 22 20 23 17 24 19 25
REMARK SMILES IDX 18 26 21 27 23 28 22 29 24 30 25 31 28 32 26 33 27 34
REMARK H PARENT 10 6 13 18 13 19
ROOT
ATOM     1   N1  UNL     1       2.045  -2.536   0.299  1.00  0.00    -0.208 N   
ATOM     2   C8  UNL     1       2.240  -1.461  -0.526  1.00  0.00     0.046 A   
ATOM     3   C9  UNL     1       1.510  -0.453   0.064  1.00  0.00     0.127 A   
ATOM     4   N3  UNL     1       0.924  -0.931   1.208  1.00  0.00    -0.132 NA  
ATOM     5   N4  UNL     1       1.254  -2.205   1.338  1.00  0.00    -0.076 NA  
ATOM     6   H8  UNL     1       2.837  -1.523  -1.425  1.00  0.00     0.083 HD  
ENDROOT
BRANCH   1   7
ATOM     7   C7  UNL     1       2.550  -3.891   0.150  1.00  0.00     0.169 C   
BRANCH   7   8
ATOM     8   C6  UNL     1       1.830  -4.614  -0.961  1.00  0.00    -0.025 A   
ATOM     9   C2  UNL     1       1.815  -5.564  -3.215  1.00  0.00    -0.048 A   
ATOM     10  C3  UNL     1       0.478  -5.938  -3.039  1.00  0.00     0.042 A   
ATOM     11  C24 UNL     1       2.487  -4.912  -2.168  1.00  0.00     0.009 A   
ATOM     12  C4  UNL     1      -0.171  -5.645  -1.846  1.00  0.00     0.123 A   
ATOM     13  C5  UNL     1       0.488  -4.992  -0.810  1.00  0.00     0.044 A   
ATOM     14  C1  UNL     1       2.540  -5.914  -4.483  1.00  0.00     0.044 C   
ATOM     15  F1  UNL     1      -1.455  -5.993  -1.690  1.00  0.00    -0.207 F   
ENDBRANCH   7   8
ENDBRANCH   1   7
BRANCH   3  16
ATOM     16  C10 UNL     1       1.250   0.958  -0.355  1.00  0.00     0.117 C   
BRANCH  16  17
ATOM     17  N2  UNL     1      -0.069   1.424   0.202  1.00  0.00     0.249 N   
ATOM     18  H10 UNL     1      -0.123   2.445   0.276  1.00  0.00     0.199 HD  
ATOM     19  H11 UNL     1      -0.124   1.065   1.168  1.00  0.00     0.199 HD  
BRANCH  17  20
ATOM     20  C11 UNL     1      -1.273   0.920  -0.514  1.00  0.00     0.164 C   
BRANCH  20  21
ATOM     21  C12 UNL     1      -2.522   1.364   0.191  1.00  0.00    -0.002 A   
ATOM     22  C13 UNL     1      -3.079   0.565   1.219  1.00  0.00     0.012 A   
ATOM     23  C17 UNL     1      -3.110   2.601  -0.121  1.00  0.00     0.045 A   
ATOM     24  C14 UNL     1      -4.215   0.985   1.919  1.00  0.00     0.037 A   
ATOM     25  C16 UNL     1      -4.227   2.986   0.591  1.00  0.00     0.109 A   
ATOM     26  C15 UNL     1      -4.765   2.201   1.582  1.00  0.00     0.108 A   
ATOM     27  O1  UNL     1      -4.912   4.147   0.418  1.00  0.00    -0.316 OA  
ATOM     28  O2  UNL     1      -5.857   2.768   2.156  1.00  0.00    -0.316 OA  
ATOM     29  C18 UNL     1      -5.959   3.996   1.404  1.00  0.00     0.337 C   
ENDBRANCH  20  21
ENDBRANCH  17  20
ENDBRANCH  16  17
BRANCH  16  30
ATOM     30  C19 UNL     1       2.384   1.905   0.083  1.00  0.00     0.043 C   
ATOM     31  C20 UNL     1       2.528   2.133   1.593  1.00  0.00     0.010 C   
ATOM     32  C23 UNL     1       2.295   3.321  -0.518  1.00  0.00     0.010 C   
ATOM     33  C21 UNL     1       3.348   3.411   1.667  1.00  0.00     0.001 C   
ATOM     34  C22 UNL     1       2.729   4.284   0.587  1.00  0.00     0.001 C   
ENDBRANCH  16  30
ENDBRANCH   3  16
TORSDOF 7
