REMARK SMILES CC(C)[C@H]([NH2+]Cc1ccc2c(c1)OCO2)c1cn(-c2ccc3c(=O)cc(-c4ccccc4)oc3c2)nn1
REMARK SMILES IDX 4 1 2 2 1 3 3 4 5 5 6 8 7 9 8 10 12 11 9 12 11 13 10 14
REMARK SMILES IDX 13 15 15 16 14 17 16 18 17 19 37 20 18 21 36 22 19 23 20 24
REMARK SMILES IDX 35 25 21 26 34 27 22 28 33 29 23 30 26 31 25 32 24 33 27 34
REMARK SMILES IDX 28 35 32 36 29 37 31 38 30 39
REMARK H PARENT 5 6 5 7
ROOT
ATOM     1   C4  UNL     1       0.703  -3.567   1.373  1.00  0.00     0.117 C   
ENDROOT
BRANCH   1   2
ATOM     2   C2  UNL     1      -0.418  -4.485   1.933  1.00  0.00     0.037 C   
ATOM     3   C1  UNL     1      -1.070  -3.965   3.219  1.00  0.00     0.014 C   
ATOM     4   C3  UNL     1       0.082  -5.918   2.149  1.00  0.00     0.014 C   
ENDBRANCH   1   2
BRANCH   1   5
ATOM     5   N1  UNL     1       1.750  -3.318   2.434  1.00  0.00     0.249 N   
ATOM     6   H9  UNL     1       1.332  -2.681   3.125  1.00  0.00     0.199 HD  
ATOM     7   H10 UNL     1       1.977  -4.188   2.923  1.00  0.00     0.199 HD  
BRANCH   5   8
ATOM     8   C5  UNL     1       3.027  -2.684   1.978  1.00  0.00     0.164 C   
BRANCH   8   9
ATOM     9   C6  UNL     1       3.741  -3.473   0.916  1.00  0.00    -0.002 A   
ATOM     10  C7  UNL     1       3.863  -2.946  -0.393  1.00  0.00     0.012 A   
ATOM     11  C11 UNL     1       4.262  -4.748   1.200  1.00  0.00     0.045 A   
ATOM     12  C8  UNL     1       4.481  -3.681  -1.410  1.00  0.00     0.037 A   
ATOM     13  C10 UNL     1       4.862  -5.447   0.173  1.00  0.00     0.109 A   
ATOM     14  C9  UNL     1       4.968  -4.931  -1.095  1.00  0.00     0.108 A   
ATOM     15  O1  UNL     1       5.401  -6.691   0.275  1.00  0.00    -0.316 OA  
ATOM     16  O2  UNL     1       5.587  -5.784  -1.952  1.00  0.00    -0.316 OA  
ATOM     17  C12 UNL     1       5.891  -6.888  -1.073  1.00  0.00     0.337 C   
ENDBRANCH   8   9
ENDBRANCH   5   8
ENDBRANCH   1   5
BRANCH   1  18
ATOM     18  C13 UNL     1       0.160  -2.284   0.828  1.00  0.00     0.127 A   
ATOM     19  C14 UNL     1      -0.370  -1.983  -0.407  1.00  0.00     0.135 A   
ATOM     20  N4  UNL     1       0.174  -1.154   1.594  1.00  0.00    -0.131 NA  
ATOM     21  N2  UNL     1      -0.669  -0.636  -0.353  1.00  0.00    -0.181 N   
ATOM     22  N3  UNL     1      -0.314  -0.161   0.869  1.00  0.00    -0.071 NA  
BRANCH  21  23
ATOM     23  C15 UNL     1      -1.222   0.198  -1.357  1.00  0.00     0.060 A   
ATOM     24  C16 UNL     1      -1.570  -0.320  -2.615  1.00  0.00     0.027 A   
ATOM     25  C29 UNL     1      -1.416   1.564  -1.091  1.00  0.00     0.060 A   
ATOM     26  C17 UNL     1      -2.100   0.525  -3.595  1.00  0.00     0.017 A   
ATOM     27  C28 UNL     1      -1.944   2.401  -2.077  1.00  0.00     0.095 A   
ATOM     28  C18 UNL     1      -2.281   1.883  -3.323  1.00  0.00     0.053 A   
ATOM     29  O4  UNL     1      -2.101   3.726  -1.757  1.00  0.00    -0.309 OA  
ATOM     30  C19 UNL     1      -2.818   2.792  -4.346  1.00  0.00     0.191 A   
ATOM     31  C21 UNL     1      -2.575   4.585  -2.734  1.00  0.00     0.093 A   
ATOM     32  C20 UNL     1      -2.938   4.209  -3.969  1.00  0.00     0.087 A   
ATOM     33  O3  UNL     1      -3.139   2.396  -5.458  1.00  0.00    -0.289 OA  
BRANCH  31  34
ATOM     34  C22 UNL     1      -2.670   5.990  -2.307  1.00  0.00     0.005 A   
ATOM     35  C23 UNL     1      -3.373   6.324  -1.141  1.00  0.00     0.011 A   
ATOM     36  C27 UNL     1      -2.045   7.011  -3.037  1.00  0.00     0.011 A   
ATOM     37  C24 UNL     1      -3.459   7.654  -0.722  1.00  0.00     0.001 A   
ATOM     38  C26 UNL     1      -2.127   8.339  -2.613  1.00  0.00     0.001 A   
ATOM     39  C25 UNL     1      -2.837   8.659  -1.458  1.00  0.00     0.000 A   
ENDBRANCH  31  34
ENDBRANCH  21  23
ENDBRANCH   1  18
TORSDOF 7
