REMARK SMILES CC(C)C[C@H]([NH2+]Cc1ccc2c(c1)OCO2)c1cn([C@H](CO)c2cccc(O)c2)nn1
REMARK SMILES IDX 17 1 18 2 19 3 30 4 31 5 5 7 4 8 2 9 1 10 3 11 6 12 7 15
REMARK SMILES IDX 8 16 9 17 13 18 10 19 12 20 11 21 14 22 16 23 15 24 20 25
REMARK SMILES IDX 21 26 22 27 23 29 24 30 29 31 25 32 27 33 26 34 28 35
REMARK H PARENT 18 6 6 13 6 14 22 28 28 36
ROOT
ATOM     1   C14 UNL     1      -0.263  -0.013   0.927  1.00  0.00     0.127 A   
ATOM     2   C15 UNL     1      -0.658  -0.498  -0.297  1.00  0.00     0.046 A   
ATOM     3   N2  UNL     1      -1.973  -0.837  -0.116  1.00  0.00    -0.202 N   
ATOM     4   N3  UNL     1      -2.364  -0.559   1.147  1.00  0.00    -0.075 NA  
ATOM     5   N4  UNL     1      -1.325  -0.056   1.793  1.00  0.00    -0.132 NA  
ATOM     6   H20 UNL     1      -0.157  -0.633  -1.247  1.00  0.00     0.083 HD  
ENDROOT
BRANCH   1   7
ATOM     7   C5  UNL     1       1.036   0.569   1.380  1.00  0.00     0.114 C   
BRANCH   7   8
ATOM     8   C4  UNL     1       1.883  -0.438   2.180  1.00  0.00     0.064 C   
BRANCH   8   9
ATOM     9   C2  UNL     1       2.344  -1.679   1.383  1.00  0.00    -0.012 C   
ATOM     10  C1  UNL     1       3.229  -1.308   0.193  1.00  0.00     0.007 C   
ATOM     11  C3  UNL     1       3.101  -2.634   2.310  1.00  0.00     0.007 C   
ENDBRANCH   8   9
ENDBRANCH   7   8
BRANCH   7  12
ATOM     12  N1  UNL     1       0.709   1.759   2.258  1.00  0.00     0.249 N   
ATOM     13  H11 UNL     1       0.185   1.402   3.069  1.00  0.00     0.199 HD  
ATOM     14  H12 UNL     1       0.014   2.313   1.742  1.00  0.00     0.199 HD  
BRANCH  12  15
ATOM     15  C6  UNL     1       1.804   2.661   2.691  1.00  0.00     0.164 C   
BRANCH  15  16
ATOM     16  C7  UNL     1       2.552   3.280   1.544  1.00  0.00    -0.002 A   
ATOM     17  C8  UNL     1       1.953   4.300   0.766  1.00  0.00     0.012 A   
ATOM     18  C12 UNL     1       3.838   2.821   1.209  1.00  0.00     0.045 A   
ATOM     19  C9  UNL     1       2.622   4.853  -0.332  1.00  0.00     0.037 A   
ATOM     20  C11 UNL     1       4.468   3.385   0.120  1.00  0.00     0.109 A   
ATOM     21  C10 UNL     1       3.877   4.372  -0.630  1.00  0.00     0.108 A   
ATOM     22  O1  UNL     1       5.701   3.050  -0.340  1.00  0.00    -0.316 OA  
ATOM     23  O2  UNL     1       4.665   4.784  -1.656  1.00  0.00    -0.316 OA  
ATOM     24  C13 UNL     1       5.836   3.963  -1.454  1.00  0.00     0.337 C   
ENDBRANCH  15  16
ENDBRANCH  12  15
ENDBRANCH   7  12
ENDBRANCH   1   7
BRANCH   3  25
ATOM     25  C16 UNL     1      -2.928  -1.378  -1.085  1.00  0.00     0.155 C   
BRANCH  25  26
ATOM     26  C17 UNL     1      -2.699  -2.889  -1.296  1.00  0.00     0.185 C   
BRANCH  26  27
ATOM     27  O3  UNL     1      -1.384  -3.197  -1.763  1.00  0.00    -0.394 OA  
ATOM     28  H24 UNL     1      -1.345  -4.164  -1.885  1.00  0.00     0.210 HD  
ENDBRANCH  26  27
ENDBRANCH  25  26
BRANCH  25  29
ATOM     29  C18 UNL     1      -2.994  -0.489  -2.322  1.00  0.00    -0.021 A   
ATOM     30  C19 UNL     1      -2.470  -0.861  -3.570  1.00  0.00     0.006 A   
ATOM     31  C23 UNL     1      -3.597   0.779  -2.210  1.00  0.00     0.039 A   
ATOM     32  C20 UNL     1      -2.555   0.002  -4.668  1.00  0.00     0.003 A   
ATOM     33  C22 UNL     1      -3.673   1.630  -3.308  1.00  0.00     0.072 A   
ATOM     34  C21 UNL     1      -3.158   1.251  -4.540  1.00  0.00     0.033 A   
BRANCH  33  35
ATOM     35  O4  UNL     1      -4.266   2.843  -3.126  1.00  0.00    -0.361 OA  
ATOM     36  H28 UNL     1      -4.368   3.273  -3.992  1.00  0.00     0.218 HD  
ENDBRANCH  33  35
ENDBRANCH  25  29
ENDBRANCH   3  25
TORSDOF 11
