REMARK SMILES CC(C)C[C@H]([NH2+]Cc1ccc2c(c1)OCO2)c1cn([C@@H](CO)c2cccc(O)c2)nn1
REMARK SMILES IDX 17 1 18 2 19 3 30 4 31 5 5 7 4 8 2 9 1 10 3 11 6 12 7 15
REMARK SMILES IDX 8 16 9 17 13 18 10 19 12 20 11 21 14 22 16 23 15 24 20 25
REMARK SMILES IDX 21 26 22 27 23 29 24 30 29 31 25 32 27 33 26 34 28 35
REMARK H PARENT 18 6 6 13 6 14 22 28 28 36
ROOT
ATOM     1   C14 UNL     1       1.328  -0.984  -0.799  1.00  0.00     0.127 A   
ATOM     2   C15 UNL     1       1.585   0.111  -0.007  1.00  0.00     0.046 A   
ATOM     3   N2  UNL     1       2.950   0.123   0.119  1.00  0.00    -0.202 N   
ATOM     4   N3  UNL     1       3.501  -0.866  -0.619  1.00  0.00    -0.075 NA  
ATOM     5   N4  UNL     1       2.516  -1.557  -1.175  1.00  0.00    -0.132 NA  
ATOM     6   H20 UNL     1       0.956   0.841   0.485  1.00  0.00     0.083 HD  
ENDROOT
BRANCH   1   7
ATOM     7   C5  UNL     1       0.042  -1.549  -1.297  1.00  0.00     0.114 C   
BRANCH   7   8
ATOM     8   C4  UNL     1      -0.434  -2.756  -0.463  1.00  0.00     0.064 C   
BRANCH   8   9
ATOM     9   C2  UNL     1      -0.753  -2.453   1.017  1.00  0.00    -0.012 C   
ATOM     10  C1  UNL     1      -1.855  -1.405   1.177  1.00  0.00     0.007 C   
ATOM     11  C3  UNL     1      -1.167  -3.744   1.729  1.00  0.00     0.007 C   
ENDBRANCH   8   9
ENDBRANCH   7   8
BRANCH   7  12
ATOM     12  N1  UNL     1       0.207  -2.043  -2.721  1.00  0.00     0.249 N   
ATOM     13  H11 UNL     1       1.026  -2.667  -2.715  1.00  0.00     0.199 HD  
ATOM     14  H12 UNL     1      -0.605  -2.604  -2.994  1.00  0.00     0.199 HD  
BRANCH  12  15
ATOM     15  C6  UNL     1       0.451  -0.996  -3.757  1.00  0.00     0.164 C   
BRANCH  15  16
ATOM     16  C7  UNL     1      -0.723  -0.077  -3.955  1.00  0.00    -0.002 A   
ATOM     17  C8  UNL     1      -0.667   1.262  -3.495  1.00  0.00     0.012 A   
ATOM     18  C12 UNL     1      -1.895  -0.546  -4.577  1.00  0.00     0.045 A   
ATOM     19  C9  UNL     1      -1.759   2.124  -3.653  1.00  0.00     0.037 A   
ATOM     20  C11 UNL     1      -2.952   0.329  -4.716  1.00  0.00     0.109 A   
ATOM     21  C10 UNL     1      -2.887   1.627  -4.269  1.00  0.00     0.108 A   
ATOM     22  O1  UNL     1      -4.151   0.036  -5.289  1.00  0.00    -0.316 OA  
ATOM     23  O2  UNL     1      -4.032   2.316  -4.510  1.00  0.00    -0.316 OA  
ATOM     24  C13 UNL     1      -4.824   1.312  -5.183  1.00  0.00     0.337 C   
ENDBRANCH  15  16
ENDBRANCH  12  15
ENDBRANCH   7  12
ENDBRANCH   1   7
BRANCH   3  25
ATOM     25  C16 UNL     1       3.793   1.010   0.920  1.00  0.00     0.155 C   
BRANCH  25  26
ATOM     26  C17 UNL     1       4.027   2.353   0.199  1.00  0.00     0.185 C   
BRANCH  26  27
ATOM     27  O3  UNL     1       2.814   3.035  -0.126  1.00  0.00    -0.394 OA  
ATOM     28  H24 UNL     1       3.067   3.891  -0.518  1.00  0.00     0.210 HD  
ENDBRANCH  26  27
ENDBRANCH  25  26
BRANCH  25  29
ATOM     29  C18 UNL     1       3.291   1.062   2.360  1.00  0.00    -0.021 A   
ATOM     30  C19 UNL     1       3.525  -0.050   3.197  1.00  0.00     0.006 A   
ATOM     31  C23 UNL     1       2.574   2.150   2.886  1.00  0.00     0.039 A   
ATOM     32  C20 UNL     1       3.057  -0.072   4.512  1.00  0.00     0.003 A   
ATOM     33  C22 UNL     1       2.112   2.115   4.201  1.00  0.00     0.072 A   
ATOM     34  C21 UNL     1       2.345   1.014   5.014  1.00  0.00     0.033 A   
BRANCH  33  35
ATOM     35  O4  UNL     1       1.415   3.158   4.736  1.00  0.00    -0.361 OA  
ATOM     36  H28 UNL     1       1.401   3.896   4.105  1.00  0.00     0.218 HD  
ENDBRANCH  33  35
ENDBRANCH  25  29
ENDBRANCH   3  25
TORSDOF 11
