REMARK SMILES CC(C)(C)[C@H]([NH2+]Cc1ccc2c(c1)OCO2)c1cn(Cc2cc[nH]n2)nn1
REMARK SMILES IDX 17 1 18 2 19 3 26 4 27 5 5 7 2 8 1 9 3 10 4 11 6 12 7 15
REMARK SMILES IDX 8 16 9 17 13 18 10 19 12 20 11 21 14 22 16 23 15 24 20 25
REMARK SMILES IDX 21 26 22 27 25 28 23 29 24 30
REMARK H PARENT 18 6 6 13 6 14 24 31
ROOT
ATOM     1   C14 UNL     1      -0.817  -0.823  -0.292  1.00  0.00     0.127 A   
ATOM     2   C15 UNL     1      -2.033  -1.237  -0.785  1.00  0.00     0.046 A   
ATOM     3   N2  UNL     1      -2.561  -1.998   0.223  1.00  0.00    -0.206 N   
ATOM     4   N5  UNL     1      -1.719  -2.047   1.276  1.00  0.00    -0.076 NA  
ATOM     5   N6  UNL     1      -0.653  -1.324   0.975  1.00  0.00    -0.132 NA  
ATOM     6   H20 UNL     1      -2.568  -1.062  -1.709  1.00  0.00     0.083 HD  
ENDROOT
BRANCH   1   7
ATOM     7   C5  UNL     1       0.222   0.094  -0.862  1.00  0.00     0.120 C   
BRANCH   7   8
ATOM     8   C2  UNL     1       1.350  -0.634  -1.673  1.00  0.00     0.010 C   
ATOM     9   C1  UNL     1       2.225  -1.546  -0.789  1.00  0.00     0.017 C   
ATOM     10  C3  UNL     1       0.733  -1.497  -2.798  1.00  0.00     0.017 C   
ATOM     11  C4  UNL     1       2.270   0.403  -2.361  1.00  0.00     0.017 C   
ENDBRANCH   7   8
BRANCH   7  12
ATOM     12  N1  UNL     1       0.827   0.891   0.270  1.00  0.00     0.250 N   
ATOM     13  H11 UNL     1       1.738   1.289   0.031  1.00  0.00     0.199 HD  
ATOM     14  H12 UNL     1       0.997   0.224   1.038  1.00  0.00     0.199 HD  
BRANCH  12  15
ATOM     15  C6  UNL     1      -0.036   1.971   0.826  1.00  0.00     0.164 C   
BRANCH  15  16
ATOM     16  C7  UNL     1       0.652   2.634   1.986  1.00  0.00    -0.002 A   
ATOM     17  C8  UNL     1       0.489   2.122   3.295  1.00  0.00     0.012 A   
ATOM     18  C12 UNL     1       1.518   3.720   1.769  1.00  0.00     0.045 A   
ATOM     19  C9  UNL     1       1.167   2.692   4.378  1.00  0.00     0.037 A   
ATOM     20  C11 UNL     1       2.174   4.254   2.859  1.00  0.00     0.109 A   
ATOM     21  C10 UNL     1       2.004   3.755   4.127  1.00  0.00     0.108 A   
ATOM     22  O1  UNL     1       3.048   5.294   2.822  1.00  0.00    -0.316 OA  
ATOM     23  O2  UNL     1       2.749   4.419   5.048  1.00  0.00    -0.316 OA  
ATOM     24  C13 UNL     1       3.407   5.400   4.219  1.00  0.00     0.337 C   
ENDBRANCH  15  16
ENDBRANCH  12  15
ENDBRANCH   7  12
ENDBRANCH   1   7
BRANCH   3  25
ATOM     25  C16 UNL     1      -3.820  -2.720   0.237  1.00  0.00     0.191 C   
BRANCH  25  26
ATOM     26  C17 UNL     1      -4.918  -1.834   0.715  1.00  0.00     0.079 A   
ATOM     27  C18 UNL     1      -5.529  -1.827   1.991  1.00  0.00     0.044 A   
ATOM     28  N4  UNL     1      -5.468  -0.918  -0.098  1.00  0.00    -0.188 NA  
ATOM     29  C19 UNL     1      -6.506  -0.866   1.911  1.00  0.00     0.094 A   
ATOM     30  N3  UNL     1      -6.446  -0.365   0.646  1.00  0.00    -0.246 N   
ATOM     31  H25 UNL     1      -7.038   0.343   0.223  1.00  0.00     0.175 HD  
ENDBRANCH  25  26
ENDBRANCH   3  25
TORSDOF 7
