REMARK SMILES CC(C)C[C@H]([NH2+]Cc1ccc2c(c1)OCO2)c1cn(Cc2ccncc2Cl)nn1
REMARK SMILES IDX 17 1 18 2 19 3 28 4 29 5 5 7 4 8 2 9 1 10 3 11 6 12 7 15
REMARK SMILES IDX 8 16 9 17 13 18 10 19 12 20 11 21 14 22 16 23 15 24 20 25
REMARK SMILES IDX 21 26 22 27 26 28 23 29 25 30 24 31 27 32
REMARK H PARENT 18 6 6 13 6 14
ROOT
ATOM     1   C14 UNL     1      -2.199  -0.152   1.157  1.00  0.00     0.127 A   
ATOM     2   C15 UNL     1      -2.415   0.231   2.463  1.00  0.00     0.046 A   
ATOM     3   N2  UNL     1      -2.565  -0.952   3.134  1.00  0.00    -0.208 N   
ATOM     4   N4  UNL     1      -2.459  -1.998   2.291  1.00  0.00    -0.076 NA  
ATOM     5   N5  UNL     1      -2.233  -1.520   1.079  1.00  0.00    -0.132 NA  
ATOM     6   H20 UNL     1      -2.466   1.191   2.958  1.00  0.00     0.083 HD  
ENDROOT
BRANCH   1   7
ATOM     7   C5  UNL     1      -1.901   0.644  -0.071  1.00  0.00     0.114 C   
BRANCH   7   8
ATOM     8   C4  UNL     1      -3.156   0.914  -0.922  1.00  0.00     0.064 C   
BRANCH   8   9
ATOM     9   C2  UNL     1      -4.240   1.780  -0.245  1.00  0.00    -0.012 C   
ATOM     10  C1  UNL     1      -3.727   3.171   0.129  1.00  0.00     0.007 C   
ATOM     11  C3  UNL     1      -5.451   1.910  -1.174  1.00  0.00     0.007 C   
ENDBRANCH   8   9
ENDBRANCH   7   8
BRANCH   7  12
ATOM     12  N1  UNL     1      -0.934  -0.119  -0.946  1.00  0.00     0.249 N   
ATOM     13  H11 UNL     1      -0.923   0.249  -1.903  1.00  0.00     0.199 HD  
ATOM     14  H12 UNL     1      -1.290  -1.085  -1.011  1.00  0.00     0.199 HD  
BRANCH  12  15
ATOM     15  C6  UNL     1       0.464  -0.195  -0.438  1.00  0.00     0.164 C   
BRANCH  15  16
ATOM     16  C7  UNL     1       1.306  -1.040  -1.351  1.00  0.00    -0.002 A   
ATOM     17  C8  UNL     1       1.361  -2.443  -1.169  1.00  0.00     0.012 A   
ATOM     18  C12 UNL     1       1.998  -0.453  -2.424  1.00  0.00     0.045 A   
ATOM     19  C9  UNL     1       2.104  -3.251  -2.036  1.00  0.00     0.037 A   
ATOM     20  C11 UNL     1       2.721  -1.279  -3.259  1.00  0.00     0.109 A   
ATOM     21  C10 UNL     1       2.773  -2.638  -3.071  1.00  0.00     0.108 A   
ATOM     22  O1  UNL     1       3.443  -0.875  -4.337  1.00  0.00    -0.316 OA  
ATOM     23  O2  UNL     1       3.536  -3.261  -4.006  1.00  0.00    -0.316 OA  
ATOM     24  C13 UNL     1       3.980  -2.137  -4.795  1.00  0.00     0.337 C   
ENDBRANCH  15  16
ENDBRANCH  12  15
ENDBRANCH   7  12
ENDBRANCH   1   7
BRANCH   3  25
ATOM     25  C16 UNL     1      -2.822  -1.164   4.549  1.00  0.00     0.171 C   
BRANCH  25  26
ATOM     26  C17 UNL     1      -1.572  -1.589   5.276  1.00  0.00    -0.007 A   
ATOM     27  C18 UNL     1      -1.309  -2.960   5.440  1.00  0.00     0.027 A   
ATOM     28  C21 UNL     1      -0.632  -0.678   5.774  1.00  0.00     0.064 A   
ATOM     29  C19 UNL     1      -0.146  -3.355   6.086  1.00  0.00     0.111 A   
ATOM     30  C20 UNL     1       0.501  -1.172   6.410  1.00  0.00     0.131 A   
ATOM     31  N3  UNL     1       0.766  -2.489   6.570  1.00  0.00    -0.263 NA  
ATOM     32  CL1 UNL     1      -0.819   1.027   5.617  1.00  0.00    -0.082 Cl  
ENDBRANCH  25  26
ENDBRANCH   3  25
TORSDOF 8
