REMARK SMILES CC(C)[C@H]([NH2+]Cc1ccc2c(c1)OCO2)c1cn(C[C@@H](O)c2ccc(F)cn2)nn1
REMARK SMILES IDX 16 1 17 2 18 3 29 4 30 5 4 7 2 8 1 9 3 10 5 11 6 14 7 15
REMARK SMILES IDX 8 16 12 17 9 18 11 19 10 20 13 21 15 22 14 23 19 24 20 25
REMARK SMILES IDX 21 26 22 28 23 29 28 30 24 31 27 32 25 33 26 34
REMARK H PARENT 17 6 5 12 5 13 21 27
ROOT
ATOM     1   C13 UNL     1       0.913   1.169  -0.153  1.00  0.00     0.127 A   
ATOM     2   C14 UNL     1       1.645   2.289   0.167  1.00  0.00     0.045 A   
ATOM     3   N2  UNL     1       2.252   1.958   1.346  1.00  0.00    -0.209 N   
ATOM     4   N4  UNL     1       1.990   0.680   1.681  1.00  0.00    -0.076 NA  
ATOM     5   N5  UNL     1       1.151   0.193   0.782  1.00  0.00    -0.132 NA  
ATOM     6   H18 UNL     1       1.747   3.269  -0.279  1.00  0.00     0.083 HD  
ENDROOT
BRANCH   1   7
ATOM     7   C4  UNL     1      -0.028   0.898  -1.284  1.00  0.00     0.117 C   
BRANCH   7   8
ATOM     8   C2  UNL     1      -1.401   1.589  -1.075  1.00  0.00     0.037 C   
ATOM     9   C1  UNL     1      -2.212   1.018   0.095  1.00  0.00     0.014 C   
ATOM     10  C3  UNL     1      -2.249   1.569  -2.352  1.00  0.00     0.014 C   
ENDBRANCH   7   8
BRANCH   7  11
ATOM     11  N1  UNL     1      -0.213  -0.584  -1.467  1.00  0.00     0.249 N   
ATOM     12  H9  UNL     1      -0.305  -0.986  -0.521  1.00  0.00     0.199 HD  
ATOM     13  H10 UNL     1      -1.080  -0.811  -1.961  1.00  0.00     0.199 HD  
BRANCH  11  14
ATOM     14  C5  UNL     1       0.920  -1.287  -2.129  1.00  0.00     0.164 C   
BRANCH  14  15
ATOM     15  C6  UNL     1       0.678  -2.770  -2.143  1.00  0.00    -0.002 A   
ATOM     16  C7  UNL     1       1.060  -3.561  -1.033  1.00  0.00     0.012 A   
ATOM     17  C11 UNL     1       0.020  -3.371  -3.229  1.00  0.00     0.045 A   
ATOM     18  C8  UNL     1       0.802  -4.936  -1.008  1.00  0.00     0.037 A   
ATOM     19  C10 UNL     1      -0.220  -4.728  -3.172  1.00  0.00     0.109 A   
ATOM     20  C9  UNL     1       0.160  -5.489  -2.094  1.00  0.00     0.108 A   
ATOM     21  O1  UNL     1      -0.842  -5.461  -4.132  1.00  0.00    -0.316 OA  
ATOM     22  O2  UNL     1      -0.172  -6.798  -2.240  1.00  0.00    -0.316 OA  
ATOM     23  C12 UNL     1      -0.789  -6.782  -3.546  1.00  0.00     0.337 C   
ENDBRANCH  14  15
ENDBRANCH  11  14
ENDBRANCH   7  11
ENDBRANCH   1   7
BRANCH   3  24
ATOM     24  C15 UNL     1       3.085   2.786   2.195  1.00  0.00     0.172 C   
BRANCH  24  25
ATOM     25  C16 UNL     1       2.306   3.885   2.921  1.00  0.00     0.182 C   
BRANCH  25  26
ATOM     26  O3  UNL     1       1.907   4.889   1.970  1.00  0.00    -0.385 OA  
ATOM     27  H22 UNL     1       0.952   5.037   2.141  1.00  0.00     0.211 HD  
ENDBRANCH  25  26
BRANCH  25  28
ATOM     28  C17 UNL     1       1.095   3.380   3.686  1.00  0.00     0.071 A   
ATOM     29  C18 UNL     1       1.242   2.624   4.850  1.00  0.00     0.030 A   
ATOM     30  N3  UNL     1      -0.124   3.707   3.167  1.00  0.00    -0.255 NA  
ATOM     31  C19 UNL     1       0.098   2.180   5.511  1.00  0.00     0.043 A   
ATOM     32  C21 UNL     1      -1.215   3.265   3.841  1.00  0.00     0.150 A   
ATOM     33  C20 UNL     1      -1.146   2.507   4.996  1.00  0.00     0.141 A   
ATOM     34  F1  UNL     1      -2.262   2.092   5.606  1.00  0.00    -0.205 F   
ENDBRANCH  25  28
ENDBRANCH  24  25
ENDBRANCH   3  24
TORSDOF 9
