REMARK SMILES CC(C)[C@H]([NH2+]Cc1ccc2c(c1)OCO2)c1cn(C[C@H](O)c2ccc(F)cn2)nn1
REMARK SMILES IDX 16 1 17 2 18 3 29 4 30 5 4 7 2 8 1 9 3 10 5 11 6 14 7 15
REMARK SMILES IDX 8 16 12 17 9 18 11 19 10 20 13 21 15 22 14 23 19 24 20 25
REMARK SMILES IDX 21 26 22 28 23 29 28 30 24 31 27 32 25 33 26 34
REMARK H PARENT 17 6 5 12 5 13 21 27
ROOT
ATOM     1   C13 UNL     1       0.048  -0.330  -0.209  1.00  0.00     0.127 A   
ATOM     2   C14 UNL     1      -0.925  -1.253   0.100  1.00  0.00     0.045 A   
ATOM     3   N2  UNL     1      -0.585  -2.349  -0.640  1.00  0.00    -0.209 N   
ATOM     4   N4  UNL     1       0.557  -2.139  -1.320  1.00  0.00    -0.076 NA  
ATOM     5   N5  UNL     1       0.949  -0.899  -1.075  1.00  0.00    -0.132 NA  
ATOM     6   H18 UNL     1      -1.813  -1.225   0.717  1.00  0.00     0.083 HD  
ENDROOT
BRANCH   1   7
ATOM     7   C4  UNL     1       0.240   1.085   0.239  1.00  0.00     0.117 C   
BRANCH   7   8
ATOM     8   C2  UNL     1      -0.708   2.066  -0.501  1.00  0.00     0.037 C   
ATOM     9   C1  UNL     1      -0.745   3.439   0.182  1.00  0.00     0.014 C   
ATOM     10  C3  UNL     1      -0.389   2.236  -1.991  1.00  0.00     0.014 C   
ENDBRANCH   7   8
BRANCH   7  11
ATOM     11  N1  UNL     1       1.678   1.506   0.047  1.00  0.00     0.249 N   
ATOM     12  H9  UNL     1       1.956   1.151  -0.879  1.00  0.00     0.199 HD  
ATOM     13  H10 UNL     1       1.762   2.525   0.015  1.00  0.00     0.199 HD  
BRANCH  11  14
ATOM     14  C5  UNL     1       2.656   0.966   1.036  1.00  0.00     0.164 C   
BRANCH  14  15
ATOM     15  C6  UNL     1       2.497   1.577   2.401  1.00  0.00    -0.002 A   
ATOM     16  C7  UNL     1       1.989   0.806   3.474  1.00  0.00     0.012 A   
ATOM     17  C11 UNL     1       2.827   2.927   2.616  1.00  0.00     0.045 A   
ATOM     18  C8  UNL     1       1.803   1.370   4.741  1.00  0.00     0.037 A   
ATOM     19  C10 UNL     1       2.631   3.452   3.877  1.00  0.00     0.109 A   
ATOM     20  C9  UNL     1       2.132   2.697   4.909  1.00  0.00     0.108 A   
ATOM     21  O1  UNL     1       2.890   4.733   4.247  1.00  0.00    -0.316 OA  
ATOM     22  O2  UNL     1       2.017   3.406   6.061  1.00  0.00    -0.316 OA  
ATOM     23  C12 UNL     1       2.526   4.692   5.646  1.00  0.00     0.337 C   
ENDBRANCH  14  15
ENDBRANCH  11  14
ENDBRANCH   7  11
ENDBRANCH   1   7
BRANCH   3  24
ATOM     24  C15 UNL     1      -1.287  -3.613  -0.750  1.00  0.00     0.172 C   
BRANCH  24  25
ATOM     25  C16 UNL     1      -2.305  -3.573  -1.885  1.00  0.00     0.182 C   
BRANCH  25  26
ATOM     26  O3  UNL     1      -3.403  -2.728  -1.489  1.00  0.00    -0.385 OA  
ATOM     27  H22 UNL     1      -4.177  -3.328  -1.409  1.00  0.00     0.211 HD  
ENDBRANCH  25  26
BRANCH  25  28
ATOM     28  C17 UNL     1      -2.829  -4.967  -2.173  1.00  0.00     0.071 A   
ATOM     29  C18 UNL     1      -2.155  -5.824  -3.043  1.00  0.00     0.030 A   
ATOM     30  N3  UNL     1      -3.977  -5.320  -1.530  1.00  0.00    -0.255 NA  
ATOM     31  C19 UNL     1      -2.678  -7.096  -3.269  1.00  0.00     0.043 A   
ATOM     32  C21 UNL     1      -4.460  -6.565  -1.775  1.00  0.00     0.150 A   
ATOM     33  C20 UNL     1      -3.848  -7.468  -2.625  1.00  0.00     0.141 A   
ATOM     34  F1  UNL     1      -4.372  -8.683  -2.823  1.00  0.00    -0.205 F   
ENDBRANCH  25  28
ENDBRANCH  24  25
ENDBRANCH   3  24
TORSDOF 9
