REMARK SMILES CC(C)Cn1cc(Cn2cc([C@@H]([NH2+]Cc3ccc4c(c3)OCO4)C(C)(C)C)nn2)cn1
REMARK SMILES IDX 9 1 10 2 11 3 28 4 29 5 8 7 7 8 5 9 6 10 31 11 30 12 4 13
REMARK SMILES IDX 2 14 1 15 3 16 12 17 13 18 14 21 15 22 16 23 20 24 17 25
REMARK SMILES IDX 19 26 18 27 21 28 23 29 22 30 24 31 25 32 26 33 27 34
REMARK H PARENT 10 6 13 19 13 20
ROOT
ATOM     1   N2  UNL     1      -0.164  -1.112  -3.281  1.00  0.00    -0.208 N   
ATOM     2   C8  UNL     1       0.545  -0.530  -2.264  1.00  0.00     0.046 A   
ATOM     3   C9  UNL     1       1.469  -1.489  -1.912  1.00  0.00     0.127 A   
ATOM     4   N4  UNL     1       1.319  -2.582  -2.729  1.00  0.00    -0.132 NA  
ATOM     5   N5  UNL     1       0.314  -2.343  -3.555  1.00  0.00    -0.076 NA  
ATOM     6   H13 UNL     1       0.297   0.447  -1.871  1.00  0.00     0.083 HD  
ENDROOT
BRANCH   1   7
ATOM     7   C7  UNL     1      -1.373  -0.619  -3.924  1.00  0.00     0.172 C   
BRANCH   7   8
ATOM     8   C6  UNL     1      -2.500  -0.651  -2.953  1.00  0.00     0.007 A   
ATOM     9   N1  UNL     1      -4.123  -0.138  -1.558  1.00  0.00    -0.232 N   
ATOM     10  C5  UNL     1      -3.225   0.403  -2.434  1.00  0.00     0.102 A   
ATOM     11  N6  UNL     1      -4.008  -1.474  -1.448  1.00  0.00    -0.190 NA  
ATOM     12  C23 UNL     1      -3.060  -1.790  -2.329  1.00  0.00     0.138 A   
BRANCH   9  13
ATOM     13  C4  UNL     1      -5.133   0.569  -0.790  1.00  0.00     0.135 C   
BRANCH  13  14
ATOM     14  C2  UNL     1      -4.815   0.655   0.713  1.00  0.00     0.002 C   
ATOM     15  C1  UNL     1      -3.595   1.540   0.987  1.00  0.00     0.009 C   
ATOM     16  C3  UNL     1      -6.029   1.199   1.466  1.00  0.00     0.009 C   
ENDBRANCH  13  14
ENDBRANCH   9  13
ENDBRANCH   7   8
ENDBRANCH   1   7
BRANCH   3  17
ATOM     17  C10 UNL     1       2.445  -1.539  -0.777  1.00  0.00     0.120 C   
BRANCH  17  18
ATOM     18  N3  UNL     1       2.447  -2.938  -0.186  1.00  0.00     0.250 N   
ATOM     19  H15 UNL     1       3.226  -3.063   0.463  1.00  0.00     0.199 HD  
ATOM     20  H16 UNL     1       2.597  -3.584  -0.973  1.00  0.00     0.199 HD  
BRANCH  18  21
ATOM     21  C11 UNL     1       1.186  -3.375   0.493  1.00  0.00     0.164 C   
BRANCH  21  22
ATOM     22  C12 UNL     1       0.817  -2.520   1.673  1.00  0.00    -0.002 A   
ATOM     23  C13 UNL     1      -0.378  -1.758   1.654  1.00  0.00     0.012 A   
ATOM     24  C17 UNL     1       1.662  -2.453   2.795  1.00  0.00     0.045 A   
ATOM     25  C14 UNL     1      -0.721  -0.929   2.729  1.00  0.00     0.037 A   
ATOM     26  C16 UNL     1       1.299  -1.619   3.833  1.00  0.00     0.109 A   
ATOM     27  C15 UNL     1       0.142  -0.876   3.801  1.00  0.00     0.108 A   
ATOM     28  O1  UNL     1       2.010  -1.425   4.974  1.00  0.00    -0.316 OA  
ATOM     29  O2  UNL     1      -0.021  -0.123   4.920  1.00  0.00    -0.316 OA  
ATOM     30  C18 UNL     1       1.151  -0.494   5.676  1.00  0.00     0.337 C   
ENDBRANCH  21  22
ENDBRANCH  18  21
ENDBRANCH  17  18
BRANCH  17  31
ATOM     31  C19 UNL     1       3.903  -1.107  -1.163  1.00  0.00     0.010 C   
ATOM     32  C20 UNL     1       3.884   0.311  -1.778  1.00  0.00     0.017 C   
ATOM     33  C21 UNL     1       4.567  -2.065  -2.172  1.00  0.00     0.017 C   
ATOM     34  C22 UNL     1       4.794  -1.038   0.098  1.00  0.00     0.017 C   
ENDBRANCH  17  31
ENDBRANCH   3  17
TORSDOF 9
