REMARK SMILES Cc1cn(C)nc1CCn1cc([C@@H]([NH2+]Cc2ccc3c(c2)OCO3)C(C)C)nn1
REMARK SMILES IDX 10 1 11 2 12 3 28 4 29 5 9 7 8 8 7 9 2 10 3 11 4 12 6 13
REMARK SMILES IDX 1 14 5 15 13 16 14 17 15 20 16 21 17 22 21 23 18 24 20 25
REMARK SMILES IDX 19 26 22 27 24 28 23 29 25 30 26 31 27 32
REMARK H PARENT 11 6 14 18 14 19
ROOT
ATOM     1   N3  UNL     1       1.823  -1.144   0.874  1.00  0.00    -0.212 N   
ATOM     2   C8  UNL     1       1.659   0.209   0.799  1.00  0.00     0.045 A   
ATOM     3   C9  UNL     1       0.767   0.378  -0.237  1.00  0.00     0.127 A   
ATOM     4   N5  UNL     1       0.446  -0.853  -0.757  1.00  0.00    -0.132 NA  
ATOM     5   N6  UNL     1       1.114  -1.773  -0.083  1.00  0.00    -0.076 NA  
ATOM     6   H12 UNL     1       2.137   0.888   1.494  1.00  0.00     0.083 HD  
ENDROOT
BRANCH   1   7
ATOM     7   C7  UNL     1       2.603  -1.895   1.837  1.00  0.00     0.140 C   
BRANCH   7   8
ATOM     8   C6  UNL     1       1.726  -2.586   2.881  1.00  0.00     0.079 C   
BRANCH   8   9
ATOM     9   C5  UNL     1       0.914  -1.626   3.687  1.00  0.00     0.065 A   
ATOM     10  C2  UNL     1      -0.501  -1.558   3.820  1.00  0.00    -0.012 A   
ATOM     11  C3  UNL     1      -0.711  -0.519   4.701  1.00  0.00     0.100 A   
ATOM     12  N1  UNL     1       0.523  -0.053   5.046  1.00  0.00    -0.235 N   
ATOM     13  N2  UNL     1       1.528  -0.663   4.388  1.00  0.00    -0.187 NA  
ATOM     14  C1  UNL     1      -1.521  -2.427   3.185  1.00  0.00     0.048 C   
ATOM     15  C4  UNL     1       0.826   0.983   6.005  1.00  0.00     0.159 C   
ENDBRANCH   8   9
ENDBRANCH   7   8
ENDBRANCH   1   7
BRANCH   3  16
ATOM     16  C10 UNL     1       0.140   1.615  -0.802  1.00  0.00     0.117 C   
BRANCH  16  17
ATOM     17  N4  UNL     1      -0.638   1.298  -2.048  1.00  0.00     0.249 N   
ATOM     18  H14 UNL     1      -1.138   0.414  -1.866  1.00  0.00     0.199 HD  
ATOM     19  H15 UNL     1      -1.355   2.000  -2.247  1.00  0.00     0.199 HD  
BRANCH  17  20
ATOM     20  C11 UNL     1       0.180   1.086  -3.277  1.00  0.00     0.164 C   
BRANCH  20  21
ATOM     21  C12 UNL     1      -0.696   0.618  -4.404  1.00  0.00    -0.002 A   
ATOM     22  C13 UNL     1      -0.838  -0.767  -4.662  1.00  0.00     0.012 A   
ATOM     23  C17 UNL     1      -1.441   1.547  -5.159  1.00  0.00     0.045 A   
ATOM     24  C14 UNL     1      -1.707  -1.225  -5.660  1.00  0.00     0.037 A   
ATOM     25  C16 UNL     1      -2.292   1.059  -6.127  1.00  0.00     0.109 A   
ATOM     26  C15 UNL     1      -2.421  -0.286  -6.372  1.00  0.00     0.108 A   
ATOM     27  O1  UNL     1      -3.091   1.814  -6.929  1.00  0.00    -0.316 OA  
ATOM     28  O2  UNL     1      -3.312  -0.547  -7.364  1.00  0.00    -0.316 OA  
ATOM     29  C18 UNL     1      -3.701   0.791  -7.749  1.00  0.00     0.337 C   
ENDBRANCH  20  21
ENDBRANCH  17  20
ENDBRANCH  16  17
BRANCH  16  30
ATOM     30  C19 UNL     1      -0.771   2.332   0.230  1.00  0.00     0.037 C   
ATOM     31  C20 UNL     1      -1.165   3.740  -0.234  1.00  0.00     0.014 C   
ATOM     32  C21 UNL     1      -2.027   1.541   0.603  1.00  0.00     0.014 C   
ENDBRANCH  16  30
ENDBRANCH   3  16
TORSDOF 8
