REMARK SMILES Cc1ccc([C@@H](O)Cn2cc([C@@H]([NH2+]Cc3ccc4c(c3)OCO4)C3CCCC3)nn2)cc1
REMARK SMILES IDX 9 1 10 2 11 3 29 4 30 5 8 7 6 8 5 9 2 10 3 11 32 12 4 13
REMARK SMILES IDX 31 14 1 15 7 16 12 18 13 19 14 22 15 23 16 24 20 25 17 26
REMARK SMILES IDX 19 27 18 28 21 29 23 30 22 31 24 32 25 33 28 34 26 35 27 36
REMARK H PARENT 10 6 7 17 13 20 13 21
ROOT
ATOM     1   N1  UNL     1       0.103   3.765   0.436  1.00  0.00    -0.209 N   
ATOM     2   C8  UNL     1      -0.661   2.693   0.801  1.00  0.00     0.045 A   
ATOM     3   C9  UNL     1       0.071   2.091   1.799  1.00  0.00     0.127 A   
ATOM     4   N3  UNL     1       1.220   2.809   2.012  1.00  0.00    -0.132 NA  
ATOM     5   N4  UNL     1       1.227   3.832   1.173  1.00  0.00    -0.076 NA  
ATOM     6   H10 UNL     1      -1.595   2.451   0.312  1.00  0.00     0.083 HD  
ENDROOT
BRANCH   1   7
ATOM     7   C7  UNL     1      -0.136   4.701  -0.638  1.00  0.00     0.170 C   
BRANCH   7   8
ATOM     8   C6  UNL     1       0.863   4.561  -1.792  1.00  0.00     0.164 C   
BRANCH   8   9
ATOM     9   C5  UNL     1       0.923   3.163  -2.377  1.00  0.00    -0.018 A   
ATOM     10  C2  UNL     1       1.050   0.550  -3.433  1.00  0.00    -0.051 A   
ATOM     11  C3  UNL     1      -0.107   1.322  -3.585  1.00  0.00     0.004 A   
ATOM     12  C25 UNL     1       2.150   1.099  -2.765  1.00  0.00     0.004 A   
ATOM     13  C4  UNL     1      -0.172   2.615  -3.061  1.00  0.00     0.007 A   
ATOM     14  C24 UNL     1       2.084   2.390  -2.235  1.00  0.00     0.007 A   
ATOM     15  C1  UNL     1       1.138  -0.818  -4.043  1.00  0.00     0.044 C   
ENDBRANCH   8   9
BRANCH   8  16
ATOM     16  O1  UNL     1       0.500   5.481  -2.824  1.00  0.00    -0.387 OA  
ATOM     17  H7  UNL     1       0.975   5.216  -3.633  1.00  0.00     0.211 HD  
ENDBRANCH   8  16
ENDBRANCH   7   8
ENDBRANCH   1   7
BRANCH   3  18
ATOM     18  C10 UNL     1      -0.156   0.822   2.550  1.00  0.00     0.117 C   
BRANCH  18  19
ATOM     19  N2  UNL     1       1.154   0.093   2.736  1.00  0.00     0.249 N   
ATOM     20  H12 UNL     1       1.067  -0.645   3.439  1.00  0.00     0.199 HD  
ATOM     21  H13 UNL     1       1.817   0.790   3.104  1.00  0.00     0.199 HD  
BRANCH  19  22
ATOM     22  C11 UNL     1       1.772  -0.472   1.499  1.00  0.00     0.164 C   
BRANCH  22  23
ATOM     23  C12 UNL     1       0.983  -1.609   0.914  1.00  0.00    -0.002 A   
ATOM     24  C13 UNL     1       1.011  -2.889   1.518  1.00  0.00     0.012 A   
ATOM     25  C17 UNL     1       0.185  -1.398  -0.224  1.00  0.00     0.045 A   
ATOM     26  C14 UNL     1       0.256  -3.945   0.996  1.00  0.00     0.037 A   
ATOM     27  C16 UNL     1      -0.547  -2.460  -0.713  1.00  0.00     0.109 A   
ATOM     28  C15 UNL     1      -0.513  -3.697  -0.120  1.00  0.00     0.108 A   
ATOM     29  O2  UNL     1      -1.366  -2.424  -1.796  1.00  0.00    -0.316 OA  
ATOM     30  O3  UNL     1      -1.304  -4.599  -0.756  1.00  0.00    -0.316 OA  
ATOM     31  C18 UNL     1      -1.826  -3.795  -1.836  1.00  0.00     0.337 C   
ENDBRANCH  22  23
ENDBRANCH  19  22
ENDBRANCH  18  19
BRANCH  18  32
ATOM     32  C19 UNL     1      -0.837   1.071   3.911  1.00  0.00     0.043 C   
ATOM     33  C20 UNL     1       0.004   1.777   4.980  1.00  0.00     0.010 C   
ATOM     34  C23 UNL     1      -1.347  -0.205   4.606  1.00  0.00     0.010 C   
ATOM     35  C21 UNL     1      -0.760   1.478   6.260  1.00  0.00     0.001 C   
ATOM     36  C22 UNL     1      -1.145   0.014   6.106  1.00  0.00     0.001 C   
ENDBRANCH  18  32
ENDBRANCH   3  18
TORSDOF 9
