REMARK SMILES Cc1ccc([C@H](O)Cn2cc([C@@H]([NH2+]Cc3ccc4c(c3)OCO4)C3CCCC3)nn2)cc1
REMARK SMILES IDX 9 1 10 2 11 3 29 4 30 5 8 7 6 8 5 9 2 10 3 11 32 12 4 13
REMARK SMILES IDX 31 14 1 15 7 16 12 18 13 19 14 22 15 23 16 24 20 25 17 26
REMARK SMILES IDX 19 27 18 28 21 29 23 30 22 31 24 32 25 33 28 34 26 35 27 36
REMARK H PARENT 10 6 7 17 13 20 13 21
ROOT
ATOM     1   N1  UNL     1      -1.353  -2.097  -1.171  1.00  0.00    -0.209 N   
ATOM     2   C8  UNL     1      -1.160  -0.754  -1.019  1.00  0.00     0.045 A   
ATOM     3   C9  UNL     1      -0.039  -0.672  -0.224  1.00  0.00     0.127 A   
ATOM     4   N3  UNL     1       0.360  -1.937   0.127  1.00  0.00    -0.132 NA  
ATOM     5   N4  UNL     1      -0.469  -2.800  -0.438  1.00  0.00    -0.076 NA  
ATOM     6   H10 UNL     1      -1.773  -0.018  -1.524  1.00  0.00     0.083 HD  
ENDROOT
BRANCH   1   7
ATOM     7   C7  UNL     1      -2.286  -2.764  -2.052  1.00  0.00     0.170 C   
BRANCH   7   8
ATOM     8   C6  UNL     1      -1.615  -3.339  -3.305  1.00  0.00     0.164 C   
BRANCH   8   9
ATOM     9   C5  UNL     1      -0.860  -2.297  -4.109  1.00  0.00    -0.018 A   
ATOM     10  C2  UNL     1       0.575  -0.335  -5.539  1.00  0.00    -0.051 A   
ATOM     11  C3  UNL     1       1.254  -1.323  -4.818  1.00  0.00     0.004 A   
ATOM     12  C25 UNL     1      -0.823  -0.321  -5.526  1.00  0.00     0.004 A   
ATOM     13  C4  UNL     1       0.543  -2.295  -4.112  1.00  0.00     0.007 A   
ATOM     14  C24 UNL     1      -1.536  -1.296  -4.823  1.00  0.00     0.007 A   
ATOM     15  C1  UNL     1       1.340   0.718  -6.287  1.00  0.00     0.044 C   
ENDBRANCH   8   9
BRANCH   8  16
ATOM     16  O1  UNL     1      -2.621  -3.937  -4.127  1.00  0.00    -0.387 OA  
ATOM     17  H7  UNL     1      -2.237  -4.059  -5.017  1.00  0.00     0.211 HD  
ENDBRANCH   8  16
ENDBRANCH   7   8
ENDBRANCH   1   7
BRANCH   3  18
ATOM     18  C10 UNL     1       0.744   0.509   0.248  1.00  0.00     0.117 C   
BRANCH  18  19
ATOM     19  N2  UNL     1       1.474   0.174   1.527  1.00  0.00     0.249 N   
ATOM     20  H12 UNL     1       2.228   0.842   1.712  1.00  0.00     0.199 HD  
ATOM     21  H13 UNL     1       1.915  -0.745   1.369  1.00  0.00     0.199 HD  
BRANCH  19  22
ATOM     22  C11 UNL     1       0.625   0.044   2.752  1.00  0.00     0.164 C   
BRANCH  22  23
ATOM     23  C12 UNL     1       0.125   1.368   3.257  1.00  0.00    -0.002 A   
ATOM     24  C13 UNL     1       0.983   2.229   3.986  1.00  0.00     0.012 A   
ATOM     25  C17 UNL     1      -1.192   1.775   2.984  1.00  0.00     0.045 A   
ATOM     26  C14 UNL     1       0.538   3.476   4.439  1.00  0.00     0.037 A   
ATOM     27  C16 UNL     1      -1.595   3.013   3.439  1.00  0.00     0.109 A   
ATOM     28  C15 UNL     1      -0.757   3.839   4.147  1.00  0.00     0.108 A   
ATOM     29  O2  UNL     1      -2.824   3.556   3.248  1.00  0.00    -0.316 OA  
ATOM     30  O3  UNL     1      -1.355   5.007   4.493  1.00  0.00    -0.316 OA  
ATOM     31  C18 UNL     1      -2.684   4.803   3.966  1.00  0.00     0.337 C   
ENDBRANCH  22  23
ENDBRANCH  19  22
ENDBRANCH  18  19
BRANCH  18  32
ATOM     32  C19 UNL     1       1.730   0.981  -0.842  1.00  0.00     0.043 C   
ATOM     33  C20 UNL     1       2.408   2.330  -0.566  1.00  0.00     0.010 C   
ATOM     34  C23 UNL     1       2.918   0.061  -1.135  1.00  0.00     0.010 C   
ATOM     35  C21 UNL     1       3.648   2.344  -1.462  1.00  0.00     0.001 C   
ATOM     36  C22 UNL     1       3.801   0.931  -2.020  1.00  0.00     0.001 C   
ENDBRANCH  18  32
ENDBRANCH   3  18
TORSDOF 9
