REMARK SMILES Cc1nc(Cn2cc([C@@H]([NH2+]Cc3ccc4c(c3)OCO4)C(C)(C)C)nn2)ccc1F
REMARK SMILES IDX 6 1 7 2 8 3 25 4 26 5 5 7 4 8 2 9 3 10 29 11 28 12 27 13
REMARK SMILES IDX 1 14 30 15 9 16 10 17 11 20 12 21 13 22 17 23 14 24 16 25
REMARK SMILES IDX 15 26 18 27 20 28 19 29 21 30 22 31 23 32 24 33
REMARK H PARENT 7 6 10 18 10 19
ROOT
ATOM     1   N2  UNL     1      -1.704  -2.375   1.494  1.00  0.00    -0.206 N   
ATOM     2   C5  UNL     1      -1.490  -1.590   0.396  1.00  0.00     0.046 A   
ATOM     3   C6  UNL     1      -0.818  -2.414  -0.478  1.00  0.00     0.127 A   
ATOM     4   N4  UNL     1      -0.678  -3.655   0.092  1.00  0.00    -0.132 NA  
ATOM     5   N5  UNL     1      -1.226  -3.620   1.296  1.00  0.00    -0.076 NA  
ATOM     6   H6  UNL     1      -1.770  -0.545   0.372  1.00  0.00     0.083 HD  
ENDROOT
BRANCH   1   7
ATOM     7   C4  UNL     1      -2.282  -1.991   2.767  1.00  0.00     0.190 C   
BRANCH   7   8
ATOM     8   C3  UNL     1      -1.223  -1.370   3.640  1.00  0.00     0.060 A   
ATOM     9   C2  UNL     1       0.173   0.451   4.061  1.00  0.00     0.073 A   
ATOM     10  N1  UNL     1      -0.781  -0.131   3.286  1.00  0.00    -0.253 NA  
ATOM     11  C22 UNL     1       0.714  -0.181   5.174  1.00  0.00     0.144 A   
ATOM     12  C21 UNL     1       0.268  -1.448   5.519  1.00  0.00     0.043 A   
ATOM     13  C20 UNL     1      -0.716  -2.055   4.744  1.00  0.00     0.028 A   
ATOM     14  C1  UNL     1       0.642   1.821   3.677  1.00  0.00     0.070 C   
ATOM     15  F1  UNL     1       1.663   0.413   5.909  1.00  0.00    -0.205 F   
ENDBRANCH   7   8
ENDBRANCH   1   7
BRANCH   3  16
ATOM     16  C7  UNL     1      -0.163  -2.116  -1.790  1.00  0.00     0.120 C   
BRANCH  16  17
ATOM     17  N3  UNL     1       1.209  -2.764  -1.817  1.00  0.00     0.250 N   
ATOM     18  H8  UNL     1       1.062  -3.763  -1.621  1.00  0.00     0.199 HD  
ATOM     19  H9  UNL     1       1.629  -2.689  -2.746  1.00  0.00     0.199 HD  
BRANCH  17  20
ATOM     20  C8  UNL     1       2.198  -2.272  -0.807  1.00  0.00     0.164 C   
BRANCH  20  21
ATOM     21  C9  UNL     1       2.551  -0.820  -0.976  1.00  0.00    -0.002 A   
ATOM     22  C10 UNL     1       3.352  -0.398  -2.064  1.00  0.00     0.012 A   
ATOM     23  C14 UNL     1       2.060   0.134  -0.066  1.00  0.00     0.045 A   
ATOM     24  C11 UNL     1       3.656   0.955  -2.249  1.00  0.00     0.037 A   
ATOM     25  C13 UNL     1       2.379   1.459  -0.277  1.00  0.00     0.109 A   
ATOM     26  C12 UNL     1       3.153   1.858  -1.339  1.00  0.00     0.108 A   
ATOM     27  O1  UNL     1       1.984   2.502   0.499  1.00  0.00    -0.316 OA  
ATOM     28  O2  UNL     1       3.345   3.202  -1.364  1.00  0.00    -0.316 OA  
ATOM     29  C15 UNL     1       2.623   3.607  -0.181  1.00  0.00     0.337 C   
ENDBRANCH  20  21
ENDBRANCH  17  20
ENDBRANCH  16  17
BRANCH  16  30
ATOM     30  C16 UNL     1      -1.001  -2.552  -3.043  1.00  0.00     0.010 C   
ATOM     31  C17 UNL     1      -2.395  -1.883  -3.002  1.00  0.00     0.017 C   
ATOM     32  C18 UNL     1      -1.200  -4.077  -3.137  1.00  0.00     0.017 C   
ATOM     33  C19 UNL     1      -0.311  -2.075  -4.343  1.00  0.00     0.017 C   
ENDBRANCH  16  30
ENDBRANCH   3  16
TORSDOF 7
