REMARK SMILES CC(C)(C)[C@H]([NH2+]Cc1ccc2c(c1)OCO2)c1cn(Cc2cncc(F)c2)nn1
REMARK SMILES IDX 17 1 18 2 19 3 28 4 29 5 5 7 2 8 1 9 3 10 4 11 6 12 7 15
REMARK SMILES IDX 8 16 9 17 13 18 10 19 12 20 11 21 14 22 16 23 15 24 20 25
REMARK SMILES IDX 21 26 22 27 27 28 23 29 25 30 24 31 26 32
REMARK H PARENT 18 6 6 13 6 14
ROOT
ATOM     1   C14 UNL     1      -0.986  -0.871  -0.339  1.00  0.00     0.127 A   
ATOM     2   C15 UNL     1      -1.226   0.385   0.176  1.00  0.00     0.046 A   
ATOM     3   N2  UNL     1      -1.485   0.151   1.499  1.00  0.00    -0.208 N   
ATOM     4   N4  UNL     1      -1.415  -1.164   1.781  1.00  0.00    -0.076 NA  
ATOM     5   N5  UNL     1      -1.094  -1.798   0.666  1.00  0.00    -0.132 NA  
ATOM     6   H20 UNL     1      -1.203   1.381  -0.246  1.00  0.00     0.083 HD  
ENDROOT
BRANCH   1   7
ATOM     7   C5  UNL     1      -0.551  -1.326  -1.700  1.00  0.00     0.120 C   
BRANCH   7   8
ATOM     8   C2  UNL     1      -1.715  -1.843  -2.613  1.00  0.00     0.010 C   
ATOM     9   C1  UNL     1      -1.173  -2.178  -4.022  1.00  0.00     0.017 C   
ATOM     10  C3  UNL     1      -2.780  -0.735  -2.790  1.00  0.00     0.017 C   
ATOM     11  C4  UNL     1      -2.416  -3.095  -2.046  1.00  0.00     0.017 C   
ENDBRANCH   7   8
BRANCH   7  12
ATOM     12  N1  UNL     1       0.503  -2.404  -1.512  1.00  0.00     0.250 N   
ATOM     13  H11 UNL     1       0.382  -2.753  -0.547  1.00  0.00     0.199 HD  
ATOM     14  H12 UNL     1       0.322  -3.216  -2.107  1.00  0.00     0.199 HD  
BRANCH  12  15
ATOM     15  C6  UNL     1       1.921  -1.983  -1.686  1.00  0.00     0.164 C   
BRANCH  15  16
ATOM     16  C7  UNL     1       2.368  -0.895  -0.749  1.00  0.00    -0.002 A   
ATOM     17  C8  UNL     1       2.497  -1.147   0.639  1.00  0.00     0.012 A   
ATOM     18  C12 UNL     1       2.661   0.388  -1.248  1.00  0.00     0.045 A   
ATOM     19  C9  UNL     1       2.922  -0.142   1.515  1.00  0.00     0.037 A   
ATOM     20  C11 UNL     1       3.081   1.352  -0.357  1.00  0.00     0.109 A   
ATOM     21  C10 UNL     1       3.216   1.093   0.985  1.00  0.00     0.108 A   
ATOM     22  O1  UNL     1       3.412   2.631  -0.674  1.00  0.00    -0.316 OA  
ATOM     23  O2  UNL     1       3.663   2.171   1.678  1.00  0.00    -0.316 OA  
ATOM     24  C13 UNL     1       3.825   3.135   0.617  1.00  0.00     0.337 C   
ENDBRANCH  15  16
ENDBRANCH  12  15
ENDBRANCH   7  12
ENDBRANCH   1   7
BRANCH   3  25
ATOM     25  C16 UNL     1      -1.785   1.115   2.544  1.00  0.00     0.171 C   
BRANCH  25  26
ATOM     26  C17 UNL     1      -0.531   1.561   3.239  1.00  0.00    -0.007 A   
ATOM     27  C18 UNL     1       0.108   0.730   4.160  1.00  0.00     0.116 A   
ATOM     28  C21 UNL     1       0.054   2.805   2.977  1.00  0.00     0.048 A   
ATOM     29  N3  UNL     1       1.252   1.050   4.806  1.00  0.00    -0.261 NA  
ATOM     30  C20 UNL     1       1.222   3.158   3.638  1.00  0.00     0.141 A   
ATOM     31  C19 UNL     1       1.782   2.267   4.535  1.00  0.00     0.150 A   
ATOM     32  F1  UNL     1       1.799   4.341   3.393  1.00  0.00    -0.205 F   
ENDBRANCH  25  26
ENDBRANCH   3  25
TORSDOF 7
