REMARK SMILES CC(C)C[C@H]([NH2+]Cc1ccc2c(c1)OCO2)c1cn(CCc2cnccn2)nn1
REMARK SMILES IDX 17 1 18 2 19 3 28 4 29 5 5 7 4 8 2 9 1 10 3 11 6 12 7 15
REMARK SMILES IDX 8 16 9 17 13 18 10 19 12 20 11 21 14 22 16 23 15 24 20 25
REMARK SMILES IDX 21 26 22 27 23 28 27 29 24 30 26 31 25 32
REMARK H PARENT 18 6 6 13 6 14
ROOT
ATOM     1   C14 UNL     1      -0.592  -2.103  -0.691  1.00  0.00     0.127 A   
ATOM     2   C15 UNL     1      -1.886  -2.284  -1.138  1.00  0.00     0.045 A   
ATOM     3   N2  UNL     1      -1.785  -2.190  -2.502  1.00  0.00    -0.212 N   
ATOM     4   N5  UNL     1      -0.497  -2.091  -2.877  1.00  0.00    -0.076 NA  
ATOM     5   N6  UNL     1       0.243  -2.052  -1.779  1.00  0.00    -0.132 NA  
ATOM     6   H20 UNL     1      -2.847  -2.322  -0.639  1.00  0.00     0.083 HD  
ENDROOT
BRANCH   1   7
ATOM     7   C5  UNL     1      -0.046  -1.811   0.673  1.00  0.00     0.114 C   
BRANCH   7   8
ATOM     8   C4  UNL     1      -1.025  -2.105   1.830  1.00  0.00     0.064 C   
BRANCH   8   9
ATOM     9   C2  UNL     1      -1.345  -3.602   2.037  1.00  0.00    -0.012 C   
ATOM     10  C1  UNL     1      -2.499  -3.750   3.033  1.00  0.00     0.007 C   
ATOM     11  C3  UNL     1      -0.130  -4.386   2.539  1.00  0.00     0.007 C   
ENDBRANCH   8   9
ENDBRANCH   7   8
BRANCH   7  12
ATOM     12  N1  UNL     1       0.338  -0.346   0.785  1.00  0.00     0.249 N   
ATOM     13  H11 UNL     1      -0.441   0.248   0.445  1.00  0.00     0.199 HD  
ATOM     14  H12 UNL     1       0.482  -0.090   1.766  1.00  0.00     0.199 HD  
BRANCH  12  15
ATOM     15  C6  UNL     1       1.559   0.055   0.026  1.00  0.00     0.164 C   
BRANCH  15  16
ATOM     16  C7  UNL     1       2.143   1.327   0.583  1.00  0.00    -0.002 A   
ATOM     17  C8  UNL     1       1.550   2.577   0.290  1.00  0.00     0.012 A   
ATOM     18  C12 UNL     1       3.269   1.278   1.427  1.00  0.00     0.045 A   
ATOM     19  C9  UNL     1       2.068   3.763   0.822  1.00  0.00     0.037 A   
ATOM     20  C11 UNL     1       3.756   2.465   1.933  1.00  0.00     0.109 A   
ATOM     21  C10 UNL     1       3.172   3.673   1.639  1.00  0.00     0.108 A   
ATOM     22  O1  UNL     1       4.835   2.594   2.750  1.00  0.00    -0.316 OA  
ATOM     23  O2  UNL     1       3.809   4.714   2.237  1.00  0.00    -0.316 OA  
ATOM     24  C13 UNL     1       4.880   4.029   2.919  1.00  0.00     0.337 C   
ENDBRANCH  15  16
ENDBRANCH  12  15
ENDBRANCH   7  12
ENDBRANCH   1   7
BRANCH   3  25
ATOM     25  C16 UNL     1      -2.848  -1.820  -3.422  1.00  0.00     0.140 C   
BRANCH  25  26
ATOM     26  C17 UNL     1      -2.876  -0.307  -3.692  1.00  0.00     0.079 C   
BRANCH  26  27
ATOM     27  C18 UNL     1      -2.930   0.481  -2.405  1.00  0.00     0.060 A   
ATOM     28  C19 UNL     1      -1.760   0.960  -1.815  1.00  0.00     0.134 A   
ATOM     29  N4  UNL     1      -4.112   0.537  -1.749  1.00  0.00    -0.258 NA  
ATOM     30  N3  UNL     1      -1.705   1.431  -0.539  1.00  0.00    -0.261 NA  
ATOM     31  C21 UNL     1      -4.093   1.125  -0.531  1.00  0.00     0.131 A   
ATOM     32  C20 UNL     1      -2.917   1.556   0.063  1.00  0.00     0.131 A   
ENDBRANCH  26  27
ENDBRANCH  25  26
ENDBRANCH   3  25
TORSDOF 9
