REMARK SMILES CC(C)[C@H]([NH2+]Cc1ccc2c(c1)OCO2)c1cn(C[C@@H](O)Cc2cccc(F)c2)nn1
REMARK SMILES IDX 16 1 17 2 18 3 30 4 31 5 4 7 2 8 1 9 3 10 5 11 6 14 7 15
REMARK SMILES IDX 8 16 12 17 9 18 11 19 10 20 13 21 15 22 14 23 19 24 20 25
REMARK SMILES IDX 21 26 22 28 23 29 24 30 29 31 25 32 27 33 26 34 28 35
REMARK H PARENT 17 6 5 12 5 13 21 27
ROOT
ATOM     1   C13 UNL     1      -2.033   1.211  -0.760  1.00  0.00     0.127 A   
ATOM     2   C14 UNL     1      -2.520   1.115  -2.048  1.00  0.00     0.045 A   
ATOM     3   N2  UNL     1      -1.488   1.562  -2.826  1.00  0.00    -0.210 N   
ATOM     4   N3  UNL     1      -0.450   1.954  -2.065  1.00  0.00    -0.076 NA  
ATOM     5   N4  UNL     1      -0.768   1.739  -0.800  1.00  0.00    -0.132 NA  
ATOM     6   H18 UNL     1      -3.446   0.747  -2.467  1.00  0.00     0.083 HD  
ENDROOT
BRANCH   1   7
ATOM     7   C4  UNL     1      -2.603   0.771   0.555  1.00  0.00     0.117 C   
BRANCH   7   8
ATOM     8   C2  UNL     1      -3.517   1.827   1.227  1.00  0.00     0.037 C   
ATOM     9   C1  UNL     1      -4.766   2.111   0.383  1.00  0.00     0.014 C   
ATOM     10  C3  UNL     1      -2.814   3.145   1.567  1.00  0.00     0.014 C   
ENDBRANCH   7   8
BRANCH   7  11
ATOM     11  N1  UNL     1      -1.458   0.394   1.462  1.00  0.00     0.249 N   
ATOM     12  H9  UNL     1      -0.901   1.234   1.663  1.00  0.00     0.199 HD  
ATOM     13  H10 UNL     1      -0.806  -0.178   0.902  1.00  0.00     0.199 HD  
BRANCH  11  14
ATOM     14  C5  UNL     1      -1.760  -0.356   2.701  1.00  0.00     0.164 C   
BRANCH  14  15
ATOM     15  C6  UNL     1      -0.514  -0.579   3.512  1.00  0.00    -0.002 A   
ATOM     16  C7  UNL     1       0.302  -1.710   3.281  1.00  0.00     0.012 A   
ATOM     17  C11 UNL     1      -0.126   0.365   4.479  1.00  0.00     0.045 A   
ATOM     18  C8  UNL     1       1.483  -1.906   4.007  1.00  0.00     0.037 A   
ATOM     19  C10 UNL     1       1.041   0.140   5.180  1.00  0.00     0.109 A   
ATOM     20  C9  UNL     1       1.823  -0.963   4.952  1.00  0.00     0.108 A   
ATOM     21  O1  UNL     1       1.555   0.950   6.139  1.00  0.00    -0.316 OA  
ATOM     22  O2  UNL     1       2.928  -0.988   5.740  1.00  0.00    -0.316 OA  
ATOM     23  C12 UNL     1       2.743   0.216   6.512  1.00  0.00     0.337 C   
ENDBRANCH  14  15
ENDBRANCH  11  14
ENDBRANCH   7  11
ENDBRANCH   1   7
BRANCH   3  24
ATOM     24  C15 UNL     1      -1.395   1.621  -4.264  1.00  0.00     0.166 C   
BRANCH  24  25
ATOM     25  C16 UNL     1      -1.500   0.268  -4.984  1.00  0.00     0.138 C   
BRANCH  25  26
ATOM     26  O3  UNL     1      -1.447   0.540  -6.391  1.00  0.00    -0.391 OA  
ATOM     27  H22 UNL     1      -1.564  -0.297  -6.876  1.00  0.00     0.211 HD  
ENDBRANCH  25  26
BRANCH  25  28
ATOM     28  C17 UNL     1      -0.381  -0.733  -4.622  1.00  0.00     0.069 C   
BRANCH  28  29
ATOM     29  C18 UNL     1      -0.760  -1.651  -3.481  1.00  0.00    -0.042 A   
ATOM     30  C19 UNL     1      -1.685  -2.688  -3.679  1.00  0.00     0.004 A   
ATOM     31  C23 UNL     1      -0.227  -1.461  -2.202  1.00  0.00     0.043 A   
ATOM     32  C20 UNL     1      -2.091  -3.496  -2.611  1.00  0.00     0.003 A   
ATOM     33  C22 UNL     1      -0.669  -2.244  -1.140  1.00  0.00     0.123 A   
ATOM     34  C21 UNL     1      -1.590  -3.264  -1.332  1.00  0.00     0.039 A   
ATOM     35  F1  UNL     1      -0.251  -1.957   0.102  1.00  0.00    -0.207 F   
ENDBRANCH  28  29
ENDBRANCH  25  28
ENDBRANCH  24  25
ENDBRANCH   3  24
TORSDOF 10
