REMARK SMILES CC(C)[C@H]([NH2+]Cc1ccc2c(c1)OCO2)c1cn(C[C@H](O)Cc2cccc(F)c2)nn1
REMARK SMILES IDX 16 1 17 2 18 3 30 4 31 5 4 7 2 8 1 9 3 10 5 11 6 14 7 15
REMARK SMILES IDX 8 16 12 17 9 18 11 19 10 20 13 21 15 22 14 23 19 24 20 25
REMARK SMILES IDX 21 26 22 28 23 29 24 30 29 31 25 32 27 33 26 34 28 35
REMARK H PARENT 17 6 5 12 5 13 21 27
ROOT
ATOM     1   C13 UNL     1      -0.631  -0.233  -1.278  1.00  0.00     0.127 A   
ATOM     2   C14 UNL     1      -0.178   0.422  -0.156  1.00  0.00     0.045 A   
ATOM     3   N2  UNL     1      -1.251   1.164   0.248  1.00  0.00    -0.210 N   
ATOM     4   N3  UNL     1      -2.323   0.927  -0.530  1.00  0.00    -0.076 NA  
ATOM     5   N4  UNL     1      -1.951   0.084  -1.479  1.00  0.00    -0.132 NA  
ATOM     6   H18 UNL     1       0.774   0.462   0.354  1.00  0.00     0.083 HD  
ENDROOT
BRANCH   1   7
ATOM     7   C4  UNL     1       0.042  -1.195  -2.202  1.00  0.00     0.117 C   
BRANCH   7   8
ATOM     8   C2  UNL     1       0.792  -0.521  -3.384  1.00  0.00     0.037 C   
ATOM     9   C1  UNL     1       1.983   0.314  -2.896  1.00  0.00     0.014 C   
ATOM     10  C3  UNL     1      -0.101   0.330  -4.295  1.00  0.00     0.014 C   
ENDBRANCH   7   8
BRANCH   7  11
ATOM     11  N1  UNL     1      -0.980  -2.157  -2.777  1.00  0.00     0.249 N   
ATOM     12  H9  UNL     1      -1.782  -1.579  -3.067  1.00  0.00     0.199 HD  
ATOM     13  H10 UNL     1      -0.611  -2.611  -3.617  1.00  0.00     0.199 HD  
BRANCH  11  14
ATOM     14  C5  UNL     1      -1.507  -3.198  -1.846  1.00  0.00     0.164 C   
BRANCH  14  15
ATOM     15  C6  UNL     1      -0.492  -4.263  -1.533  1.00  0.00    -0.002 A   
ATOM     16  C7  UNL     1       0.153  -4.291  -0.272  1.00  0.00     0.012 A   
ATOM     17  C11 UNL     1      -0.152  -5.221  -2.504  1.00  0.00     0.045 A   
ATOM     18  C8  UNL     1       1.127  -5.255   0.018  1.00  0.00     0.037 A   
ATOM     19  C10 UNL     1       0.812  -6.156  -2.185  1.00  0.00     0.109 A   
ATOM     20  C9  UNL     1       1.436  -6.171  -0.962  1.00  0.00     0.108 A   
ATOM     21  O1  UNL     1       1.256  -7.143  -3.009  1.00  0.00    -0.316 OA  
ATOM     22  O2  UNL     1       2.352  -7.168  -0.861  1.00  0.00    -0.316 OA  
ATOM     23  C12 UNL     1       2.213  -7.806  -2.149  1.00  0.00     0.337 C   
ENDBRANCH  14  15
ENDBRANCH  11  14
ENDBRANCH   7  11
ENDBRANCH   1   7
BRANCH   3  24
ATOM     24  C15 UNL     1      -1.339   2.088   1.363  1.00  0.00     0.166 C   
BRANCH  24  25
ATOM     25  C16 UNL     1      -1.140   3.535   0.902  1.00  0.00     0.138 C   
BRANCH  25  26
ATOM     26  O3  UNL     1       0.237   3.733   0.554  1.00  0.00    -0.391 OA  
ATOM     27  H22 UNL     1       0.344   4.661   0.270  1.00  0.00     0.211 HD  
ENDBRANCH  25  26
BRANCH  25  28
ATOM     28  C17 UNL     1      -1.583   4.564   1.960  1.00  0.00     0.069 C   
BRANCH  28  29
ATOM     29  C18 UNL     1      -1.012   4.346   3.342  1.00  0.00    -0.042 A   
ATOM     30  C19 UNL     1       0.331   4.641   3.623  1.00  0.00     0.004 A   
ATOM     31  C23 UNL     1      -1.821   3.843   4.372  1.00  0.00     0.043 A   
ATOM     32  C20 UNL     1       0.856   4.435   4.903  1.00  0.00     0.003 A   
ATOM     33  C22 UNL     1      -1.287   3.639   5.642  1.00  0.00     0.123 A   
ATOM     34  C21 UNL     1       0.042   3.932   5.917  1.00  0.00     0.039 A   
ATOM     35  F1  UNL     1      -2.071   3.150   6.611  1.00  0.00    -0.207 F   
ENDBRANCH  28  29
ENDBRANCH  25  28
ENDBRANCH  24  25
ENDBRANCH   3  24
TORSDOF 10
