REMARK SMILES CC(C)[C@H]([NH2+]Cc1ccc2c(c1)OCO2)c1cn(Cc2cccc3[nH]ccc23)nn1
REMARK SMILES IDX 16 1 17 2 18 3 29 4 30 5 4 7 2 8 1 9 3 10 5 11 6 14 7 15
REMARK SMILES IDX 8 16 12 17 9 18 11 19 10 20 13 21 15 22 14 23 19 24 20 25
REMARK SMILES IDX 21 26 28 27 22 28 24 29 27 30 23 31 25 32 26 33
REMARK H PARENT 17 6 5 12 5 13 25 34
ROOT
ATOM     1   C13 UNL     1      -1.093   1.585   1.707  1.00  0.00     0.127 A   
ATOM     2   C14 UNL     1      -1.526   1.361   0.420  1.00  0.00     0.046 A   
ATOM     3   N2  UNL     1      -1.098   2.462  -0.269  1.00  0.00    -0.208 N   
ATOM     4   N4  UNL     1      -0.496   3.340   0.558  1.00  0.00    -0.076 NA  
ATOM     5   N5  UNL     1      -0.485   2.812   1.771  1.00  0.00    -0.132 NA  
ATOM     6   H18 UNL     1      -2.007   0.523  -0.066  1.00  0.00     0.083 HD  
ENDROOT
BRANCH   1   7
ATOM     7   C4  UNL     1      -1.076   0.681   2.892  1.00  0.00     0.117 C   
BRANCH   7   8
ATOM     8   C2  UNL     1      -2.196   0.958   3.929  1.00  0.00     0.037 C   
ATOM     9   C1  UNL     1      -2.168   2.361   4.544  1.00  0.00     0.014 C   
ATOM     10  C3  UNL     1      -3.584   0.685   3.334  1.00  0.00     0.014 C   
ENDBRANCH   7   8
BRANCH   7  11
ATOM     11  N1  UNL     1       0.265   0.746   3.597  1.00  0.00     0.249 N   
ATOM     12  H9  UNL     1       0.403   1.724   3.882  1.00  0.00     0.199 HD  
ATOM     13  H10 UNL     1       0.237   0.176   4.447  1.00  0.00     0.199 HD  
BRANCH  11  14
ATOM     14  C5  UNL     1       1.469   0.372   2.787  1.00  0.00     0.164 C   
BRANCH  14  15
ATOM     15  C6  UNL     1       1.385  -0.991   2.159  1.00  0.00    -0.002 A   
ATOM     16  C7  UNL     1       1.264  -1.116   0.753  1.00  0.00     0.012 A   
ATOM     17  C11 UNL     1       1.398  -2.147   2.956  1.00  0.00     0.045 A   
ATOM     18  C8  UNL     1       1.141  -2.370   0.148  1.00  0.00     0.037 A   
ATOM     19  C10 UNL     1       1.277  -3.370   2.327  1.00  0.00     0.109 A   
ATOM     20  C9  UNL     1       1.150  -3.479   0.964  1.00  0.00     0.108 A   
ATOM     21  O1  UNL     1       1.261  -4.578   2.949  1.00  0.00    -0.316 OA  
ATOM     22  O2  UNL     1       1.041  -4.770   0.556  1.00  0.00    -0.316 OA  
ATOM     23  C12 UNL     1       1.142  -5.468   1.815  1.00  0.00     0.337 C   
ENDBRANCH  14  15
ENDBRANCH  11  14
ENDBRANCH   7  11
ENDBRANCH   1   7
BRANCH   3  24
ATOM     24  C15 UNL     1      -1.116   2.678  -1.705  1.00  0.00     0.170 C   
BRANCH  24  25
ATOM     25  C16 UNL     1      -0.003   1.890  -2.356  1.00  0.00    -0.019 A   
ATOM     26  C17 UNL     1       1.301   2.434  -2.383  1.00  0.00     0.006 A   
ATOM     27  C23 UNL     1      -0.187   0.595  -2.904  1.00  0.00     0.002 A   
ATOM     28  C18 UNL     1       2.374   1.736  -2.933  1.00  0.00     0.002 A   
ATOM     29  C20 UNL     1       0.909  -0.079  -3.446  1.00  0.00     0.037 A   
ATOM     30  C22 UNL     1      -1.311  -0.271  -3.054  1.00  0.00     0.025 A   
ATOM     31  C19 UNL     1       2.197   0.464  -3.475  1.00  0.00     0.024 A   
ATOM     32  N3  UNL     1       0.457  -1.292  -3.919  1.00  0.00    -0.321 N   
ATOM     33  C21 UNL     1      -0.882  -1.423  -3.671  1.00  0.00     0.072 A   
ATOM     34  H24 UNL     1       1.034  -1.976  -4.389  1.00  0.00     0.152 HD  
ENDBRANCH  24  25
ENDBRANCH   3  24
TORSDOF 7
