REMARK SMILES Cc1ccc(F)cc1Cn1cc([C@H](CC(C)C)[NH2+]Cc2ccc3c(c2)OCO3)nn1
REMARK SMILES IDX 10 1 11 2 12 3 29 4 30 5 9 7 8 8 2 9 3 10 4 11 7 12 5 13
REMARK SMILES IDX 1 14 6 15 13 16 14 17 15 18 16 19 17 20 18 21 19 24 20 25
REMARK SMILES IDX 21 26 25 27 22 28 24 29 23 30 26 31 28 32 27 33
REMARK H PARENT 11 6 18 22 18 23
ROOT
ATOM     1   N1  UNL     1       0.514   1.609   0.020  1.00  0.00    -0.208 N   
ATOM     2   C9  UNL     1      -0.691   0.959   0.008  1.00  0.00     0.046 A   
ATOM     3   C10 UNL     1      -0.475  -0.157   0.786  1.00  0.00     0.127 A   
ATOM     4   N3  UNL     1       0.819  -0.146   1.239  1.00  0.00    -0.132 NA  
ATOM     5   N4  UNL     1       1.414   0.933   0.759  1.00  0.00    -0.076 NA  
ATOM     6   H9  UNL     1      -1.543   1.329  -0.545  1.00  0.00     0.083 HD  
ENDROOT
BRANCH   1   7
ATOM     7   C8  UNL     1       0.885   2.840  -0.662  1.00  0.00     0.169 C   
BRANCH   7   8
ATOM     8   C7  UNL     1       0.917   2.642  -2.162  1.00  0.00    -0.023 A   
ATOM     9   C2  UNL     1      -0.023   3.238  -3.034  1.00  0.00    -0.046 A   
ATOM     10  C3  UNL     1       0.067   2.992  -4.416  1.00  0.00     0.007 A   
ATOM     11  C4  UNL     1       1.065   2.168  -4.935  1.00  0.00     0.039 A   
ATOM     12  C6  UNL     1       1.924   1.821  -2.706  1.00  0.00     0.045 A   
ATOM     13  C5  UNL     1       1.985   1.590  -4.075  1.00  0.00     0.123 A   
ATOM     14  C1  UNL     1      -1.115   4.149  -2.537  1.00  0.00     0.044 C   
ATOM     15  F1  UNL     1       2.939   0.790  -4.565  1.00  0.00    -0.207 F   
ENDBRANCH   7   8
ENDBRANCH   1   7
BRANCH   3  16
ATOM     16  C11 UNL     1      -1.356  -1.313   1.123  1.00  0.00     0.114 C   
BRANCH  16  17
ATOM     17  C12 UNL     1      -2.007  -1.179   2.513  1.00  0.00     0.064 C   
BRANCH  17  18
ATOM     18  C13 UNL     1      -2.964   0.021   2.680  1.00  0.00    -0.012 C   
ATOM     19  C14 UNL     1      -4.146  -0.034   1.712  1.00  0.00     0.007 C   
ATOM     20  C15 UNL     1      -3.480   0.072   4.121  1.00  0.00     0.007 C   
ENDBRANCH  17  18
ENDBRANCH  16  17
BRANCH  16  21
ATOM     21  N2  UNL     1      -0.543  -2.586   1.141  1.00  0.00     0.249 N   
ATOM     22  H20 UNL     1       0.294  -2.396   1.714  1.00  0.00     0.199 HD  
ATOM     23  H21 UNL     1      -1.048  -3.346   1.609  1.00  0.00     0.199 HD  
BRANCH  21  24
ATOM     24  C16 UNL     1      -0.069  -3.063  -0.189  1.00  0.00     0.164 C   
BRANCH  24  25
ATOM     25  C17 UNL     1       0.718  -4.334  -0.040  1.00  0.00    -0.002 A   
ATOM     26  C18 UNL     1       0.098  -5.590  -0.236  1.00  0.00     0.012 A   
ATOM     27  C22 UNL     1       2.069  -4.280   0.347  1.00  0.00     0.045 A   
ATOM     28  C19 UNL     1       0.814  -6.779  -0.059  1.00  0.00     0.037 A   
ATOM     29  C21 UNL     1       2.745  -5.471   0.514  1.00  0.00     0.109 A   
ATOM     30  C20 UNL     1       2.135  -6.686   0.317  1.00  0.00     0.108 A   
ATOM     31  O1  UNL     1       4.045  -5.597   0.887  1.00  0.00    -0.316 OA  
ATOM     32  O2  UNL     1       2.976  -7.729   0.536  1.00  0.00    -0.316 OA  
ATOM     33  C23 UNL     1       4.196  -7.035   0.875  1.00  0.00     0.337 C   
ENDBRANCH  24  25
ENDBRANCH  21  24
ENDBRANCH  16  21
ENDBRANCH   3  16
TORSDOF 8
