REMARK SMILES CC(C)(C)c1ocnc1Cn1cc([C@@H]([NH2+]Cc2ccc3c(c2)OCO3)C2CCCC2)nn1
REMARK SMILES IDX 11 1 12 2 13 3 31 4 32 5 10 7 9 8 5 9 6 10 7 11 8 12 2 13
REMARK SMILES IDX 1 14 3 15 4 16 14 17 15 18 16 21 17 22 18 23 22 24 19 25
REMARK SMILES IDX 21 26 20 27 23 28 25 29 24 30 26 31 27 32 30 33 28 34 29 35
REMARK H PARENT 12 6 15 19 15 20
ROOT
ATOM     1   N2  UNL     1      -0.408   1.824  -1.113  1.00  0.00    -0.206 N   
ATOM     2   C9  UNL     1       0.848   1.304  -1.292  1.00  0.00     0.046 A   
ATOM     3   C10 UNL     1       0.637  -0.053  -1.379  1.00  0.00     0.127 A   
ATOM     4   N4  UNL     1      -0.706  -0.309  -1.270  1.00  0.00    -0.132 NA  
ATOM     5   N5  UNL     1      -1.334   0.844  -1.106  1.00  0.00    -0.076 NA  
ATOM     6   H13 UNL     1       1.730   1.930  -1.306  1.00  0.00     0.083 HD  
ENDROOT
BRANCH   1   7
ATOM     7   C8  UNL     1      -0.790   3.216  -0.951  1.00  0.00     0.192 C   
BRANCH   7   8
ATOM     8   C7  UNL     1      -0.486   3.667   0.431  1.00  0.00     0.089 A   
ATOM     9   C5  UNL     1      -1.326   3.939   1.503  1.00  0.00     0.089 A   
ATOM     10  O1  UNL     1      -0.527   4.349   2.541  1.00  0.00    -0.300 OA  
ATOM     11  C6  UNL     1       0.734   4.311   2.047  1.00  0.00     0.247 A   
ATOM     12  N1  UNL     1       0.827   3.898   0.804  1.00  0.00    -0.232 NA  
BRANCH   9  13
ATOM     13  C2  UNL     1      -2.815   3.914   1.752  1.00  0.00     0.011 C   
ATOM     14  C1  UNL     1      -3.496   5.011   0.918  1.00  0.00     0.018 C   
ATOM     15  C3  UNL     1      -3.136   4.167   3.240  1.00  0.00     0.018 C   
ATOM     16  C4  UNL     1      -3.401   2.543   1.372  1.00  0.00     0.018 C   
ENDBRANCH   9  13
ENDBRANCH   7   8
ENDBRANCH   1   7
BRANCH   3  17
ATOM     17  C11 UNL     1       1.596  -1.195  -1.488  1.00  0.00     0.117 C   
BRANCH  17  18
ATOM     18  N3  UNL     1       1.119  -2.332  -0.616  1.00  0.00     0.249 N   
ATOM     19  H15 UNL     1       1.607  -3.207  -0.827  1.00  0.00     0.199 HD  
ATOM     20  H16 UNL     1       0.128  -2.487  -0.851  1.00  0.00     0.199 HD  
BRANCH  18  21
ATOM     21  C12 UNL     1       1.194  -2.087   0.851  1.00  0.00     0.164 C   
BRANCH  21  22
ATOM     22  C13 UNL     1       0.603  -3.249   1.601  1.00  0.00    -0.002 A   
ATOM     23  C14 UNL     1      -0.786  -3.281   1.873  1.00  0.00     0.012 A   
ATOM     24  C18 UNL     1       1.409  -4.337   1.978  1.00  0.00     0.045 A   
ATOM     25  C15 UNL     1      -1.366  -4.375   2.523  1.00  0.00     0.037 A   
ATOM     26  C17 UNL     1       0.805  -5.400   2.617  1.00  0.00     0.109 A   
ATOM     27  C16 UNL     1      -0.542  -5.419   2.882  1.00  0.00     0.108 A   
ATOM     28  O2  UNL     1       1.436  -6.527   3.044  1.00  0.00    -0.316 OA  
ATOM     29  O3  UNL     1      -0.929  -6.558   3.513  1.00  0.00    -0.316 OA  
ATOM     30  C19 UNL     1       0.332  -7.251   3.634  1.00  0.00     0.337 C   
ENDBRANCH  21  22
ENDBRANCH  18  21
ENDBRANCH  17  18
BRANCH  17  31
ATOM     31  C20 UNL     1       1.715  -1.711  -2.936  1.00  0.00     0.043 C   
ATOM     32  C21 UNL     1       2.698  -2.875  -3.112  1.00  0.00     0.010 C   
ATOM     33  C24 UNL     1       2.275  -0.671  -3.911  1.00  0.00     0.010 C   
ATOM     34  C22 UNL     1       3.128  -2.835  -4.578  1.00  0.00     0.001 C   
ATOM     35  C23 UNL     1       2.648  -1.498  -5.132  1.00  0.00     0.001 C   
ENDBRANCH  17  31
ENDBRANCH   3  17
TORSDOF 8
