REMARK SMILES CC(C)[C@H]([NH2+]Cc1ccc2c(c1)OCO2)c1cn(Cc2cncc(C(C)(F)F)c2)nn1
REMARK SMILES IDX 16 1 17 2 18 3 30 4 31 5 4 7 2 8 1 9 3 10 5 11 6 14 7 15
REMARK SMILES IDX 8 16 12 17 9 18 11 19 10 20 13 21 15 22 14 23 19 24 20 25
REMARK SMILES IDX 21 26 29 27 22 28 24 29 23 30 25 31 26 32 27 33 28 34
REMARK H PARENT 17 6 5 12 5 13
ROOT
ATOM     1   C13 UNL     1      -1.524   2.410  -0.214  1.00  0.00     0.127 A   
ATOM     2   C14 UNL     1      -0.199   2.278  -0.560  1.00  0.00     0.046 A   
ATOM     3   N2  UNL     1       0.461   2.321   0.637  1.00  0.00    -0.208 N   
ATOM     4   N4  UNL     1      -0.403   2.497   1.659  1.00  0.00    -0.076 NA  
ATOM     5   N5  UNL     1      -1.621   2.548   1.149  1.00  0.00    -0.132 NA  
ATOM     6   H18 UNL     1       0.309   2.126  -1.498  1.00  0.00     0.083 HD  
ENDROOT
BRANCH   1   7
ATOM     7   C4  UNL     1      -2.781   2.348  -1.023  1.00  0.00     0.117 C   
BRANCH   7   8
ATOM     8   C2  UNL     1      -3.223   3.742  -1.539  1.00  0.00     0.037 C   
ATOM     9   C1  UNL     1      -4.343   3.620  -2.579  1.00  0.00     0.014 C   
ATOM     10  C3  UNL     1      -3.642   4.722  -0.438  1.00  0.00     0.014 C   
ENDBRANCH   7   8
BRANCH   7  11
ATOM     11  N1  UNL     1      -3.873   1.712  -0.188  1.00  0.00     0.249 N   
ATOM     12  H9  UNL     1      -3.558   1.798   0.792  1.00  0.00     0.199 HD  
ATOM     13  H10 UNL     1      -4.740   2.248  -0.238  1.00  0.00     0.199 HD  
BRANCH  11  14
ATOM     14  C5  UNL     1      -4.174   0.277  -0.452  1.00  0.00     0.164 C   
BRANCH  14  15
ATOM     15  C6  UNL     1      -2.984  -0.639  -0.413  1.00  0.00    -0.002 A   
ATOM     16  C7  UNL     1      -2.276  -0.856   0.792  1.00  0.00     0.012 A   
ATOM     17  C11 UNL     1      -2.559  -1.288  -1.587  1.00  0.00     0.045 A   
ATOM     18  C8  UNL     1      -1.157  -1.695   0.826  1.00  0.00     0.037 A   
ATOM     19  C10 UNL     1      -1.454  -2.109  -1.518  1.00  0.00     0.109 A   
ATOM     20  C9  UNL     1      -0.772  -2.308  -0.346  1.00  0.00     0.108 A   
ATOM     21  O1  UNL     1      -0.919  -2.804  -2.556  1.00  0.00    -0.316 OA  
ATOM     22  O2  UNL     1       0.278  -3.156  -0.495  1.00  0.00    -0.316 OA  
ATOM     23  C12 UNL     1       0.165  -3.493  -1.891  1.00  0.00     0.337 C   
ENDBRANCH  14  15
ENDBRANCH  11  14
ENDBRANCH   7  11
ENDBRANCH   1   7
BRANCH   3  24
ATOM     24  C15 UNL     1       1.885   2.193   0.893  1.00  0.00     0.171 C   
BRANCH  24  25
ATOM     25  C16 UNL     1       2.278   0.747   1.003  1.00  0.00    -0.010 A   
ATOM     26  C17 UNL     1       2.004   0.023   2.158  1.00  0.00     0.116 A   
ATOM     27  C22 UNL     1       2.899   0.068  -0.051  1.00  0.00     0.018 A   
ATOM     28  N3  UNL     1       2.295  -1.286   2.313  1.00  0.00    -0.264 NA  
ATOM     29  C19 UNL     1       3.220  -1.289   0.079  1.00  0.00     0.039 A   
ATOM     30  C18 UNL     1       2.891  -1.914   1.275  1.00  0.00     0.120 A   
BRANCH  29  31
ATOM     31  C20 UNL     1       3.898  -2.057  -1.024  1.00  0.00     0.272 C   
ATOM     32  C21 UNL     1       5.402  -2.128  -0.818  1.00  0.00     0.093 C   
ATOM     33  F1  UNL     1       3.675  -1.491  -2.247  1.00  0.00    -0.202 F   
ATOM     34  F2  UNL     1       3.427  -3.331  -1.135  1.00  0.00    -0.202 F   
ENDBRANCH  29  31
ENDBRANCH  24  25
ENDBRANCH   3  24
TORSDOF 8
