REMARK SMILES Cc1ccc([C@@H](CO)n2cc([C@@H]([NH2+]Cc3ccc4c(c3)OCO4)C(C)C)nn2)cc1F
REMARK SMILES IDX 9 1 10 2 11 3 27 4 28 5 6 7 5 8 2 9 3 10 30 11 4 12 29 13
REMARK SMILES IDX 1 14 31 15 7 16 8 17 12 19 13 20 14 23 15 24 16 25 20 26
REMARK SMILES IDX 17 27 19 28 18 29 21 30 23 31 22 32 24 33 25 34 26 35
REMARK H PARENT 10 6 8 18 13 21 13 22
ROOT
ATOM     1   N1  UNL     1       2.006  -2.288   0.518  1.00  0.00    -0.202 N   
ATOM     2   C8  UNL     1       0.799  -1.897   0.002  1.00  0.00     0.046 A   
ATOM     3   C9  UNL     1       1.020  -1.824  -1.354  1.00  0.00     0.127 A   
ATOM     4   N3  UNL     1       2.323  -2.162  -1.617  1.00  0.00    -0.132 NA  
ATOM     5   N4  UNL     1       2.918  -2.435  -0.467  1.00  0.00    -0.075 NA  
ATOM     6   H10 UNL     1      -0.061  -1.712   0.630  1.00  0.00     0.083 HD  
ENDROOT
BRANCH   1   7
ATOM     7   C6  UNL     1       2.393  -2.470   1.918  1.00  0.00     0.155 C   
BRANCH   7   8
ATOM     8   C5  UNL     1       2.151  -1.184   2.702  1.00  0.00    -0.020 A   
ATOM     9   C2  UNL     1       1.770   1.269   4.077  1.00  0.00    -0.015 A   
ATOM     10  C3  UNL     1       0.936   0.175   4.326  1.00  0.00     0.007 A   
ATOM     11  C23 UNL     1       2.794   1.123   3.143  1.00  0.00     0.126 A   
ATOM     12  C4  UNL     1       1.121  -1.034   3.643  1.00  0.00     0.006 A   
ATOM     13  C22 UNL     1       2.989  -0.078   2.464  1.00  0.00     0.045 A   
ATOM     14  C1  UNL     1       1.601   2.563   4.813  1.00  0.00     0.047 C   
ATOM     15  F1  UNL     1       3.610   2.153   2.877  1.00  0.00    -0.207 F   
ENDBRANCH   7   8
BRANCH   7  16
ATOM     16  C7  UNL     1       1.818  -3.782   2.489  1.00  0.00     0.185 C   
BRANCH  16  17
ATOM     17  O1  UNL     1       0.392  -3.844   2.429  1.00  0.00    -0.394 OA  
ATOM     18  H9  UNL     1       0.129  -4.694   2.831  1.00  0.00     0.210 HD  
ENDBRANCH  16  17
ENDBRANCH   7  16
ENDBRANCH   1   7
BRANCH   3  19
ATOM     19  C10 UNL     1       0.119  -1.406  -2.470  1.00  0.00     0.117 C   
BRANCH  19  20
ATOM     20  N2  UNL     1       0.914  -0.756  -3.579  1.00  0.00     0.249 N   
ATOM     21  H12 UNL     1       1.699  -1.391  -3.779  1.00  0.00     0.199 HD  
ATOM     22  H13 UNL     1       0.354  -0.683  -4.432  1.00  0.00     0.199 HD  
BRANCH  20  23
ATOM     23  C11 UNL     1       1.507   0.580  -3.269  1.00  0.00     0.164 C   
BRANCH  23  24
ATOM     24  C12 UNL     1       0.471   1.642  -3.022  1.00  0.00    -0.002 A   
ATOM     25  C13 UNL     1       0.296   2.176  -1.722  1.00  0.00     0.012 A   
ATOM     26  C17 UNL     1      -0.352   2.090  -4.070  1.00  0.00     0.045 A   
ATOM     27  C14 UNL     1      -0.690   3.136  -1.465  1.00  0.00     0.037 A   
ATOM     28  C16 UNL     1      -1.316   3.034  -3.781  1.00  0.00     0.109 A   
ATOM     29  C15 UNL     1      -1.481   3.542  -2.516  1.00  0.00     0.108 A   
ATOM     30  O2  UNL     1      -2.196   3.560  -4.672  1.00  0.00    -0.316 OA  
ATOM     31  O3  UNL     1      -2.486   4.453  -2.451  1.00  0.00    -0.316 OA  
ATOM     32  C18 UNL     1      -2.920   4.485  -3.828  1.00  0.00     0.337 C   
ENDBRANCH  23  24
ENDBRANCH  20  23
ENDBRANCH  19  20
BRANCH  19  33
ATOM     33  C19 UNL     1      -0.712  -2.593  -3.029  1.00  0.00     0.037 C   
ATOM     34  C20 UNL     1       0.115  -3.635  -3.791  1.00  0.00     0.014 C   
ATOM     35  C21 UNL     1      -1.866  -2.105  -3.914  1.00  0.00     0.014 C   
ENDBRANCH  19  33
ENDBRANCH   3  19
TORSDOF 9
