REMARK SMILES Cc1ccc([C@H](CO)n2cc([C@@H]([NH2+]Cc3ccc4c(c3)OCO4)C(C)C)nn2)cc1F
REMARK SMILES IDX 9 1 10 2 11 3 27 4 28 5 6 7 5 8 2 9 3 10 30 11 4 12 29 13
REMARK SMILES IDX 1 14 31 15 7 16 8 17 12 19 13 20 14 23 15 24 16 25 20 26
REMARK SMILES IDX 17 27 19 28 18 29 21 30 23 31 22 32 24 33 25 34 26 35
REMARK H PARENT 10 6 8 18 13 21 13 22
ROOT
ATOM     1   N1  UNL     1      -1.695   0.720   2.023  1.00  0.00    -0.202 N   
ATOM     2   C8  UNL     1      -1.396   1.175   0.765  1.00  0.00     0.046 A   
ATOM     3   C9  UNL     1      -1.860   0.183  -0.070  1.00  0.00     0.127 A   
ATOM     4   N3  UNL     1      -2.408  -0.822   0.683  1.00  0.00    -0.132 NA  
ATOM     5   N4  UNL     1      -2.289  -0.492   1.958  1.00  0.00    -0.075 NA  
ATOM     6   H10 UNL     1      -0.893   2.117   0.596  1.00  0.00     0.083 HD  
ENDROOT
BRANCH   1   7
ATOM     7   C6  UNL     1      -1.366   1.353   3.303  1.00  0.00     0.155 C   
BRANCH   7   8
ATOM     8   C5  UNL     1      -0.098   0.738   3.875  1.00  0.00    -0.020 A   
ATOM     9   C2  UNL     1       2.296  -0.383   4.889  1.00  0.00    -0.015 A   
ATOM     10  C3  UNL     1       2.276   0.930   4.409  1.00  0.00     0.007 A   
ATOM     11  C23 UNL     1       1.109  -1.115   4.876  1.00  0.00     0.126 A   
ATOM     12  C4  UNL     1       1.094   1.482   3.901  1.00  0.00     0.006 A   
ATOM     13  C22 UNL     1      -0.074  -0.573   4.377  1.00  0.00     0.045 A   
ATOM     14  C1  UNL     1       3.547  -0.978   5.462  1.00  0.00     0.047 C   
ATOM     15  F1  UNL     1       1.094  -2.372   5.342  1.00  0.00    -0.207 F   
ENDBRANCH   7   8
BRANCH   7  16
ATOM     16  C7  UNL     1      -2.550   1.347   4.285  1.00  0.00     0.185 C   
BRANCH  16  17
ATOM     17  O1  UNL     1      -3.544   2.279   3.853  1.00  0.00    -0.394 OA  
ATOM     18  H9  UNL     1      -4.275   2.234   4.498  1.00  0.00     0.210 HD  
ENDBRANCH  16  17
ENDBRANCH   7  16
ENDBRANCH   1   7
BRANCH   3  19
ATOM     19  C10 UNL     1      -1.791   0.042  -1.556  1.00  0.00     0.117 C   
BRANCH  19  20
ATOM     20  N2  UNL     1      -1.689  -1.414  -1.950  1.00  0.00     0.249 N   
ATOM     21  H12 UNL     1      -1.850  -1.530  -2.953  1.00  0.00     0.199 HD  
ATOM     22  H13 UNL     1      -2.450  -1.900  -1.456  1.00  0.00     0.199 HD  
BRANCH  20  23
ATOM     23  C11 UNL     1      -0.421  -2.115  -1.578  1.00  0.00     0.164 C   
BRANCH  23  24
ATOM     24  C12 UNL     1       0.788  -1.558  -2.277  1.00  0.00    -0.002 A   
ATOM     25  C13 UNL     1       0.994  -1.797  -3.657  1.00  0.00     0.012 A   
ATOM     26  C17 UNL     1       1.706  -0.765  -1.566  1.00  0.00     0.045 A   
ATOM     27  C14 UNL     1       2.097  -1.249  -4.323  1.00  0.00     0.037 A   
ATOM     28  C16 UNL     1       2.779  -0.238  -2.253  1.00  0.00     0.109 A   
ATOM     29  C15 UNL     1       2.969  -0.473  -3.593  1.00  0.00     0.108 A   
ATOM     30  O2  UNL     1       3.748   0.552  -1.720  1.00  0.00    -0.316 OA  
ATOM     31  O3  UNL     1       4.085   0.137  -4.072  1.00  0.00    -0.316 OA  
ATOM     32  C18 UNL     1       4.601   0.752  -2.871  1.00  0.00     0.337 C   
ENDBRANCH  23  24
ENDBRANCH  20  23
ENDBRANCH  19  20
BRANCH  19  33
ATOM     33  C19 UNL     1      -3.001   0.707  -2.267  1.00  0.00     0.037 C   
ATOM     34  C20 UNL     1      -2.752   0.866  -3.772  1.00  0.00     0.014 C   
ATOM     35  C21 UNL     1      -4.337  -0.009  -2.039  1.00  0.00     0.014 C   
ENDBRANCH  19  33
ENDBRANCH   3  19
TORSDOF 9
