REMARK SMILES CC(C)[C@H]([NH2+]Cc1ccc2c(c1)OCO2)c1cn(C[C@@H](O)c2ccco2)nn1
REMARK SMILES IDX 16 1 17 2 18 3 27 4 28 5 4 7 2 8 1 9 3 10 5 11 6 14 7 15
REMARK SMILES IDX 8 16 12 17 9 18 11 19 10 20 13 21 15 22 14 23 19 24 20 25
REMARK SMILES IDX 21 26 22 28 23 29 26 30 24 31 25 32
REMARK H PARENT 17 6 5 12 5 13 21 27
ROOT
ATOM     1   C13 UNL     1       1.123   0.102   0.335  1.00  0.00     0.127 A   
ATOM     2   C14 UNL     1       1.207   0.282  -1.029  1.00  0.00     0.045 A   
ATOM     3   N2  UNL     1       2.547   0.429  -1.257  1.00  0.00    -0.209 N   
ATOM     4   N3  UNL     1       3.250   0.261  -0.120  1.00  0.00    -0.076 NA  
ATOM     5   N4  UNL     1       2.388   0.073   0.864  1.00  0.00    -0.132 NA  
ATOM     6   H18 UNL     1       0.471   0.362  -1.816  1.00  0.00     0.083 HD  
ENDROOT
BRANCH   1   7
ATOM     7   C4  UNL     1      -0.051  -0.100   1.237  1.00  0.00     0.117 C   
BRANCH   7   8
ATOM     8   C2  UNL     1      -0.642   1.217   1.808  1.00  0.00     0.037 C   
ATOM     9   C1  UNL     1       0.333   2.027   2.669  1.00  0.00     0.014 C   
ATOM     10  C3  UNL     1      -1.217   2.106   0.700  1.00  0.00     0.014 C   
ENDBRANCH   7   8
BRANCH   7  11
ATOM     11  N1  UNL     1       0.342  -0.990   2.399  1.00  0.00     0.249 N   
ATOM     12  H9  UNL     1       1.258  -0.644   2.723  1.00  0.00     0.199 HD  
ATOM     13  H10 UNL     1      -0.314  -0.878   3.176  1.00  0.00     0.199 HD  
BRANCH  11  14
ATOM     14  C5  UNL     1       0.502  -2.439   2.080  1.00  0.00     0.164 C   
BRANCH  14  15
ATOM     15  C6  UNL     1      -0.813  -3.130   1.835  1.00  0.00    -0.002 A   
ATOM     16  C7  UNL     1      -1.107  -3.669   0.559  1.00  0.00     0.012 A   
ATOM     17  C11 UNL     1      -1.759  -3.244   2.869  1.00  0.00     0.045 A   
ATOM     18  C8  UNL     1      -2.328  -4.307   0.311  1.00  0.00     0.037 A   
ATOM     19  C10 UNL     1      -2.954  -3.872   2.590  1.00  0.00     0.109 A   
ATOM     20  C9  UNL     1      -3.231  -4.389   1.348  1.00  0.00     0.108 A   
ATOM     21  O1  UNL     1      -3.970  -4.061   3.471  1.00  0.00    -0.316 OA  
ATOM     22  O2  UNL     1      -4.455  -4.971   1.293  1.00  0.00    -0.316 OA  
ATOM     23  C12 UNL     1      -4.926  -4.763   2.639  1.00  0.00     0.337 C   
ENDBRANCH  14  15
ENDBRANCH  11  14
ENDBRANCH   7  11
ENDBRANCH   1   7
BRANCH   3  24
ATOM     24  C15 UNL     1       3.229   0.688  -2.505  1.00  0.00     0.172 C   
BRANCH  24  25
ATOM     25  C16 UNL     1       3.318   2.183  -2.825  1.00  0.00     0.187 C   
BRANCH  25  26
ATOM     26  O3  UNL     1       4.295   2.372  -3.853  1.00  0.00    -0.385 OA  
ATOM     27  H22 UNL     1       4.340   3.332  -4.031  1.00  0.00     0.211 HD  
ENDBRANCH  25  26
BRANCH  25  28
ATOM     28  C17 UNL     1       2.025   2.719  -3.346  1.00  0.00     0.089 A   
ATOM     29  C18 UNL     1       1.434   2.737  -4.599  1.00  0.00     0.034 A   
ATOM     30  O4  UNL     1       1.203   3.320  -2.433  1.00  0.00    -0.320 OA  
ATOM     31  C19 UNL     1       0.203   3.416  -4.448  1.00  0.00     0.028 A   
ATOM     32  C20 UNL     1       0.108   3.754  -3.115  1.00  0.00     0.136 A   
ENDBRANCH  25  28
ENDBRANCH  24  25
ENDBRANCH   3  24
TORSDOF 9
