REMARK SMILES CC(C)[C@H]([NH2+]Cc1ccc2c(c1)OCO2)c1cn(C[C@H](O)c2ccco2)nn1
REMARK SMILES IDX 16 1 17 2 18 3 27 4 28 5 4 7 2 8 1 9 3 10 5 11 6 14 7 15
REMARK SMILES IDX 8 16 12 17 9 18 11 19 10 20 13 21 15 22 14 23 19 24 20 25
REMARK SMILES IDX 21 26 22 28 23 29 26 30 24 31 25 32
REMARK H PARENT 17 6 5 12 5 13 21 27
ROOT
ATOM     1   C13 UNL     1      -0.802  -0.298  -2.109  1.00  0.00     0.127 A   
ATOM     2   C14 UNL     1      -1.008   1.057  -1.995  1.00  0.00     0.045 A   
ATOM     3   N2  UNL     1      -2.252   1.156  -1.439  1.00  0.00    -0.209 N   
ATOM     4   N3  UNL     1      -2.803  -0.062  -1.273  1.00  0.00    -0.076 NA  
ATOM     5   N4  UNL     1      -1.921  -0.962  -1.673  1.00  0.00    -0.132 NA  
ATOM     6   H18 UNL     1      -0.393   1.925  -2.192  1.00  0.00     0.083 HD  
ENDROOT
BRANCH   1   7
ATOM     7   C4  UNL     1       0.414  -1.069  -2.497  1.00  0.00     0.117 C   
BRANCH   7   8
ATOM     8   C2  UNL     1       0.424  -1.554  -3.970  1.00  0.00     0.037 C   
ATOM     9   C1  UNL     1      -0.737  -2.481  -4.345  1.00  0.00     0.014 C   
ATOM     10  C3  UNL     1       0.475  -0.372  -4.946  1.00  0.00     0.014 C   
ENDBRANCH   7   8
BRANCH   7  11
ATOM     11  N1  UNL     1       0.578  -2.273  -1.591  1.00  0.00     0.249 N   
ATOM     12  H9  UNL     1       1.322  -2.880  -1.945  1.00  0.00     0.199 HD  
ATOM     13  H10 UNL     1      -0.305  -2.798  -1.643  1.00  0.00     0.199 HD  
BRANCH  11  14
ATOM     14  C5  UNL     1       0.817  -1.985  -0.143  1.00  0.00     0.164 C   
BRANCH  14  15
ATOM     15  C6  UNL     1       2.097  -1.241   0.114  1.00  0.00    -0.002 A   
ATOM     16  C7  UNL     1       2.062   0.127   0.477  1.00  0.00     0.012 A   
ATOM     17  C11 UNL     1       3.336  -1.887  -0.033  1.00  0.00     0.045 A   
ATOM     18  C8  UNL     1       3.244   0.846   0.688  1.00  0.00     0.037 A   
ATOM     19  C10 UNL     1       4.482  -1.148   0.181  1.00  0.00     0.109 A   
ATOM     20  C9  UNL     1       4.438   0.179   0.530  1.00  0.00     0.108 A   
ATOM     21  O1  UNL     1       5.753  -1.616   0.075  1.00  0.00    -0.316 OA  
ATOM     22  O2  UNL     1       5.676   0.714   0.691  1.00  0.00    -0.316 OA  
ATOM     23  C12 UNL     1       6.510  -0.434   0.425  1.00  0.00     0.337 C   
ENDBRANCH  14  15
ENDBRANCH  11  14
ENDBRANCH   7  11
ENDBRANCH   1   7
BRANCH   3  24
ATOM     24  C15 UNL     1      -2.955   2.349  -1.015  1.00  0.00     0.172 C   
BRANCH  24  25
ATOM     25  C16 UNL     1      -2.353   2.997   0.233  1.00  0.00     0.187 C   
BRANCH  25  26
ATOM     26  O3  UNL     1      -1.067   3.547  -0.080  1.00  0.00    -0.385 OA  
ATOM     27  H22 UNL     1      -0.648   3.753   0.778  1.00  0.00     0.211 HD  
ENDBRANCH  25  26
BRANCH  25  28
ATOM     28  C17 UNL     1      -2.204   2.069   1.396  1.00  0.00     0.089 A   
ATOM     29  C18 UNL     1      -3.086   1.255   2.078  1.00  0.00     0.034 A   
ATOM     30  O4  UNL     1      -0.965   1.988   1.973  1.00  0.00    -0.320 OA  
ATOM     31  C19 UNL     1      -2.350   0.648   3.124  1.00  0.00     0.028 A   
ATOM     32  C20 UNL     1      -1.068   1.133   3.023  1.00  0.00     0.136 A   
ENDBRANCH  25  28
ENDBRANCH  24  25
ENDBRANCH   3  24
TORSDOF 9
