REMARK SMILES CC(C)C[C@H]([NH2+]Cc1ccc2c(c1)OCO2)c1cn([C@H](CO)c2cccc(F)c2F)nn1
REMARK SMILES IDX 17 1 18 2 19 3 31 4 32 5 5 7 4 8 2 9 1 10 3 11 6 12 7 15
REMARK SMILES IDX 8 16 9 17 13 18 10 19 12 20 11 21 14 22 16 23 15 24 20 25
REMARK SMILES IDX 21 26 22 27 23 29 24 30 29 31 25 32 27 33 26 34 30 35 28 36
REMARK H PARENT 18 6 6 13 6 14 22 28
ROOT
ATOM     1   C14 UNL     1      -0.167  -0.570  -1.215  1.00  0.00     0.127 A   
ATOM     2   C15 UNL     1      -1.129  -0.487  -0.236  1.00  0.00     0.046 A   
ATOM     3   N2  UNL     1      -1.382  -1.793   0.092  1.00  0.00    -0.202 N   
ATOM     4   N3  UNL     1      -0.664  -2.627  -0.690  1.00  0.00    -0.075 NA  
ATOM     5   N4  UNL     1       0.086  -1.889  -1.490  1.00  0.00    -0.132 NA  
ATOM     6   H20 UNL     1      -1.611   0.338   0.271  1.00  0.00     0.083 HD  
ENDROOT
BRANCH   1   7
ATOM     7   C5  UNL     1       0.627   0.489  -1.893  1.00  0.00     0.114 C   
BRANCH   7   8
ATOM     8   C4  UNL     1      -0.041   1.049  -3.165  1.00  0.00     0.064 C   
BRANCH   8   9
ATOM     9   C2  UNL     1      -0.596   0.066  -4.220  1.00  0.00    -0.012 C   
ATOM     10  C1  UNL     1      -1.360   0.862  -5.288  1.00  0.00     0.007 C   
ATOM     11  C3  UNL     1       0.471  -0.786  -4.904  1.00  0.00     0.007 C   
ENDBRANCH   8   9
ENDBRANCH   7   8
BRANCH   7  12
ATOM     12  N1  UNL     1       2.026   0.017  -2.204  1.00  0.00     0.249 N   
ATOM     13  H11 UNL     1       2.490   0.671  -2.840  1.00  0.00     0.199 HD  
ATOM     14  H12 UNL     1       1.933  -0.882  -2.691  1.00  0.00     0.199 HD  
BRANCH  12  15
ATOM     15  C6  UNL     1       2.909  -0.247  -1.024  1.00  0.00     0.164 C   
BRANCH  15  16
ATOM     16  C7  UNL     1       3.168   0.973  -0.186  1.00  0.00    -0.002 A   
ATOM     17  C8  UNL     1       2.627   1.066   1.119  1.00  0.00     0.012 A   
ATOM     18  C12 UNL     1       3.924   2.042  -0.700  1.00  0.00     0.045 A   
ATOM     19  C9  UNL     1       2.821   2.211   1.899  1.00  0.00     0.037 A   
ATOM     20  C11 UNL     1       4.093   3.157   0.094  1.00  0.00     0.109 A   
ATOM     21  C10 UNL     1       3.556   3.242   1.355  1.00  0.00     0.108 A   
ATOM     22  O1  UNL     1       4.779   4.277  -0.255  1.00  0.00    -0.316 OA  
ATOM     23  O2  UNL     1       3.836   4.426   1.959  1.00  0.00    -0.316 OA  
ATOM     24  C13 UNL     1       4.639   5.070   0.946  1.00  0.00     0.337 C   
ENDBRANCH  15  16
ENDBRANCH  12  15
ENDBRANCH   7  12
ENDBRANCH   1   7
BRANCH   3  25
ATOM     25  C16 UNL     1      -2.222  -2.334   1.166  1.00  0.00     0.158 C   
BRANCH  25  26
ATOM     26  C17 UNL     1      -3.669  -2.489   0.658  1.00  0.00     0.186 C   
BRANCH  26  27
ATOM     27  O3  UNL     1      -4.261  -1.234   0.320  1.00  0.00    -0.394 OA  
ATOM     28  H24 UNL     1      -5.156  -1.422  -0.022  1.00  0.00     0.210 HD  
ENDBRANCH  26  27
ENDBRANCH  25  26
BRANCH  25  29
ATOM     29  C18 UNL     1      -2.006  -1.581   2.477  1.00  0.00     0.016 A   
ATOM     30  C19 UNL     1      -3.041  -0.966   3.200  1.00  0.00     0.009 A   
ATOM     31  C23 UNL     1      -0.710  -1.507   3.015  1.00  0.00     0.164 A   
ATOM     32  C20 UNL     1      -2.782  -0.295   4.403  1.00  0.00     0.004 A   
ATOM     33  C22 UNL     1      -0.454  -0.833   4.206  1.00  0.00     0.159 A   
ATOM     34  C21 UNL     1      -1.485  -0.224   4.906  1.00  0.00     0.042 A   
ATOM     35  F2  UNL     1       0.316  -2.074   2.361  1.00  0.00    -0.203 F   
ATOM     36  F1  UNL     1       0.799  -0.760   4.674  1.00  0.00    -0.204 F   
ENDBRANCH  25  29
ENDBRANCH   3  25
TORSDOF 10
