REMARK SMILES CC(C)C[C@H]([NH2+]Cc1ccc2c(c1)OCO2)c1cn([C@@H](CO)c2cccc(F)c2F)nn1
REMARK SMILES IDX 17 1 18 2 19 3 31 4 32 5 5 7 4 8 2 9 1 10 3 11 6 12 7 15
REMARK SMILES IDX 8 16 9 17 13 18 10 19 12 20 11 21 14 22 16 23 15 24 20 25
REMARK SMILES IDX 21 26 22 27 23 29 24 30 29 31 25 32 27 33 26 34 30 35 28 36
REMARK H PARENT 18 6 6 13 6 14 22 28
ROOT
ATOM     1   C14 UNL     1      -0.403  -1.015  -0.337  1.00  0.00     0.127 A   
ATOM     2   C15 UNL     1      -1.546  -1.725  -0.611  1.00  0.00     0.046 A   
ATOM     3   N2  UNL     1      -1.343  -2.931   0.007  1.00  0.00    -0.202 N   
ATOM     4   N3  UNL     1      -0.128  -2.967   0.596  1.00  0.00    -0.075 NA  
ATOM     5   N4  UNL     1       0.451  -1.796   0.401  1.00  0.00    -0.132 NA  
ATOM     6   H20 UNL     1      -2.463  -1.491  -1.129  1.00  0.00     0.083 HD  
ENDROOT
BRANCH   1   7
ATOM     7   C5  UNL     1      -0.026   0.400  -0.634  1.00  0.00     0.114 C   
BRANCH   7   8
ATOM     8   C4  UNL     1       0.877   0.495  -1.879  1.00  0.00     0.064 C   
BRANCH   8   9
ATOM     9   C2  UNL     1       0.769   1.797  -2.705  1.00  0.00    -0.012 C   
ATOM     10  C1  UNL     1      -0.604   1.940  -3.369  1.00  0.00     0.007 C   
ATOM     11  C3  UNL     1       1.111   3.059  -1.915  1.00  0.00     0.007 C   
ENDBRANCH   8   9
ENDBRANCH   7   8
BRANCH   7  12
ATOM     12  N1  UNL     1       0.713   0.958   0.555  1.00  0.00     0.249 N   
ATOM     13  H11 UNL     1       1.360   1.710   0.299  1.00  0.00     0.199 HD  
ATOM     14  H12 UNL     1       1.305   0.191   0.914  1.00  0.00     0.199 HD  
BRANCH  12  15
ATOM     15  C6  UNL     1      -0.155   1.408   1.677  1.00  0.00     0.164 C   
BRANCH  15  16
ATOM     16  C7  UNL     1       0.667   1.700   2.900  1.00  0.00    -0.002 A   
ATOM     17  C8  UNL     1       0.835   0.703   3.892  1.00  0.00     0.012 A   
ATOM     18  C12 UNL     1       1.316   2.938   3.043  1.00  0.00     0.045 A   
ATOM     19  C9  UNL     1       1.625   0.941   5.019  1.00  0.00     0.037 A   
ATOM     20  C11 UNL     1       2.091   3.137   4.164  1.00  0.00     0.109 A   
ATOM     21  C10 UNL     1       2.244   2.168   5.124  1.00  0.00     0.108 A   
ATOM     22  O1  UNL     1       2.781   4.272   4.455  1.00  0.00    -0.316 OA  
ATOM     23  O2  UNL     1       3.044   2.569   6.143  1.00  0.00    -0.316 OA  
ATOM     24  C13 UNL     1       3.366   3.913   5.729  1.00  0.00     0.337 C   
ENDBRANCH  15  16
ENDBRANCH  12  15
ENDBRANCH   7  12
ENDBRANCH   1   7
BRANCH   3  25
ATOM     25  C16 UNL     1      -2.298  -4.038   0.148  1.00  0.00     0.158 C   
BRANCH  25  26
ATOM     26  C17 UNL     1      -1.879  -5.207  -0.763  1.00  0.00     0.186 C   
BRANCH  26  27
ATOM     27  O3  UNL     1      -2.013  -4.840  -2.135  1.00  0.00    -0.394 OA  
ATOM     28  H24 UNL     1      -1.794  -5.626  -2.670  1.00  0.00     0.210 HD  
ENDBRANCH  26  27
ENDBRANCH  25  26
BRANCH  25  29
ATOM     29  C18 UNL     1      -2.506  -4.364   1.619  1.00  0.00     0.016 A   
ATOM     30  C19 UNL     1      -2.114  -5.575   2.213  1.00  0.00     0.009 A   
ATOM     31  C23 UNL     1      -3.096  -3.393   2.444  1.00  0.00     0.164 A   
ATOM     32  C20 UNL     1      -2.316  -5.800   3.582  1.00  0.00     0.004 A   
ATOM     33  C22 UNL     1      -3.282  -3.615   3.805  1.00  0.00     0.159 A   
ATOM     34  C21 UNL     1      -2.897  -4.817   4.380  1.00  0.00     0.042 A   
ATOM     35  F2  UNL     1      -3.469  -2.216   1.915  1.00  0.00    -0.203 F   
ATOM     36  F1  UNL     1      -3.822  -2.659   4.572  1.00  0.00    -0.204 F   
ENDBRANCH  25  29
ENDBRANCH   3  25
TORSDOF 10
