REMARK SMILES c1ccn2cc(Cn3cc([C@@H]([NH2+]Cc4ccc5c(c4)OCO5)C4CCCC4)nn3)nc2c1
REMARK SMILES IDX 11 1 10 2 8 3 9 4 29 5 28 6 7 8 6 9 1 10 2 11 32 12 3 13
REMARK SMILES IDX 31 14 4 15 30 16 5 17 12 18 13 21 14 22 15 23 19 24 16 25
REMARK SMILES IDX 18 26 17 27 20 28 22 29 21 30 23 31 24 32 27 33 25 34 26 35
REMARK H PARENT 9 7 12 19 12 20
ROOT
ATOM     1   C9  UNL     1       2.040  -0.469   0.507  1.00  0.00     0.117 C   
ENDROOT
BRANCH   1   2
ATOM     2   C8  UNL     1       1.044  -0.800   1.566  1.00  0.00     0.127 A   
ATOM     3   N2  UNL     1      -0.717  -1.241   2.739  1.00  0.00    -0.206 N   
ATOM     4   C7  UNL     1      -0.213  -1.347   1.470  1.00  0.00     0.046 A   
ATOM     5   N5  UNL     1       0.201  -0.717   3.576  1.00  0.00    -0.076 NA  
ATOM     6   N4  UNL     1       1.286  -0.444   2.867  1.00  0.00    -0.132 NA  
ATOM     7   H7  UNL     1      -0.807  -1.719   0.647  1.00  0.00     0.083 HD  
BRANCH   3   8
ATOM     8   C6  UNL     1      -2.053  -1.573   3.199  1.00  0.00     0.191 C   
BRANCH   8   9
ATOM     9   C5  UNL     1      -3.012  -0.504   2.803  1.00  0.00     0.077 A   
ATOM     10  C1  UNL     1      -5.722   2.364   0.666  1.00  0.00     0.005 A   
ATOM     11  C2  UNL     1      -6.099   2.692   2.033  1.00  0.00     0.016 A   
ATOM     12  C24 UNL     1      -4.789   1.430   0.396  1.00  0.00     0.045 A   
ATOM     13  C3  UNL     1      -5.502   2.042   3.046  1.00  0.00     0.082 A   
ATOM     14  C23 UNL     1      -4.149   0.741   1.465  1.00  0.00     0.128 A   
ATOM     15  N1  UNL     1      -4.541   1.076   2.758  1.00  0.00    -0.266 N   
ATOM     16  N6  UNL     1      -3.221  -0.195   1.471  1.00  0.00    -0.234 NA  
ATOM     17  C4  UNL     1      -3.811   0.284   3.608  1.00  0.00     0.107 A   
ENDBRANCH   8   9
ENDBRANCH   3   8
ENDBRANCH   1   2
BRANCH   1  18
ATOM     18  N3  UNL     1       2.580   0.931   0.725  1.00  0.00     0.249 N   
ATOM     19  H9  UNL     1       3.002   0.935   1.664  1.00  0.00     0.199 HD  
ATOM     20  H10 UNL     1       3.323   1.133   0.051  1.00  0.00     0.199 HD  
BRANCH  18  21
ATOM     21  C10 UNL     1       1.579   2.043   0.690  1.00  0.00     0.164 C   
BRANCH  21  22
ATOM     22  C11 UNL     1       0.875   2.170  -0.632  1.00  0.00    -0.002 A   
ATOM     23  C12 UNL     1      -0.477   1.772  -0.759  1.00  0.00     0.012 A   
ATOM     24  C16 UNL     1       1.561   2.657  -1.758  1.00  0.00     0.045 A   
ATOM     25  C13 UNL     1      -1.137   1.848  -1.990  1.00  0.00     0.037 A   
ATOM     26  C15 UNL     1       0.880   2.722  -2.955  1.00  0.00     0.109 A   
ATOM     27  C14 UNL     1      -0.429   2.327  -3.070  1.00  0.00     0.108 A   
ATOM     28  O1  UNL     1       1.394   3.165  -4.133  1.00  0.00    -0.316 OA  
ATOM     29  O2  UNL     1      -0.906   2.470  -4.333  1.00  0.00    -0.316 OA  
ATOM     30  C17 UNL     1       0.246   3.031  -5.000  1.00  0.00     0.337 C   
ENDBRANCH  21  22
ENDBRANCH  18  21
ENDBRANCH   1  18
BRANCH   1  31
ATOM     31  C18 UNL     1       3.229  -1.449   0.500  1.00  0.00     0.043 C   
ATOM     32  C19 UNL     1       2.826  -2.900   0.221  1.00  0.00     0.010 C   
ATOM     33  C22 UNL     1       4.272  -1.165  -0.594  1.00  0.00     0.010 C   
ATOM     34  C20 UNL     1       4.149  -3.558  -0.135  1.00  0.00     0.001 C   
ATOM     35  C21 UNL     1       4.862  -2.519  -0.989  1.00  0.00     0.001 C   
ENDBRANCH   1  31
TORSDOF 7
