REMARK SMILES Cc1cccc(-n2cc([C@H](CC(C)C)[NH2+]Cc3ccc4c(c3)OCO4)nn2)c1N([O-])[O-]
REMARK SMILES IDX 7 1 8 2 9 3 26 4 27 5 6 6 2 7 3 8 28 9 4 10 5 11 1 12 29 13
REMARK SMILES IDX 30 14 31 15 10 16 11 17 12 18 13 19 14 20 15 21 16 24 17 25
REMARK SMILES IDX 18 26 22 27 19 28 21 29 20 30 23 31 25 32 24 33
REMARK H PARENT 15 22 15 23
ROOT
ATOM     1   N1  UNL     1      -1.901   0.922  -1.469  1.00  0.00    -0.178 N   
ATOM     2   C7  UNL     1      -0.717   0.552  -0.863  1.00  0.00     0.135 A   
ATOM     3   C8  UNL     1      -0.715  -0.825  -0.878  1.00  0.00     0.127 A   
ATOM     4   N3  UNL     1      -1.827  -1.265  -1.531  1.00  0.00    -0.131 NA  
ATOM     5   N4  UNL     1      -2.513  -0.205  -1.926  1.00  0.00    -0.071 NA  
ENDROOT
BRANCH   1   6
ATOM     6   C6  UNL     1      -2.490   2.201  -1.663  1.00  0.00     0.086 A   
ATOM     7   C2  UNL     1      -2.772   4.601  -1.157  1.00  0.00    -0.020 A   
ATOM     8   C3  UNL     1      -3.685   4.696  -2.215  1.00  0.00     0.006 A   
ATOM     9   C22 UNL     1      -2.183   3.343  -0.893  1.00  0.00     0.144 A   
ATOM     10  C4  UNL     1      -4.024   3.571  -2.965  1.00  0.00     0.002 A   
ATOM     11  C5  UNL     1      -3.442   2.332  -2.689  1.00  0.00     0.028 A   
ATOM     12  C1  UNL     1      -2.469   5.832  -0.343  1.00  0.00     0.047 C   
BRANCH   9  13
ATOM     13  N5  UNL     1      -1.362   3.223   0.295  1.00  0.00     0.094 N   
ATOM     14  O3  UNL     1      -0.246   3.755   0.269  1.00  0.00    -0.138 OA  
ATOM     15  O4  UNL     1      -1.811   2.531   1.220  1.00  0.00    -0.138 OA  
ENDBRANCH   9  13
ENDBRANCH   1   6
BRANCH   3  16
ATOM     16  C9  UNL     1       0.245  -1.806  -0.287  1.00  0.00     0.114 C   
BRANCH  16  17
ATOM     17  C10 UNL     1       1.159  -2.400  -1.379  1.00  0.00     0.064 C   
BRANCH  17  18
ATOM     18  C11 UNL     1       2.247  -3.387  -0.905  1.00  0.00    -0.012 C   
ATOM     19  C12 UNL     1       3.075  -3.853  -2.106  1.00  0.00     0.007 C   
ATOM     20  C13 UNL     1       3.170  -2.782   0.153  1.00  0.00     0.007 C   
ENDBRANCH  17  18
ENDBRANCH  16  17
BRANCH  16  21
ATOM     21  N2  UNL     1      -0.499  -2.928   0.398  1.00  0.00     0.249 N   
ATOM     22  H18 UNL     1      -1.128  -3.341  -0.304  1.00  0.00     0.199 HD  
ATOM     23  H19 UNL     1       0.154  -3.660   0.689  1.00  0.00     0.199 HD  
BRANCH  21  24
ATOM     24  C14 UNL     1      -1.330  -2.547   1.582  1.00  0.00     0.164 C   
BRANCH  24  25
ATOM     25  C15 UNL     1      -0.514  -2.001   2.720  1.00  0.00    -0.002 A   
ATOM     26  C16 UNL     1      -0.572  -0.623   3.042  1.00  0.00     0.012 A   
ATOM     27  C20 UNL     1       0.340  -2.846   3.450  1.00  0.00     0.045 A   
ATOM     28  C17 UNL     1       0.215  -0.090   4.069  1.00  0.00     0.037 A   
ATOM     29  C19 UNL     1       1.102  -2.288   4.456  1.00  0.00     0.109 A   
ATOM     30  C18 UNL     1       1.043  -0.949   4.756  1.00  0.00     0.108 A   
ATOM     31  O1  UNL     1       1.979  -2.960   5.246  1.00  0.00    -0.316 OA  
ATOM     32  O2  UNL     1       1.874  -0.610   5.775  1.00  0.00    -0.316 OA  
ATOM     33  C21 UNL     1       2.446  -1.894   6.105  1.00  0.00     0.337 C   
ENDBRANCH  24  25
ENDBRANCH  21  24
ENDBRANCH  16  21
ENDBRANCH   3  16
TORSDOF 8
