REMARK SMILES COc1ccc(Cn2cc([C@H](CC(C)C)[NH2+]Cc3ccc4c(c3)OCO4)nn2)cc1O
REMARK SMILES IDX 8 1 9 2 10 3 27 4 28 5 7 7 6 8 3 9 4 10 30 11 5 12 29 13
REMARK SMILES IDX 2 14 1 15 31 16 11 18 12 19 13 20 14 21 15 22 16 23 17 26
REMARK SMILES IDX 18 27 19 28 23 29 20 30 22 31 21 32 24 33 26 34 25 35
REMARK H PARENT 9 6 31 17 16 24 16 25
ROOT
ATOM     1   N1  UNL     1       2.385  -0.667  -1.031  1.00  0.00    -0.208 N   
ATOM     2   C7  UNL     1       1.753   0.356  -1.684  1.00  0.00     0.046 A   
ATOM     3   C8  UNL     1       0.413   0.094  -1.498  1.00  0.00     0.127 A   
ATOM     4   N3  UNL     1       0.281  -1.082  -0.803  1.00  0.00    -0.132 NA  
ATOM     5   N4  UNL     1       1.491  -1.545  -0.536  1.00  0.00    -0.076 NA  
ATOM     6   H8  UNL     1       2.296   1.159  -2.162  1.00  0.00     0.083 HD  
ENDROOT
BRANCH   1   7
ATOM     7   C6  UNL     1       3.812  -0.871  -0.848  1.00  0.00     0.169 C   
BRANCH   7   8
ATOM     8   C5  UNL     1       4.328  -0.033   0.293  1.00  0.00    -0.026 A   
ATOM     9   C2  UNL     1       5.237   1.546   2.449  1.00  0.00     0.104 A   
ATOM     10  C3  UNL     1       4.750   0.262   2.680  1.00  0.00     0.036 A   
ATOM     11  C23 UNL     1       5.255   2.029   1.136  1.00  0.00     0.102 A   
ATOM     12  C4  UNL     1       4.294  -0.520   1.610  1.00  0.00     0.008 A   
ATOM     13  C22 UNL     1       4.815   1.260   0.065  1.00  0.00     0.041 A   
BRANCH   9  14
ATOM     14  O1  UNL     1       5.709   2.419   3.394  1.00  0.00    -0.347 OA  
ATOM     15  C1  UNL     1       5.798   1.928   4.727  1.00  0.00     0.203 C   
ENDBRANCH   9  14
BRANCH  11  16
ATOM     16  O4  UNL     1       5.715   3.291   0.870  1.00  0.00    -0.358 OA  
ATOM     17  H29 UNL     1       6.008   3.642   1.735  1.00  0.00     0.218 HD  
ENDBRANCH  11  16
ENDBRANCH   7   8
ENDBRANCH   1   7
BRANCH   3  18
ATOM     18  C9  UNL     1      -0.803   0.854  -1.916  1.00  0.00     0.114 C   
BRANCH  18  19
ATOM     19  C10 UNL     1      -0.893   2.271  -1.312  1.00  0.00     0.064 C   
BRANCH  19  20
ATOM     20  C11 UNL     1      -1.304   2.416   0.172  1.00  0.00    -0.012 C   
ATOM     21  C12 UNL     1      -1.468   3.905   0.505  1.00  0.00     0.007 C   
ATOM     22  C13 UNL     1      -0.309   1.792   1.149  1.00  0.00     0.007 C   
ENDBRANCH  19  20
ENDBRANCH  18  19
BRANCH  18  23
ATOM     23  N2  UNL     1      -2.069   0.105  -1.606  1.00  0.00     0.249 N   
ATOM     24  H19 UNL     1      -2.875   0.735  -1.552  1.00  0.00     0.199 HD  
ATOM     25  H20 UNL     1      -1.953  -0.306  -0.668  1.00  0.00     0.199 HD  
BRANCH  23  26
ATOM     26  C14 UNL     1      -2.394  -1.012  -2.537  1.00  0.00     0.164 C   
BRANCH  26  27
ATOM     27  C15 UNL     1      -3.624  -1.738  -2.070  1.00  0.00    -0.002 A   
ATOM     28  C16 UNL     1      -3.511  -2.797  -1.137  1.00  0.00     0.012 A   
ATOM     29  C20 UNL     1      -4.896  -1.334  -2.510  1.00  0.00     0.045 A   
ATOM     30  C17 UNL     1      -4.649  -3.455  -0.657  1.00  0.00     0.037 A   
ATOM     31  C19 UNL     1      -5.996  -2.004  -2.016  1.00  0.00     0.109 A   
ATOM     32  C18 UNL     1      -5.877  -3.035  -1.117  1.00  0.00     0.108 A   
ATOM     33  O2  UNL     1      -7.290  -1.739  -2.335  1.00  0.00    -0.316 OA  
ATOM     34  O3  UNL     1      -7.080  -3.553  -0.761  1.00  0.00    -0.316 OA  
ATOM     35  C21 UNL     1      -7.975  -2.748  -1.558  1.00  0.00     0.337 C   
ENDBRANCH  26  27
ENDBRANCH  23  26
ENDBRANCH  18  23
ENDBRANCH   3  18
TORSDOF 10
