REMARK SMILES c1ccc(CCn2cc([C@@H]([NH2+]Cc3ccc4c(c3)OCO4)C3CCCC3)nn2)nc1
REMARK SMILES IDX 7 1 8 2 9 3 27 4 28 5 6 7 5 8 4 9 1 10 2 11 30 12 3 13 29 14
REMARK SMILES IDX 10 15 11 16 12 19 13 20 14 21 18 22 15 23 17 24 16 25 19 26
REMARK SMILES IDX 21 27 20 28 22 29 23 30 26 31 24 32 25 33
REMARK H PARENT 8 6 11 17 11 18
ROOT
ATOM     1   N1  UNL     1       1.705   2.815  -0.882  1.00  0.00    -0.212 N   
ATOM     2   C7  UNL     1       0.654   2.062  -0.444  1.00  0.00     0.045 A   
ATOM     3   C8  UNL     1       0.995   1.735   0.848  1.00  0.00     0.127 A   
ATOM     4   N3  UNL     1       2.201   2.309   1.156  1.00  0.00    -0.132 NA  
ATOM     5   N4  UNL     1       2.628   2.965   0.088  1.00  0.00    -0.076 NA  
ATOM     6   H8  UNL     1      -0.185   1.818  -1.082  1.00  0.00     0.083 HD  
ENDROOT
BRANCH   1   7
ATOM     7   C6  UNL     1       1.873   3.463  -2.166  1.00  0.00     0.140 C   
BRANCH   7   8
ATOM     8   C5  UNL     1       2.935   2.803  -3.045  1.00  0.00     0.077 C   
BRANCH   8   9
ATOM     9   C4  UNL     1       2.481   1.546  -3.751  1.00  0.00     0.042 A   
ATOM     10  C1  UNL     1       1.650  -0.726  -5.058  1.00  0.00     0.020 A   
ATOM     11  C2  UNL     1       2.767  -0.047  -5.526  1.00  0.00     0.003 A   
ATOM     12  C23 UNL     1       1.008  -0.228  -3.938  1.00  0.00     0.111 A   
ATOM     13  C3  UNL     1       3.192   1.102  -4.866  1.00  0.00     0.024 A   
ATOM     14  N5  UNL     1       1.405   0.878  -3.266  1.00  0.00    -0.261 NA  
ENDBRANCH   8   9
ENDBRANCH   7   8
ENDBRANCH   1   7
BRANCH   3  15
ATOM     15  C9  UNL     1       0.311   0.863   1.846  1.00  0.00     0.117 C   
BRANCH  15  16
ATOM     16  N2  UNL     1       1.334   0.061   2.626  1.00  0.00     0.249 N   
ATOM     17  H10 UNL     1       1.984   0.747   3.035  1.00  0.00     0.199 HD  
ATOM     18  H11 UNL     1       0.886  -0.438   3.398  1.00  0.00     0.199 HD  
BRANCH  16  19
ATOM     19  C10 UNL     1       2.159  -0.905   1.838  1.00  0.00     0.164 C   
BRANCH  19  20
ATOM     20  C11 UNL     1       1.346  -1.959   1.140  1.00  0.00    -0.002 A   
ATOM     21  C12 UNL     1       1.308  -1.999  -0.275  1.00  0.00     0.012 A   
ATOM     22  C16 UNL     1       0.604  -2.898   1.878  1.00  0.00     0.045 A   
ATOM     23  C13 UNL     1       0.542  -2.958  -0.948  1.00  0.00     0.037 A   
ATOM     24  C15 UNL     1      -0.147  -3.824   1.183  1.00  0.00     0.109 A   
ATOM     25  C14 UNL     1      -0.178  -3.853  -0.190  1.00  0.00     0.108 A   
ATOM     26  O1  UNL     1      -0.931  -4.784   1.739  1.00  0.00    -0.316 OA  
ATOM     27  O2  UNL     1      -0.981  -4.839  -0.670  1.00  0.00    -0.316 OA  
ATOM     28  C17 UNL     1      -1.425  -5.456   0.558  1.00  0.00     0.337 C   
ENDBRANCH  19  20
ENDBRANCH  16  19
ENDBRANCH  15  16
BRANCH  15  29
ATOM     29  C18 UNL     1      -0.523   1.684   2.852  1.00  0.00     0.043 C   
ATOM     30  C19 UNL     1      -1.663   2.474   2.200  1.00  0.00     0.010 C   
ATOM     31  C22 UNL     1      -1.268   0.836   3.893  1.00  0.00     0.010 C   
ATOM     32  C20 UNL     1      -2.539   2.859   3.380  1.00  0.00     0.001 C   
ATOM     33  C21 UNL     1      -2.483   1.661   4.320  1.00  0.00     0.001 C   
ENDBRANCH  15  29
ENDBRANCH   3  15
TORSDOF 8
