REMARK SMILES Cc1ccsc1[C@@H](O)Cn1cc([C@H](CC(C)C)[NH2+]Cc2ccc3c(c2)OCO3)nn1
REMARK SMILES IDX 10 1 11 2 12 3 29 4 30 5 9 7 7 8 6 9 2 10 3 11 4 12 5 13
REMARK SMILES IDX 1 14 8 15 13 17 14 18 15 19 16 20 17 21 18 22 19 25 20 26
REMARK SMILES IDX 21 27 25 28 22 29 24 30 23 31 26 32 28 33 27 34
REMARK H PARENT 11 6 8 16 18 23 18 24
ROOT
ATOM     1   N1  UNL     1      -0.299   0.596   3.158  1.00  0.00    -0.209 N   
ATOM     2   C8  UNL     1      -1.353  -0.013   2.537  1.00  0.00     0.045 A   
ATOM     3   C9  UNL     1      -0.783  -0.628   1.446  1.00  0.00     0.127 A   
ATOM     4   N3  UNL     1       0.573  -0.426   1.471  1.00  0.00    -0.132 NA  
ATOM     5   N4  UNL     1       0.858   0.319   2.526  1.00  0.00    -0.076 NA  
ATOM     6   H10 UNL     1      -2.369   0.094   2.892  1.00  0.00     0.083 HD  
ENDROOT
BRANCH   1   7
ATOM     7   C7  UNL     1      -0.310   1.431   4.340  1.00  0.00     0.171 C   
BRANCH   7   8
ATOM     8   C6  UNL     1      -0.952   2.806   4.135  1.00  0.00     0.171 C   
BRANCH   8   9
ATOM     9   C5  UNL     1      -0.336   3.626   3.022  1.00  0.00     0.022 A   
ATOM     10  C2  UNL     1       0.771   4.465   3.102  1.00  0.00    -0.038 A   
ATOM     11  C3  UNL     1       1.054   5.077   1.837  1.00  0.00     0.011 A   
ATOM     12  C4  UNL     1       0.176   4.697   0.851  1.00  0.00     0.046 A   
ATOM     13  S1  UNL     1      -0.994   3.605   1.431  1.00  0.00    -0.099 S   
ATOM     14  C1  UNL     1       1.577   4.721   4.337  1.00  0.00     0.045 C   
ENDBRANCH   8   9
BRANCH   8  15
ATOM     15  O1  UNL     1      -2.359   2.675   3.907  1.00  0.00    -0.386 OA  
ATOM     16  H7  UNL     1      -2.698   3.578   3.755  1.00  0.00     0.211 HD  
ENDBRANCH   8  15
ENDBRANCH   7   8
ENDBRANCH   1   7
BRANCH   3  17
ATOM     17  C10 UNL     1      -1.395  -1.354   0.295  1.00  0.00     0.114 C   
BRANCH  17  18
ATOM     18  C11 UNL     1      -1.352  -2.878   0.524  1.00  0.00     0.064 C   
BRANCH  18  19
ATOM     19  C12 UNL     1      -1.991  -3.758  -0.571  1.00  0.00    -0.012 C   
ATOM     20  C13 UNL     1      -1.890  -5.232  -0.168  1.00  0.00     0.007 C   
ATOM     21  C14 UNL     1      -3.452  -3.395  -0.838  1.00  0.00     0.007 C   
ENDBRANCH  18  19
ENDBRANCH  17  18
BRANCH  17  22
ATOM     22  N2  UNL     1      -0.655  -1.018  -0.971  1.00  0.00     0.249 N   
ATOM     23  H21 UNL     1       0.347  -1.159  -0.774  1.00  0.00     0.199 HD  
ATOM     24  H22 UNL     1      -0.895  -1.649  -1.739  1.00  0.00     0.199 HD  
BRANCH  22  25
ATOM     25  C15 UNL     1      -0.815   0.389  -1.440  1.00  0.00     0.164 C   
BRANCH  25  26
ATOM     26  C16 UNL     1      -0.029   0.616  -2.700  1.00  0.00    -0.002 A   
ATOM     27  C17 UNL     1      -0.651   0.503  -3.966  1.00  0.00     0.012 A   
ATOM     28  C21 UNL     1       1.347   0.895  -2.625  1.00  0.00     0.045 A   
ATOM     29  C18 UNL     1       0.085   0.676  -5.143  1.00  0.00     0.037 A   
ATOM     30  C20 UNL     1       2.042   1.058  -3.805  1.00  0.00     0.109 A   
ATOM     31  C19 UNL     1       1.429   0.953  -5.029  1.00  0.00     0.108 A   
ATOM     32  O2  UNL     1       3.369   1.331  -3.910  1.00  0.00    -0.316 OA  
ATOM     33  O3  UNL     1       2.292   1.148  -6.059  1.00  0.00    -0.316 OA  
ATOM     34  C22 UNL     1       3.519   1.411  -5.346  1.00  0.00     0.337 C   
ENDBRANCH  25  26
ENDBRANCH  22  25
ENDBRANCH  17  22
ENDBRANCH   3  17
TORSDOF 10
