REMARK SMILES Cc1ccsc1[C@H](O)Cn1cc([C@H](CC(C)C)[NH2+]Cc2ccc3c(c2)OCO3)nn1
REMARK SMILES IDX 10 1 11 2 12 3 29 4 30 5 9 7 7 8 6 9 2 10 3 11 4 12 5 13
REMARK SMILES IDX 1 14 8 15 13 17 14 18 15 19 16 20 17 21 18 22 19 25 20 26
REMARK SMILES IDX 21 27 25 28 22 29 24 30 23 31 26 32 28 33 27 34
REMARK H PARENT 11 6 8 16 18 23 18 24
ROOT
ATOM     1   N1  UNL     1       0.038   2.998   1.376  1.00  0.00    -0.209 N   
ATOM     2   C8  UNL     1      -0.774   1.946   1.698  1.00  0.00     0.045 A   
ATOM     3   C9  UNL     1      -1.440   1.669   0.524  1.00  0.00     0.127 A   
ATOM     4   N3  UNL     1      -1.041   2.566  -0.437  1.00  0.00    -0.132 NA  
ATOM     5   N4  UNL     1      -0.136   3.369   0.096  1.00  0.00    -0.076 NA  
ATOM     6   H10 UNL     1      -0.773   1.496   2.681  1.00  0.00     0.083 HD  
ENDROOT
BRANCH   1   7
ATOM     7   C7  UNL     1       1.035   3.639   2.200  1.00  0.00     0.171 C   
BRANCH   7   8
ATOM     8   C6  UNL     1       2.465   3.312   1.768  1.00  0.00     0.171 C   
BRANCH   8   9
ATOM     9   C5  UNL     1       2.793   1.837   1.872  1.00  0.00     0.022 A   
ATOM     10  C2  UNL     1       3.076   1.057   2.989  1.00  0.00    -0.038 A   
ATOM     11  C3  UNL     1       3.333  -0.305   2.617  1.00  0.00     0.011 A   
ATOM     12  C4  UNL     1       3.242  -0.518   1.262  1.00  0.00     0.046 A   
ATOM     13  S1  UNL     1       2.842   0.908   0.422  1.00  0.00    -0.099 S   
ATOM     14  C1  UNL     1       3.147   1.541   4.404  1.00  0.00     0.045 C   
ENDBRANCH   8   9
BRANCH   8  15
ATOM     15  O1  UNL     1       3.375   4.009   2.623  1.00  0.00    -0.386 OA  
ATOM     16  H7  UNL     1       4.274   3.808   2.304  1.00  0.00     0.211 HD  
ENDBRANCH   8  15
ENDBRANCH   7   8
ENDBRANCH   1   7
BRANCH   3  17
ATOM     17  C10 UNL     1      -2.412   0.600   0.138  1.00  0.00     0.114 C   
BRANCH  17  18
ATOM     18  C11 UNL     1      -2.483  -0.581   1.122  1.00  0.00     0.064 C   
BRANCH  18  19
ATOM     19  C12 UNL     1      -3.458  -1.718   0.750  1.00  0.00    -0.012 C   
ATOM     20  C13 UNL     1      -4.900  -1.228   0.603  1.00  0.00     0.007 C   
ATOM     21  C14 UNL     1      -3.394  -2.817   1.815  1.00  0.00     0.007 C   
ENDBRANCH  18  19
ENDBRANCH  17  18
BRANCH  17  22
ATOM     22  N2  UNL     1      -2.131   0.130  -1.264  1.00  0.00     0.249 N   
ATOM     23  H21 UNL     1      -2.087   0.987  -1.837  1.00  0.00     0.199 HD  
ATOM     24  H22 UNL     1      -2.914  -0.412  -1.640  1.00  0.00     0.199 HD  
BRANCH  22  25
ATOM     25  C15 UNL     1      -0.846  -0.587  -1.504  1.00  0.00     0.164 C   
BRANCH  25  26
ATOM     26  C16 UNL     1      -0.662  -0.847  -2.973  1.00  0.00    -0.002 A   
ATOM     27  C17 UNL     1       0.036   0.087  -3.776  1.00  0.00     0.012 A   
ATOM     28  C21 UNL     1      -1.232  -1.985  -3.568  1.00  0.00     0.045 A   
ATOM     29  C18 UNL     1       0.176  -0.113  -5.152  1.00  0.00     0.037 A   
ATOM     30  C20 UNL     1      -1.077  -2.150  -4.929  1.00  0.00     0.109 A   
ATOM     31  C19 UNL     1      -0.393  -1.242  -5.699  1.00  0.00     0.108 A   
ATOM     32  O2  UNL     1      -1.565  -3.186  -5.658  1.00  0.00    -0.316 OA  
ATOM     33  O3  UNL     1      -0.359  -1.595  -7.010  1.00  0.00    -0.316 OA  
ATOM     34  C22 UNL     1      -1.095  -2.835  -6.981  1.00  0.00     0.337 C   
ENDBRANCH  25  26
ENDBRANCH  22  25
ENDBRANCH  17  22
ENDBRANCH   3  17
TORSDOF 10
