REMARK SMILES Cc1ccc(N([O-])[O-])c(Cn2cc([C@@H]([NH2+]Cc3ccc4c(c3)OCO4)C(C)(C)C)nn2)c1
REMARK SMILES IDX 11 1 12 2 13 3 30 4 31 5 10 7 9 8 2 9 3 10 32 11 4 12 5 13
REMARK SMILES IDX 1 14 6 15 7 16 8 17 14 18 15 19 16 22 17 23 18 24 22 25
REMARK SMILES IDX 19 26 21 27 20 28 23 29 25 30 24 31 26 32 27 33 28 34 29 35
REMARK H PARENT 12 6 15 20 15 21
ROOT
ATOM     1   N2  UNL     1       1.848  -0.453   2.243  1.00  0.00    -0.208 N   
ATOM     2   C8  UNL     1       0.768   0.374   2.087  1.00  0.00     0.046 A   
ATOM     3   C9  UNL     1      -0.117  -0.373   1.342  1.00  0.00     0.127 A   
ATOM     4   N4  UNL     1       0.420  -1.617   1.120  1.00  0.00    -0.132 NA  
ATOM     5   N5  UNL     1       1.611  -1.660   1.691  1.00  0.00    -0.076 NA  
ATOM     6   H8  UNL     1       0.762   1.395   2.447  1.00  0.00     0.083 HD  
ENDROOT
BRANCH   1   7
ATOM     7   C7  UNL     1       3.157  -0.120   2.790  1.00  0.00     0.171 C   
BRANCH   7   8
ATOM     8   C6  UNL     1       4.310  -0.551   1.905  1.00  0.00     0.000 A   
ATOM     9   C2  UNL     1       6.407  -1.814   1.710  1.00  0.00    -0.051 A   
ATOM     10  C3  UNL     1       6.518  -1.441   0.365  1.00  0.00     0.005 A   
ATOM     11  C23 UNL     1       5.317  -1.358   2.470  1.00  0.00     0.011 A   
ATOM     12  C4  UNL     1       5.544  -0.638  -0.223  1.00  0.00     0.032 A   
ATOM     13  C5  UNL     1       4.458  -0.197   0.546  1.00  0.00     0.122 A   
ATOM     14  C1  UNL     1       7.478  -2.652   2.348  1.00  0.00     0.044 C   
BRANCH  13  15
ATOM     15  N1  UNL     1       3.481   0.654  -0.120  1.00  0.00     0.092 N   
ATOM     16  O1  UNL     1       3.003   0.254  -1.193  1.00  0.00    -0.138 OA  
ATOM     17  O2  UNL     1       3.158   1.709   0.447  1.00  0.00    -0.138 OA  
ENDBRANCH  13  15
ENDBRANCH   7   8
ENDBRANCH   1   7
BRANCH   3  18
ATOM     18  C10 UNL     1      -1.412  -0.010   0.679  1.00  0.00     0.120 C   
BRANCH  18  19
ATOM     19  N3  UNL     1      -1.387  -0.589  -0.723  1.00  0.00     0.250 N   
ATOM     20  H10 UNL     1      -0.964  -1.526  -0.631  1.00  0.00     0.199 HD  
ATOM     21  H11 UNL     1      -2.326  -0.727  -1.099  1.00  0.00     0.199 HD  
BRANCH  19  22
ATOM     22  C11 UNL     1      -0.569   0.163  -1.722  1.00  0.00     0.164 C   
BRANCH  22  23
ATOM     23  C12 UNL     1      -1.276   1.390  -2.230  1.00  0.00    -0.002 A   
ATOM     24  C13 UNL     1      -0.849   2.679  -1.833  1.00  0.00     0.012 A   
ATOM     25  C17 UNL     1      -2.384   1.264  -3.088  1.00  0.00     0.045 A   
ATOM     26  C14 UNL     1      -1.518   3.826  -2.276  1.00  0.00     0.037 A   
ATOM     27  C16 UNL     1      -3.021   2.414  -3.505  1.00  0.00     0.109 A   
ATOM     28  C15 UNL     1      -2.602   3.658  -3.110  1.00  0.00     0.108 A   
ATOM     29  O3  UNL     1      -4.105   2.465  -4.322  1.00  0.00    -0.316 OA  
ATOM     30  O4  UNL     1      -3.371   4.651  -3.629  1.00  0.00    -0.316 OA  
ATOM     31  C18 UNL     1      -4.304   3.892  -4.426  1.00  0.00     0.337 C   
ENDBRANCH  22  23
ENDBRANCH  19  22
ENDBRANCH  18  19
BRANCH  18  32
ATOM     32  C19 UNL     1      -2.691  -0.490   1.450  1.00  0.00     0.010 C   
ATOM     33  C20 UNL     1      -3.960   0.070   0.766  1.00  0.00     0.017 C   
ATOM     34  C21 UNL     1      -2.680   0.058   2.894  1.00  0.00     0.017 C   
ATOM     35  C22 UNL     1      -2.809  -2.025   1.515  1.00  0.00     0.017 C   
ENDBRANCH  18  32
ENDBRANCH   3  18
TORSDOF 8
