REMARK SMILES CC(C)C[C@H]([NH2+]Cc1ccc2c(c1)OCO2)c1cn(CCc2cnc3ccccc3n2)nn1
REMARK SMILES IDX 17 1 18 2 19 3 32 4 33 5 5 7 4 8 2 9 1 10 3 11 6 12 7 15
REMARK SMILES IDX 8 16 9 17 13 18 10 19 12 20 11 21 14 22 16 23 15 24 20 25
REMARK SMILES IDX 21 26 22 27 23 28 31 29 24 30 30 31 25 32 29 33 26 34 28 35
REMARK SMILES IDX 27 36
REMARK H PARENT 18 6 6 13 6 14
ROOT
ATOM     1   C14 UNL     1       0.898  -0.771  -2.912  1.00  0.00     0.127 A   
ATOM     2   C15 UNL     1       0.490   0.518  -3.174  1.00  0.00     0.045 A   
ATOM     3   N2  UNL     1      -0.411   0.376  -4.192  1.00  0.00    -0.212 N   
ATOM     4   N5  UNL     1      -0.533  -0.915  -4.554  1.00  0.00    -0.076 NA  
ATOM     5   N6  UNL     1       0.263  -1.630  -3.774  1.00  0.00    -0.132 NA  
ATOM     6   H20 UNL     1       0.700   1.475  -2.715  1.00  0.00     0.083 HD  
ENDROOT
BRANCH   1   7
ATOM     7   C5  UNL     1       1.768  -1.326  -1.835  1.00  0.00     0.114 C   
BRANCH   7   8
ATOM     8   C4  UNL     1       3.121  -1.839  -2.365  1.00  0.00     0.064 C   
BRANCH   8   9
ATOM     9   C2  UNL     1       4.037  -0.746  -2.959  1.00  0.00    -0.012 C   
ATOM     10  C1  UNL     1       5.304  -1.382  -3.532  1.00  0.00     0.007 C   
ATOM     11  C3  UNL     1       4.421   0.310  -1.923  1.00  0.00     0.007 C   
ENDBRANCH   8   9
ENDBRANCH   7   8
BRANCH   7  12
ATOM     12  N1  UNL     1       1.065  -2.503  -1.187  1.00  0.00     0.249 N   
ATOM     13  H11 UNL     1       0.721  -3.092  -1.958  1.00  0.00     0.199 HD  
ATOM     14  H12 UNL     1       1.732  -3.064  -0.650  1.00  0.00     0.199 HD  
BRANCH  12  15
ATOM     15  C6  UNL     1      -0.103  -2.164  -0.317  1.00  0.00     0.164 C   
BRANCH  15  16
ATOM     16  C7  UNL     1       0.324  -1.594   1.008  1.00  0.00    -0.002 A   
ATOM     17  C8  UNL     1       0.786  -2.447   2.039  1.00  0.00     0.012 A   
ATOM     18  C12 UNL     1       0.302  -0.203   1.221  1.00  0.00     0.045 A   
ATOM     19  C9  UNL     1       1.218  -1.925   3.264  1.00  0.00     0.037 A   
ATOM     20  C11 UNL     1       0.731   0.279   2.439  1.00  0.00     0.109 A   
ATOM     21  C10 UNL     1       1.179  -0.557   3.432  1.00  0.00     0.108 A   
ATOM     22  O1  UNL     1       0.773   1.590   2.803  1.00  0.00    -0.316 OA  
ATOM     23  O2  UNL     1       1.559   0.121   4.546  1.00  0.00    -0.316 OA  
ATOM     24  C13 UNL     1       1.256   1.480   4.161  1.00  0.00     0.337 C   
ENDBRANCH  15  16
ENDBRANCH  12  15
ENDBRANCH   7  12
ENDBRANCH   1   7
BRANCH   3  25
ATOM     25  C16 UNL     1      -1.318   1.375  -4.724  1.00  0.00     0.140 C   
BRANCH  25  26
ATOM     26  C17 UNL     1      -2.778   1.089  -4.367  1.00  0.00     0.079 C   
BRANCH  26  27
ATOM     27  C18 UNL     1      -2.961   0.909  -2.883  1.00  0.00     0.061 A   
ATOM     28  C19 UNL     1      -3.360  -0.307  -2.348  1.00  0.00     0.135 A   
ATOM     29  N4  UNL     1      -2.642   1.953  -2.083  1.00  0.00    -0.250 NA  
ATOM     30  N3  UNL     1      -3.448  -0.526  -1.016  1.00  0.00    -0.253 NA  
ATOM     31  C25 UNL     1      -2.786   1.777  -0.754  1.00  0.00     0.089 A   
ATOM     32  C20 UNL     1      -3.197   0.531  -0.217  1.00  0.00     0.089 A   
ATOM     33  C24 UNL     1      -2.509   2.829   0.114  1.00  0.00     0.030 A   
ATOM     34  C21 UNL     1      -3.322   0.394   1.160  1.00  0.00     0.030 A   
ATOM     35  C23 UNL     1      -2.630   2.678   1.495  1.00  0.00     0.002 A   
ATOM     36  C22 UNL     1      -3.038   1.457   2.021  1.00  0.00     0.002 A   
ENDBRANCH  26  27
ENDBRANCH  25  26
ENDBRANCH   3  25
TORSDOF 9
