REMARK SMILES COc1ncc(CCn2cc([C@H](CC(C)C)[NH2+]Cc3ccc4c(c3)OCO4)nn2)cc1C
REMARK SMILES IDX 9 1 10 2 11 3 28 4 29 5 8 7 7 8 6 9 3 10 4 11 31 12 5 13
REMARK SMILES IDX 30 14 32 15 2 16 1 17 12 18 13 19 14 20 15 21 16 22 17 23
REMARK SMILES IDX 18 26 19 27 20 28 24 29 21 30 23 31 22 32 25 33 27 34 26 35
REMARK H PARENT 10 6 17 24 17 25
ROOT
ATOM     1   N2  UNL     1       2.605   3.321   1.773  1.00  0.00    -0.212 N   
ATOM     2   C7  UNL     1       2.242   2.098   2.273  1.00  0.00     0.045 A   
ATOM     3   C8  UNL     1       2.184   1.293   1.153  1.00  0.00     0.127 A   
ATOM     4   N4  UNL     1       2.687   1.985   0.084  1.00  0.00    -0.132 NA  
ATOM     5   N5  UNL     1       2.947   3.224   0.476  1.00  0.00    -0.076 NA  
ATOM     6   H9  UNL     1       1.909   1.967   3.293  1.00  0.00     0.083 HD  
ENDROOT
BRANCH   1   7
ATOM     7   C6  UNL     1       2.291   4.613   2.360  1.00  0.00     0.139 C   
BRANCH   7   8
ATOM     8   C5  UNL     1       0.973   5.209   1.818  1.00  0.00     0.058 C   
BRANCH   8   9
ATOM     9   C4  UNL     1      -0.158   4.205   1.806  1.00  0.00    -0.028 A   
ATOM     10  C2  UNL     1      -1.881   2.080   1.756  1.00  0.00     0.169 A   
ATOM     11  N1  UNL     1      -1.192   2.353   0.624  1.00  0.00    -0.232 NA  
ATOM     12  C23 UNL     1      -1.744   2.780   2.952  1.00  0.00    -0.001 A   
ATOM     13  C3  UNL     1      -0.411   3.458   0.657  1.00  0.00     0.117 A   
ATOM     14  C22 UNL     1      -0.855   3.860   2.967  1.00  0.00     0.013 A   
ATOM     15  C24 UNL     1      -2.490   2.373   4.185  1.00  0.00     0.049 C   
BRANCH  10  16
ATOM     16  O1  UNL     1      -2.605   0.911   1.747  1.00  0.00    -0.332 OA  
ATOM     17  C1  UNL     1      -3.649   1.000   0.775  1.00  0.00     0.205 C   
ENDBRANCH  10  16
ENDBRANCH   8   9
ENDBRANCH   7   8
ENDBRANCH   1   7
BRANCH   3  18
ATOM     18  C9  UNL     1       1.542  -0.048   0.985  1.00  0.00     0.114 C   
BRANCH  18  19
ATOM     19  C10 UNL     1       2.553  -1.149   0.627  1.00  0.00     0.064 C   
BRANCH  19  20
ATOM     20  C11 UNL     1       1.986  -2.581   0.517  1.00  0.00    -0.012 C   
ATOM     21  C12 UNL     1       3.111  -3.549   0.135  1.00  0.00     0.007 C   
ATOM     22  C13 UNL     1       1.319  -3.051   1.810  1.00  0.00     0.007 C   
ENDBRANCH  19  20
ENDBRANCH  18  19
BRANCH  18  23
ATOM     23  N3  UNL     1       0.372  -0.011   0.040  1.00  0.00     0.249 N   
ATOM     24  H20 UNL     1      -0.204   0.821   0.284  1.00  0.00     0.199 HD  
ATOM     25  H21 UNL     1      -0.253  -0.803   0.220  1.00  0.00     0.199 HD  
BRANCH  23  26
ATOM     26  C14 UNL     1       0.629   0.100  -1.421  1.00  0.00     0.164 C   
BRANCH  26  27
ATOM     27  C15 UNL     1      -0.665   0.123  -2.191  1.00  0.00    -0.002 A   
ATOM     28  C16 UNL     1      -1.154   1.342  -2.721  1.00  0.00     0.012 A   
ATOM     29  C20 UNL     1      -1.418  -1.053  -2.356  1.00  0.00     0.045 A   
ATOM     30  C17 UNL     1      -2.374   1.394  -3.403  1.00  0.00     0.037 A   
ATOM     31  C19 UNL     1      -2.618  -0.966  -3.033  1.00  0.00     0.109 A   
ATOM     32  C18 UNL     1      -3.085   0.222  -3.539  1.00  0.00     0.108 A   
ATOM     33  O2  UNL     1      -3.468  -1.999  -3.272  1.00  0.00    -0.316 OA  
ATOM     34  O3  UNL     1      -4.286   0.087  -4.159  1.00  0.00    -0.316 OA  
ATOM     35  C21 UNL     1      -4.494  -1.337  -4.048  1.00  0.00     0.337 C   
ENDBRANCH  26  27
ENDBRANCH  23  26
ENDBRANCH  18  23
ENDBRANCH   3  18
TORSDOF 10
