REMARK SMILES COCc1ccc(Cn2cc([C@@H]([NH2+]Cc3ccc4c(c3)OCO4)C(C)(C)C)nn2)cc1
REMARK SMILES IDX 9 1 10 2 11 3 28 4 29 5 8 7 7 8 4 9 5 10 31 11 6 12 30 13
REMARK SMILES IDX 3 14 2 15 1 16 12 17 13 18 14 21 15 22 16 23 20 24 17 25
REMARK SMILES IDX 19 26 18 27 21 28 23 29 22 30 24 31 25 32 26 33 27 34
REMARK H PARENT 10 6 13 19 13 20
ROOT
ATOM     1   N1  UNL     1      -0.020   0.741  -2.322  1.00  0.00    -0.208 N   
ATOM     2   C8  UNL     1      -0.982   0.493  -1.380  1.00  0.00     0.046 A   
ATOM     3   C9  UNL     1      -1.050   1.664  -0.660  1.00  0.00     0.127 A   
ATOM     4   N3  UNL     1      -0.193   2.583  -1.210  1.00  0.00    -0.132 NA  
ATOM     5   N4  UNL     1       0.431   2.007  -2.224  1.00  0.00    -0.076 NA  
ATOM     6   H10 UNL     1      -1.446  -0.477  -1.267  1.00  0.00     0.083 HD  
ENDROOT
BRANCH   1   7
ATOM     7   C7  UNL     1       0.617  -0.214  -3.216  1.00  0.00     0.169 C   
BRANCH   7   8
ATOM     8   C6  UNL     1       1.462  -1.174  -2.414  1.00  0.00    -0.029 A   
ATOM     9   C3  UNL     1       2.963  -2.886  -0.752  1.00  0.00    -0.022 A   
ATOM     10  C4  UNL     1       3.450  -1.617  -1.086  1.00  0.00     0.006 A   
ATOM     11  C24 UNL     1       1.723  -3.295  -1.261  1.00  0.00     0.006 A   
ATOM     12  C5  UNL     1       2.709  -0.769  -1.913  1.00  0.00     0.006 A   
ATOM     13  C23 UNL     1       0.981  -2.450  -2.089  1.00  0.00     0.006 A   
BRANCH   9  14
ATOM     14  C2  UNL     1       3.733  -3.784   0.181  1.00  0.00     0.195 C   
BRANCH  14  15
ATOM     15  O1  UNL     1       3.167  -3.640   1.482  1.00  0.00    -0.380 OA  
ATOM     16  C1  UNL     1       3.827  -4.472   2.428  1.00  0.00     0.195 C   
ENDBRANCH  14  15
ENDBRANCH   9  14
ENDBRANCH   7   8
ENDBRANCH   1   7
BRANCH   3  17
ATOM     17  C10 UNL     1      -1.764   1.977   0.618  1.00  0.00     0.120 C   
BRANCH  17  18
ATOM     18  N2  UNL     1      -0.819   2.700   1.559  1.00  0.00     0.250 N   
ATOM     19  H12 UNL     1      -0.498   3.542   1.063  1.00  0.00     0.199 HD  
ATOM     20  H13 UNL     1      -1.309   3.004   2.402  1.00  0.00     0.199 HD  
BRANCH  18  21
ATOM     21  C11 UNL     1       0.416   1.955   1.970  1.00  0.00     0.164 C   
BRANCH  21  22
ATOM     22  C12 UNL     1       0.139   0.642   2.647  1.00  0.00    -0.002 A   
ATOM     23  C13 UNL     1       0.572  -0.567   2.049  1.00  0.00     0.012 A   
ATOM     24  C17 UNL     1      -0.557   0.597   3.867  1.00  0.00     0.045 A   
ATOM     25  C14 UNL     1       0.309  -1.803   2.648  1.00  0.00     0.037 A   
ATOM     26  C16 UNL     1      -0.805  -0.640   4.428  1.00  0.00     0.109 A   
ATOM     27  C15 UNL     1      -0.386  -1.806   3.836  1.00  0.00     0.108 A   
ATOM     28  O2  UNL     1      -1.472  -0.857   5.592  1.00  0.00    -0.316 OA  
ATOM     29  O3  UNL     1      -0.734  -2.905   4.555  1.00  0.00    -0.316 OA  
ATOM     30  C18 UNL     1      -1.400  -2.299   5.683  1.00  0.00     0.337 C   
ENDBRANCH  21  22
ENDBRANCH  18  21
ENDBRANCH  17  18
BRANCH  17  31
ATOM     31  C19 UNL     1      -3.090   2.797   0.432  1.00  0.00     0.010 C   
ATOM     32  C20 UNL     1      -4.051   2.035  -0.510  1.00  0.00     0.017 C   
ATOM     33  C21 UNL     1      -3.818   2.956   1.787  1.00  0.00     0.017 C   
ATOM     34  C22 UNL     1      -2.854   4.203  -0.153  1.00  0.00     0.017 C   
ENDBRANCH  17  31
ENDBRANCH   3  17
TORSDOF 9
