REMARK SMILES CC(C)(C)[C@H]([NH2+]Cc1ccc2c(c1)OCO2)c1cn([C@H](CO)c2ccncc2Cl)nn1
REMARK SMILES IDX 17 1 18 2 19 3 30 4 31 5 5 7 2 8 1 9 3 10 4 11 6 12 7 15
REMARK SMILES IDX 8 16 9 17 13 18 10 19 12 20 11 21 14 22 16 23 15 24 20 25
REMARK SMILES IDX 21 26 22 27 23 29 24 30 28 31 25 32 27 33 26 34 29 35
REMARK H PARENT 18 6 6 13 6 14 22 28
ROOT
ATOM     1   C14 UNL     1       0.148  -0.668  -0.332  1.00  0.00     0.127 A   
ATOM     2   C15 UNL     1      -0.767   0.167  -0.931  1.00  0.00     0.046 A   
ATOM     3   N2  UNL     1      -1.729  -0.681  -1.411  1.00  0.00    -0.202 N   
ATOM     4   N4  UNL     1      -1.448  -1.958  -1.074  1.00  0.00    -0.075 NA  
ATOM     5   N5  UNL     1      -0.297  -1.962  -0.423  1.00  0.00    -0.132 NA  
ATOM     6   H20 UNL     1      -0.821   1.239  -1.067  1.00  0.00     0.083 HD  
ENDROOT
BRANCH   1   7
ATOM     7   C5  UNL     1       1.413  -0.367   0.413  1.00  0.00     0.120 C   
BRANCH   7   8
ATOM     8   C2  UNL     1       2.709  -0.438  -0.472  1.00  0.00     0.010 C   
ATOM     9   C1  UNL     1       2.580   0.517  -1.682  1.00  0.00     0.017 C   
ATOM     10  C3  UNL     1       3.938   0.032   0.341  1.00  0.00     0.017 C   
ATOM     11  C4  UNL     1       2.995  -1.856  -1.004  1.00  0.00     0.017 C   
ENDBRANCH   7   8
BRANCH   7  12
ATOM     12  N1  UNL     1       1.528  -1.314   1.592  1.00  0.00     0.250 N   
ATOM     13  H11 UNL     1       2.464  -1.284   1.999  1.00  0.00     0.199 HD  
ATOM     14  H12 UNL     1       1.388  -2.261   1.213  1.00  0.00     0.199 HD  
BRANCH  12  15
ATOM     15  C6  UNL     1       0.526  -1.132   2.687  1.00  0.00     0.164 C   
BRANCH  15  16
ATOM     16  C7  UNL     1       0.666   0.185   3.398  1.00  0.00    -0.002 A   
ATOM     17  C8  UNL     1      -0.311   1.195   3.223  1.00  0.00     0.012 A   
ATOM     18  C12 UNL     1       1.781   0.436   4.216  1.00  0.00     0.045 A   
ATOM     19  C9  UNL     1      -0.178   2.440   3.847  1.00  0.00     0.037 A   
ATOM     20  C11 UNL     1       1.882   1.674   4.815  1.00  0.00     0.109 A   
ATOM     21  C10 UNL     1       0.931   2.649   4.635  1.00  0.00     0.108 A   
ATOM     22  O1  UNL     1       2.895   2.079   5.625  1.00  0.00    -0.316 OA  
ATOM     23  O2  UNL     1       1.225   3.790   5.311  1.00  0.00    -0.316 OA  
ATOM     24  C13 UNL     1       2.458   3.416   5.962  1.00  0.00     0.337 C   
ENDBRANCH  15  16
ENDBRANCH  12  15
ENDBRANCH   7  12
ENDBRANCH   1   7
BRANCH   3  25
ATOM     25  C16 UNL     1      -2.934  -0.336  -2.169  1.00  0.00     0.157 C   
BRANCH  25  26
ATOM     26  C17 UNL     1      -4.201  -0.671  -1.358  1.00  0.00     0.186 C   
BRANCH  26  27
ATOM     27  O3  UNL     1      -4.313   0.205  -0.232  1.00  0.00    -0.394 OA  
ATOM     28  H24 UNL     1      -5.176   0.024   0.185  1.00  0.00     0.210 HD  
ENDBRANCH  26  27
ENDBRANCH  25  26
BRANCH  25  29
ATOM     29  C18 UNL     1      -2.864  -0.949  -3.562  1.00  0.00    -0.001 A   
ATOM     30  C19 UNL     1      -3.447  -2.200  -3.837  1.00  0.00     0.027 A   
ATOM     31  C22 UNL     1      -2.177  -0.316  -4.612  1.00  0.00     0.064 A   
ATOM     32  C20 UNL     1      -3.348  -2.736  -5.114  1.00  0.00     0.111 A   
ATOM     33  C21 UNL     1      -2.137  -0.932  -5.858  1.00  0.00     0.131 A   
ATOM     34  N3  UNL     1      -2.711  -2.126  -6.131  1.00  0.00    -0.263 NA  
ATOM     35  CL1 UNL     1      -1.360   1.191  -4.422  1.00  0.00    -0.082 Cl  
ENDBRANCH  25  29
ENDBRANCH   3  25
TORSDOF 9
