REMARK SMILES CC(C)(C)[C@H]([NH2+]Cc1ccc2c(c1)OCO2)c1cn([C@@H](CO)c2ccncc2Cl)nn1
REMARK SMILES IDX 17 1 18 2 19 3 30 4 31 5 5 7 2 8 1 9 3 10 4 11 6 12 7 15
REMARK SMILES IDX 8 16 9 17 13 18 10 19 12 20 11 21 14 22 16 23 15 24 20 25
REMARK SMILES IDX 21 26 22 27 23 29 24 30 28 31 25 32 27 33 26 34 29 35
REMARK H PARENT 18 6 6 13 6 14 22 28
ROOT
ATOM     1   C14 UNL     1       0.762  -0.363  -0.576  1.00  0.00     0.127 A   
ATOM     2   C15 UNL     1      -0.191   0.031  -1.487  1.00  0.00     0.046 A   
ATOM     3   N2  UNL     1      -1.120  -0.972  -1.453  1.00  0.00    -0.202 N   
ATOM     4   N4  UNL     1      -0.774  -1.912  -0.548  1.00  0.00    -0.075 NA  
ATOM     5   N5  UNL     1       0.375  -1.549  -0.004  1.00  0.00    -0.132 NA  
ATOM     6   H20 UNL     1      -0.287   0.886  -2.140  1.00  0.00     0.083 HD  
ENDROOT
BRANCH   1   7
ATOM     7   C5  UNL     1       2.024   0.298  -0.114  1.00  0.00     0.120 C   
BRANCH   7   8
ATOM     8   C2  UNL     1       3.306  -0.146  -0.902  1.00  0.00     0.010 C   
ATOM     9   C1  UNL     1       4.528   0.685  -0.445  1.00  0.00     0.017 C   
ATOM     10  C3  UNL     1       3.633  -1.641  -0.716  1.00  0.00     0.017 C   
ATOM     11  C4  UNL     1       3.125   0.124  -2.414  1.00  0.00     0.017 C   
ENDBRANCH   7   8
BRANCH   7  12
ATOM     12  N1  UNL     1       2.195   0.028   1.371  1.00  0.00     0.250 N   
ATOM     13  H11 UNL     1       3.168  -0.183   1.604  1.00  0.00     0.199 HD  
ATOM     14  H12 UNL     1       1.674  -0.846   1.559  1.00  0.00     0.199 HD  
BRANCH  12  15
ATOM     15  C6  UNL     1       1.692   1.081   2.296  1.00  0.00     0.164 C   
BRANCH  15  16
ATOM     16  C7  UNL     1       0.195   1.191   2.337  1.00  0.00    -0.002 A   
ATOM     17  C8  UNL     1      -0.468   2.262   1.694  1.00  0.00     0.012 A   
ATOM     18  C12 UNL     1      -0.563   0.213   3.006  1.00  0.00     0.045 A   
ATOM     19  C9  UNL     1      -1.863   2.362   1.715  1.00  0.00     0.037 A   
ATOM     20  C11 UNL     1      -1.935   0.343   3.011  1.00  0.00     0.109 A   
ATOM     21  C10 UNL     1      -2.568   1.386   2.384  1.00  0.00     0.108 A   
ATOM     22  O1  UNL     1      -2.805  -0.505   3.620  1.00  0.00    -0.316 OA  
ATOM     23  O2  UNL     1      -3.919   1.327   2.516  1.00  0.00    -0.316 OA  
ATOM     24  C13 UNL     1      -4.065   0.137   3.324  1.00  0.00     0.337 C   
ENDBRANCH  15  16
ENDBRANCH  12  15
ENDBRANCH   7  12
ENDBRANCH   1   7
BRANCH   3  25
ATOM     25  C16 UNL     1      -2.334  -1.097  -2.261  1.00  0.00     0.157 C   
BRANCH  25  26
ATOM     26  C17 UNL     1      -2.243  -2.311  -3.207  1.00  0.00     0.186 C   
BRANCH  26  27
ATOM     27  O3  UNL     1      -1.302  -2.046  -4.250  1.00  0.00    -0.394 OA  
ATOM     28  H24 UNL     1      -1.347  -2.794  -4.876  1.00  0.00     0.210 HD  
ENDBRANCH  26  27
ENDBRANCH  25  26
BRANCH  25  29
ATOM     29  C18 UNL     1      -3.567  -1.069  -1.370  1.00  0.00    -0.001 A   
ATOM     30  C19 UNL     1      -4.077  -2.254  -0.806  1.00  0.00     0.027 A   
ATOM     31  C22 UNL     1      -4.221   0.130  -1.047  1.00  0.00     0.064 A   
ATOM     32  C20 UNL     1      -5.202  -2.199   0.005  1.00  0.00     0.111 A   
ATOM     33  C21 UNL     1      -5.345   0.082  -0.230  1.00  0.00     0.131 A   
ATOM     34  N3  UNL     1      -5.851  -1.056   0.301  1.00  0.00    -0.263 NA  
ATOM     35  CL1 UNL     1      -3.683   1.671  -1.605  1.00  0.00    -0.082 Cl  
ENDBRANCH  25  29
ENDBRANCH   3  25
TORSDOF 9
