REMARK SMILES CC(C)[C@H]([NH2+]Cc1ccc2c(c1)OCO2)c1cn(Cc2cccc(C(C)(C)O)n2)nn1
REMARK SMILES IDX 16 1 17 2 18 3 30 4 31 5 4 7 2 8 1 9 3 10 5 11 6 14 7 15
REMARK SMILES IDX 8 16 12 17 9 18 11 19 10 20 13 21 15 22 14 23 19 24 20 25
REMARK SMILES IDX 21 26 29 27 22 28 24 29 23 30 25 31 26 32 27 33 28 34
REMARK H PARENT 17 6 5 12 5 13 28 35
ROOT
ATOM     1   C13 UNL     1      -2.413  -1.264  -0.209  1.00  0.00     0.127 A   
ATOM     2   C14 UNL     1      -3.292  -0.537  -0.981  1.00  0.00     0.046 A   
ATOM     3   N2  UNL     1      -4.023   0.179  -0.064  1.00  0.00    -0.206 N   
ATOM     4   N4  UNL     1      -3.742  -0.235   1.188  1.00  0.00    -0.076 NA  
ATOM     5   N5  UNL     1      -2.756  -1.117   1.110  1.00  0.00    -0.132 NA  
ATOM     6   H18 UNL     1      -3.358  -0.340  -2.042  1.00  0.00     0.083 HD  
ENDROOT
BRANCH   1   7
ATOM     7   C4  UNL     1      -1.180  -2.019  -0.607  1.00  0.00     0.117 C   
BRANCH   7   8
ATOM     8   C2  UNL     1      -1.220  -3.521  -0.209  1.00  0.00     0.037 C   
ATOM     9   C1  UNL     1       0.074  -4.268  -0.549  1.00  0.00     0.014 C   
ATOM     10  C3  UNL     1      -2.390  -4.245  -0.896  1.00  0.00     0.014 C   
ENDBRANCH   7   8
BRANCH   7  11
ATOM     11  N1  UNL     1       0.072  -1.338  -0.099  1.00  0.00     0.249 N   
ATOM     12  H9  UNL     1       0.907  -1.791  -0.482  1.00  0.00     0.199 HD  
ATOM     13  H10 UNL     1       0.104  -0.372  -0.492  1.00  0.00     0.199 HD  
BRANCH  11  14
ATOM     14  C5  UNL     1       0.232  -1.176   1.378  1.00  0.00     0.164 C   
BRANCH  14  15
ATOM     15  C6  UNL     1       1.667  -0.884   1.727  1.00  0.00    -0.002 A   
ATOM     16  C7  UNL     1       2.545  -1.935   2.090  1.00  0.00     0.012 A   
ATOM     17  C11 UNL     1       2.157   0.431   1.652  1.00  0.00     0.045 A   
ATOM     18  C8  UNL     1       3.888  -1.681   2.387  1.00  0.00     0.037 A   
ATOM     19  C10 UNL     1       3.486   0.649   1.950  1.00  0.00     0.109 A   
ATOM     20  C9  UNL     1       4.327  -0.375   2.311  1.00  0.00     0.108 A   
ATOM     21  O1  UNL     1       4.114   1.857   1.933  1.00  0.00    -0.316 OA  
ATOM     22  O2  UNL     1       5.589   0.056   2.567  1.00  0.00    -0.316 OA  
ATOM     23  C12 UNL     1       5.441   1.480   2.365  1.00  0.00     0.337 C   
ENDBRANCH  14  15
ENDBRANCH  11  14
ENDBRANCH   7  11
ENDBRANCH   1   7
BRANCH   3  24
ATOM     24  C15 UNL     1      -4.771   1.410  -0.298  1.00  0.00     0.190 C   
BRANCH  24  25
ATOM     25  C16 UNL     1      -3.827   2.562  -0.593  1.00  0.00     0.060 A   
ATOM     26  C17 UNL     1      -4.277   3.871  -0.664  1.00  0.00     0.025 A   
ATOM     27  N3  UNL     1      -2.522   2.258  -0.814  1.00  0.00    -0.253 NA  
ATOM     28  C18 UNL     1      -3.355   4.877  -0.969  1.00  0.00     0.004 A   
ATOM     29  C20 UNL     1      -1.628   3.240  -1.111  1.00  0.00     0.072 A   
ATOM     30  C19 UNL     1      -2.015   4.565  -1.203  1.00  0.00     0.027 A   
BRANCH  29  31
ATOM     31  C21 UNL     1      -0.204   2.720  -1.283  1.00  0.00     0.101 C   
ATOM     32  C22 UNL     1       0.829   3.534  -0.502  1.00  0.00     0.049 C   
ATOM     33  C23 UNL     1       0.160   2.617  -2.763  1.00  0.00     0.049 C   
BRANCH  31  34
ATOM     34  O3  UNL     1      -0.178   1.355  -0.739  1.00  0.00    -0.384 OA  
ATOM     35  H30 UNL     1      -1.102   1.289  -0.382  1.00  0.00     0.211 HD  
ENDBRANCH  31  34
ENDBRANCH  29  31
ENDBRANCH  24  25
ENDBRANCH   3  24
TORSDOF 9
