REMARK SMILES CC(C)C[C@H]([NH2+]Cc1ccc2c(c1)OCO2)c1cn(Cc2cccc(F)c2)nn1
REMARK SMILES IDX 17 1 18 2 19 3 28 4 29 5 5 7 4 8 2 9 1 10 3 11 6 12 7 15
REMARK SMILES IDX 8 16 9 17 13 18 10 19 12 20 11 21 14 22 16 23 15 24 20 25
REMARK SMILES IDX 21 26 22 27 27 28 23 29 25 30 24 31 26 32
REMARK H PARENT 18 6 6 13 6 14
ROOT
ATOM     1   C14 UNL     1       0.117   0.819   0.680  1.00  0.00     0.127 A   
ATOM     2   C15 UNL     1      -0.806   0.076  -0.022  1.00  0.00     0.046 A   
ATOM     3   N2  UNL     1      -1.966   0.792   0.098  1.00  0.00    -0.208 N   
ATOM     4   N3  UNL     1      -1.750   1.946   0.757  1.00  0.00    -0.076 NA  
ATOM     5   N4  UNL     1      -0.483   1.965   1.137  1.00  0.00    -0.132 NA  
ATOM     6   H20 UNL     1      -0.761  -0.873  -0.538  1.00  0.00     0.083 HD  
ENDROOT
BRANCH   1   7
ATOM     7   C5  UNL     1       1.563   0.585   0.962  1.00  0.00     0.114 C   
BRANCH   7   8
ATOM     8   C4  UNL     1       1.796  -0.073   2.337  1.00  0.00     0.064 C   
BRANCH   8   9
ATOM     9   C2  UNL     1       1.211  -1.492   2.499  1.00  0.00    -0.012 C   
ATOM     10  C1  UNL     1       1.456  -1.990   3.927  1.00  0.00     0.007 C   
ATOM     11  C3  UNL     1       1.804  -2.486   1.499  1.00  0.00     0.007 C   
ENDBRANCH   8   9
ENDBRANCH   7   8
BRANCH   7  12
ATOM     12  N1  UNL     1       2.311   1.905   0.982  1.00  0.00     0.249 N   
ATOM     13  H11 UNL     1       3.241   1.777   1.390  1.00  0.00     0.199 HD  
ATOM     14  H12 UNL     1       1.782   2.524   1.614  1.00  0.00     0.199 HD  
BRANCH  12  15
ATOM     15  C6  UNL     1       2.441   2.614  -0.326  1.00  0.00     0.164 C   
BRANCH  15  16
ATOM     16  C7  UNL     1       3.279   1.859  -1.320  1.00  0.00    -0.002 A   
ATOM     17  C8  UNL     1       2.674   1.257  -2.450  1.00  0.00     0.012 A   
ATOM     18  C12 UNL     1       4.664   1.721  -1.122  1.00  0.00     0.045 A   
ATOM     19  C9  UNL     1       3.434   0.522  -3.366  1.00  0.00     0.037 A   
ATOM     20  C11 UNL     1       5.383   0.987  -2.043  1.00  0.00     0.109 A   
ATOM     21  C10 UNL     1       4.785   0.404  -3.133  1.00  0.00     0.108 A   
ATOM     22  O1  UNL     1       6.720   0.751  -1.994  1.00  0.00    -0.316 OA  
ATOM     23  O2  UNL     1       5.672  -0.271  -3.910  1.00  0.00    -0.316 OA  
ATOM     24  C13 UNL     1       6.906  -0.024  -3.202  1.00  0.00     0.337 C   
ENDBRANCH  15  16
ENDBRANCH  12  15
ENDBRANCH   7  12
ENDBRANCH   1   7
BRANCH   3  25
ATOM     25  C16 UNL     1      -3.291   0.453  -0.396  1.00  0.00     0.169 C   
BRANCH  25  26
ATOM     26  C17 UNL     1      -3.881  -0.696   0.382  1.00  0.00    -0.026 A   
ATOM     27  C18 UNL     1      -4.364  -0.500   1.687  1.00  0.00     0.005 A   
ATOM     28  C22 UNL     1      -3.941  -1.981  -0.175  1.00  0.00     0.044 A   
ATOM     29  C19 UNL     1      -4.895  -1.567   2.417  1.00  0.00     0.003 A   
ATOM     30  C21 UNL     1      -4.469  -3.035   0.564  1.00  0.00     0.123 A   
ATOM     31  C20 UNL     1      -4.946  -2.840   1.854  1.00  0.00     0.039 A   
ATOM     32  F1  UNL     1      -4.511  -4.258   0.021  1.00  0.00    -0.207 F   
ENDBRANCH  25  26
ENDBRANCH   3  25
TORSDOF 8
