REMARK SMILES COc1ccc(CCn2cc([C@@H]([NH2+]Cc3ccc4c(c3)OCO4)C(C)(C)C)nn2)nc1
REMARK SMILES IDX 9 1 10 2 11 3 28 4 29 5 8 7 7 8 6 9 3 10 4 11 31 12 5 13
REMARK SMILES IDX 30 14 2 15 1 16 12 17 13 18 14 21 15 22 16 23 20 24 17 25
REMARK SMILES IDX 19 26 18 27 21 28 23 29 22 30 24 31 25 32 26 33 27 34
REMARK H PARENT 10 6 13 19 13 20
ROOT
ATOM     1   N1  UNL     1      -0.620  -3.102  -1.141  1.00  0.00    -0.212 N   
ATOM     2   C8  UNL     1      -1.428  -2.156  -1.706  1.00  0.00     0.045 A   
ATOM     3   C9  UNL     1      -0.597  -1.071  -1.874  1.00  0.00     0.127 A   
ATOM     4   N3  UNL     1       0.673  -1.413  -1.487  1.00  0.00    -0.132 NA  
ATOM     5   N4  UNL     1       0.651  -2.665  -1.061  1.00  0.00    -0.076 NA  
ATOM     6   H10 UNL     1      -2.493  -2.303  -1.821  1.00  0.00     0.083 HD  
ENDROOT
BRANCH   1   7
ATOM     7   C7  UNL     1      -1.024  -4.336  -0.496  1.00  0.00     0.140 C   
BRANCH   7   8
ATOM     8   C6  UNL     1      -0.712  -4.355   1.003  1.00  0.00     0.077 C   
BRANCH   8   9
ATOM     9   C5  UNL     1      -1.276  -3.174   1.762  1.00  0.00     0.042 A   
ATOM     10  C2  UNL     1      -2.328  -1.012   3.130  1.00  0.00     0.093 A   
ATOM     11  C3  UNL     1      -1.113  -1.551   3.534  1.00  0.00     0.037 A   
ATOM     12  C23 UNL     1      -2.967  -1.622   2.058  1.00  0.00     0.144 A   
ATOM     13  C4  UNL     1      -0.586  -2.651   2.853  1.00  0.00     0.026 A   
ATOM     14  N5  UNL     1      -2.464  -2.667   1.354  1.00  0.00    -0.259 NA  
BRANCH  10  15
ATOM     15  O1  UNL     1      -2.950   0.080   3.655  1.00  0.00    -0.348 OA  
ATOM     16  C1  UNL     1      -2.393   0.621   4.851  1.00  0.00     0.203 C   
ENDBRANCH  10  15
ENDBRANCH   8   9
ENDBRANCH   7   8
ENDBRANCH   1   7
BRANCH   3  17
ATOM     17  C10 UNL     1      -0.922   0.354  -2.193  1.00  0.00     0.120 C   
BRANCH  17  18
ATOM     18  N2  UNL     1      -0.345   1.228  -1.101  1.00  0.00     0.250 N   
ATOM     19  H12 UNL     1      -0.387   2.222  -1.337  1.00  0.00     0.199 HD  
ATOM     20  H13 UNL     1       0.651   0.982  -1.015  1.00  0.00     0.199 HD  
BRANCH  18  21
ATOM     21  C11 UNL     1      -0.960   1.027   0.247  1.00  0.00     0.164 C   
BRANCH  21  22
ATOM     22  C12 UNL     1      -0.328   1.933   1.265  1.00  0.00    -0.002 A   
ATOM     23  C13 UNL     1       0.863   1.537   1.923  1.00  0.00     0.012 A   
ATOM     24  C17 UNL     1      -0.890   3.188   1.545  1.00  0.00     0.045 A   
ATOM     25  C14 UNL     1       1.478   2.374   2.860  1.00  0.00     0.037 A   
ATOM     26  C16 UNL     1      -0.259   3.989   2.474  1.00  0.00     0.109 A   
ATOM     27  C15 UNL     1       0.891   3.594   3.114  1.00  0.00     0.108 A   
ATOM     28  O2  UNL     1      -0.673   5.222   2.865  1.00  0.00    -0.316 OA  
ATOM     29  O3  UNL     1       1.342   4.527   3.991  1.00  0.00    -0.316 OA  
ATOM     30  C18 UNL     1       0.343   5.559   3.836  1.00  0.00     0.337 C   
ENDBRANCH  21  22
ENDBRANCH  18  21
ENDBRANCH  17  18
BRANCH  17  31
ATOM     31  C19 UNL     1      -0.445   0.836  -3.605  1.00  0.00     0.010 C   
ATOM     32  C20 UNL     1      -0.962   2.266  -3.885  1.00  0.00     0.017 C   
ATOM     33  C21 UNL     1      -1.037  -0.083  -4.698  1.00  0.00     0.017 C   
ATOM     34  C22 UNL     1       1.089   0.844  -3.757  1.00  0.00     0.017 C   
ENDBRANCH  17  31
ENDBRANCH   3  17
TORSDOF 9
