REMARK SMILES COc1ccnc(Cn2cc([C@@H]([NH2+]Cc3ccc4c(c3)OCO4)C3CCCC3)nn2)c1
REMARK SMILES IDX 9 1 10 2 11 3 29 4 30 5 8 7 7 8 3 9 4 10 31 11 5 12 6 13
REMARK SMILES IDX 2 14 1 15 12 16 13 17 14 20 15 21 16 22 20 23 17 24 19 25
REMARK SMILES IDX 18 26 21 27 23 28 22 29 24 30 25 31 28 32 26 33 27 34
REMARK H PARENT 10 6 13 18 13 19
ROOT
ATOM     1   N2  UNL     1       1.720  -2.762  -0.894  1.00  0.00    -0.206 N   
ATOM     2   C7  UNL     1       1.671  -1.419  -0.640  1.00  0.00     0.046 A   
ATOM     3   C8  UNL     1       1.022  -1.333   0.570  1.00  0.00     0.127 A   
ATOM     4   N4  UNL     1       0.730  -2.596   1.016  1.00  0.00    -0.132 NA  
ATOM     5   N5  UNL     1       1.158  -3.462   0.112  1.00  0.00    -0.076 NA  
ATOM     6   H8  UNL     1       2.050  -0.687  -1.342  1.00  0.00     0.083 HD  
ENDROOT
BRANCH   1   7
ATOM     7   C6  UNL     1       2.243  -3.433  -2.068  1.00  0.00     0.190 C   
BRANCH   7   8
ATOM     8   C5  UNL     1       1.242  -3.355  -3.188  1.00  0.00     0.062 A   
ATOM     9   C2  UNL     1      -0.615  -4.261  -4.415  1.00  0.00     0.078 A   
ATOM     10  C3  UNL     1      -0.568  -3.151  -5.248  1.00  0.00     0.053 A   
ATOM     11  C23 UNL     1       0.300  -4.364  -3.369  1.00  0.00     0.059 A   
ATOM     12  C4  UNL     1       0.391  -2.185  -4.993  1.00  0.00     0.114 A   
ATOM     13  N1  UNL     1       1.282  -2.253  -3.979  1.00  0.00    -0.259 NA  
BRANCH   9  14
ATOM     14  O1  UNL     1      -1.496  -5.301  -4.506  1.00  0.00    -0.349 OA  
ATOM     15  C1  UNL     1      -2.363  -5.316  -5.636  1.00  0.00     0.203 C   
ENDBRANCH   9  14
ENDBRANCH   7   8
ENDBRANCH   1   7
BRANCH   3  16
ATOM     16  C9  UNL     1       0.557  -0.146   1.347  1.00  0.00     0.117 C   
BRANCH  16  17
ATOM     17  N3  UNL     1      -0.791  -0.426   1.970  1.00  0.00     0.249 N   
ATOM     18  H10 UNL     1      -1.036   0.299   2.649  1.00  0.00     0.199 HD  
ATOM     19  H11 UNL     1      -0.693  -1.311   2.486  1.00  0.00     0.199 HD  
BRANCH  17  20
ATOM     20  C10 UNL     1      -1.931  -0.616   1.021  1.00  0.00     0.164 C   
BRANCH  20  21
ATOM     21  C11 UNL     1      -2.212   0.596   0.176  1.00  0.00    -0.002 A   
ATOM     22  C12 UNL     1      -1.890   0.590  -1.203  1.00  0.00     0.012 A   
ATOM     23  C16 UNL     1      -2.765   1.752   0.753  1.00  0.00     0.045 A   
ATOM     24  C13 UNL     1      -2.109   1.720  -1.997  1.00  0.00     0.037 A   
ATOM     25  C15 UNL     1      -2.968   2.848  -0.059  1.00  0.00     0.109 A   
ATOM     26  C14 UNL     1      -2.649   2.834  -1.395  1.00  0.00     0.108 A   
ATOM     27  O2  UNL     1      -3.486   4.040   0.338  1.00  0.00    -0.316 OA  
ATOM     28  O3  UNL     1      -2.927   4.014  -2.007  1.00  0.00    -0.316 OA  
ATOM     29  C17 UNL     1      -3.490   4.768  -0.911  1.00  0.00     0.337 C   
ENDBRANCH  20  21
ENDBRANCH  17  20
ENDBRANCH  16  17
BRANCH  16  30
ATOM     30  C18 UNL     1       1.579   0.270   2.424  1.00  0.00     0.043 C   
ATOM     31  C19 UNL     1       1.306   1.642   3.065  1.00  0.00     0.010 C   
ATOM     32  C22 UNL     1       1.742  -0.673   3.620  1.00  0.00     0.010 C   
ATOM     33  C20 UNL     1       1.819   1.549   4.504  1.00  0.00     0.001 C   
ATOM     34  C21 UNL     1       2.494   0.190   4.621  1.00  0.00     0.001 C   
ENDBRANCH  16  30
ENDBRANCH   3  16
TORSDOF 8
