REMARK SMILES CC(C)[C@H]([NH2+]Cc1ccc2c(c1)OCO2)c1cn([C@@H](CO)c2ccc(Cl)o2)nn1
REMARK SMILES IDX 16 1 17 2 18 3 28 4 29 5 4 7 2 8 1 9 3 10 5 11 6 14 7 15
REMARK SMILES IDX 8 16 12 17 9 18 11 19 10 20 13 21 15 22 14 23 19 24 20 25
REMARK SMILES IDX 21 26 22 28 23 29 27 30 24 31 25 32 26 33
REMARK H PARENT 17 6 5 12 5 13 21 27
ROOT
ATOM     1   C13 UNL     1       0.381  -1.547  -0.135  1.00  0.00     0.127 A   
ATOM     2   C14 UNL     1      -0.078  -0.458   0.570  1.00  0.00     0.046 A   
ATOM     3   N2  UNL     1       0.855   0.519   0.327  1.00  0.00    -0.200 N   
ATOM     4   N3  UNL     1       1.835   0.043  -0.471  1.00  0.00    -0.075 NA  
ATOM     5   N4  UNL     1       1.547  -1.211  -0.772  1.00  0.00    -0.132 NA  
ATOM     6   H18 UNL     1      -0.954  -0.283   1.180  1.00  0.00     0.083 HD  
ENDROOT
BRANCH   1   7
ATOM     7   C4  UNL     1      -0.212  -2.900  -0.366  1.00  0.00     0.117 C   
BRANCH   7   8
ATOM     8   C2  UNL     1       0.370  -3.977   0.587  1.00  0.00     0.037 C   
ATOM     9   C1  UNL     1       1.856  -4.287   0.367  1.00  0.00     0.014 C   
ATOM     10  C3  UNL     1      -0.443  -5.276   0.523  1.00  0.00     0.014 C   
ENDBRANCH   7   8
BRANCH   7  11
ATOM     11  N1  UNL     1      -0.004  -3.292  -1.813  1.00  0.00     0.249 N   
ATOM     12  H9  UNL     1       0.812  -2.746  -2.133  1.00  0.00     0.199 HD  
ATOM     13  H10 UNL     1       0.275  -4.273  -1.895  1.00  0.00     0.199 HD  
BRANCH  11  14
ATOM     14  C5  UNL     1      -1.140  -3.030  -2.744  1.00  0.00     0.164 C   
BRANCH  14  15
ATOM     15  C6  UNL     1      -1.606  -1.601  -2.767  1.00  0.00    -0.002 A   
ATOM     16  C7  UNL     1      -0.791  -0.587  -3.324  1.00  0.00     0.012 A   
ATOM     17  C11 UNL     1      -2.840  -1.252  -2.190  1.00  0.00     0.045 A   
ATOM     18  C8  UNL     1      -1.185   0.755  -3.287  1.00  0.00     0.037 A   
ATOM     19  C10 UNL     1      -3.198   0.080  -2.169  1.00  0.00     0.109 A   
ATOM     20  C9  UNL     1      -2.392   1.057  -2.697  1.00  0.00     0.108 A   
ATOM     21  O1  UNL     1      -4.337   0.583  -1.627  1.00  0.00    -0.316 OA  
ATOM     22  O2  UNL     1      -2.916   2.302  -2.540  1.00  0.00    -0.316 OA  
ATOM     23  C12 UNL     1      -4.187   1.987  -1.930  1.00  0.00     0.337 C   
ENDBRANCH  14  15
ENDBRANCH  11  14
ENDBRANCH   7  11
ENDBRANCH   1   7
BRANCH   3  24
ATOM     24  C15 UNL     1       0.890   1.903   0.799  1.00  0.00     0.179 C   
BRANCH  24  25
ATOM     25  C16 UNL     1      -0.271   2.731   0.226  1.00  0.00     0.188 C   
BRANCH  25  26
ATOM     26  O3  UNL     1      -0.055   3.014  -1.156  1.00  0.00    -0.394 OA  
ATOM     27  H22 UNL     1      -0.862   3.443  -1.499  1.00  0.00     0.210 HD  
ENDBRANCH  25  26
ENDBRANCH  24  25
BRANCH  24  28
ATOM     28  C17 UNL     1       0.911   1.927   2.295  1.00  0.00     0.086 A   
ATOM     29  C18 UNL     1       1.911   2.142   3.221  1.00  0.00     0.035 A   
ATOM     30  O4  UNL     1      -0.272   1.699   2.937  1.00  0.00    -0.301 OA  
ATOM     31  C19 UNL     1       1.302   2.038   4.497  1.00  0.00     0.049 A   
ATOM     32  C20 UNL     1      -0.029   1.765   4.277  1.00  0.00     0.147 A   
ATOM     33  CL1 UNL     1      -1.246   1.527   5.464  1.00  0.00    -0.056 Cl  
ENDBRANCH  24  28
ENDBRANCH   3  24
TORSDOF 9
