REMARK SMILES CC(C)[C@H]([NH2+]Cc1ccc2c(c1)OCO2)c1cn([C@H](CO)c2ccc(Cl)o2)nn1
REMARK SMILES IDX 16 1 17 2 18 3 28 4 29 5 4 7 2 8 1 9 3 10 5 11 6 14 7 15
REMARK SMILES IDX 8 16 12 17 9 18 11 19 10 20 13 21 15 22 14 23 19 24 20 25
REMARK SMILES IDX 21 26 22 28 23 29 27 30 24 31 25 32 26 33
REMARK H PARENT 17 6 5 12 5 13 21 27
ROOT
ATOM     1   C13 UNL     1      -0.334  -0.302  -1.075  1.00  0.00     0.127 A   
ATOM     2   C14 UNL     1       0.476   0.737  -1.470  1.00  0.00     0.046 A   
ATOM     3   N2  UNL     1      -0.369   1.590  -2.132  1.00  0.00    -0.200 N   
ATOM     4   N3  UNL     1      -1.625   1.089  -2.154  1.00  0.00    -0.075 NA  
ATOM     5   N4  UNL     1      -1.615  -0.065  -1.506  1.00  0.00    -0.132 NA  
ATOM     6   H18 UNL     1       1.530   0.947  -1.350  1.00  0.00     0.083 HD  
ENDROOT
BRANCH   1   7
ATOM     7   C4  UNL     1      -0.037  -1.533  -0.282  1.00  0.00     0.117 C   
BRANCH   7   8
ATOM     8   C2  UNL     1       0.525  -2.679  -1.164  1.00  0.00     0.037 C   
ATOM     9   C1  UNL     1      -0.489  -3.261  -2.155  1.00  0.00     0.014 C   
ATOM     10  C3  UNL     1       1.123  -3.806  -0.312  1.00  0.00     0.014 C   
ENDBRANCH   7   8
BRANCH   7  11
ATOM     11  N1  UNL     1      -1.278  -1.993   0.448  1.00  0.00     0.249 N   
ATOM     12  H9  UNL     1      -1.210  -2.980   0.705  1.00  0.00     0.199 HD  
ATOM     13  H10 UNL     1      -2.051  -1.907  -0.229  1.00  0.00     0.199 HD  
BRANCH  11  14
ATOM     14  C5  UNL     1      -1.657  -1.199   1.653  1.00  0.00     0.164 C   
BRANCH  14  15
ATOM     15  C6  UNL     1      -0.718  -1.425   2.806  1.00  0.00    -0.002 A   
ATOM     16  C7  UNL     1      -0.719  -2.659   3.501  1.00  0.00     0.012 A   
ATOM     17  C11 UNL     1       0.199  -0.425   3.175  1.00  0.00     0.045 A   
ATOM     18  C8  UNL     1       0.188  -2.901   4.538  1.00  0.00     0.037 A   
ATOM     19  C10 UNL     1       1.078  -0.696   4.202  1.00  0.00     0.109 A   
ATOM     20  C9  UNL     1       1.076  -1.900   4.862  1.00  0.00     0.108 A   
ATOM     21  O1  UNL     1       2.029   0.152   4.674  1.00  0.00    -0.316 OA  
ATOM     22  O2  UNL     1       2.026  -1.962   5.832  1.00  0.00    -0.316 OA  
ATOM     23  C12 UNL     1       2.613  -0.647   5.728  1.00  0.00     0.337 C   
ENDBRANCH  14  15
ENDBRANCH  11  14
ENDBRANCH   7  11
ENDBRANCH   1   7
BRANCH   3  24
ATOM     24  C15 UNL     1      -0.081   2.872  -2.773  1.00  0.00     0.179 C   
BRANCH  24  25
ATOM     25  C16 UNL     1       0.461   2.673  -4.196  1.00  0.00     0.188 C   
BRANCH  25  26
ATOM     26  O3  UNL     1       1.690   1.941  -4.218  1.00  0.00    -0.394 OA  
ATOM     27  H22 UNL     1       1.965   1.873  -5.153  1.00  0.00     0.210 HD  
ENDBRANCH  25  26
ENDBRANCH  24  25
BRANCH  24  28
ATOM     28  C17 UNL     1       0.790   3.718  -1.896  1.00  0.00     0.086 A   
ATOM     29  C18 UNL     1       2.123   4.081  -1.905  1.00  0.00     0.035 A   
ATOM     30  O4  UNL     1       0.174   4.278  -0.812  1.00  0.00    -0.301 OA  
ATOM     31  C19 UNL     1       2.326   4.904  -0.769  1.00  0.00     0.049 A   
ATOM     32  C20 UNL     1       1.107   5.001  -0.133  1.00  0.00     0.147 A   
ATOM     33  CL1 UNL     1       0.765   5.868   1.307  1.00  0.00    -0.056 Cl  
ENDBRANCH  24  28
ENDBRANCH   3  24
TORSDOF 9
