REMARK SMILES CC(C)C[C@H]([NH2+]Cc1ccc2c(c1)OCO2)c1cn(-c2ccc(CCO)cc2)nn1
REMARK SMILES IDX 20 1 21 2 22 3 23 4 27 5 28 6 19 7 17 8 18 9 30 10 29 11
REMARK SMILES IDX 5 12 4 13 2 14 1 15 3 16 6 17 7 20 8 21 9 22 13 23 10 24
REMARK SMILES IDX 12 25 11 26 14 27 16 28 15 29 24 30 25 31 26 32
REMARK H PARENT 6 18 6 19 26 33
ROOT
ATOM     1   C16 UNL     1       0.245   0.719   2.613  1.00  0.00     0.058 A   
ATOM     2   C17 UNL     1      -0.354   1.276   3.752  1.00  0.00     0.026 A   
ATOM     3   C18 UNL     1      -0.084   0.749   5.019  1.00  0.00     0.006 A   
ATOM     4   C19 UNL     1       0.786  -0.338   5.165  1.00  0.00    -0.046 A   
ATOM     5   C22 UNL     1       1.378  -0.891   4.023  1.00  0.00     0.006 A   
ATOM     6   C23 UNL     1       1.116  -0.368   2.753  1.00  0.00     0.026 A   
ENDROOT
BRANCH   1   7
ATOM     7   N2  UNL     1      -0.066   1.243   1.335  1.00  0.00    -0.181 N   
ATOM     8   C14 UNL     1      -0.344   1.577  -0.809  1.00  0.00     0.127 A   
ATOM     9   C15 UNL     1       0.395   0.846   0.094  1.00  0.00     0.135 A   
ATOM     10  N4  UNL     1      -1.168   2.428  -0.131  1.00  0.00    -0.131 NA  
ATOM     11  N3  UNL     1      -0.977   2.237   1.163  1.00  0.00    -0.071 NA  
BRANCH   8  12
ATOM     12  C5  UNL     1      -0.469   1.478  -2.296  1.00  0.00     0.114 C   
BRANCH  12  13
ATOM     13  C4  UNL     1       0.138   2.713  -2.989  1.00  0.00     0.064 C   
BRANCH  13  14
ATOM     14  C2  UNL     1       0.196   2.656  -4.531  1.00  0.00    -0.012 C   
ATOM     15  C1  UNL     1       1.041   1.489  -5.042  1.00  0.00     0.007 C   
ATOM     16  C3  UNL     1       0.761   3.974  -5.070  1.00  0.00     0.007 C   
ENDBRANCH  13  14
ENDBRANCH  12  13
BRANCH  12  17
ATOM     17  N1  UNL     1      -1.940   1.375  -2.648  1.00  0.00     0.249 N   
ATOM     18  H11 UNL     1      -2.162   1.931  -3.478  1.00  0.00     0.199 HD  
ATOM     19  H12 UNL     1      -2.447   1.835  -1.875  1.00  0.00     0.199 HD  
BRANCH  17  20
ATOM     20  C6  UNL     1      -2.493  -0.002  -2.821  1.00  0.00     0.164 C   
BRANCH  20  21
ATOM     21  C7  UNL     1      -2.269  -0.912  -1.645  1.00  0.00    -0.002 A   
ATOM     22  C8  UNL     1      -1.370  -2.002  -1.750  1.00  0.00     0.012 A   
ATOM     23  C12 UNL     1      -2.906  -0.662  -0.416  1.00  0.00     0.045 A   
ATOM     24  C9  UNL     1      -1.082  -2.809  -0.644  1.00  0.00     0.037 A   
ATOM     25  C11 UNL     1      -2.590  -1.469   0.658  1.00  0.00     0.109 A   
ATOM     26  C10 UNL     1      -1.701  -2.509   0.548  1.00  0.00     0.108 A   
ATOM     27  O1  UNL     1      -3.075  -1.333   1.920  1.00  0.00    -0.316 OA  
ATOM     28  O2  UNL     1      -1.516  -3.161   1.725  1.00  0.00    -0.316 OA  
ATOM     29  C13 UNL     1      -2.390  -2.412   2.597  1.00  0.00     0.337 C   
ENDBRANCH  20  21
ENDBRANCH  17  20
ENDBRANCH  12  17
ENDBRANCH   8  12
ENDBRANCH   1   7
BRANCH   4  30
ATOM     30  C20 UNL     1       1.070  -0.923   6.530  1.00  0.00     0.063 C   
BRANCH  30  31
ATOM     31  C21 UNL     1       0.204  -2.143   6.842  1.00  0.00     0.161 C   
BRANCH  31  32
ATOM     32  O3  UNL     1       0.638  -3.270   6.086  1.00  0.00    -0.396 OA  
ATOM     33  H27 UNL     1       0.139  -4.039   6.412  1.00  0.00     0.210 HD  
ENDBRANCH  31  32
ENDBRANCH  30  31
ENDBRANCH   4  30
TORSDOF 10
