REMARK SMILES c1cnc2cc(-n3cc([C@@H]([NH2+]Cc4ccc5c(c4)OCO5)C4CCCC4)nn3)ccc2n1
REMARK SMILES IDX 10 1 9 2 7 3 8 4 28 5 27 6 6 7 1 8 2 9 32 10 3 11 31 12 4 13
REMARK SMILES IDX 30 14 5 15 29 16 11 17 12 20 13 21 14 22 18 23 15 24 17 25
REMARK SMILES IDX 16 26 19 27 21 28 20 29 22 30 23 31 26 32 24 33 25 34
REMARK H PARENT 11 18 11 19
ROOT
ATOM     1   C8  UNL     1       1.995  -1.568   1.078  1.00  0.00     0.117 C   
ENDROOT
BRANCH   1   2
ATOM     2   C7  UNL     1       0.630  -1.713   0.486  1.00  0.00     0.127 A   
ATOM     3   N2  UNL     1      -1.325  -1.447  -0.454  1.00  0.00    -0.181 N   
ATOM     4   C6  UNL     1      -0.032  -0.965  -0.461  1.00  0.00     0.135 A   
ATOM     5   N5  UNL     1      -1.393  -2.505   0.395  1.00  0.00    -0.071 NA  
ATOM     6   N4  UNL     1      -0.220  -2.657   0.988  1.00  0.00    -0.131 NA  
BRANCH   3   7
ATOM     7   C5  UNL     1      -2.467  -0.949  -1.128  1.00  0.00     0.060 A   
ATOM     8   C1  UNL     1      -5.739   1.670  -3.715  1.00  0.00     0.132 A   
ATOM     9   C2  UNL     1      -4.528   2.321  -3.838  1.00  0.00     0.132 A   
ATOM     10  N6  UNL     1      -5.875   0.537  -2.992  1.00  0.00    -0.253 NA  
ATOM     11  N1  UNL     1      -3.401   1.868  -3.244  1.00  0.00    -0.253 NA  
ATOM     12  C24 UNL     1      -4.763   0.067  -2.398  1.00  0.00     0.089 A   
ATOM     13  C3  UNL     1      -3.520   0.734  -2.529  1.00  0.00     0.091 A   
ATOM     14  C23 UNL     1      -4.825  -1.091  -1.635  1.00  0.00     0.032 A   
ATOM     15  C4  UNL     1      -2.393   0.215  -1.902  1.00  0.00     0.056 A   
ATOM     16  C22 UNL     1      -3.694  -1.605  -0.996  1.00  0.00     0.028 A   
ENDBRANCH   3   7
ENDBRANCH   1   2
BRANCH   1  17
ATOM     17  N3  UNL     1       1.871  -1.551   2.592  1.00  0.00     0.249 N   
ATOM     18  H6  UNL     1       2.678  -2.005   3.029  1.00  0.00     0.199 HD  
ATOM     19  H7  UNL     1       1.060  -2.149   2.818  1.00  0.00     0.199 HD  
BRANCH  17  20
ATOM     20  C9  UNL     1       1.671  -0.215   3.232  1.00  0.00     0.164 C   
BRANCH  20  21
ATOM     21  C10 UNL     1       0.419   0.495   2.798  1.00  0.00    -0.002 A   
ATOM     22  C11 UNL     1      -0.851   0.035   3.223  1.00  0.00     0.012 A   
ATOM     23  C15 UNL     1       0.496   1.587   1.915  1.00  0.00     0.045 A   
ATOM     24  C12 UNL     1      -2.027   0.633   2.756  1.00  0.00     0.037 A   
ATOM     25  C14 UNL     1      -0.683   2.148   1.469  1.00  0.00     0.109 A   
ATOM     26  C13 UNL     1      -1.909   1.683   1.874  1.00  0.00     0.108 A   
ATOM     27  O1  UNL     1      -0.784   3.173   0.582  1.00  0.00    -0.316 OA  
ATOM     28  O2  UNL     1      -2.936   2.360   1.298  1.00  0.00    -0.316 OA  
ATOM     29  C16 UNL     1      -2.220   3.337   0.513  1.00  0.00     0.337 C   
ENDBRANCH  20  21
ENDBRANCH  17  20
ENDBRANCH   1  17
BRANCH   1  30
ATOM     30  C17 UNL     1       2.929  -2.724   0.669  1.00  0.00     0.043 C   
ATOM     31  C18 UNL     1       4.361  -2.596   1.211  1.00  0.00     0.010 C   
ATOM     32  C21 UNL     1       3.156  -2.812  -0.843  1.00  0.00     0.010 C   
ATOM     33  C19 UNL     1       5.258  -3.335   0.216  1.00  0.00     0.001 C   
ATOM     34  C20 UNL     1       4.367  -3.724  -0.957  1.00  0.00     0.001 C   
ENDBRANCH   1  30
TORSDOF 6
