REMARK SMILES Cc1cc(F)ccc1[C@@H](CO)n1cc([C@H](CC(C)C)[NH2+]Cc2ccc3c(c2)OCO3)nn1
REMARK SMILES IDX 12 1 13 2 14 3 31 4 32 5 9 7 8 8 2 9 3 10 4 11 7 12 6 13
REMARK SMILES IDX 1 14 5 15 10 16 11 17 15 19 16 20 17 21 18 22 19 23 20 24
REMARK SMILES IDX 21 27 22 28 23 29 27 30 24 31 26 32 25 33 28 34 30 35 29 36
REMARK H PARENT 13 6 11 18 20 25 20 26
ROOT
ATOM     1   N1  UNL     1       0.394   1.227   2.232  1.00  0.00    -0.202 N   
ATOM     2   C10 UNL     1       0.814   1.017   0.946  1.00  0.00     0.046 A   
ATOM     3   C11 UNL     1      -0.271   1.363   0.172  1.00  0.00     0.127 A   
ATOM     4   N3  UNL     1      -1.301   1.748   0.994  1.00  0.00    -0.132 NA  
ATOM     5   N4  UNL     1      -0.881   1.675   2.246  1.00  0.00    -0.075 NA  
ATOM     6   H11 UNL     1       1.810   0.664   0.717  1.00  0.00     0.083 HD  
ENDROOT
BRANCH   1   7
ATOM     7   C8  UNL     1       1.122   1.033   3.487  1.00  0.00     0.155 C   
BRANCH   7   8
ATOM     8   C7  UNL     1       1.708  -0.381   3.566  1.00  0.00    -0.020 A   
ATOM     9   C2  UNL     1       0.908  -1.485   3.968  1.00  0.00    -0.043 A   
ATOM     10  C3  UNL     1       1.472  -2.773   4.010  1.00  0.00     0.043 A   
ATOM     11  C4  UNL     1       2.797  -2.975   3.654  1.00  0.00     0.123 A   
ATOM     12  C6  UNL     1       3.051  -0.627   3.208  1.00  0.00     0.009 A   
ATOM     13  C5  UNL     1       3.591  -1.913   3.253  1.00  0.00     0.039 A   
ATOM     14  C1  UNL     1      -0.540  -1.338   4.364  1.00  0.00     0.045 C   
ATOM     15  F1  UNL     1       3.311  -4.210   3.693  1.00  0.00    -0.207 F   
ENDBRANCH   7   8
BRANCH   7  16
ATOM     16  C9  UNL     1       2.082   2.214   3.761  1.00  0.00     0.185 C   
BRANCH  16  17
ATOM     17  O1  UNL     1       3.007   2.453   2.701  1.00  0.00    -0.394 OA  
ATOM     18  H10 UNL     1       3.588   3.180   2.993  1.00  0.00     0.210 HD  
ENDBRANCH  16  17
ENDBRANCH   7  16
ENDBRANCH   1   7
BRANCH   3  19
ATOM     19  C12 UNL     1      -0.471   1.341  -1.309  1.00  0.00     0.114 C   
BRANCH  19  20
ATOM     20  C13 UNL     1       0.525   2.215  -2.095  1.00  0.00     0.064 C   
BRANCH  20  21
ATOM     21  C14 UNL     1       0.328   3.748  -2.093  1.00  0.00    -0.012 C   
ATOM     22  C15 UNL     1       1.347   4.385  -3.047  1.00  0.00     0.007 C   
ATOM     23  C16 UNL     1       0.471   4.382  -0.710  1.00  0.00     0.007 C   
ENDBRANCH  20  21
ENDBRANCH  19  20
BRANCH  19  24
ATOM     24  N2  UNL     1      -1.897   1.707  -1.628  1.00  0.00     0.249 N   
ATOM     25  H22 UNL     1      -2.474   1.162  -0.972  1.00  0.00     0.199 HD  
ATOM     26  H23 UNL     1      -2.055   2.676  -1.330  1.00  0.00     0.199 HD  
BRANCH  24  27
ATOM     27  C17 UNL     1      -2.401   1.486  -3.007  1.00  0.00     0.164 C   
BRANCH  27  28
ATOM     28  C18 UNL     1      -2.352   0.046  -3.435  1.00  0.00    -0.002 A   
ATOM     29  C19 UNL     1      -1.435  -0.374  -4.429  1.00  0.00     0.012 A   
ATOM     30  C23 UNL     1      -3.197  -0.901  -2.830  1.00  0.00     0.045 A   
ATOM     31  C20 UNL     1      -1.348  -1.719  -4.807  1.00  0.00     0.037 A   
ATOM     32  C22 UNL     1      -3.085  -2.219  -3.225  1.00  0.00     0.109 A   
ATOM     33  C21 UNL     1      -2.185  -2.617  -4.183  1.00  0.00     0.108 A   
ATOM     34  O2  UNL     1      -3.817  -3.254  -2.735  1.00  0.00    -0.316 OA  
ATOM     35  O3  UNL     1      -2.234  -3.955  -4.417  1.00  0.00    -0.316 OA  
ATOM     36  C24 UNL     1      -3.281  -4.357  -3.503  1.00  0.00     0.337 C   
ENDBRANCH  27  28
ENDBRANCH  24  27
ENDBRANCH  19  24
ENDBRANCH   3  19
TORSDOF 10
