REMARK SMILES Cc1cc(F)ccc1[C@H](CO)n1cc([C@H](CC(C)C)[NH2+]Cc2ccc3c(c2)OCO3)nn1
REMARK SMILES IDX 12 1 13 2 14 3 31 4 32 5 9 7 8 8 2 9 3 10 4 11 7 12 6 13
REMARK SMILES IDX 1 14 5 15 10 16 11 17 15 19 16 20 17 21 18 22 19 23 20 24
REMARK SMILES IDX 21 27 22 28 23 29 27 30 24 31 26 32 25 33 28 34 30 35 29 36
REMARK H PARENT 13 6 11 18 20 25 20 26
ROOT
ATOM     1   N1  UNL     1       0.847  -0.724   1.908  1.00  0.00    -0.202 N   
ATOM     2   C10 UNL     1      -0.067   0.205   1.488  1.00  0.00     0.046 A   
ATOM     3   C11 UNL     1       0.390   0.603   0.253  1.00  0.00     0.127 A   
ATOM     4   N3  UNL     1       1.555  -0.068  -0.023  1.00  0.00    -0.132 NA  
ATOM     5   N4  UNL     1       1.813  -0.887   0.980  1.00  0.00    -0.075 NA  
ATOM     6   H11 UNL     1      -0.912   0.498   2.094  1.00  0.00     0.083 HD  
ENDROOT
BRANCH   1   7
ATOM     7   C8  UNL     1       0.905  -1.473   3.165  1.00  0.00     0.155 C   
BRANCH   7   8
ATOM     8   C7  UNL     1      -0.481  -1.987   3.574  1.00  0.00    -0.020 A   
ATOM     9   C2  UNL     1      -1.024  -3.168   2.999  1.00  0.00    -0.043 A   
ATOM     10  C3  UNL     1      -2.303  -3.607   3.392  1.00  0.00     0.043 A   
ATOM     11  C4  UNL     1      -3.039  -2.889   4.324  1.00  0.00     0.123 A   
ATOM     12  C6  UNL     1      -1.262  -1.282   4.515  1.00  0.00     0.009 A   
ATOM     13  C5  UNL     1      -2.530  -1.731   4.887  1.00  0.00     0.039 A   
ATOM     14  C1  UNL     1      -0.270  -4.002   1.995  1.00  0.00     0.045 C   
ATOM     15  F1  UNL     1      -4.256  -3.316   4.680  1.00  0.00    -0.207 F   
ENDBRANCH   7   8
BRANCH   7  16
ATOM     16  C9  UNL     1       1.710  -0.693   4.228  1.00  0.00     0.185 C   
BRANCH  16  17
ATOM     17  O1  UNL     1       1.209   0.626   4.453  1.00  0.00    -0.394 OA  
ATOM     18  H10 UNL     1       1.770   1.025   5.145  1.00  0.00     0.210 HD  
ENDBRANCH  16  17
ENDBRANCH   7  16
ENDBRANCH   1   7
BRANCH   3  19
ATOM     19  C12 UNL     1      -0.138   1.625  -0.706  1.00  0.00     0.114 C   
BRANCH  19  20
ATOM     20  C13 UNL     1      -1.630   1.443  -1.031  1.00  0.00     0.064 C   
BRANCH  20  21
ATOM     21  C14 UNL     1      -2.250   2.503  -1.966  1.00  0.00    -0.012 C   
ATOM     22  C15 UNL     1      -2.184   3.911  -1.373  1.00  0.00     0.007 C   
ATOM     23  C16 UNL     1      -3.707   2.134  -2.262  1.00  0.00     0.007 C   
ENDBRANCH  20  21
ENDBRANCH  19  20
BRANCH  19  24
ATOM     24  N2  UNL     1       0.694   1.695  -1.957  1.00  0.00     0.249 N   
ATOM     25  H22 UNL     1       1.672   1.703  -1.636  1.00  0.00     0.199 HD  
ATOM     26  H23 UNL     1       0.553   2.586  -2.441  1.00  0.00     0.199 HD  
BRANCH  24  27
ATOM     27  C17 UNL     1       0.595   0.572  -2.934  1.00  0.00     0.164 C   
BRANCH  27  28
ATOM     28  C18 UNL     1       1.634   0.732  -4.009  1.00  0.00    -0.002 A   
ATOM     29  C19 UNL     1       1.342   1.464  -5.185  1.00  0.00     0.012 A   
ATOM     30  C23 UNL     1       2.925   0.216  -3.819  1.00  0.00     0.045 A   
ATOM     31  C20 UNL     1       2.320   1.671  -6.163  1.00  0.00     0.037 A   
ATOM     32  C22 UNL     1       3.864   0.435  -4.805  1.00  0.00     0.109 A   
ATOM     33  C21 UNL     1       3.570   1.143  -5.942  1.00  0.00     0.108 A   
ATOM     34  O2  UNL     1       5.153   0.007  -4.778  1.00  0.00    -0.316 OA  
ATOM     35  O3  UNL     1       4.636   1.251  -6.774  1.00  0.00    -0.316 OA  
ATOM     36  C24 UNL     1       5.635   0.510  -6.043  1.00  0.00     0.337 C   
ENDBRANCH  27  28
ENDBRANCH  24  27
ENDBRANCH  19  24
ENDBRANCH   3  19
TORSDOF 10
