REMARK SMILES CC(C)C[C@H]([NH2+]Cc1ccc2c(c1)OCO2)c1cn(Cc2ccnc(Cl)c2)nn1
REMARK SMILES IDX 17 1 18 2 19 3 28 4 29 5 5 7 4 8 2 9 1 10 3 11 6 12 7 15
REMARK SMILES IDX 8 16 9 17 13 18 10 19 12 20 11 21 14 22 16 23 15 24 20 25
REMARK SMILES IDX 21 26 22 27 27 28 23 29 25 30 24 31 26 32
REMARK H PARENT 18 6 6 13 6 14
ROOT
ATOM     1   C14 UNL     1       0.605  -1.332  -0.780  1.00  0.00     0.127 A   
ATOM     2   C15 UNL     1      -0.019  -0.804  -1.889  1.00  0.00     0.046 A   
ATOM     3   N2  UNL     1      -0.551  -1.896  -2.519  1.00  0.00    -0.208 N   
ATOM     4   N4  UNL     1      -0.246  -3.027  -1.856  1.00  0.00    -0.076 NA  
ATOM     5   N5  UNL     1       0.477  -2.696  -0.798  1.00  0.00    -0.132 NA  
ATOM     6   H20 UNL     1      -0.174   0.205  -2.244  1.00  0.00     0.083 HD  
ENDROOT
BRANCH   1   7
ATOM     7   C5  UNL     1       1.272  -0.655   0.372  1.00  0.00     0.114 C   
BRANCH   7   8
ATOM     8   C4  UNL     1       2.803  -0.637   0.180  1.00  0.00     0.064 C   
BRANCH   8   9
ATOM     9   C2  UNL     1       3.624   0.080   1.273  1.00  0.00    -0.012 C   
ATOM     10  C1  UNL     1       3.199   1.536   1.467  1.00  0.00     0.007 C   
ATOM     11  C3  UNL     1       5.113   0.020   0.918  1.00  0.00     0.007 C   
ENDBRANCH   8   9
ENDBRANCH   7   8
BRANCH   7  12
ATOM     12  N1  UNL     1       0.952  -1.336   1.684  1.00  0.00     0.249 N   
ATOM     13  H11 UNL     1       1.426  -0.855   2.451  1.00  0.00     0.199 HD  
ATOM     14  H12 UNL     1       1.339  -2.287   1.629  1.00  0.00     0.199 HD  
BRANCH  12  15
ATOM     15  C6  UNL     1      -0.496  -1.477   2.041  1.00  0.00     0.164 C   
BRANCH  15  16
ATOM     16  C7  UNL     1      -1.269  -0.189   1.995  1.00  0.00    -0.002 A   
ATOM     17  C8  UNL     1      -2.311  -0.025   1.050  1.00  0.00     0.012 A   
ATOM     18  C12 UNL     1      -0.960   0.865   2.871  1.00  0.00     0.045 A   
ATOM     19  C9  UNL     1      -3.027   1.174   0.965  1.00  0.00     0.037 A   
ATOM     20  C11 UNL     1      -1.682   2.035   2.758  1.00  0.00     0.109 A   
ATOM     21  C10 UNL     1      -2.685   2.187   1.831  1.00  0.00     0.108 A   
ATOM     22  O1  UNL     1      -1.502   3.149   3.516  1.00  0.00    -0.316 OA  
ATOM     23  O2  UNL     1      -3.262   3.415   1.889  1.00  0.00    -0.316 OA  
ATOM     24  C13 UNL     1      -2.539   4.009   2.989  1.00  0.00     0.337 C   
ENDBRANCH  15  16
ENDBRANCH  12  15
ENDBRANCH   7  12
ENDBRANCH   1   7
BRANCH   3  25
ATOM     25  C16 UNL     1      -1.456  -1.920  -3.658  1.00  0.00     0.169 C   
BRANCH  25  26
ATOM     26  C17 UNL     1      -2.818  -1.418  -3.247  1.00  0.00    -0.024 A   
ATOM     27  C18 UNL     1      -3.267  -0.148  -3.630  1.00  0.00     0.025 A   
ATOM     28  C21 UNL     1      -3.644  -2.193  -2.423  1.00  0.00     0.046 A   
ATOM     29  C19 UNL     1      -4.492   0.297  -3.155  1.00  0.00     0.113 A   
ATOM     30  C20 UNL     1      -4.846  -1.652  -2.000  1.00  0.00     0.129 A   
ATOM     31  N3  UNL     1      -5.280  -0.421  -2.329  1.00  0.00    -0.245 NA  
ATOM     32  CL1 UNL     1      -5.870  -2.516  -0.933  1.00  0.00    -0.062 Cl  
ENDBRANCH  25  26
ENDBRANCH   3  25
TORSDOF 8
