REMARK SMILES c1ccc2c(c1)OC[C@@H](Cn1cc([C@@H]([NH2+]Cc3ccc4c(c3)OCO4)C3CCCC3)nn1)O2
REMARK SMILES IDX 14 1 13 2 11 3 12 4 32 5 31 6 10 8 9 9 1 10 2 11 6 12 3 13
REMARK SMILES IDX 5 14 4 15 7 16 33 17 8 18 15 19 16 22 17 23 18 24 22 25
REMARK SMILES IDX 19 26 21 27 20 28 23 29 25 30 24 31 26 32 27 33 30 34 28 35
REMARK SMILES IDX 29 36
REMARK H PARENT 12 7 15 20 15 21
ROOT
ATOM     1   C12 UNL     1      -1.777  -0.999  -0.770  1.00  0.00     0.117 C   
ENDROOT
BRANCH   1   2
ATOM     2   C11 UNL     1      -0.444  -0.855  -0.113  1.00  0.00     0.127 A   
ATOM     3   N1  UNL     1       1.344  -0.267   0.944  1.00  0.00    -0.209 N   
ATOM     4   C10 UNL     1       0.024   0.056   0.806  1.00  0.00     0.045 A   
ATOM     5   N4  UNL     1       1.670  -1.319   0.171  1.00  0.00    -0.076 NA  
ATOM     6   N3  UNL     1       0.580  -1.695  -0.478  1.00  0.00    -0.132 NA  
ATOM     7   H10 UNL     1      -0.426   0.890   1.328  1.00  0.00     0.083 HD  
BRANCH   3   8
ATOM     8   C9  UNL     1       2.342   0.384   1.771  1.00  0.00     0.169 C   
BRANCH   8   9
ATOM     9   C8  UNL     1       2.961   1.587   1.051  1.00  0.00     0.171 C   
ATOM     10  C1  UNL     1       1.452   5.135   4.150  1.00  0.00     0.003 A   
ATOM     11  C2  UNL     1       0.581   5.181   3.059  1.00  0.00     0.003 A   
ATOM     12  C6  UNL     1       2.534   4.253   4.146  1.00  0.00     0.036 A   
ATOM     13  C3  UNL     1       0.784   4.337   1.966  1.00  0.00     0.036 A   
ATOM     14  C5  UNL     1       2.746   3.424   3.047  1.00  0.00     0.105 A   
ATOM     15  C4  UNL     1       1.859   3.450   1.967  1.00  0.00     0.106 A   
ATOM     16  O1  UNL     1       3.829   2.585   3.098  1.00  0.00    -0.341 OA  
ATOM     17  O4  UNL     1       1.976   2.625   0.879  1.00  0.00    -0.336 OA  
ATOM     18  C7  UNL     1       4.182   2.133   1.788  1.00  0.00     0.202 C   
ENDBRANCH   8   9
ENDBRANCH   3   8
ENDBRANCH   1   2
BRANCH   1  19
ATOM     19  N2  UNL     1      -1.567  -1.409  -2.215  1.00  0.00     0.249 N   
ATOM     20  H12 UNL     1      -0.655  -1.894  -2.237  1.00  0.00     0.199 HD  
ATOM     21  H13 UNL     1      -2.256  -2.107  -2.506  1.00  0.00     0.199 HD  
BRANCH  19  22
ATOM     22  C13 UNL     1      -1.539  -0.306  -3.217  1.00  0.00     0.164 C   
BRANCH  22  23
ATOM     23  C14 UNL     1      -0.398   0.656  -3.042  1.00  0.00    -0.002 A   
ATOM     24  C15 UNL     1       0.927   0.256  -3.344  1.00  0.00     0.012 A   
ATOM     25  C19 UNL     1      -0.630   1.953  -2.552  1.00  0.00     0.045 A   
ATOM     26  C16 UNL     1       2.004   1.128  -3.153  1.00  0.00     0.037 A   
ATOM     27  C18 UNL     1       0.454   2.788  -2.378  1.00  0.00     0.109 A   
ATOM     28  C17 UNL     1       1.734   2.387  -2.669  1.00  0.00     0.108 A   
ATOM     29  O2  UNL     1       0.403   4.063  -1.910  1.00  0.00    -0.316 OA  
ATOM     30  O3  UNL     1       2.652   3.357  -2.420  1.00  0.00    -0.316 OA  
ATOM     31  C20 UNL     1       1.798   4.438  -1.987  1.00  0.00     0.337 C   
ENDBRANCH  22  23
ENDBRANCH  19  22
ENDBRANCH   1  19
BRANCH   1  32
ATOM     32  C21 UNL     1      -2.657  -2.058  -0.077  1.00  0.00     0.043 C   
ATOM     33  C22 UNL     1      -4.065  -2.184  -0.670  1.00  0.00     0.010 C   
ATOM     34  C25 UNL     1      -2.972  -1.724   1.385  1.00  0.00     0.010 C   
ATOM     35  C23 UNL     1      -4.877  -2.889   0.411  1.00  0.00     0.001 C   
ATOM     36  C24 UNL     1      -4.164  -2.608   1.731  1.00  0.00     0.001 C   
ENDBRANCH   1  32
TORSDOF 7
