REMARK SMILES c1ccc2c(c1)OC[C@H](Cn1cc([C@@H]([NH2+]Cc3ccc4c(c3)OCO4)C3CCCC3)nn1)O2
REMARK SMILES IDX 14 1 13 2 11 3 12 4 32 5 31 6 10 8 9 9 1 10 2 11 6 12 3 13
REMARK SMILES IDX 5 14 4 15 7 16 33 17 8 18 15 19 16 22 17 23 18 24 22 25
REMARK SMILES IDX 19 26 21 27 20 28 23 29 25 30 24 31 26 32 27 33 30 34 28 35
REMARK SMILES IDX 29 36
REMARK H PARENT 12 7 15 20 15 21
ROOT
ATOM     1   C12 UNL     1       1.057   0.448  -0.914  1.00  0.00     0.117 C   
ENDROOT
BRANCH   1   2
ATOM     2   C11 UNL     1       1.500  -0.387   0.241  1.00  0.00     0.127 A   
ATOM     3   N1  UNL     1       1.793  -1.464   2.090  1.00  0.00    -0.209 N   
ATOM     4   C10 UNL     1       0.922  -0.614   1.471  1.00  0.00     0.045 A   
ATOM     5   N4  UNL     1       2.871  -1.697   1.320  1.00  0.00    -0.076 NA  
ATOM     6   N3  UNL     1       2.696  -1.056   0.176  1.00  0.00    -0.132 NA  
ATOM     7   H10 UNL     1      -0.001  -0.291   1.933  1.00  0.00     0.083 HD  
BRANCH   3   8
ATOM     8   C9  UNL     1       1.675  -2.070   3.402  1.00  0.00     0.169 C   
BRANCH   8   9
ATOM     9   C8  UNL     1       1.009  -3.448   3.319  1.00  0.00     0.171 C   
ATOM     10  C1  UNL     1      -3.027  -2.454   5.999  1.00  0.00     0.003 A   
ATOM     11  C2  UNL     1      -3.432  -2.412   4.663  1.00  0.00     0.003 A   
ATOM     12  C6  UNL     1      -1.718  -2.816   6.321  1.00  0.00     0.036 A   
ATOM     13  C3  UNL     1      -2.526  -2.717   3.646  1.00  0.00     0.036 A   
ATOM     14  C5  UNL     1      -0.820  -3.138   5.307  1.00  0.00     0.105 A   
ATOM     15  C4  UNL     1      -1.216  -3.066   3.968  1.00  0.00     0.106 A   
ATOM     16  O1  UNL     1       0.448  -3.494   5.688  1.00  0.00    -0.341 OA  
ATOM     17  O4  UNL     1      -0.369  -3.310   2.918  1.00  0.00    -0.336 OA  
ATOM     18  C7  UNL     1       1.107  -4.209   4.639  1.00  0.00     0.202 C   
ENDBRANCH   8   9
ENDBRANCH   3   8
ENDBRANCH   1   2
BRANCH   1  19
ATOM     19  N2  UNL     1       2.257   1.104  -1.568  1.00  0.00     0.249 N   
ATOM     20  H12 UNL     1       2.921   0.345  -1.775  1.00  0.00     0.199 HD  
ATOM     21  H13 UNL     1       1.992   1.530  -2.459  1.00  0.00     0.199 HD  
BRANCH  19  22
ATOM     22  C13 UNL     1       2.983   2.121  -0.750  1.00  0.00     0.164 C   
BRANCH  22  23
ATOM     23  C14 UNL     1       2.140   3.324  -0.429  1.00  0.00    -0.002 A   
ATOM     24  C15 UNL     1       1.678   3.537   0.892  1.00  0.00     0.012 A   
ATOM     25  C19 UNL     1       1.774   4.225  -1.443  1.00  0.00     0.045 A   
ATOM     26  C16 UNL     1       0.857   4.626   1.201  1.00  0.00     0.037 A   
ATOM     27  C18 UNL     1       0.961   5.287  -1.105  1.00  0.00     0.109 A   
ATOM     28  C17 UNL     1       0.514   5.482   0.178  1.00  0.00     0.108 A   
ATOM     29  O2  UNL     1       0.507   6.238  -1.962  1.00  0.00    -0.316 OA  
ATOM     30  O3  UNL     1      -0.276   6.581   0.292  1.00  0.00    -0.316 OA  
ATOM     31  C20 UNL     1      -0.262   7.072  -1.065  1.00  0.00     0.337 C   
ENDBRANCH  22  23
ENDBRANCH  19  22
ENDBRANCH   1  19
BRANCH   1  32
ATOM     32  C21 UNL     1       0.325  -0.392  -1.983  1.00  0.00     0.043 C   
ATOM     33  C22 UNL     1      -0.972  -1.029  -1.474  1.00  0.00     0.010 C   
ATOM     34  C25 UNL     1      -0.175   0.417  -3.186  1.00  0.00     0.010 C   
ATOM     35  C23 UNL     1      -1.685  -1.454  -2.748  1.00  0.00     0.001 C   
ATOM     36  C24 UNL     1      -1.306  -0.410  -3.794  1.00  0.00     0.001 C   
ENDBRANCH   1  32
TORSDOF 7
