REMARK SMILES Cc1cc(O)c(CCn2cc([C@@H]([NH2+]Cc3ccc4c(c3)OCO4)C(C)(C)C)nn2)cc1C
REMARK SMILES IDX 9 1 10 2 11 3 28 4 29 5 8 7 7 8 6 9 2 10 3 11 31 12 4 13
REMARK SMILES IDX 30 14 1 15 32 16 5 17 12 19 13 20 14 23 15 24 16 25 20 26
REMARK SMILES IDX 17 27 19 28 18 29 21 30 23 31 22 32 24 33 25 34 26 35 27 36
REMARK H PARENT 10 6 5 18 13 21 13 22
ROOT
ATOM     1   N1  UNL     1      -3.007   1.849   0.844  1.00  0.00    -0.212 N   
ATOM     2   C8  UNL     1      -1.911   1.544   1.599  1.00  0.00     0.045 A   
ATOM     3   C9  UNL     1      -0.884   2.223   0.981  1.00  0.00     0.127 A   
ATOM     4   N3  UNL     1      -1.383   2.911  -0.095  1.00  0.00    -0.132 NA  
ATOM     5   N4  UNL     1      -2.685   2.687  -0.159  1.00  0.00    -0.076 NA  
ATOM     6   H10 UNL     1      -1.958   0.866   2.440  1.00  0.00     0.083 HD  
ENDROOT
BRANCH   1   7
ATOM     7   C7  UNL     1      -4.353   1.336   0.984  1.00  0.00     0.139 C   
BRANCH   7   8
ATOM     8   C6  UNL     1      -4.786   0.458  -0.191  1.00  0.00     0.059 C   
BRANCH   8   9
ATOM     9   C5  UNL     1      -3.892  -0.738  -0.435  1.00  0.00    -0.016 A   
ATOM     10  C2  UNL     1      -2.253  -2.982  -0.966  1.00  0.00    -0.046 A   
ATOM     11  C3  UNL     1      -3.043  -2.927   0.193  1.00  0.00     0.037 A   
ATOM     12  C24 UNL     1      -2.276  -1.898  -1.867  1.00  0.00    -0.048 A   
ATOM     13  C4  UNL     1      -3.847  -1.817   0.449  1.00  0.00     0.075 A   
ATOM     14  C23 UNL     1      -3.099  -0.792  -1.592  1.00  0.00     0.010 A   
ATOM     15  C1  UNL     1      -1.412  -4.203  -1.228  1.00  0.00     0.045 C   
ATOM     16  C25 UNL     1      -1.472  -1.918  -3.139  1.00  0.00     0.044 C   
BRANCH  13  17
ATOM     17  O1  UNL     1      -4.609  -1.769   1.581  1.00  0.00    -0.361 OA  
ATOM     18  H5  UNL     1      -4.677  -2.668   1.948  1.00  0.00     0.218 HD  
ENDBRANCH  13  17
ENDBRANCH   8   9
ENDBRANCH   7   8
ENDBRANCH   1   7
BRANCH   3  19
ATOM     19  C10 UNL     1       0.591   2.199   1.229  1.00  0.00     0.120 C   
BRANCH  19  20
ATOM     20  N2  UNL     1       1.308   1.995  -0.092  1.00  0.00     0.250 N   
ATOM     21  H12 UNL     1       2.317   2.112   0.016  1.00  0.00     0.199 HD  
ATOM     22  H13 UNL     1       0.972   2.739  -0.719  1.00  0.00     0.199 HD  
BRANCH  20  23
ATOM     23  C11 UNL     1       1.052   0.697  -0.791  1.00  0.00     0.164 C   
BRANCH  23  24
ATOM     24  C12 UNL     1       1.536  -0.498  -0.018  1.00  0.00    -0.002 A   
ATOM     25  C13 UNL     1       0.609  -1.323   0.662  1.00  0.00     0.012 A   
ATOM     26  C17 UNL     1       2.908  -0.787   0.066  1.00  0.00     0.045 A   
ATOM     27  C14 UNL     1       1.035  -2.423   1.412  1.00  0.00     0.037 A   
ATOM     28  C16 UNL     1       3.296  -1.879   0.816  1.00  0.00     0.109 A   
ATOM     29  C15 UNL     1       2.387  -2.674   1.469  1.00  0.00     0.108 A   
ATOM     30  O2  UNL     1       4.575  -2.294   1.003  1.00  0.00    -0.316 OA  
ATOM     31  O3  UNL     1       2.979  -3.690   2.149  1.00  0.00    -0.316 OA  
ATOM     32  C18 UNL     1       4.368  -3.466   1.825  1.00  0.00     0.337 C   
ENDBRANCH  23  24
ENDBRANCH  20  23
ENDBRANCH  19  20
BRANCH  19  33
ATOM     33  C19 UNL     1       1.147   3.471   1.962  1.00  0.00     0.010 C   
ATOM     34  C20 UNL     1       0.388   3.690   3.291  1.00  0.00     0.017 C   
ATOM     35  C21 UNL     1       1.027   4.758   1.120  1.00  0.00     0.017 C   
ATOM     36  C22 UNL     1       2.637   3.271   2.323  1.00  0.00     0.017 C   
ENDBRANCH  19  33
ENDBRANCH   3  19
TORSDOF 9
