REMARK SMILES COc1ccc(Cn2cc([C@@H]([NH2+]Cc3ccc4c(c3)OCO4)C(C)C)nn2)cc1F
REMARK SMILES IDX 8 1 9 2 10 3 26 4 27 5 7 7 6 8 3 9 4 10 29 11 5 12 28 13
REMARK SMILES IDX 30 14 2 15 1 16 11 17 12 18 13 21 14 22 15 23 19 24 16 25
REMARK SMILES IDX 18 26 17 27 20 28 22 29 21 30 23 31 24 32 25 33
REMARK H PARENT 9 6 12 19 12 20
ROOT
ATOM     1   N1  UNL     1      -0.133   1.261  -1.312  1.00  0.00    -0.208 N   
ATOM     2   C7  UNL     1      -1.372   0.712  -1.125  1.00  0.00     0.046 A   
ATOM     3   C8  UNL     1      -1.819   1.290   0.042  1.00  0.00     0.127 A   
ATOM     4   N3  UNL     1      -0.859   2.150   0.514  1.00  0.00    -0.132 NA  
ATOM     5   N4  UNL     1       0.164   2.128  -0.324  1.00  0.00    -0.076 NA  
ATOM     6   H8  UNL     1      -1.791  -0.018  -1.803  1.00  0.00     0.083 HD  
ENDROOT
BRANCH   1   7
ATOM     7   C6  UNL     1       0.797   1.032  -2.405  1.00  0.00     0.169 C   
BRANCH   7   8
ATOM     8   C5  UNL     1       1.567  -0.247  -2.200  1.00  0.00    -0.025 A   
ATOM     9   C2  UNL     1       2.987  -2.651  -1.763  1.00  0.00     0.110 A   
ATOM     10  C3  UNL     1       3.420  -1.460  -1.178  1.00  0.00     0.037 A   
ATOM     11  C22 UNL     1       1.843  -2.622  -2.565  1.00  0.00     0.153 A   
ATOM     12  C4  UNL     1       2.712  -0.269  -1.391  1.00  0.00     0.008 A   
ATOM     13  C21 UNL     1       1.137  -1.442  -2.788  1.00  0.00     0.047 A   
ATOM     14  F1  UNL     1       1.385  -3.751  -3.127  1.00  0.00    -0.204 F   
BRANCH   9  15
ATOM     15  O1  UNL     1       3.574  -3.877  -1.611  1.00  0.00    -0.346 OA  
ATOM     16  C1  UNL     1       4.752  -3.939  -0.816  1.00  0.00     0.203 C   
ENDBRANCH   9  15
ENDBRANCH   7   8
ENDBRANCH   1   7
BRANCH   3  17
ATOM     17  C9  UNL     1      -3.068   1.090   0.837  1.00  0.00     0.117 C   
BRANCH  17  18
ATOM     18  N2  UNL     1      -2.751   1.246   2.312  1.00  0.00     0.249 N   
ATOM     19  H10 UNL     1      -3.470   1.805   2.781  1.00  0.00     0.199 HD  
ATOM     20  H11 UNL     1      -1.886   1.810   2.356  1.00  0.00     0.199 HD  
BRANCH  18  21
ATOM     21  C10 UNL     1      -2.539  -0.010   3.083  1.00  0.00     0.164 C   
BRANCH  21  22
ATOM     22  C11 UNL     1      -1.404  -0.863   2.591  1.00  0.00    -0.002 A   
ATOM     23  C12 UNL     1      -0.063  -0.431   2.732  1.00  0.00     0.012 A   
ATOM     24  C16 UNL     1      -1.667  -2.102   1.982  1.00  0.00     0.045 A   
ATOM     25  C13 UNL     1       1.000  -1.221   2.280  1.00  0.00     0.037 A   
ATOM     26  C15 UNL     1      -0.596  -2.857   1.548  1.00  0.00     0.109 A   
ATOM     27  C14 UNL     1       0.700  -2.431   1.697  1.00  0.00     0.108 A   
ATOM     28  O2  UNL     1      -0.679  -4.074   0.951  1.00  0.00    -0.316 OA  
ATOM     29  O3  UNL     1       1.599  -3.333   1.224  1.00  0.00    -0.316 OA  
ATOM     30  C17 UNL     1       0.721  -4.381   0.758  1.00  0.00     0.337 C   
ENDBRANCH  21  22
ENDBRANCH  18  21
ENDBRANCH  17  18
BRANCH  17  31
ATOM     31  C18 UNL     1      -4.213   2.071   0.471  1.00  0.00     0.037 C   
ATOM     32  C19 UNL     1      -3.845   3.553   0.621  1.00  0.00     0.014 C   
ATOM     33  C20 UNL     1      -4.745   1.813  -0.943  1.00  0.00     0.014 C   
ENDBRANCH  17  31
ENDBRANCH   3  17
TORSDOF 8
