REMARK SMILES Cc1cc(O)c(CCn2cc([C@@H]([NH2+]Cc3ccc4c(c3)OCO4)C3CCCC3)nn2)cc1C
REMARK SMILES IDX 9 1 10 2 11 3 29 4 30 5 8 7 7 8 6 9 2 10 3 11 32 12 4 13
REMARK SMILES IDX 31 14 1 15 33 16 5 17 12 19 13 20 14 23 15 24 16 25 20 26
REMARK SMILES IDX 17 27 19 28 18 29 21 30 23 31 22 32 24 33 25 34 28 35 26 36
REMARK SMILES IDX 27 37
REMARK H PARENT 10 6 5 18 13 21 13 22
ROOT
ATOM     1   N1  UNL     1      -0.147  -1.635   3.459  1.00  0.00    -0.212 N   
ATOM     2   C8  UNL     1      -1.086  -0.810   2.904  1.00  0.00     0.045 A   
ATOM     3   C9  UNL     1      -1.459  -1.465   1.753  1.00  0.00     0.127 A   
ATOM     4   N3  UNL     1      -0.759  -2.640   1.655  1.00  0.00    -0.132 NA  
ATOM     5   N4  UNL     1       0.031  -2.736   2.711  1.00  0.00    -0.076 NA  
ATOM     6   H10 UNL     1      -1.350   0.141   3.345  1.00  0.00     0.083 HD  
ENDROOT
BRANCH   1   7
ATOM     7   C7  UNL     1       0.658  -1.406   4.641  1.00  0.00     0.139 C   
BRANCH   7   8
ATOM     8   C6  UNL     1       2.126  -1.130   4.309  1.00  0.00     0.059 C   
BRANCH   8   9
ATOM     9   C5  UNL     1       2.341   0.067   3.407  1.00  0.00    -0.016 A   
ATOM     10  C2  UNL     1       2.796   2.282   1.709  1.00  0.00    -0.046 A   
ATOM     11  C3  UNL     1       2.301   2.462   3.010  1.00  0.00     0.037 A   
ATOM     12  C25 UNL     1       3.091   0.980   1.259  1.00  0.00    -0.048 A   
ATOM     13  C4  UNL     1       2.082   1.366   3.841  1.00  0.00     0.075 A   
ATOM     14  C24 UNL     1       2.849  -0.112   2.110  1.00  0.00     0.010 A   
ATOM     15  C1  UNL     1       3.054   3.490   0.847  1.00  0.00     0.045 C   
ATOM     16  C26 UNL     1       3.691   0.736  -0.099  1.00  0.00     0.044 C   
BRANCH  13  17
ATOM     17  O1  UNL     1       1.609   1.555   5.107  1.00  0.00    -0.361 OA  
ATOM     18  H5  UNL     1       1.912   2.429   5.417  1.00  0.00     0.218 HD  
ENDBRANCH  13  17
ENDBRANCH   8   9
ENDBRANCH   7   8
ENDBRANCH   1   7
BRANCH   3  19
ATOM     19  C10 UNL     1      -2.346  -1.052   0.625  1.00  0.00     0.117 C   
BRANCH  19  20
ATOM     20  N2  UNL     1      -1.564  -1.167  -0.660  1.00  0.00     0.249 N   
ATOM     21  H12 UNL     1      -2.168  -1.114  -1.482  1.00  0.00     0.199 HD  
ATOM     22  H13 UNL     1      -1.137  -2.104  -0.667  1.00  0.00     0.199 HD  
BRANCH  20  23
ATOM     23  C11 UNL     1      -0.469  -0.168  -0.817  1.00  0.00     0.164 C   
BRANCH  23  24
ATOM     24  C12 UNL     1       0.327  -0.449  -2.060  1.00  0.00    -0.002 A   
ATOM     25  C13 UNL     1       1.379  -1.396  -2.026  1.00  0.00     0.012 A   
ATOM     26  C17 UNL     1       0.009   0.195  -3.266  1.00  0.00     0.045 A   
ATOM     27  C14 UNL     1       2.124  -1.681  -3.175  1.00  0.00     0.037 A   
ATOM     28  C16 UNL     1       0.767  -0.108  -4.378  1.00  0.00     0.109 A   
ATOM     29  C15 UNL     1       1.800  -1.010  -4.331  1.00  0.00     0.108 A   
ATOM     30  O2  UNL     1       0.589   0.414  -5.619  1.00  0.00    -0.316 OA  
ATOM     31  O3  UNL     1       2.411  -1.160  -5.535  1.00  0.00    -0.316 OA  
ATOM     32  C18 UNL     1       1.631  -0.265  -6.356  1.00  0.00     0.337 C   
ENDBRANCH  23  24
ENDBRANCH  20  23
ENDBRANCH  19  20
BRANCH  19  33
ATOM     33  C19 UNL     1      -3.603  -1.938   0.527  1.00  0.00     0.043 C   
ATOM     34  C20 UNL     1      -4.539  -1.782   1.736  1.00  0.00     0.010 C   
ATOM     35  C23 UNL     1      -4.527  -1.628  -0.652  1.00  0.00     0.010 C   
ATOM     36  C21 UNL     1      -5.941  -2.128   1.235  1.00  0.00     0.001 C   
ATOM     37  C22 UNL     1      -5.812  -2.343  -0.268  1.00  0.00     0.001 C   
ENDBRANCH  19  33
ENDBRANCH   3  19
TORSDOF 9
