REMARK SMILES COc1cc(C)ccc1CCn1cc([C@@H]([NH2+]Cc2ccc3c(c2)OCO3)C(C)C)nn1
REMARK SMILES IDX 12 1 13 2 14 3 30 4 31 5 11 7 10 8 9 9 3 10 4 11 5 12 8 13
REMARK SMILES IDX 7 14 6 15 2 16 1 17 15 18 16 19 17 22 18 23 19 24 23 25
REMARK SMILES IDX 20 26 22 27 21 28 24 29 26 30 25 31 27 32 28 33 29 34
REMARK H PARENT 13 6 16 20 16 21
ROOT
ATOM     1   N1  UNL     1       1.136  -0.737   2.465  1.00  0.00    -0.212 N   
ATOM     2   C11 UNL     1       1.160   0.608   2.223  1.00  0.00     0.045 A   
ATOM     3   C12 UNL     1      -0.168   0.969   2.248  1.00  0.00     0.127 A   
ATOM     4   N3  UNL     1      -0.932  -0.137   2.524  1.00  0.00    -0.132 NA  
ATOM     5   N4  UNL     1      -0.121  -1.172   2.666  1.00  0.00    -0.076 NA  
ATOM     6   H14 UNL     1       2.076   1.139   2.002  1.00  0.00     0.083 HD  
ENDROOT
BRANCH   1   7
ATOM     7   C10 UNL     1       2.241  -1.669   2.390  1.00  0.00     0.139 C   
BRANCH   7   8
ATOM     8   C9  UNL     1       2.169  -2.580   1.160  1.00  0.00     0.059 C   
BRANCH   8   9
ATOM     9   C8  UNL     1       1.991  -1.848  -0.156  1.00  0.00    -0.016 A   
ATOM     10  C2  UNL     1       2.991  -1.014  -0.682  1.00  0.00     0.078 A   
ATOM     11  C3  UNL     1       2.774  -0.344  -1.892  1.00  0.00     0.037 A   
ATOM     12  C4  UNL     1       1.583  -0.525  -2.611  1.00  0.00    -0.049 A   
ATOM     13  C7  UNL     1       0.795  -2.015  -0.873  1.00  0.00     0.007 A   
ATOM     14  C6  UNL     1       0.592  -1.359  -2.088  1.00  0.00     0.004 A   
ATOM     15  C5  UNL     1       1.365   0.197  -3.908  1.00  0.00     0.044 C   
BRANCH  10  16
ATOM     16  O1  UNL     1       4.127  -0.877   0.072  1.00  0.00    -0.349 OA  
ATOM     17  C1  UNL     1       5.319  -0.568  -0.647  1.00  0.00     0.203 C   
ENDBRANCH  10  16
ENDBRANCH   8   9
ENDBRANCH   7   8
ENDBRANCH   1   7
BRANCH   3  18
ATOM     18  C13 UNL     1      -0.840   2.255   1.899  1.00  0.00     0.117 C   
BRANCH  18  19
ATOM     19  N2  UNL     1      -2.038   1.958   1.032  1.00  0.00     0.249 N   
ATOM     20  H16 UNL     1      -2.707   2.734   1.025  1.00  0.00     0.199 HD  
ATOM     21  H17 UNL     1      -2.522   1.159   1.470  1.00  0.00     0.199 HD  
BRANCH  19  22
ATOM     22  C14 UNL     1      -1.715   1.561  -0.367  1.00  0.00     0.164 C   
BRANCH  22  23
ATOM     23  C15 UNL     1      -2.940   1.043  -1.064  1.00  0.00    -0.002 A   
ATOM     24  C16 UNL     1      -3.263  -0.333  -0.992  1.00  0.00     0.012 A   
ATOM     25  C20 UNL     1      -3.801   1.924  -1.738  1.00  0.00     0.045 A   
ATOM     26  C17 UNL     1      -4.423  -0.830  -1.595  1.00  0.00     0.037 A   
ATOM     27  C19 UNL     1      -4.939   1.401  -2.317  1.00  0.00     0.109 A   
ATOM     28  C18 UNL     1      -5.241   0.063  -2.248  1.00  0.00     0.108 A   
ATOM     29  O2  UNL     1      -5.877   2.111  -2.995  1.00  0.00    -0.316 OA  
ATOM     30  O3  UNL     1      -6.406  -0.238  -2.878  1.00  0.00    -0.316 OA  
ATOM     31  C21 UNL     1      -6.801   1.061  -3.366  1.00  0.00     0.337 C   
ENDBRANCH  22  23
ENDBRANCH  19  22
ENDBRANCH  18  19
BRANCH  18  32
ATOM     32  C22 UNL     1      -1.296   3.096   3.116  1.00  0.00     0.037 C   
ATOM     33  C23 UNL     1      -2.312   2.399   4.027  1.00  0.00     0.014 C   
ATOM     34  C24 UNL     1      -0.098   3.574   3.945  1.00  0.00     0.014 C   
ENDBRANCH  18  32
ENDBRANCH   3  18
TORSDOF 9
