REMARK SMILES O[C@H](Cn1cc([C@@H]([NH2+]Cc2ccc3c(c2)OCO3)C2CCCC2)nn1)c1cccs1
REMARK SMILES IDX 4 1 5 2 6 3 24 4 25 5 3 7 2 8 1 9 26 11 27 12 30 13 28 14
REMARK SMILES IDX 29 15 7 16 8 17 9 20 10 21 11 22 15 23 12 24 14 25 13 26
REMARK SMILES IDX 16 27 18 28 17 29 19 30 20 31 23 32 21 33 22 34
REMARK H PARENT 5 6 1 10 8 18 8 19
ROOT
ATOM     1   N1  UNL     1      -1.039  -2.232  -0.356  1.00  0.00    -0.209 N   
ATOM     2   C3  UNL     1      -0.334  -1.188   0.172  1.00  0.00     0.045 A   
ATOM     3   C4  UNL     1      -1.286  -0.443   0.830  1.00  0.00     0.127 A   
ATOM     4   N3  UNL     1      -2.510  -1.046   0.682  1.00  0.00    -0.132 NA  
ATOM     5   N4  UNL     1      -2.346  -2.135  -0.050  1.00  0.00    -0.076 NA  
ATOM     6   H5  UNL     1       0.732  -1.076   0.023  1.00  0.00     0.083 HD  
ENDROOT
BRANCH   1   7
ATOM     7   C2  UNL     1      -0.545  -3.341  -1.148  1.00  0.00     0.171 C   
BRANCH   7   8
ATOM     8   C1  UNL     1      -0.750  -3.091  -2.641  1.00  0.00     0.170 C   
BRANCH   8   9
ATOM     9   O1  UNL     1       0.131  -2.047  -3.078  1.00  0.00    -0.386 OA  
ATOM     10  H1  UNL     1       0.046  -2.003  -4.049  1.00  0.00     0.211 HD  
ENDBRANCH   8   9
BRANCH   8  11
ATOM     11  C19 UNL     1      -0.411  -4.314  -3.446  1.00  0.00     0.019 A   
ATOM     12  C20 UNL     1       0.831  -4.803  -3.810  1.00  0.00     0.014 A   
ATOM     13  S1  UNL     1      -1.672  -5.319  -4.030  1.00  0.00    -0.100 S   
ATOM     14  C21 UNL     1       0.740  -6.004  -4.570  1.00  0.00     0.008 A   
ATOM     15  C22 UNL     1      -0.566  -6.396  -4.762  1.00  0.00     0.046 A   
ENDBRANCH   8  11
ENDBRANCH   7   8
ENDBRANCH   1   7
BRANCH   3  16
ATOM     16  C5  UNL     1      -1.184   0.842   1.585  1.00  0.00     0.117 C   
BRANCH  16  17
ATOM     17  N2  UNL     1      -2.497   1.585   1.511  1.00  0.00     0.249 N   
ATOM     18  H7  UNL     1      -3.229   0.876   1.666  1.00  0.00     0.199 HD  
ATOM     19  H8  UNL     1      -2.580   2.272   2.264  1.00  0.00     0.199 HD  
BRANCH  17  20
ATOM     20  C6  UNL     1      -2.801   2.247   0.208  1.00  0.00     0.164 C   
BRANCH  20  21
ATOM     21  C7  UNL     1      -1.950   3.462  -0.034  1.00  0.00    -0.002 A   
ATOM     22  C8  UNL     1      -2.189   4.660   0.682  1.00  0.00     0.012 A   
ATOM     23  C12 UNL     1      -0.888   3.407  -0.953  1.00  0.00     0.045 A   
ATOM     24  C9  UNL     1      -1.379   5.785   0.492  1.00  0.00     0.037 A   
ATOM     25  C11 UNL     1      -0.108   4.533  -1.115  1.00  0.00     0.109 A   
ATOM     26  C10 UNL     1      -0.345   5.689  -0.413  1.00  0.00     0.108 A   
ATOM     27  O2  UNL     1       0.957   4.643  -1.952  1.00  0.00    -0.316 OA  
ATOM     28  O3  UNL     1       0.537   6.673  -0.722  1.00  0.00    -0.316 OA  
ATOM     29  C13 UNL     1       1.348   6.016  -1.720  1.00  0.00     0.337 C   
ENDBRANCH  20  21
ENDBRANCH  17  20
ENDBRANCH  16  17
BRANCH  16  30
ATOM     30  C14 UNL     1      -0.774   0.607   3.052  1.00  0.00     0.043 C   
ATOM     31  C15 UNL     1      -0.383   1.877   3.816  1.00  0.00     0.010 C   
ATOM     32  C18 UNL     1      -1.826  -0.026   3.965  1.00  0.00     0.010 C   
ATOM     33  C16 UNL     1      -0.522   1.520   5.297  1.00  0.00     0.001 C   
ATOM     34  C17 UNL     1      -1.228   0.167   5.351  1.00  0.00     0.001 C   
ENDBRANCH  16  30
ENDBRANCH   3  16
TORSDOF 9
