REMARK SMILES O[C@@H](Cn1cc([C@@H]([NH2+]Cc2ccc3c(c2)OCO3)C2CCCC2)nn1)c1cccs1
REMARK SMILES IDX 4 1 5 2 6 3 24 4 25 5 3 7 2 8 1 9 26 11 27 12 30 13 28 14
REMARK SMILES IDX 29 15 7 16 8 17 9 20 10 21 11 22 15 23 12 24 14 25 13 26
REMARK SMILES IDX 16 27 18 28 17 29 19 30 20 31 23 32 21 33 22 34
REMARK H PARENT 5 6 1 10 8 18 8 19
ROOT
ATOM     1   N1  UNL     1       1.907   0.267   2.378  1.00  0.00    -0.209 N   
ATOM     2   C3  UNL     1       1.691  -0.964   1.823  1.00  0.00     0.045 A   
ATOM     3   C4  UNL     1       1.281  -0.679   0.540  1.00  0.00     0.127 A   
ATOM     4   N3  UNL     1       1.298   0.679   0.351  1.00  0.00    -0.132 NA  
ATOM     5   N4  UNL     1       1.691   1.246   1.480  1.00  0.00    -0.076 NA  
ATOM     6   H5  UNL     1       1.801  -1.879   2.389  1.00  0.00     0.083 HD  
ENDROOT
BRANCH   1   7
ATOM     7   C2  UNL     1       2.320   0.584   3.729  1.00  0.00     0.171 C   
BRANCH   7   8
ATOM     8   C1  UNL     1       1.220   0.403   4.779  1.00  0.00     0.170 C   
BRANCH   8   9
ATOM     9   O1  UNL     1       0.869  -0.977   4.909  1.00  0.00    -0.386 OA  
ATOM     10  H1  UNL     1       0.158  -1.019   5.577  1.00  0.00     0.211 HD  
ENDBRANCH   8   9
BRANCH   8  11
ATOM     11  C19 UNL     1      -0.025   1.216   4.523  1.00  0.00     0.019 A   
ATOM     12  C20 UNL     1      -0.253   2.528   4.900  1.00  0.00     0.014 A   
ATOM     13  S1  UNL     1      -1.385   0.574   3.689  1.00  0.00    -0.100 S   
ATOM     14  C21 UNL     1      -1.538   2.998   4.503  1.00  0.00     0.008 A   
ATOM     15  C22 UNL     1      -2.257   2.034   3.836  1.00  0.00     0.046 A   
ENDBRANCH   8  11
ENDBRANCH   7   8
ENDBRANCH   1   7
BRANCH   3  16
ATOM     16  C5  UNL     1       0.766  -1.559  -0.551  1.00  0.00     0.117 C   
BRANCH  16  17
ATOM     17  N2  UNL     1      -0.421  -0.883  -1.192  1.00  0.00     0.249 N   
ATOM     18  H7  UNL     1      -0.141   0.097  -1.355  1.00  0.00     0.199 HD  
ATOM     19  H8  UNL     1      -0.647  -1.274  -2.111  1.00  0.00     0.199 HD  
BRANCH  17  20
ATOM     20  C6  UNL     1      -1.656  -0.857  -0.358  1.00  0.00     0.164 C   
BRANCH  20  21
ATOM     21  C7  UNL     1      -2.683   0.057  -0.963  1.00  0.00    -0.002 A   
ATOM     22  C8  UNL     1      -2.648   1.443  -0.677  1.00  0.00     0.012 A   
ATOM     23  C12 UNL     1      -3.648  -0.445  -1.852  1.00  0.00     0.045 A   
ATOM     24  C9  UNL     1      -3.568   2.320  -1.260  1.00  0.00     0.037 A   
ATOM     25  C11 UNL     1      -4.541   0.448  -2.408  1.00  0.00     0.109 A   
ATOM     26  C10 UNL     1      -4.503   1.790  -2.121  1.00  0.00     0.108 A   
ATOM     27  O2  UNL     1      -5.532   0.131  -3.282  1.00  0.00    -0.316 OA  
ATOM     28  O3  UNL     1      -5.466   2.487  -2.777  1.00  0.00    -0.316 OA  
ATOM     29  C13 UNL     1      -6.132   1.429  -3.498  1.00  0.00     0.337 C   
ENDBRANCH  20  21
ENDBRANCH  17  20
ENDBRANCH  16  17
BRANCH  16  30
ATOM     30  C14 UNL     1       1.828  -1.821  -1.635  1.00  0.00     0.043 C   
ATOM     31  C15 UNL     1       3.055  -2.575  -1.112  1.00  0.00     0.010 C   
ATOM     32  C18 UNL     1       1.354  -2.731  -2.775  1.00  0.00     0.010 C   
ATOM     33  C16 UNL     1       3.747  -3.042  -2.383  1.00  0.00     0.001 C   
ATOM     34  C17 UNL     1       2.618  -3.365  -3.356  1.00  0.00     0.001 C   
ENDBRANCH  16  30
ENDBRANCH   3  16
TORSDOF 9
