REMARK SMILES CN(C)c1ccc(Cn2cc([C@@H]([NH2+]Cc3ccc4c(c3)OCO4)C3CCCCC3)nn2)cc1
REMARK SMILES IDX 9 1 10 2 11 3 30 4 31 5 8 7 7 8 4 9 5 10 33 11 6 12 32 13
REMARK SMILES IDX 2 14 1 15 3 16 12 17 13 18 14 21 15 22 16 23 20 24 17 25
REMARK SMILES IDX 19 26 18 27 21 28 23 29 22 30 24 31 25 32 29 33 26 34 28 35
REMARK SMILES IDX 27 36
REMARK H PARENT 10 6 13 19 13 20
ROOT
ATOM     1   N2  UNL     1       2.292   0.723  -0.505  1.00  0.00    -0.208 N   
ATOM     2   C8  UNL     1       1.071   1.123  -0.980  1.00  0.00     0.046 A   
ATOM     3   C9  UNL     1       0.200   0.847   0.050  1.00  0.00     0.127 A   
ATOM     4   N4  UNL     1       0.904   0.317   1.099  1.00  0.00    -0.132 NA  
ATOM     5   N5  UNL     1       2.176   0.235   0.747  1.00  0.00    -0.076 NA  
ATOM     6   H11 UNL     1       0.943   1.548  -1.967  1.00  0.00     0.083 HD  
ENDROOT
BRANCH   1   7
ATOM     7   C7  UNL     1       3.607   0.838  -1.122  1.00  0.00     0.169 C   
BRANCH   7   8
ATOM     8   C6  UNL     1       3.584   0.534  -2.597  1.00  0.00    -0.028 A   
ATOM     9   C3  UNL     1       3.521  -0.039  -5.406  1.00  0.00     0.028 A   
ATOM     10  C4  UNL     1       3.457  -1.053  -4.434  1.00  0.00     0.024 A   
ATOM     11  C26 UNL     1       3.629   1.273  -4.913  1.00  0.00     0.024 A   
ATOM     12  C5  UNL     1       3.485  -0.780  -3.058  1.00  0.00     0.007 A   
ATOM     13  C25 UNL     1       3.658   1.561  -3.541  1.00  0.00     0.007 A   
BRANCH   9  14
ATOM     14  N1  UNL     1       3.514  -0.322  -6.771  1.00  0.00    -0.337 N   
ATOM     15  C1  UNL     1       3.106  -1.643  -7.241  1.00  0.00     0.129 C   
ATOM     16  C2  UNL     1       3.454   0.761  -7.751  1.00  0.00     0.129 C   
ENDBRANCH   9  14
ENDBRANCH   7   8
ENDBRANCH   1   7
BRANCH   3  17
ATOM     17  C10 UNL     1      -1.281   1.033   0.172  1.00  0.00     0.117 C   
BRANCH  17  18
ATOM     18  N3  UNL     1      -1.800   0.284   1.371  1.00  0.00     0.249 N   
ATOM     19  H13 UNL     1      -1.085   0.390   2.110  1.00  0.00     0.199 HD  
ATOM     20  H14 UNL     1      -2.661   0.689   1.748  1.00  0.00     0.199 HD  
BRANCH  18  21
ATOM     21  C11 UNL     1      -1.995  -1.180   1.175  1.00  0.00     0.164 C   
BRANCH  21  22
ATOM     22  C12 UNL     1      -2.349  -1.829   2.482  1.00  0.00    -0.002 A   
ATOM     23  C13 UNL     1      -3.696  -1.889   2.912  1.00  0.00     0.012 A   
ATOM     24  C17 UNL     1      -1.330  -2.312   3.323  1.00  0.00     0.045 A   
ATOM     25  C14 UNL     1      -4.028  -2.421   4.163  1.00  0.00     0.037 A   
ATOM     26  C16 UNL     1      -1.692  -2.832   4.548  1.00  0.00     0.109 A   
ATOM     27  C15 UNL     1      -3.002  -2.881   4.958  1.00  0.00     0.108 A   
ATOM     28  O1  UNL     1      -0.838  -3.330   5.480  1.00  0.00    -0.316 OA  
ATOM     29  O2  UNL     1      -3.138  -3.410   6.203  1.00  0.00    -0.316 OA  
ATOM     30  C18 UNL     1      -1.763  -3.720   6.520  1.00  0.00     0.337 C   
ENDBRANCH  21  22
ENDBRANCH  18  21
ENDBRANCH  17  18
BRANCH  17  31
ATOM     31  C19 UNL     1      -1.679   2.531   0.259  1.00  0.00     0.043 C   
ATOM     32  C20 UNL     1      -3.193   2.732   0.045  1.00  0.00     0.010 C   
ATOM     33  C24 UNL     1      -1.228   3.223   1.561  1.00  0.00     0.010 C   
ATOM     34  C21 UNL     1      -3.573   4.212   0.061  1.00  0.00     0.001 C   
ATOM     35  C23 UNL     1      -1.613   4.702   1.572  1.00  0.00     0.001 C   
ATOM     36  C22 UNL     1      -3.107   4.899   1.341  1.00  0.00     0.000 C   
ENDBRANCH  17  31
ENDBRANCH   3  17
TORSDOF 8
