REMARK SMILES c1cc(-c2n[nH]cc2Cn2cc([C@@H]([NH2+]Cc3ccc4c(c3)OCO4)C3CCCCC3)nn2)co1
REMARK SMILES IDX 10 1 11 2 12 3 31 4 32 5 9 7 8 8 4 9 5 10 6 11 7 12 3 14
REMARK SMILES IDX 1 15 2 16 34 17 33 18 13 19 14 20 15 23 16 24 17 25 21 26
REMARK SMILES IDX 18 27 20 28 19 29 22 30 24 31 23 32 25 33 26 34 30 35 27 36
REMARK SMILES IDX 29 37 28 38
REMARK H PARENT 11 6 6 13 14 21 14 22
ROOT
ATOM     1   N3  UNL     1       3.327   0.716  -1.134  1.00  0.00    -0.208 N   
ATOM     2   C8  UNL     1       2.636  -0.405  -0.761  1.00  0.00     0.046 A   
ATOM     3   C9  UNL     1       1.491  -0.359  -1.526  1.00  0.00     0.127 A   
ATOM     4   N5  UNL     1       1.547   0.727  -2.356  1.00  0.00    -0.132 NA  
ATOM     5   N6  UNL     1       2.683   1.361  -2.125  1.00  0.00    -0.076 NA  
ATOM     6   H7  UNL     1       2.981  -1.068   0.021  1.00  0.00     0.083 HD  
ENDROOT
BRANCH   1   7
ATOM     7   C7  UNL     1       4.550   1.275  -0.575  1.00  0.00     0.173 C   
BRANCH   7   8
ATOM     8   C6  UNL     1       4.553   1.244   0.916  1.00  0.00     0.015 A   
ATOM     9   C4  UNL     1       3.655   1.827   1.860  1.00  0.00     0.097 A   
ATOM     10  N1  UNL     1       3.977   1.490   3.116  1.00  0.00    -0.184 NA  
ATOM     11  N2  UNL     1       5.108   0.785   3.002  1.00  0.00    -0.245 N   
ATOM     12  C5  UNL     1       5.484   0.589   1.707  1.00  0.00     0.099 A   
ATOM     13  H3  UNL     1       5.564   0.459   3.851  1.00  0.00     0.175 HD  
BRANCH   9  14
ATOM     14  C3  UNL     1       2.466   2.639   1.594  1.00  0.00     0.028 A   
ATOM     15  C1  UNL     1       0.480   3.627   1.915  1.00  0.00     0.136 A   
ATOM     16  C2  UNL     1       1.413   2.829   2.532  1.00  0.00     0.038 A   
ATOM     17  O3  UNL     1       0.886   3.939   0.658  1.00  0.00    -0.325 OA  
ATOM     18  C25 UNL     1       2.114   3.376   0.485  1.00  0.00     0.145 A   
ENDBRANCH   9  14
ENDBRANCH   7   8
ENDBRANCH   1   7
BRANCH   3  19
ATOM     19  C10 UNL     1       0.251  -1.195  -1.493  1.00  0.00     0.117 C   
BRANCH  19  20
ATOM     20  N4  UNL     1      -0.940  -0.276  -1.289  1.00  0.00     0.249 N   
ATOM     21  H9  UNL     1      -0.908   0.415  -2.051  1.00  0.00     0.199 HD  
ATOM     22  H10 UNL     1      -1.819  -0.789  -1.373  1.00  0.00     0.199 HD  
BRANCH  20  23
ATOM     23  C11 UNL     1      -0.978   0.489  -0.003  1.00  0.00     0.164 C   
BRANCH  23  24
ATOM     24  C12 UNL     1      -1.127  -0.401   1.200  1.00  0.00    -0.002 A   
ATOM     25  C13 UNL     1      -2.363  -1.036   1.475  1.00  0.00     0.012 A   
ATOM     26  C17 UNL     1      -0.030  -0.634   2.046  1.00  0.00     0.045 A   
ATOM     27  C14 UNL     1      -2.503  -1.893   2.572  1.00  0.00     0.037 A   
ATOM     28  C16 UNL     1      -0.200  -1.485   3.118  1.00  0.00     0.109 A   
ATOM     29  C15 UNL     1      -1.402  -2.098   3.374  1.00  0.00     0.108 A   
ATOM     30  O1  UNL     1       0.757  -1.818   4.022  1.00  0.00    -0.316 OA  
ATOM     31  O2  UNL     1      -1.354  -2.891   4.476  1.00  0.00    -0.316 OA  
ATOM     32  C18 UNL     1       0.012  -2.697   4.898  1.00  0.00     0.337 C   
ENDBRANCH  23  24
ENDBRANCH  20  23
ENDBRANCH  19  20
BRANCH  19  33
ATOM     33  C19 UNL     1       0.054  -2.006  -2.813  1.00  0.00     0.043 C   
ATOM     34  C20 UNL     1       1.237  -2.961  -3.093  1.00  0.00     0.010 C   
ATOM     35  C24 UNL     1      -1.245  -2.839  -2.861  1.00  0.00     0.010 C   
ATOM     36  C21 UNL     1       1.287  -4.143  -2.125  1.00  0.00     0.001 C   
ATOM     37  C23 UNL     1      -1.232  -4.011  -1.881  1.00  0.00     0.001 C   
ATOM     38  C22 UNL     1      -0.027  -4.919  -2.115  1.00  0.00     0.000 C   
ENDBRANCH  19  33
ENDBRANCH   3  19
TORSDOF 8
