REMARK SMILES CC(C)(C)[C@H]([NH2+]Cc1ccc2c(c1)OCO2)c1cn(Cc2cnc[nH]2)nn1
REMARK SMILES IDX 17 1 18 2 19 3 26 4 27 5 5 7 2 8 1 9 3 10 4 11 6 12 7 15
REMARK SMILES IDX 8 16 9 17 13 18 10 19 12 20 11 21 14 22 16 23 15 24 20 25
REMARK SMILES IDX 21 26 22 27 25 28 23 29 24 30
REMARK H PARENT 18 6 6 13 6 14 25 31
ROOT
ATOM     1   C14 UNL     1       0.458  -1.501   0.625  1.00  0.00     0.127 A   
ATOM     2   C15 UNL     1      -0.250  -0.937  -0.413  1.00  0.00     0.046 A   
ATOM     3   N2  UNL     1      -1.553  -1.010  -0.003  1.00  0.00    -0.206 N   
ATOM     4   N5  UNL     1      -1.642  -1.559   1.226  1.00  0.00    -0.076 NA  
ATOM     5   N6  UNL     1      -0.416  -1.867   1.619  1.00  0.00    -0.132 NA  
ATOM     6   H20 UNL     1       0.034  -0.501  -1.361  1.00  0.00     0.083 HD  
ENDROOT
BRANCH   1   7
ATOM     7   C5  UNL     1       1.931  -1.689   0.837  1.00  0.00     0.120 C   
BRANCH   7   8
ATOM     8   C2  UNL     1       2.485  -3.062   0.320  1.00  0.00     0.010 C   
ATOM     9   C1  UNL     1       2.188  -3.224  -1.189  1.00  0.00     0.017 C   
ATOM     10  C3  UNL     1       1.877  -4.269   1.061  1.00  0.00     0.017 C   
ATOM     11  C4  UNL     1       4.023  -3.110   0.479  1.00  0.00     0.017 C   
ENDBRANCH   7   8
BRANCH   7  12
ATOM     12  N1  UNL     1       2.226  -1.522   2.318  1.00  0.00     0.250 N   
ATOM     13  H11 UNL     1       2.865  -2.244   2.658  1.00  0.00     0.199 HD  
ATOM     14  H12 UNL     1       1.332  -1.702   2.804  1.00  0.00     0.199 HD  
BRANCH  12  15
ATOM     15  C6  UNL     1       2.729  -0.188   2.746  1.00  0.00     0.164 C   
BRANCH  15  16
ATOM     16  C7  UNL     1       1.725   0.918   2.588  1.00  0.00    -0.002 A   
ATOM     17  C8  UNL     1       0.631   1.022   3.481  1.00  0.00     0.012 A   
ATOM     18  C12 UNL     1       1.850   1.844   1.539  1.00  0.00     0.045 A   
ATOM     19  C9  UNL     1      -0.324   2.034   3.334  1.00  0.00     0.037 A   
ATOM     20  C11 UNL     1       0.889   2.827   1.421  1.00  0.00     0.109 A   
ATOM     21  C10 UNL     1      -0.165   2.922   2.294  1.00  0.00     0.108 A   
ATOM     22  O1  UNL     1       0.865   3.794   0.467  1.00  0.00    -0.316 OA  
ATOM     23  O2  UNL     1      -0.984   3.967   2.008  1.00  0.00    -0.316 OA  
ATOM     24  C13 UNL     1      -0.327   4.523   0.847  1.00  0.00     0.337 C   
ENDBRANCH  15  16
ENDBRANCH  12  15
ENDBRANCH   7  12
ENDBRANCH   1   7
BRANCH   3  25
ATOM     25  C16 UNL     1      -2.748  -0.596  -0.721  1.00  0.00     0.186 C   
BRANCH  25  26
ATOM     26  C17 UNL     1      -2.996   0.853  -0.534  1.00  0.00     0.046 A   
ATOM     27  C18 UNL     1      -2.801   1.934  -1.366  1.00  0.00     0.133 A   
ATOM     28  N4  UNL     1      -3.526   1.389   0.616  1.00  0.00    -0.307 N   
ATOM     29  N3  UNL     1      -3.181   3.095  -0.751  1.00  0.00    -0.248 NA  
ATOM     30  C19 UNL     1      -3.625   2.738   0.432  1.00  0.00     0.185 A   
ATOM     31  H25 UNL     1      -3.796   0.888   1.454  1.00  0.00     0.153 HD  
ENDBRANCH  25  26
ENDBRANCH   3  25
TORSDOF 7
