REMARK SMILES Cc1c(F)cccc1[C@@H](CO)n1cc([C@@H]([NH2+]Cc2ccc3c(c2)OCO3)C2CCCC2)nn1
REMARK SMILES IDX 12 1 13 2 14 3 32 4 33 5 9 7 8 8 2 9 3 10 5 11 7 12 6 13
REMARK SMILES IDX 1 14 4 15 10 16 11 17 15 19 16 20 17 23 18 24 19 25 23 26
REMARK SMILES IDX 20 27 22 28 21 29 24 30 26 31 25 32 27 33 28 34 31 35 29 36
REMARK SMILES IDX 30 37
REMARK H PARENT 13 6 11 18 16 21 16 22
ROOT
ATOM     1   N1  UNL     1      -2.296  -0.769   1.563  1.00  0.00    -0.202 N   
ATOM     2   C10 UNL     1      -1.494  -1.282   0.578  1.00  0.00     0.046 A   
ATOM     3   C11 UNL     1      -0.378  -0.479   0.597  1.00  0.00     0.127 A   
ATOM     4   N3  UNL     1      -0.532   0.483   1.563  1.00  0.00    -0.132 NA  
ATOM     5   N4  UNL     1      -1.712   0.307   2.134  1.00  0.00    -0.075 NA  
ATOM     6   H11 UNL     1      -1.780  -2.148  -0.003  1.00  0.00     0.083 HD  
ENDROOT
BRANCH   1   7
ATOM     7   C8  UNL     1      -3.610  -1.223   2.019  1.00  0.00     0.155 C   
BRANCH   7   8
ATOM     8   C7  UNL     1      -4.561  -1.435   0.836  1.00  0.00    -0.017 A   
ATOM     9   C2  UNL     1      -5.207  -0.337   0.209  1.00  0.00    -0.010 A   
ATOM     10  C3  UNL     1      -6.060  -0.575  -0.881  1.00  0.00     0.126 A   
ATOM     11  C4  UNL     1      -6.288  -1.857  -1.365  1.00  0.00     0.039 A   
ATOM     12  C6  UNL     1      -4.800  -2.727   0.322  1.00  0.00     0.006 A   
ATOM     13  C5  UNL     1      -5.655  -2.936  -0.764  1.00  0.00     0.003 A   
ATOM     14  C1  UNL     1      -5.018   1.085   0.668  1.00  0.00     0.048 C   
ATOM     15  F1  UNL     1      -6.676   0.452  -1.488  1.00  0.00    -0.207 F   
ENDBRANCH   7   8
BRANCH   7  16
ATOM     16  C9  UNL     1      -3.466  -2.382   3.032  1.00  0.00     0.185 C   
BRANCH  16  17
ATOM     17  O1  UNL     1      -2.710  -3.482   2.523  1.00  0.00    -0.394 OA  
ATOM     18  H10 UNL     1      -2.702  -4.165   3.219  1.00  0.00     0.210 HD  
ENDBRANCH  16  17
ENDBRANCH   7  16
ENDBRANCH   1   7
BRANCH   3  19
ATOM     19  C12 UNL     1       0.860  -0.493  -0.241  1.00  0.00     0.117 C   
BRANCH  19  20
ATOM     20  N2  UNL     1       1.421   0.906  -0.322  1.00  0.00     0.249 N   
ATOM     21  H13 UNL     1       1.391   1.285   0.637  1.00  0.00     0.199 HD  
ATOM     22  H14 UNL     1       2.406   0.918  -0.601  1.00  0.00     0.199 HD  
BRANCH  20  23
ATOM     23  C13 UNL     1       0.662   1.848  -1.190  1.00  0.00     0.164 C   
BRANCH  23  24
ATOM     24  C14 UNL     1       1.260   3.224  -1.107  1.00  0.00    -0.002 A   
ATOM     25  C15 UNL     1       0.882   4.099  -0.060  1.00  0.00     0.012 A   
ATOM     26  C19 UNL     1       2.240   3.629  -2.029  1.00  0.00     0.045 A   
ATOM     27  C16 UNL     1       1.462   5.366   0.063  1.00  0.00     0.037 A   
ATOM     28  C18 UNL     1       2.791   4.885  -1.879  1.00  0.00     0.109 A   
ATOM     29  C17 UNL     1       2.414   5.728  -0.863  1.00  0.00     0.108 A   
ATOM     30  O2  UNL     1       3.745   5.428  -2.680  1.00  0.00    -0.316 OA  
ATOM     31  O3  UNL     1       3.084   6.910  -0.895  1.00  0.00    -0.316 OA  
ATOM     32  C20 UNL     1       3.906   6.729  -2.068  1.00  0.00     0.337 C   
ENDBRANCH  23  24
ENDBRANCH  20  23
ENDBRANCH  19  20
BRANCH  19  33
ATOM     33  C21 UNL     1       1.948  -1.421   0.337  1.00  0.00     0.043 C   
ATOM     34  C22 UNL     1       3.219  -1.501  -0.517  1.00  0.00     0.010 C   
ATOM     35  C25 UNL     1       1.527  -2.894   0.403  1.00  0.00     0.010 C   
ATOM     36  C23 UNL     1       3.909  -2.792  -0.082  1.00  0.00     0.001 C   
ATOM     37  C24 UNL     1       2.837  -3.650   0.581  1.00  0.00     0.001 C   
ENDBRANCH  19  33
ENDBRANCH   3  19
TORSDOF 9
