REMARK SMILES Cc1c(F)cccc1[C@H](CO)n1cc([C@@H]([NH2+]Cc2ccc3c(c2)OCO3)C2CCCC2)nn1
REMARK SMILES IDX 12 1 13 2 14 3 32 4 33 5 9 7 8 8 2 9 3 10 5 11 7 12 6 13
REMARK SMILES IDX 1 14 4 15 10 16 11 17 15 19 16 20 17 23 18 24 19 25 23 26
REMARK SMILES IDX 20 27 22 28 21 29 24 30 26 31 25 32 27 33 28 34 31 35 29 36
REMARK SMILES IDX 30 37
REMARK H PARENT 13 6 11 18 16 21 16 22
ROOT
ATOM     1   N1  UNL     1      -0.947   1.361   0.980  1.00  0.00    -0.202 N   
ATOM     2   C10 UNL     1      -0.237   0.571   0.116  1.00  0.00     0.046 A   
ATOM     3   C11 UNL     1       0.357  -0.368   0.926  1.00  0.00     0.127 A   
ATOM     4   N3  UNL     1       0.029  -0.109   2.232  1.00  0.00    -0.132 NA  
ATOM     5   N4  UNL     1      -0.747   0.963   2.256  1.00  0.00    -0.075 NA  
ATOM     6   H11 UNL     1      -0.231   0.743  -0.953  1.00  0.00     0.083 HD  
ENDROOT
BRANCH   1   7
ATOM     7   C8  UNL     1      -1.834   2.487   0.687  1.00  0.00     0.155 C   
BRANCH   7   8
ATOM     8   C7  UNL     1      -2.904   2.086  -0.334  1.00  0.00    -0.017 A   
ATOM     9   C2  UNL     1      -4.090   1.417   0.069  1.00  0.00    -0.010 A   
ATOM     10  C3  UNL     1      -5.036   1.054  -0.903  1.00  0.00     0.126 A   
ATOM     11  C4  UNL     1      -4.838   1.319  -2.252  1.00  0.00     0.039 A   
ATOM     12  C6  UNL     1      -2.719   2.337  -1.711  1.00  0.00     0.006 A   
ATOM     13  C5  UNL     1      -3.674   1.959  -2.659  1.00  0.00     0.003 A   
ATOM     14  C1  UNL     1      -4.386   1.088   1.509  1.00  0.00     0.048 C   
ATOM     15  F1  UNL     1      -6.166   0.430  -0.539  1.00  0.00    -0.207 F   
ENDBRANCH   7   8
BRANCH   7  16
ATOM     16  C9  UNL     1      -1.033   3.776   0.400  1.00  0.00     0.185 C   
BRANCH  16  17
ATOM     17  O1  UNL     1      -0.068   3.628  -0.643  1.00  0.00    -0.394 OA  
ATOM     18  H10 UNL     1       0.312   4.513  -0.803  1.00  0.00     0.210 HD  
ENDBRANCH  16  17
ENDBRANCH   7  16
ENDBRANCH   1   7
BRANCH   3  19
ATOM     19  C12 UNL     1       1.251  -1.520   0.598  1.00  0.00     0.117 C   
BRANCH  19  20
ATOM     20  N2  UNL     1       2.143  -1.839   1.775  1.00  0.00     0.249 N   
ATOM     21  H13 UNL     1       2.540  -2.776   1.696  1.00  0.00     0.199 HD  
ATOM     22  H14 UNL     1       1.531  -1.836   2.603  1.00  0.00     0.199 HD  
BRANCH  20  23
ATOM     23  C13 UNL     1       3.243  -0.866   2.046  1.00  0.00     0.164 C   
BRANCH  23  24
ATOM     24  C14 UNL     1       4.276  -0.822   0.953  1.00  0.00    -0.002 A   
ATOM     25  C15 UNL     1       4.407   0.331   0.142  1.00  0.00     0.012 A   
ATOM     26  C19 UNL     1       5.101  -1.934   0.712  1.00  0.00     0.045 A   
ATOM     27  C16 UNL     1       5.341   0.376  -0.899  1.00  0.00     0.037 A   
ATOM     28  C18 UNL     1       6.008  -1.858  -0.325  1.00  0.00     0.109 A   
ATOM     29  C17 UNL     1       6.125  -0.736  -1.107  1.00  0.00     0.108 A   
ATOM     30  O2  UNL     1       6.866  -2.843  -0.697  1.00  0.00    -0.316 OA  
ATOM     31  O3  UNL     1       7.075  -0.872  -2.069  1.00  0.00    -0.316 OA  
ATOM     32  C20 UNL     1       7.568  -2.199  -1.786  1.00  0.00     0.337 C   
ENDBRANCH  23  24
ENDBRANCH  20  23
ENDBRANCH  19  20
BRANCH  19  33
ATOM     33  C21 UNL     1       0.437  -2.759   0.176  1.00  0.00     0.043 C   
ATOM     34  C22 UNL     1       1.268  -3.918  -0.384  1.00  0.00     0.010 C   
ATOM     35  C25 UNL     1      -0.378  -3.449   1.273  1.00  0.00     0.010 C   
ATOM     36  C23 UNL     1       0.299  -5.099  -0.395  1.00  0.00     0.001 C   
ATOM     37  C24 UNL     1      -0.780  -4.778   0.641  1.00  0.00     0.001 C   
ENDBRANCH  19  33
ENDBRANCH   3  19
TORSDOF 9
