REMARK SMILES OC[C@H](c1ccncc1Cl)n1cc([C@@H]([NH2+]Cc2ccc3c(c2)OCO3)C2CCCC2)nn1
REMARK SMILES IDX 11 1 12 2 13 3 31 4 32 5 3 7 2 8 1 9 4 11 5 12 9 13 6 14
REMARK SMILES IDX 8 15 7 16 10 17 14 18 15 19 16 22 17 23 18 24 22 25 19 26
REMARK SMILES IDX 21 27 20 28 23 29 25 30 24 31 26 32 27 33 30 34 28 35 29 36
REMARK H PARENT 12 6 1 10 15 20 15 21
ROOT
ATOM     1   N2  UNL     1      -1.471   0.086   1.902  1.00  0.00    -0.202 N   
ATOM     2   C8  UNL     1      -0.556  -0.458   1.040  1.00  0.00     0.046 A   
ATOM     3   C9  UNL     1       0.337   0.562   0.803  1.00  0.00     0.127 A   
ATOM     4   N4  UNL     1      -0.064   1.676   1.497  1.00  0.00    -0.132 NA  
ATOM     5   N5  UNL     1      -1.161   1.372   2.171  1.00  0.00    -0.075 NA  
ATOM     6   H8  UNL     1      -0.624  -1.482   0.698  1.00  0.00     0.083 HD  
ENDROOT
BRANCH   1   7
ATOM     7   C2  UNL     1      -2.652  -0.528   2.514  1.00  0.00     0.157 C   
BRANCH   7   8
ATOM     8   C1  UNL     1      -2.254  -1.225   3.834  1.00  0.00     0.186 C   
BRANCH   8   9
ATOM     9   O1  UNL     1      -1.267  -2.241   3.648  1.00  0.00    -0.394 OA  
ATOM     10  H1  UNL     1      -1.048  -2.591   4.532  1.00  0.00     0.210 HD  
ENDBRANCH   8   9
ENDBRANCH   7   8
BRANCH   7  11
ATOM     11  C3  UNL     1      -3.446  -1.344   1.495  1.00  0.00    -0.001 A   
ATOM     12  C4  UNL     1      -3.466  -2.749   1.523  1.00  0.00     0.027 A   
ATOM     13  C7  UNL     1      -4.182  -0.716   0.472  1.00  0.00     0.064 A   
ATOM     14  C5  UNL     1      -4.190  -3.447   0.564  1.00  0.00     0.111 A   
ATOM     15  C6  UNL     1      -4.878  -1.503  -0.440  1.00  0.00     0.131 A   
ATOM     16  N1  UNL     1      -4.890  -2.853  -0.420  1.00  0.00    -0.263 NA  
ATOM     17  CL1 UNL     1      -4.254   0.997   0.284  1.00  0.00    -0.082 Cl  
ENDBRANCH   7  11
ENDBRANCH   1   7
BRANCH   3  18
ATOM     18  C10 UNL     1       1.543   0.642  -0.084  1.00  0.00     0.117 C   
BRANCH  18  19
ATOM     19  N3  UNL     1       1.684   2.083  -0.526  1.00  0.00     0.249 N   
ATOM     20  H10 UNL     1       1.870   2.648   0.314  1.00  0.00     0.199 HD  
ATOM     21  H11 UNL     1       0.743   2.386  -0.811  1.00  0.00     0.199 HD  
BRANCH  19  22
ATOM     22  C11 UNL     1       2.638   2.421  -1.611  1.00  0.00     0.164 C   
BRANCH  22  23
ATOM     23  C12 UNL     1       2.315   1.743  -2.912  1.00  0.00    -0.002 A   
ATOM     24  C13 UNL     1       1.207   2.167  -3.685  1.00  0.00     0.012 A   
ATOM     25  C17 UNL     1       3.092   0.659  -3.356  1.00  0.00     0.045 A   
ATOM     26  C14 UNL     1       0.874   1.519  -4.880  1.00  0.00     0.037 A   
ATOM     27  C16 UNL     1       2.735   0.042  -4.537  1.00  0.00     0.109 A   
ATOM     28  C15 UNL     1       1.657   0.459  -5.278  1.00  0.00     0.108 A   
ATOM     29  O2  UNL     1       3.372  -1.018  -5.099  1.00  0.00    -0.316 OA  
ATOM     30  O3  UNL     1       1.481  -0.284  -6.401  1.00  0.00    -0.316 OA  
ATOM     31  C18 UNL     1       2.589  -1.204  -6.300  1.00  0.00     0.337 C   
ENDBRANCH  22  23
ENDBRANCH  19  22
ENDBRANCH  18  19
BRANCH  18  32
ATOM     32  C19 UNL     1       2.850   0.160   0.578  1.00  0.00     0.043 C   
ATOM     33  C20 UNL     1       3.284   0.926   1.837  1.00  0.00     0.010 C   
ATOM     34  C23 UNL     1       2.854  -1.329   0.983  1.00  0.00     0.010 C   
ATOM     35  C21 UNL     1       4.112  -0.086   2.614  1.00  0.00     0.001 C   
ATOM     36  C22 UNL     1       3.324  -1.372   2.434  1.00  0.00     0.001 C   
ENDBRANCH  18  32
ENDBRANCH   3  18
TORSDOF 9
