REMARK SMILES OC[C@@H](c1ccncc1Cl)n1cc([C@@H]([NH2+]Cc2ccc3c(c2)OCO3)C2CCCC2)nn1
REMARK SMILES IDX 11 1 12 2 13 3 31 4 32 5 3 7 2 8 1 9 4 11 5 12 9 13 6 14
REMARK SMILES IDX 8 15 7 16 10 17 14 18 15 19 16 22 17 23 18 24 22 25 19 26
REMARK SMILES IDX 21 27 20 28 23 29 25 30 24 31 26 32 27 33 30 34 28 35 29 36
REMARK H PARENT 12 6 1 10 15 20 15 21
ROOT
ATOM     1   N2  UNL     1       0.507  -2.169  -1.101  1.00  0.00    -0.202 N   
ATOM     2   C8  UNL     1       0.295  -1.004  -0.414  1.00  0.00     0.046 A   
ATOM     3   C9  UNL     1      -1.060  -0.790  -0.521  1.00  0.00     0.127 A   
ATOM     4   N4  UNL     1      -1.608  -1.773  -1.304  1.00  0.00    -0.132 NA  
ATOM     5   N5  UNL     1      -0.640  -2.598  -1.669  1.00  0.00    -0.075 NA  
ATOM     6   H8  UNL     1       1.095  -0.467   0.078  1.00  0.00     0.083 HD  
ENDROOT
BRANCH   1   7
ATOM     7   C2  UNL     1       1.747  -2.929  -1.281  1.00  0.00     0.157 C   
BRANCH   7   8
ATOM     8   C1  UNL     1       2.483  -2.441  -2.547  1.00  0.00     0.186 C   
BRANCH   8   9
ATOM     9   O1  UNL     1       2.795  -1.046  -2.501  1.00  0.00    -0.394 OA  
ATOM     10  H1  UNL     1       3.272  -0.835  -3.326  1.00  0.00     0.210 HD  
ENDBRANCH   8   9
ENDBRANCH   7   8
BRANCH   7  11
ATOM     11  C3  UNL     1       2.547  -2.997   0.019  1.00  0.00    -0.001 A   
ATOM     12  C4  UNL     1       3.738  -2.271   0.197  1.00  0.00     0.027 A   
ATOM     13  C7  UNL     1       2.107  -3.776   1.106  1.00  0.00     0.064 A   
ATOM     14  C5  UNL     1       4.417  -2.346   1.407  1.00  0.00     0.111 A   
ATOM     15  C6  UNL     1       2.858  -3.789   2.277  1.00  0.00     0.131 A   
ATOM     16  N1  UNL     1       3.998  -3.085   2.451  1.00  0.00    -0.263 NA  
ATOM     17  CL1 UNL     1       0.660  -4.713   1.062  1.00  0.00    -0.082 Cl  
ENDBRANCH   7  11
ENDBRANCH   1   7
BRANCH   3  18
ATOM     18  C10 UNL     1      -1.921   0.311   0.000  1.00  0.00     0.117 C   
BRANCH  18  19
ATOM     19  N3  UNL     1      -3.045   0.608  -0.971  1.00  0.00     0.249 N   
ATOM     20  H10 UNL     1      -3.508  -0.292  -1.157  1.00  0.00     0.199 HD  
ATOM     21  H11 UNL     1      -3.734   1.225  -0.533  1.00  0.00     0.199 HD  
BRANCH  19  22
ATOM     22  C11 UNL     1      -2.646   1.175  -2.295  1.00  0.00     0.164 C   
BRANCH  22  23
ATOM     23  C12 UNL     1      -2.041   2.547  -2.191  1.00  0.00    -0.002 A   
ATOM     24  C13 UNL     1      -2.858   3.676  -1.947  1.00  0.00     0.012 A   
ATOM     25  C17 UNL     1      -0.648   2.712  -2.308  1.00  0.00     0.045 A   
ATOM     26  C14 UNL     1      -2.299   4.953  -1.819  1.00  0.00     0.037 A   
ATOM     27  C16 UNL     1      -0.130   3.983  -2.175  1.00  0.00     0.109 A   
ATOM     28  C15 UNL     1      -0.931   5.072  -1.937  1.00  0.00     0.108 A   
ATOM     29  O2  UNL     1       1.185   4.313  -2.257  1.00  0.00    -0.316 OA  
ATOM     30  O3  UNL     1      -0.222   6.226  -1.843  1.00  0.00    -0.316 OA  
ATOM     31  C18 UNL     1       1.120   5.745  -2.072  1.00  0.00     0.337 C   
ENDBRANCH  22  23
ENDBRANCH  19  22
ENDBRANCH  18  19
BRANCH  18  32
ATOM     32  C19 UNL     1      -2.556   0.031   1.377  1.00  0.00     0.043 C   
ATOM     33  C20 UNL     1      -1.558  -0.226   2.508  1.00  0.00     0.010 C   
ATOM     34  C23 UNL     1      -3.477  -1.189   1.475  1.00  0.00     0.010 C   
ATOM     35  C21 UNL     1      -2.442  -0.722   3.645  1.00  0.00     0.001 C   
ATOM     36  C22 UNL     1      -3.598  -1.464   2.974  1.00  0.00     0.001 C   
ENDBRANCH  18  32
ENDBRANCH   3  18
TORSDOF 9
