REMARK SMILES FC(F)c1cc(Cn2cc([C@@H]([NH2+]Cc3ccc4c(c3)OCO4)C3CCCCC3)nn2)no1
REMARK SMILES IDX 8 1 9 2 10 3 29 4 30 5 7 7 6 8 4 9 5 10 32 11 31 12 2 13
REMARK SMILES IDX 1 14 3 15 11 16 12 17 13 20 14 21 15 22 19 23 16 24 18 25
REMARK SMILES IDX 17 26 20 27 22 28 21 29 23 30 24 31 28 32 25 33 27 34 26 35
REMARK H PARENT 9 6 12 18 12 19
ROOT
ATOM     1   N1  UNL     1       1.077  -2.156   3.492  1.00  0.00    -0.206 N   
ATOM     2   C6  UNL     1       0.640  -1.904   2.218  1.00  0.00     0.046 A   
ATOM     3   C7  UNL     1       0.585  -0.529   2.148  1.00  0.00     0.127 A   
ATOM     4   N3  UNL     1       0.875  -0.008   3.385  1.00  0.00    -0.132 NA  
ATOM     5   N4  UNL     1       1.148  -1.011   4.202  1.00  0.00    -0.076 NA  
ATOM     6   H5  UNL     1       0.475  -2.690   1.494  1.00  0.00     0.083 HD  
ENDROOT
BRANCH   1   7
ATOM     7   C5  UNL     1       1.387  -3.431   4.124  1.00  0.00     0.192 C   
BRANCH   7   8
ATOM     8   C4  UNL     1       2.217  -4.299   3.245  1.00  0.00     0.090 A   
ATOM     9   C2  UNL     1       3.018  -5.944   2.013  1.00  0.00     0.153 A   
ATOM     10  C3  UNL     1       1.938  -5.613   2.796  1.00  0.00     0.066 A   
ATOM     11  O3  UNL     1       3.890  -4.902   1.992  1.00  0.00    -0.212 OA  
ATOM     12  N5  UNL     1       3.395  -3.871   2.769  1.00  0.00    -0.132 NA  
BRANCH   9  13
ATOM     13  C1  UNL     1       3.393  -7.131   1.222  1.00  0.00     0.398 C   
ATOM     14  F1  UNL     1       2.723  -8.232   1.660  1.00  0.00    -0.203 F   
ATOM     15  F2  UNL     1       3.035  -6.967  -0.080  1.00  0.00    -0.203 F   
ENDBRANCH   9  13
ENDBRANCH   7   8
ENDBRANCH   1   7
BRANCH   3  16
ATOM     16  C8  UNL     1       0.239   0.399   1.022  1.00  0.00     0.117 C   
BRANCH  16  17
ATOM     17  N2  UNL     1      -0.273   1.687   1.634  1.00  0.00     0.249 N   
ATOM     18  H7  UNL     1      -0.970   1.409   2.337  1.00  0.00     0.199 HD  
ATOM     19  H8  UNL     1       0.485   2.084   2.204  1.00  0.00     0.199 HD  
BRANCH  17  20
ATOM     20  C9  UNL     1      -0.874   2.723   0.758  1.00  0.00     0.164 C   
BRANCH  20  21
ATOM     21  C10 UNL     1      -2.068   2.231  -0.009  1.00  0.00    -0.002 A   
ATOM     22  C11 UNL     1      -1.984   2.021  -1.407  1.00  0.00     0.012 A   
ATOM     23  C15 UNL     1      -3.271   1.945   0.661  1.00  0.00     0.045 A   
ATOM     24  C12 UNL     1      -3.076   1.526  -2.127  1.00  0.00     0.037 A   
ATOM     25  C14 UNL     1      -4.327   1.457  -0.079  1.00  0.00     0.109 A   
ATOM     26  C13 UNL     1      -4.233   1.251  -1.433  1.00  0.00     0.108 A   
ATOM     27  O1  UNL     1      -5.548   1.121   0.414  1.00  0.00    -0.316 OA  
ATOM     28  O2  UNL     1      -5.383   0.758  -1.963  1.00  0.00    -0.316 OA  
ATOM     29  C16 UNL     1      -6.228   0.708  -0.794  1.00  0.00     0.337 C   
ENDBRANCH  20  21
ENDBRANCH  17  20
ENDBRANCH  16  17
BRANCH  16  30
ATOM     30  C17 UNL     1       1.416   0.681   0.049  1.00  0.00     0.043 C   
ATOM     31  C18 UNL     1       1.817  -0.582  -0.741  1.00  0.00     0.010 C   
ATOM     32  C22 UNL     1       2.657   1.305   0.718  1.00  0.00     0.010 C   
ATOM     33  C19 UNL     1       2.916  -0.285  -1.759  1.00  0.00     0.001 C   
ATOM     34  C21 UNL     1       3.766   1.584  -0.298  1.00  0.00     0.001 C   
ATOM     35  C20 UNL     1       4.138   0.337  -1.092  1.00  0.00     0.000 C   
ENDBRANCH  16  30
ENDBRANCH   3  16
TORSDOF 8
