REMARK SMILES COc1c(C)cccc1Cn1cc([C@H](CC(C)C)[NH2+]Cc2ccc3c(c2)OCO3)nn1
REMARK SMILES IDX 11 1 12 2 13 3 30 4 31 5 10 7 9 8 3 9 4 10 6 11 8 12 7 13
REMARK SMILES IDX 5 14 2 15 1 16 14 17 15 18 16 19 17 20 18 21 19 22 20 25
REMARK SMILES IDX 21 26 22 27 26 28 23 29 25 30 24 31 27 32 29 33 28 34
REMARK H PARENT 12 6 19 23 19 24
ROOT
ATOM     1   N1  UNL     1      -0.017  -2.431  -0.035  1.00  0.00    -0.208 N   
ATOM     2   C10 UNL     1      -0.280  -1.159   0.397  1.00  0.00     0.046 A   
ATOM     3   C11 UNL     1      -1.105  -0.638  -0.574  1.00  0.00     0.127 A   
ATOM     4   N3  UNL     1      -1.334  -1.594  -1.531  1.00  0.00    -0.132 NA  
ATOM     5   N4  UNL     1      -0.646  -2.675  -1.204  1.00  0.00    -0.076 NA  
ATOM     6   H12 UNL     1       0.142  -0.758   1.310  1.00  0.00     0.083 HD  
ENDROOT
BRANCH   1   7
ATOM     7   C9  UNL     1       0.791  -3.465   0.595  1.00  0.00     0.172 C   
BRANCH   7   8
ATOM     8   C8  UNL     1       2.155  -2.950   0.980  1.00  0.00     0.002 A   
ATOM     9   C2  UNL     1       2.420  -2.478   2.279  1.00  0.00     0.082 A   
ATOM     10  C3  UNL     1       3.653  -1.889   2.602  1.00  0.00    -0.020 A   
ATOM     11  C5  UNL     1       4.658  -1.861   1.626  1.00  0.00     0.006 A   
ATOM     12  C7  UNL     1       3.175  -2.891   0.019  1.00  0.00     0.008 A   
ATOM     13  C6  UNL     1       4.422  -2.361   0.345  1.00  0.00     0.001 A   
ATOM     14  C4  UNL     1       3.934  -1.323   3.964  1.00  0.00     0.047 C   
BRANCH   9  15
ATOM     15  O1  UNL     1       1.411  -2.519   3.211  1.00  0.00    -0.349 OA  
ATOM     16  C1  UNL     1       1.546  -3.684   4.035  1.00  0.00     0.203 C   
ENDBRANCH   9  15
ENDBRANCH   7   8
ENDBRANCH   1   7
BRANCH   3  17
ATOM     17  C12 UNL     1      -1.686   0.726  -0.740  1.00  0.00     0.114 C   
BRANCH  17  18
ATOM     18  C13 UNL     1      -3.107   0.841  -0.155  1.00  0.00     0.064 C   
BRANCH  18  19
ATOM     19  C14 UNL     1      -3.203   0.685   1.378  1.00  0.00    -0.012 C   
ATOM     20  C15 UNL     1      -4.669   0.768   1.812  1.00  0.00     0.007 C   
ATOM     21  C16 UNL     1      -2.385   1.739   2.125  1.00  0.00     0.007 C   
ENDBRANCH  18  19
ENDBRANCH  17  18
BRANCH  17  22
ATOM     22  N2  UNL     1      -1.793   1.065  -2.215  1.00  0.00     0.249 N   
ATOM     23  H23 UNL     1      -2.361   1.906  -2.344  1.00  0.00     0.199 HD  
ATOM     24  H24 UNL     1      -2.295   0.278  -2.652  1.00  0.00     0.199 HD  
BRANCH  22  25
ATOM     25  C17 UNL     1      -0.504   1.225  -2.953  1.00  0.00     0.164 C   
BRANCH  25  26
ATOM     26  C18 UNL     1       0.276   2.433  -2.515  1.00  0.00    -0.002 A   
ATOM     27  C19 UNL     1       1.414   2.285  -1.687  1.00  0.00     0.012 A   
ATOM     28  C23 UNL     1      -0.135   3.718  -2.902  1.00  0.00     0.045 A   
ATOM     29  C20 UNL     1       2.134   3.402  -1.250  1.00  0.00     0.037 A   
ATOM     30  C22 UNL     1       0.598   4.798  -2.455  1.00  0.00     0.109 A   
ATOM     31  C21 UNL     1       1.700   4.645  -1.653  1.00  0.00     0.108 A   
ATOM     32  O2  UNL     1       0.339   6.100  -2.737  1.00  0.00    -0.316 OA  
ATOM     33  O3  UNL     1       2.272   5.833  -1.328  1.00  0.00    -0.316 OA  
ATOM     34  C24 UNL     1       1.424   6.755  -2.044  1.00  0.00     0.337 C   
ENDBRANCH  25  26
ENDBRANCH  22  25
ENDBRANCH  17  22
ENDBRANCH   3  17
TORSDOF 9
