REMARK SMILES COc1ncc(Cn2cc([C@@H]([NH2+]Cc3ccc4c(c3)OCO4)C3CCCC3)nn2)cc1C
REMARK SMILES IDX 8 1 9 2 10 3 28 4 29 5 7 7 6 8 3 9 4 10 31 11 5 12 30 13
REMARK SMILES IDX 32 14 2 15 1 16 11 17 12 18 13 21 14 22 15 23 19 24 16 25
REMARK SMILES IDX 18 26 17 27 20 28 22 29 21 30 23 31 24 32 27 33 25 34 26 35
REMARK H PARENT 9 6 12 19 12 20
ROOT
ATOM     1   N2  UNL     1       1.016   1.712   2.256  1.00  0.00    -0.208 N   
ATOM     2   C6  UNL     1       0.821   0.358   2.240  1.00  0.00     0.046 A   
ATOM     3   C7  UNL     1       1.665  -0.085   1.246  1.00  0.00     0.127 A   
ATOM     4   N4  UNL     1       2.378   0.976   0.753  1.00  0.00    -0.132 NA  
ATOM     5   N5  UNL     1       1.972   2.070   1.377  1.00  0.00    -0.076 NA  
ATOM     6   H7  UNL     1       0.069  -0.127   2.847  1.00  0.00     0.083 HD  
ENDROOT
BRANCH   1   7
ATOM     7   C5  UNL     1       0.190   2.721   2.902  1.00  0.00     0.171 C   
BRANCH   7   8
ATOM     8   C4  UNL     1      -1.126   2.827   2.181  1.00  0.00    -0.010 A   
ATOM     9   C2  UNL     1      -3.444   2.909   0.711  1.00  0.00     0.169 A   
ATOM     10  N1  UNL     1      -2.308   3.370   0.140  1.00  0.00    -0.232 NA  
ATOM     11  C23 UNL     1      -3.502   2.385   2.001  1.00  0.00    -0.001 A   
ATOM     12  C3  UNL     1      -1.188   3.341   0.889  1.00  0.00     0.119 A   
ATOM     13  C22 UNL     1      -2.315   2.351   2.741  1.00  0.00     0.014 A   
ATOM     14  C24 UNL     1      -4.790   1.891   2.584  1.00  0.00     0.049 C   
BRANCH   9  15
ATOM     15  O1  UNL     1      -4.616   2.923  -0.016  1.00  0.00    -0.332 OA  
ATOM     16  C1  UNL     1      -4.506   3.619  -1.253  1.00  0.00     0.205 C   
ENDBRANCH   9  15
ENDBRANCH   7   8
ENDBRANCH   1   7
BRANCH   3  17
ATOM     17  C8  UNL     1       1.787  -1.425   0.600  1.00  0.00     0.117 C   
BRANCH  17  18
ATOM     18  N3  UNL     1       1.829  -1.280  -0.905  1.00  0.00     0.249 N   
ATOM     19  H9  UNL     1       2.036  -2.177  -1.349  1.00  0.00     0.199 HD  
ATOM     20  H10 UNL     1       2.610  -0.644  -1.117  1.00  0.00     0.199 HD  
BRANCH  18  21
ATOM     21  C9  UNL     1       0.619  -0.680  -1.555  1.00  0.00     0.164 C   
BRANCH  21  22
ATOM     22  C10 UNL     1      -0.653  -1.428  -1.270  1.00  0.00    -0.002 A   
ATOM     23  C11 UNL     1      -0.866  -2.721  -1.804  1.00  0.00     0.012 A   
ATOM     24  C15 UNL     1      -1.634  -0.851  -0.443  1.00  0.00     0.045 A   
ATOM     25  C12 UNL     1      -2.033  -3.435  -1.510  1.00  0.00     0.037 A   
ATOM     26  C14 UNL     1      -2.770  -1.584  -0.169  1.00  0.00     0.109 A   
ATOM     27  C13 UNL     1      -2.964  -2.840  -0.688  1.00  0.00     0.108 A   
ATOM     28  O2  UNL     1      -3.799  -1.184   0.623  1.00  0.00    -0.316 OA  
ATOM     29  O3  UNL     1      -4.145  -3.385  -0.296  1.00  0.00    -0.316 OA  
ATOM     30  C16 UNL     1      -4.698  -2.308   0.490  1.00  0.00     0.337 C   
ENDBRANCH  21  22
ENDBRANCH  18  21
ENDBRANCH  17  18
BRANCH  17  31
ATOM     31  C17 UNL     1       3.015  -2.204   1.111  1.00  0.00     0.043 C   
ATOM     32  C18 UNL     1       3.035  -3.690   0.714  1.00  0.00     0.010 C   
ATOM     33  C21 UNL     1       4.391  -1.690   0.676  1.00  0.00     0.010 C   
ATOM     34  C19 UNL     1       4.511  -4.083   0.611  1.00  0.00     0.001 C   
ATOM     35  C20 UNL     1       5.305  -2.853   1.031  1.00  0.00     0.001 C   
ENDBRANCH  17  31
ENDBRANCH   3  17
TORSDOF 8
