REMARK SMILES CN(CCn1cc([C@@H]([NH2+]Cc2ccc3c(c2)OCO3)C(C)(C)C)nn1)c1ccccc1
REMARK SMILES IDX 5 1 6 2 7 3 24 4 25 5 4 7 3 8 2 9 1 10 26 11 27 12 31 13
REMARK SMILES IDX 28 14 30 15 29 16 8 17 9 18 10 21 11 22 12 23 16 24 13 25
REMARK SMILES IDX 15 26 14 27 17 28 19 29 18 30 20 31 21 32 22 33 23 34
REMARK H PARENT 6 6 9 19 9 20
ROOT
ATOM     1   N2  UNL     1       1.054   3.168  -0.829  1.00  0.00    -0.211 N   
ATOM     2   C4  UNL     1       1.765   2.177  -0.213  1.00  0.00     0.045 A   
ATOM     3   C5  UNL     1       1.443   1.046  -0.926  1.00  0.00     0.127 A   
ATOM     4   N4  UNL     1       0.580   1.383  -1.941  1.00  0.00    -0.132 NA  
ATOM     5   N5  UNL     1       0.360   2.687  -1.878  1.00  0.00    -0.076 NA  
ATOM     6   H8  UNL     1       2.365   2.360   0.667  1.00  0.00     0.083 HD  
ENDROOT
BRANCH   1   7
ATOM     7   C3  UNL     1       0.990   4.569  -0.475  1.00  0.00     0.153 C   
BRANCH   7   8
ATOM     8   C2  UNL     1      -0.238   4.910   0.372  1.00  0.00     0.126 C   
BRANCH   8   9
ATOM     9   N1  UNL     1      -0.198   4.223   1.679  1.00  0.00    -0.332 N   
ATOM     10  C1  UNL     1       0.494   4.942   2.754  1.00  0.00     0.130 C   
BRANCH   9  11
ATOM     11  C19 UNL     1      -1.019   3.140   1.996  1.00  0.00     0.028 A   
ATOM     12  C20 UNL     1      -1.975   2.612   1.109  1.00  0.00     0.023 A   
ATOM     13  C24 UNL     1      -0.928   2.486   3.242  1.00  0.00     0.023 A   
ATOM     14  C21 UNL     1      -2.809   1.535   1.452  1.00  0.00     0.002 A   
ATOM     15  C23 UNL     1      -1.745   1.401   3.588  1.00  0.00     0.002 A   
ATOM     16  C22 UNL     1      -2.693   0.926   2.693  1.00  0.00     0.000 A   
ENDBRANCH   9  11
ENDBRANCH   8   9
ENDBRANCH   7   8
ENDBRANCH   1   7
BRANCH   3  17
ATOM     17  C6  UNL     1       1.779  -0.395  -0.690  1.00  0.00     0.120 C   
BRANCH  17  18
ATOM     18  N3  UNL     1       0.547  -1.220  -0.976  1.00  0.00     0.250 N   
ATOM     19  H10 UNL     1       0.161  -0.856  -1.859  1.00  0.00     0.199 HD  
ATOM     20  H11 UNL     1       0.750  -2.208  -1.137  1.00  0.00     0.199 HD  
BRANCH  18  21
ATOM     21  C7  UNL     1      -0.536  -1.110   0.042  1.00  0.00     0.164 C   
BRANCH  21  22
ATOM     22  C8  UNL     1      -1.772  -1.815  -0.437  1.00  0.00    -0.002 A   
ATOM     23  C9  UNL     1      -2.027  -3.157  -0.071  1.00  0.00     0.012 A   
ATOM     24  C13 UNL     1      -2.658  -1.152  -1.306  1.00  0.00     0.045 A   
ATOM     25  C10 UNL     1      -3.155  -3.829  -0.557  1.00  0.00     0.037 A   
ATOM     26  C12 UNL     1      -3.761  -1.843  -1.762  1.00  0.00     0.109 A   
ATOM     27  C11 UNL     1      -4.002  -3.144  -1.401  1.00  0.00     0.108 A   
ATOM     28  O1  UNL     1      -4.709  -1.352  -2.603  1.00  0.00    -0.316 OA  
ATOM     29  O2  UNL     1      -5.132  -3.639  -1.971  1.00  0.00    -0.316 OA  
ATOM     30  C14 UNL     1      -5.583  -2.496  -2.730  1.00  0.00     0.337 C   
ENDBRANCH  21  22
ENDBRANCH  18  21
ENDBRANCH  17  18
BRANCH  17  31
ATOM     31  C15 UNL     1       2.997  -0.915  -1.527  1.00  0.00     0.010 C   
ATOM     32  C16 UNL     1       3.344  -2.367  -1.126  1.00  0.00     0.017 C   
ATOM     33  C17 UNL     1       2.734  -0.883  -3.046  1.00  0.00     0.017 C   
ATOM     34  C18 UNL     1       4.246  -0.051  -1.233  1.00  0.00     0.017 C   
ENDBRANCH  17  31
ENDBRANCH   3  17
TORSDOF 9
