REMARK SMILES COc1ccccc1-n1cc([C@@H]([NH2+]Cc2ccc3c(c2)OCO3)C2CCCCC2)nn1
REMARK SMILES IDX 9 1 10 2 11 3 30 4 31 5 8 6 3 7 4 8 5 9 7 10 6 11 2 12 1 13
REMARK SMILES IDX 12 14 13 15 14 18 15 19 16 20 20 21 17 22 19 23 18 24 21 25
REMARK SMILES IDX 23 26 22 27 24 28 25 29 29 30 26 31 28 32 27 33
REMARK H PARENT 13 16 13 17
ROOT
ATOM     1   N1  UNL     1      -2.316  -0.874   0.435  1.00  0.00    -0.178 N   
ATOM     2   C8  UNL     1      -1.219  -0.459   1.169  1.00  0.00     0.135 A   
ATOM     3   C9  UNL     1      -0.155  -0.503   0.300  1.00  0.00     0.127 A   
ATOM     4   N3  UNL     1      -0.593  -0.911  -0.924  1.00  0.00    -0.131 NA  
ATOM     5   N4  UNL     1      -1.892  -1.130  -0.840  1.00  0.00    -0.071 NA  
ENDROOT
BRANCH   1   6
ATOM     6   C7  UNL     1      -3.681  -1.060   0.800  1.00  0.00     0.088 A   
ATOM     7   C2  UNL     1      -4.185  -0.800   2.091  1.00  0.00     0.098 A   
ATOM     8   C3  UNL     1      -5.550  -1.026   2.345  1.00  0.00     0.035 A   
ATOM     9   C4  UNL     1      -6.409  -1.480   1.342  1.00  0.00     0.003 A   
ATOM     10  C6  UNL     1      -4.564  -1.518  -0.203  1.00  0.00     0.029 A   
ATOM     11  C5  UNL     1      -5.917  -1.725   0.067  1.00  0.00     0.002 A   
BRANCH   7  12
ATOM     12  O1  UNL     1      -3.328  -0.370   3.066  1.00  0.00    -0.347 OA  
ATOM     13  C1  UNL     1      -3.901   0.277   4.205  1.00  0.00     0.203 C   
ENDBRANCH   7  12
ENDBRANCH   1   6
BRANCH   3  14
ATOM     14  C10 UNL     1       1.308  -0.284   0.516  1.00  0.00     0.117 C   
BRANCH  14  15
ATOM     15  N2  UNL     1       2.093  -1.282  -0.309  1.00  0.00     0.249 N   
ATOM     16  H10 UNL     1       1.489  -1.512  -1.115  1.00  0.00     0.199 HD  
ATOM     17  H11 UNL     1       2.936  -0.858  -0.705  1.00  0.00     0.199 HD  
BRANCH  15  18
ATOM     18  C11 UNL     1       2.467  -2.560   0.370  1.00  0.00     0.164 C   
BRANCH  18  19
ATOM     19  C12 UNL     1       1.300  -3.325   0.932  1.00  0.00    -0.002 A   
ATOM     20  C13 UNL     1       0.395  -3.992   0.071  1.00  0.00     0.012 A   
ATOM     21  C17 UNL     1       1.060  -3.326   2.317  1.00  0.00     0.045 A   
ATOM     22  C14 UNL     1      -0.746  -4.627   0.578  1.00  0.00     0.037 A   
ATOM     23  C16 UNL     1      -0.075  -3.959   2.782  1.00  0.00     0.109 A   
ATOM     24  C15 UNL     1      -0.955  -4.586   1.938  1.00  0.00     0.108 A   
ATOM     25  O2  UNL     1      -0.464  -4.025   4.081  1.00  0.00    -0.316 OA  
ATOM     26  O3  UNL     1      -2.011  -5.127   2.599  1.00  0.00    -0.316 OA  
ATOM     27  C18 UNL     1      -1.689  -4.784   3.962  1.00  0.00     0.337 C   
ENDBRANCH  18  19
ENDBRANCH  15  18
ENDBRANCH  14  15
BRANCH  14  28
ATOM     28  C19 UNL     1       1.744   1.170   0.190  1.00  0.00     0.043 C   
ATOM     29  C20 UNL     1       3.165   1.458   0.715  1.00  0.00     0.010 C   
ATOM     30  C24 UNL     1       1.638   1.549  -1.302  1.00  0.00     0.010 C   
ATOM     31  C21 UNL     1       3.577   2.907   0.467  1.00  0.00     0.001 C   
ATOM     32  C23 UNL     1       2.060   2.999  -1.545  1.00  0.00     0.001 C   
ATOM     33  C22 UNL     1       3.459   3.279  -1.007  1.00  0.00     0.000 C   
ENDBRANCH  14  28
ENDBRANCH   3  14
TORSDOF 7
