REMARK SMILES CC(C)C[C@H]([NH2+]Cc1ccc2c(c1)OCO2)c1cn(Cc2ccc(N)nc2)nn1
REMARK SMILES IDX 17 1 18 2 19 3 28 4 29 5 5 7 4 8 2 9 1 10 3 11 6 12 7 15
REMARK SMILES IDX 8 16 9 17 13 18 10 19 12 20 11 21 14 22 16 23 15 24 20 25
REMARK SMILES IDX 21 26 22 27 27 28 23 29 26 30 24 31 25 32
REMARK H PARENT 18 6 6 13 6 14 25 33 25 34
ROOT
ATOM     1   C14 UNL     1      -0.163   1.252  -1.128  1.00  0.00     0.127 A   
ATOM     2   C15 UNL     1       0.433   1.438   0.100  1.00  0.00     0.046 A   
ATOM     3   N2  UNL     1      -0.569   1.950   0.877  1.00  0.00    -0.208 N   
ATOM     4   N5  UNL     1      -1.694   2.122   0.157  1.00  0.00    -0.076 NA  
ATOM     5   N6  UNL     1      -1.455   1.704  -1.076  1.00  0.00    -0.132 NA  
ATOM     6   H20 UNL     1       1.412   1.198   0.491  1.00  0.00     0.083 HD  
ENDROOT
BRANCH   1   7
ATOM     7   C5  UNL     1       0.343   0.579  -2.357  1.00  0.00     0.114 C   
BRANCH   7   8
ATOM     8   C4  UNL     1       0.677   1.573  -3.486  1.00  0.00     0.064 C   
BRANCH   8   9
ATOM     9   C2  UNL     1       1.809   2.573  -3.165  1.00  0.00    -0.012 C   
ATOM     10  C1  UNL     1       1.984   3.545  -4.335  1.00  0.00     0.007 C   
ATOM     11  C3  UNL     1       3.138   1.876  -2.872  1.00  0.00     0.007 C   
ENDBRANCH   8   9
ENDBRANCH   7   8
BRANCH   7  12
ATOM     12  N1  UNL     1      -0.696  -0.380  -2.912  1.00  0.00     0.249 N   
ATOM     13  H11 UNL     1      -0.347  -0.799  -3.778  1.00  0.00     0.199 HD  
ATOM     14  H12 UNL     1      -1.520   0.186  -3.153  1.00  0.00     0.199 HD  
BRANCH  12  15
ATOM     15  C6  UNL     1      -1.171  -1.467  -1.996  1.00  0.00     0.164 C   
BRANCH  15  16
ATOM     16  C7  UNL     1      -0.069  -2.305  -1.411  1.00  0.00    -0.002 A   
ATOM     17  C8  UNL     1       0.148  -2.307  -0.012  1.00  0.00     0.012 A   
ATOM     18  C12 UNL     1       0.759  -3.082  -2.239  1.00  0.00     0.045 A   
ATOM     19  C9  UNL     1       1.184  -3.055   0.558  1.00  0.00     0.037 A   
ATOM     20  C11 UNL     1       1.773  -3.806  -1.645  1.00  0.00     0.109 A   
ATOM     21  C10 UNL     1       1.981  -3.792  -0.287  1.00  0.00     0.108 A   
ATOM     22  O1  UNL     1       2.664  -4.596  -2.300  1.00  0.00    -0.316 OA  
ATOM     23  O2  UNL     1       3.030  -4.571   0.083  1.00  0.00    -0.316 OA  
ATOM     24  C13 UNL     1       3.439  -5.110  -1.192  1.00  0.00     0.337 C   
ENDBRANCH  15  16
ENDBRANCH  12  15
ENDBRANCH   7  12
ENDBRANCH   1   7
BRANCH   3  25
ATOM     25  C16 UNL     1      -0.568   2.144   2.318  1.00  0.00     0.171 C   
BRANCH  25  26
ATOM     26  C17 UNL     1      -0.735   0.818   3.004  1.00  0.00    -0.010 A   
ATOM     27  C18 UNL     1      -1.995   0.255   3.213  1.00  0.00     0.010 A   
ATOM     28  C21 UNL     1       0.367   0.053   3.369  1.00  0.00     0.118 A   
ATOM     29  C19 UNL     1      -2.095  -1.023   3.758  1.00  0.00     0.044 A   
ATOM     30  N4  UNL     1       0.289  -1.196   3.875  1.00  0.00    -0.242 NA  
ATOM     31  C20 UNL     1      -0.934  -1.711   4.077  1.00  0.00     0.115 A   
BRANCH  31  32
ATOM     32  N3  UNL     1      -0.992  -3.011   4.561  1.00  0.00    -0.343 N   
ATOM     33  H25 UNL     1      -1.597  -3.089   5.372  1.00  0.00     0.144 HD  
ATOM     34  H26 UNL     1      -0.042  -3.301   4.780  1.00  0.00     0.144 HD  
ENDBRANCH  31  32
ENDBRANCH  25  26
ENDBRANCH   3  25
TORSDOF 9
