REMARK SMILES c1ccn2ncc(Cn3cc([C@@H]([NH2+]Cc4ccc5c(c4)OCO5)C4CCCCC4)nn3)c2c1
REMARK SMILES IDX 12 1 11 2 9 3 10 4 31 5 30 6 8 8 7 9 1 10 2 11 33 12 3 13
REMARK SMILES IDX 32 14 4 15 5 16 6 17 13 18 14 21 15 22 16 23 20 24 17 25
REMARK SMILES IDX 19 26 18 27 21 28 23 29 22 30 24 31 25 32 29 33 26 34 28 35
REMARK SMILES IDX 27 36
REMARK H PARENT 10 7 13 19 13 20
ROOT
ATOM     1   C9  UNL     1      -0.045  -0.745  -1.429  1.00  0.00     0.117 C   
ENDROOT
BRANCH   1   2
ATOM     2   C8  UNL     1       0.661  -0.328  -0.179  1.00  0.00     0.127 A   
ATOM     3   N3  UNL     1       1.828  -0.112   1.631  1.00  0.00    -0.208 N   
ATOM     4   C7  UNL     1       1.687  -0.913   0.530  1.00  0.00     0.046 A   
ATOM     5   N6  UNL     1       0.944   0.904   1.600  1.00  0.00    -0.076 NA  
ATOM     6   N5  UNL     1       0.225   0.782   0.498  1.00  0.00    -0.132 NA  
ATOM     7   H7  UNL     1       2.287  -1.800   0.381  1.00  0.00     0.083 HD  
BRANCH   3   8
ATOM     8   C6  UNL     1       2.713  -0.292   2.772  1.00  0.00     0.173 C   
BRANCH   8   9
ATOM     9   C5  UNL     1       2.170  -1.340   3.675  1.00  0.00     0.015 A   
ATOM     10  C1  UNL     1       4.128  -4.484   4.240  1.00  0.00     0.003 A   
ATOM     11  C2  UNL     1       3.168  -5.109   5.134  1.00  0.00     0.018 A   
ATOM     12  C25 UNL     1       3.909  -3.267   3.706  1.00  0.00     0.026 A   
ATOM     13  C3  UNL     1       2.039  -4.448   5.435  1.00  0.00     0.102 A   
ATOM     14  C24 UNL     1       2.708  -2.565   4.021  1.00  0.00     0.062 A   
ATOM     15  N1  UNL     1       1.800  -3.186   4.891  1.00  0.00    -0.201 N   
ATOM     16  N2  UNL     1       0.709  -2.403   5.083  1.00  0.00    -0.185 NA  
ATOM     17  C4  UNL     1       0.953  -1.294   4.391  1.00  0.00     0.139 A   
ENDBRANCH   8   9
ENDBRANCH   3   8
ENDBRANCH   1   2
BRANCH   1  18
ATOM     18  N4  UNL     1      -1.509  -0.397  -1.321  1.00  0.00     0.249 N   
ATOM     19  H9  UNL     1      -1.555   0.556  -0.931  1.00  0.00     0.199 HD  
ATOM     20  H10 UNL     1      -1.961  -0.355  -2.239  1.00  0.00     0.199 HD  
BRANCH  18  21
ATOM     21  C10 UNL     1      -2.309  -1.273  -0.420  1.00  0.00     0.164 C   
BRANCH  21  22
ATOM     22  C11 UNL     1      -3.726  -0.780  -0.336  1.00  0.00    -0.002 A   
ATOM     23  C12 UNL     1      -4.724  -1.313  -1.186  1.00  0.00     0.012 A   
ATOM     24  C16 UNL     1      -4.055   0.257   0.554  1.00  0.00     0.045 A   
ATOM     25  C13 UNL     1      -6.036  -0.828  -1.143  1.00  0.00     0.037 A   
ATOM     26  C15 UNL     1      -5.357   0.711   0.570  1.00  0.00     0.109 A   
ATOM     27  C14 UNL     1      -6.320   0.184  -0.255  1.00  0.00     0.108 A   
ATOM     28  O1  UNL     1      -5.840   1.701   1.365  1.00  0.00    -0.316 OA  
ATOM     29  O2  UNL     1      -7.531   0.774  -0.081  1.00  0.00    -0.316 OA  
ATOM     30  C17 UNL     1      -7.232   1.711   0.975  1.00  0.00     0.337 C   
ENDBRANCH  21  22
ENDBRANCH  18  21
ENDBRANCH   1  18
BRANCH   1  31
ATOM     31  C18 UNL     1       0.517  -0.105  -2.727  1.00  0.00     0.043 C   
ATOM     32  C19 UNL     1       0.438   1.435  -2.760  1.00  0.00     0.010 C   
ATOM     33  C23 UNL     1       1.958  -0.569  -3.013  1.00  0.00     0.010 C   
ATOM     34  C20 UNL     1       0.972   1.998  -4.077  1.00  0.00     0.001 C   
ATOM     35  C22 UNL     1       2.484  -0.003  -4.330  1.00  0.00     0.001 C   
ATOM     36  C21 UNL     1       2.391   1.518  -4.362  1.00  0.00     0.000 C   
ENDBRANCH   1  31
TORSDOF 7
