REMARK SMILES CC(C)C[C@H]([NH2+]Cc1ccc2c(c1)OCO2)c1cn([C@@H](CO)c2ccc[nH]2)nn1
REMARK SMILES IDX 17 1 18 2 19 3 28 4 29 5 5 7 4 8 2 9 1 10 3 11 6 12 7 15
REMARK SMILES IDX 8 16 9 17 13 18 10 19 12 20 11 21 14 22 16 23 15 24 20 25
REMARK SMILES IDX 21 26 22 27 23 29 24 30 27 31 25 32 26 33
REMARK H PARENT 18 6 6 13 6 14 22 28 27 34
ROOT
ATOM     1   C14 UNL     1      -0.535  -0.663  -0.672  1.00  0.00     0.127 A   
ATOM     2   C15 UNL     1      -1.237   0.516  -0.750  1.00  0.00     0.046 A   
ATOM     3   N2  UNL     1      -2.463   0.148  -1.235  1.00  0.00    -0.201 N   
ATOM     4   N4  UNL     1      -2.515  -1.188  -1.425  1.00  0.00    -0.075 NA  
ATOM     5   N5  UNL     1      -1.337  -1.693  -1.091  1.00  0.00    -0.132 NA  
ATOM     6   H20 UNL     1      -1.001   1.544  -0.507  1.00  0.00     0.083 HD  
ENDROOT
BRANCH   1   7
ATOM     7   C5  UNL     1       0.844  -0.945  -0.177  1.00  0.00     0.114 C   
BRANCH   7   8
ATOM     8   C4  UNL     1       1.834  -1.053  -1.355  1.00  0.00     0.064 C   
BRANCH   8   9
ATOM     9   C2  UNL     1       3.316  -1.279  -0.989  1.00  0.00    -0.012 C   
ATOM     10  C1  UNL     1       3.863  -0.200  -0.054  1.00  0.00     0.007 C   
ATOM     11  C3  UNL     1       4.158  -1.329  -2.268  1.00  0.00     0.007 C   
ENDBRANCH   8   9
ENDBRANCH   7   8
BRANCH   7  12
ATOM     12  N1  UNL     1       0.866  -2.236   0.606  1.00  0.00     0.249 N   
ATOM     13  H11 UNL     1       0.451  -2.950  -0.007  1.00  0.00     0.199 HD  
ATOM     14  H12 UNL     1       1.827  -2.519   0.806  1.00  0.00     0.199 HD  
BRANCH  12  15
ATOM     15  C6  UNL     1       0.093  -2.241   1.885  1.00  0.00     0.164 C   
BRANCH  15  16
ATOM     16  C7  UNL     1       0.687  -1.337   2.929  1.00  0.00    -0.002 A   
ATOM     17  C8  UNL     1       1.868  -1.711   3.614  1.00  0.00     0.012 A   
ATOM     18  C12 UNL     1       0.094  -0.092   3.202  1.00  0.00     0.045 A   
ATOM     19  C9  UNL     1       2.454  -0.858   4.555  1.00  0.00     0.037 A   
ATOM     20  C11 UNL     1       0.698   0.726   4.135  1.00  0.00     0.109 A   
ATOM     21  C10 UNL     1       1.845   0.355   4.791  1.00  0.00     0.108 A   
ATOM     22  O1  UNL     1       0.261   1.957   4.507  1.00  0.00    -0.316 OA  
ATOM     23  O2  UNL     1       2.273   1.304   5.662  1.00  0.00    -0.316 OA  
ATOM     24  C13 UNL     1       1.252   2.311   5.499  1.00  0.00     0.337 C   
ENDBRANCH  15  16
ENDBRANCH  12  15
ENDBRANCH   7  12
ENDBRANCH   1   7
BRANCH   3  25
ATOM     25  C16 UNL     1      -3.629   0.981  -1.525  1.00  0.00     0.169 C   
BRANCH  25  26
ATOM     26  C17 UNL     1      -4.405   1.337  -0.243  1.00  0.00     0.187 C   
BRANCH  26  27
ATOM     27  O3  UNL     1      -3.596   1.989   0.740  1.00  0.00    -0.394 OA  
ATOM     28  H24 UNL     1      -4.203   2.339   1.419  1.00  0.00     0.210 HD  
ENDBRANCH  26  27
ENDBRANCH  25  26
BRANCH  25  29
ATOM     29  C18 UNL     1      -3.241   2.172  -2.369  1.00  0.00     0.032 A   
ATOM     30  C19 UNL     1      -2.901   3.471  -2.031  1.00  0.00     0.022 A   
ATOM     31  N3  UNL     1      -3.172   2.082  -3.744  1.00  0.00    -0.323 N   
ATOM     32  C20 UNL     1      -2.616   4.171  -3.226  1.00  0.00     0.017 A   
ATOM     33  C21 UNL     1      -2.790   3.288  -4.266  1.00  0.00     0.072 A   
ATOM     34  H28 UNL     1      -3.370   1.255  -4.295  1.00  0.00     0.152 HD  
ENDBRANCH  25  29
ENDBRANCH   3  25
TORSDOF 10
