REMARK SMILES CC(C)C[C@H]([NH2+]Cc1ccc2c(c1)OCO2)c1cn([C@H](CO)c2ccc[nH]2)nn1
REMARK SMILES IDX 17 1 18 2 19 3 28 4 29 5 5 7 4 8 2 9 1 10 3 11 6 12 7 15
REMARK SMILES IDX 8 16 9 17 13 18 10 19 12 20 11 21 14 22 16 23 15 24 20 25
REMARK SMILES IDX 21 26 22 27 23 29 24 30 27 31 25 32 26 33
REMARK H PARENT 18 6 6 13 6 14 22 28 27 34
ROOT
ATOM     1   C14 UNL     1      -0.361  -0.645   1.110  1.00  0.00     0.127 A   
ATOM     2   C15 UNL     1       0.678  -0.004   1.746  1.00  0.00     0.046 A   
ATOM     3   N2  UNL     1       1.328  -1.004   2.422  1.00  0.00    -0.201 N   
ATOM     4   N4  UNL     1       0.736  -2.194   2.188  1.00  0.00    -0.075 NA  
ATOM     5   N5  UNL     1      -0.295  -1.987   1.386  1.00  0.00    -0.132 NA  
ATOM     6   H20 UNL     1       1.009   1.024   1.783  1.00  0.00     0.083 HD  
ENDROOT
BRANCH   1   7
ATOM     7   C5  UNL     1      -1.386  -0.148   0.147  1.00  0.00     0.114 C   
BRANCH   7   8
ATOM     8   C4  UNL     1      -2.833  -0.263   0.665  1.00  0.00     0.064 C   
BRANCH   8   9
ATOM     9   C2  UNL     1      -3.281   0.836   1.653  1.00  0.00    -0.012 C   
ATOM     10  C1  UNL     1      -2.585   0.765   3.011  1.00  0.00     0.007 C   
ATOM     11  C3  UNL     1      -4.797   0.741   1.863  1.00  0.00     0.007 C   
ENDBRANCH   8   9
ENDBRANCH   7   8
BRANCH   7  12
ATOM     12  N1  UNL     1      -1.300  -1.000  -1.104  1.00  0.00     0.249 N   
ATOM     13  H11 UNL     1      -1.242  -1.980  -0.788  1.00  0.00     0.199 HD  
ATOM     14  H12 UNL     1      -2.154  -0.932  -1.664  1.00  0.00     0.199 HD  
BRANCH  12  15
ATOM     15  C6  UNL     1      -0.125  -0.734  -1.982  1.00  0.00     0.164 C   
BRANCH  15  16
ATOM     16  C7  UNL     1      -0.058  -1.753  -3.086  1.00  0.00    -0.002 A   
ATOM     17  C8  UNL     1       0.660  -2.959  -2.893  1.00  0.00     0.012 A   
ATOM     18  C12 UNL     1      -0.748  -1.544  -4.293  1.00  0.00     0.045 A   
ATOM     19  C9  UNL     1       0.705  -3.938  -3.892  1.00  0.00     0.037 A   
ATOM     20  C11 UNL     1      -0.691  -2.532  -5.255  1.00  0.00     0.109 A   
ATOM     21  C10 UNL     1       0.016  -3.695  -5.061  1.00  0.00     0.108 A   
ATOM     22  O1  UNL     1      -1.303  -2.493  -6.467  1.00  0.00    -0.316 OA  
ATOM     23  O2  UNL     1      -0.061  -4.532  -6.128  1.00  0.00    -0.316 OA  
ATOM     24  C13 UNL     1      -0.890  -3.762  -7.026  1.00  0.00     0.337 C   
ENDBRANCH  15  16
ENDBRANCH  12  15
ENDBRANCH   7  12
ENDBRANCH   1   7
BRANCH   3  25
ATOM     25  C16 UNL     1       2.514  -0.928   3.277  1.00  0.00     0.169 C   
BRANCH  25  26
ATOM     26  C17 UNL     1       2.168  -0.347   4.665  1.00  0.00     0.187 C   
BRANCH  26  27
ATOM     27  O3  UNL     1       1.803   1.040   4.605  1.00  0.00    -0.394 OA  
ATOM     28  H24 UNL     1       1.627   1.319   5.526  1.00  0.00     0.210 HD  
ENDBRANCH  26  27
ENDBRANCH  25  26
BRANCH  25  29
ATOM     29  C18 UNL     1       3.639  -0.212   2.564  1.00  0.00     0.032 A   
ATOM     30  C19 UNL     1       4.578  -0.689   1.666  1.00  0.00     0.022 A   
ATOM     31  N3  UNL     1       3.889   1.132   2.742  1.00  0.00    -0.323 N   
ATOM     32  C20 UNL     1       5.400   0.400   1.290  1.00  0.00     0.017 A   
ATOM     33  C21 UNL     1       4.950   1.510   1.967  1.00  0.00     0.072 A   
ATOM     34  H28 UNL     1       3.364   1.740   3.364  1.00  0.00     0.152 HD  
ENDBRANCH  25  29
ENDBRANCH   3  25
TORSDOF 10
