REMARK SMILES Oc1ccc(Cn2cc([C@@H]([NH2+]Cc3ccc4c(c3)OCO4)C3CCCCC3)nn2)cc1F
REMARK SMILES IDX 7 1 8 2 9 3 28 4 29 5 6 7 5 8 2 9 3 10 31 11 4 12 30 13
REMARK SMILES IDX 32 14 1 15 10 17 11 18 12 21 13 22 14 23 18 24 15 25 17 26
REMARK SMILES IDX 16 27 19 28 21 29 20 30 22 31 23 32 27 33 24 34 26 35 25 36
REMARK H PARENT 8 6 1 16 11 19 11 20
ROOT
ATOM     1   N1  UNL     1       2.483   1.580   0.712  1.00  0.00    -0.208 N   
ATOM     2   C6  UNL     1       1.284   0.970   0.969  1.00  0.00     0.046 A   
ATOM     3   C7  UNL     1       0.641   0.975  -0.249  1.00  0.00     0.127 A   
ATOM     4   N3  UNL     1       1.431   1.614  -1.171  1.00  0.00    -0.132 NA  
ATOM     5   N4  UNL     1       2.546   1.991  -0.569  1.00  0.00    -0.076 NA  
ATOM     6   H6  UNL     1       1.032   0.576   1.944  1.00  0.00     0.083 HD  
ENDROOT
BRANCH   1   7
ATOM     7   C5  UNL     1       3.596   1.805   1.620  1.00  0.00     0.169 C   
BRANCH   7   8
ATOM     8   C4  UNL     1       4.242   0.502   2.024  1.00  0.00    -0.025 A   
ATOM     9   C1  UNL     1       5.411  -1.931   2.770  1.00  0.00     0.107 A   
ATOM     10  C2  UNL     1       4.700  -1.197   3.710  1.00  0.00     0.036 A   
ATOM     11  C24 UNL     1       5.546  -1.460   1.470  1.00  0.00     0.153 A   
ATOM     12  C3  UNL     1       4.117   0.019   3.339  1.00  0.00     0.008 A   
ATOM     13  C23 UNL     1       4.970  -0.252   1.089  1.00  0.00     0.047 A   
ATOM     14  F1  UNL     1       6.232  -2.182   0.572  1.00  0.00    -0.204 F   
BRANCH   9  15
ATOM     15  O1  UNL     1       5.968  -3.115   3.155  1.00  0.00    -0.358 OA  
ATOM     16  H1  UNL     1       6.459  -3.469   2.389  1.00  0.00     0.218 HD  
ENDBRANCH   9  15
ENDBRANCH   7   8
ENDBRANCH   1   7
BRANCH   3  17
ATOM     17  C8  UNL     1      -0.689   0.432  -0.670  1.00  0.00     0.117 C   
BRANCH  17  18
ATOM     18  N2  UNL     1      -1.147   1.111  -1.938  1.00  0.00     0.249 N   
ATOM     19  H8  UNL     1      -1.808   0.529  -2.458  1.00  0.00     0.199 HD  
ATOM     20  H9  UNL     1      -0.305   1.207  -2.525  1.00  0.00     0.199 HD  
BRANCH  18  21
ATOM     21  C9  UNL     1      -1.726   2.477  -1.774  1.00  0.00     0.164 C   
BRANCH  21  22
ATOM     22  C10 UNL     1      -3.118   2.439  -1.204  1.00  0.00    -0.002 A   
ATOM     23  C11 UNL     1      -4.207   2.019  -2.005  1.00  0.00     0.012 A   
ATOM     24  C15 UNL     1      -3.342   2.788   0.139  1.00  0.00     0.045 A   
ATOM     25  C12 UNL     1      -5.500   1.938  -1.476  1.00  0.00     0.037 A   
ATOM     26  C14 UNL     1      -4.628   2.695   0.630  1.00  0.00     0.109 A   
ATOM     27  C13 UNL     1      -5.676   2.280  -0.154  1.00  0.00     0.108 A   
ATOM     28  O2  UNL     1      -5.011   2.981   1.901  1.00  0.00    -0.316 OA  
ATOM     29  O3  UNL     1      -6.852   2.257   0.524  1.00  0.00    -0.316 OA  
ATOM     30  C16 UNL     1      -6.433   2.729   1.823  1.00  0.00     0.337 C   
ENDBRANCH  21  22
ENDBRANCH  18  21
ENDBRANCH  17  18
BRANCH  17  31
ATOM     31  C17 UNL     1      -0.655  -1.109  -0.864  1.00  0.00     0.043 C   
ATOM     32  C18 UNL     1      -2.075  -1.702  -0.959  1.00  0.00     0.010 C   
ATOM     33  C22 UNL     1       0.198  -1.571  -2.062  1.00  0.00     0.010 C   
ATOM     34  C19 UNL     1      -2.042  -3.224  -1.078  1.00  0.00     0.001 C   
ATOM     35  C21 UNL     1       0.223  -3.095  -2.179  1.00  0.00     0.001 C   
ATOM     36  C20 UNL     1      -1.184  -3.678  -2.254  1.00  0.00     0.000 C   
ENDBRANCH  17  31
ENDBRANCH   3  17
TORSDOF 8
