REMARK SMILES CC(C)(C)[C@H]([NH2+]Cc1ccc2c(c1)OCO2)c1cn(C[C@H](O)c2cc(F)ccc2F)nn1
REMARK SMILES IDX 17 1 18 2 19 3 31 4 32 5 5 7 2 8 1 9 3 10 4 11 6 12 7 15
REMARK SMILES IDX 8 16 9 17 13 18 10 19 12 20 11 21 14 22 16 23 15 24 20 25
REMARK SMILES IDX 21 26 22 27 23 29 24 30 29 31 25 32 28 33 27 34 30 35 26 36
REMARK H PARENT 18 6 6 13 6 14 22 28
ROOT
ATOM     1   C14 UNL     1       0.491   0.084  -0.607  1.00  0.00     0.127 A   
ATOM     2   C15 UNL     1       1.651   0.606  -1.138  1.00  0.00     0.046 A   
ATOM     3   N2  UNL     1       2.129   1.417  -0.147  1.00  0.00    -0.209 N   
ATOM     4   N3  UNL     1       1.369   1.326   0.958  1.00  0.00    -0.076 NA  
ATOM     5   N4  UNL     1       0.350   0.531   0.684  1.00  0.00    -0.132 NA  
ATOM     6   H20 UNL     1       2.140   0.510  -2.097  1.00  0.00     0.083 HD  
ENDROOT
BRANCH   1   7
ATOM     7   C5  UNL     1      -0.524  -0.869  -1.165  1.00  0.00     0.120 C   
BRANCH   7   8
ATOM     8   C2  UNL     1      -1.682  -0.174  -1.965  1.00  0.00     0.010 C   
ATOM     9   C1  UNL     1      -2.543   0.750  -1.081  1.00  0.00     0.017 C   
ATOM     10  C3  UNL     1      -2.608  -1.236  -2.605  1.00  0.00     0.017 C   
ATOM     11  C4  UNL     1      -1.102   0.666  -3.126  1.00  0.00     0.017 C   
ENDBRANCH   7   8
BRANCH   7  12
ATOM     12  N1  UNL     1      -1.092  -1.684  -0.025  1.00  0.00     0.250 N   
ATOM     13  H11 UNL     1      -1.272  -1.021   0.745  1.00  0.00     0.199 HD  
ATOM     14  H12 UNL     1      -1.995  -2.108  -0.250  1.00  0.00     0.199 HD  
BRANCH  12  15
ATOM     15  C6  UNL     1      -0.192  -2.740   0.516  1.00  0.00     0.164 C   
BRANCH  15  16
ATOM     16  C7  UNL     1      -0.819  -3.395   1.714  1.00  0.00    -0.002 A   
ATOM     17  C8  UNL     1      -0.647  -2.830   3.001  1.00  0.00     0.012 A   
ATOM     18  C12 UNL     1      -1.627  -4.535   1.558  1.00  0.00     0.045 A   
ATOM     19  C9  UNL     1      -1.262  -3.398   4.122  1.00  0.00     0.037 A   
ATOM     20  C11 UNL     1      -2.218  -5.068   2.685  1.00  0.00     0.109 A   
ATOM     21  C10 UNL     1      -2.042  -4.517   3.930  1.00  0.00     0.108 A   
ATOM     22  O1  UNL     1      -3.026  -6.160   2.709  1.00  0.00    -0.316 OA  
ATOM     23  O2  UNL     1      -2.715  -5.194   4.896  1.00  0.00    -0.316 OA  
ATOM     24  C13 UNL     1      -3.320  -6.252   4.123  1.00  0.00     0.337 C   
ENDBRANCH  15  16
ENDBRANCH  12  15
ENDBRANCH   7  12
ENDBRANCH   1   7
BRANCH   3  25
ATOM     25  C16 UNL     1       3.282   2.287  -0.181  1.00  0.00     0.170 C   
BRANCH  25  26
ATOM     26  C17 UNL     1       2.998   3.625  -0.873  1.00  0.00     0.167 C   
BRANCH  26  27
ATOM     27  O3  UNL     1       4.245   4.290  -1.098  1.00  0.00    -0.387 OA  
ATOM     28  H24 UNL     1       4.052   5.209  -1.360  1.00  0.00     0.211 HD  
ENDBRANCH  26  27
BRANCH  26  29
ATOM     29  C18 UNL     1       2.068   4.521  -0.089  1.00  0.00     0.021 A   
ATOM     30  C19 UNL     1       2.522   5.293   0.991  1.00  0.00     0.048 A   
ATOM     31  C23 UNL     1       0.704   4.562  -0.407  1.00  0.00     0.129 A   
ATOM     32  C20 UNL     1       1.626   6.088   1.703  1.00  0.00     0.123 A   
ATOM     33  C22 UNL     1      -0.190   5.358   0.306  1.00  0.00     0.042 A   
ATOM     34  C21 UNL     1       0.277   6.129   1.370  1.00  0.00     0.042 A   
ATOM     35  F2  UNL     1       0.235   3.811  -1.415  1.00  0.00    -0.207 F   
ATOM     36  F1  UNL     1       2.074   6.821   2.730  1.00  0.00    -0.207 F   
ENDBRANCH  26  29
ENDBRANCH  25  26
ENDBRANCH   3  25
TORSDOF 9
