REMARK SMILES CC(C)(C)[C@H]([NH2+]Cc1ccc2c(c1)OCO2)c1cn(C[C@@H](O)c2cc(F)ccc2F)nn1
REMARK SMILES IDX 17 1 18 2 19 3 31 4 32 5 5 7 2 8 1 9 3 10 4 11 6 12 7 15
REMARK SMILES IDX 8 16 9 17 13 18 10 19 12 20 11 21 14 22 16 23 15 24 20 25
REMARK SMILES IDX 21 26 22 27 23 29 24 30 29 31 25 32 28 33 27 34 30 35 26 36
REMARK H PARENT 18 6 6 13 6 14 22 28
ROOT
ATOM     1   C14 UNL     1      -0.338   0.182  -0.477  1.00  0.00     0.127 A   
ATOM     2   C15 UNL     1      -1.485  -0.506  -0.153  1.00  0.00     0.046 A   
ATOM     3   N2  UNL     1      -2.489   0.264  -0.669  1.00  0.00    -0.209 N   
ATOM     4   N3  UNL     1      -1.988   1.309  -1.354  1.00  0.00    -0.076 NA  
ATOM     5   N4  UNL     1      -0.673   1.283  -1.225  1.00  0.00    -0.132 NA  
ATOM     6   H20 UNL     1      -1.682  -1.411   0.408  1.00  0.00     0.083 HD  
ENDROOT
BRANCH   1   7
ATOM     7   C5  UNL     1       1.107  -0.113  -0.210  1.00  0.00     0.120 C   
BRANCH   7   8
ATOM     8   C2  UNL     1       1.654   0.513   1.122  1.00  0.00     0.010 C   
ATOM     9   C1  UNL     1       0.818   0.020   2.326  1.00  0.00     0.017 C   
ATOM     10  C3  UNL     1       3.110   0.055   1.374  1.00  0.00     0.017 C   
ATOM     11  C4  UNL     1       1.625   2.054   1.113  1.00  0.00     0.017 C   
ENDBRANCH   7   8
BRANCH   7  12
ATOM     12  N1  UNL     1       1.927   0.371  -1.393  1.00  0.00     0.250 N   
ATOM     13  H11 UNL     1       2.918   0.439  -1.158  1.00  0.00     0.199 HD  
ATOM     14  H12 UNL     1       1.595   1.325  -1.594  1.00  0.00     0.199 HD  
BRANCH  12  15
ATOM     15  C6  UNL     1       1.788  -0.414  -2.656  1.00  0.00     0.164 C   
BRANCH  15  16
ATOM     16  C7  UNL     1       2.384  -1.790  -2.552  1.00  0.00    -0.002 A   
ATOM     17  C8  UNL     1       1.544  -2.927  -2.482  1.00  0.00     0.012 A   
ATOM     18  C12 UNL     1       3.778  -1.955  -2.487  1.00  0.00     0.045 A   
ATOM     19  C9  UNL     1       2.082  -4.210  -2.338  1.00  0.00     0.037 A   
ATOM     20  C11 UNL     1       4.275  -3.234  -2.342  1.00  0.00     0.109 A   
ATOM     21  C10 UNL     1       3.451  -4.330  -2.268  1.00  0.00     0.108 A   
ATOM     22  O1  UNL     1       5.589  -3.564  -2.252  1.00  0.00    -0.316 OA  
ATOM     23  O2  UNL     1       4.143  -5.489  -2.122  1.00  0.00    -0.316 OA  
ATOM     24  C13 UNL     1       5.502  -5.001  -2.114  1.00  0.00     0.337 C   
ENDBRANCH  15  16
ENDBRANCH  12  15
ENDBRANCH   7  12
ENDBRANCH   1   7
BRANCH   3  25
ATOM     25  C16 UNL     1      -3.921   0.056  -0.581  1.00  0.00     0.170 C   
BRANCH  25  26
ATOM     26  C17 UNL     1      -4.506   0.400   0.796  1.00  0.00     0.167 C   
BRANCH  26  27
ATOM     27  O3  UNL     1      -4.053  -0.554   1.764  1.00  0.00    -0.387 OA  
ATOM     28  H24 UNL     1      -4.559  -0.384   2.581  1.00  0.00     0.211 HD  
ENDBRANCH  26  27
BRANCH  26  29
ATOM     29  C18 UNL     1      -4.216   1.811   1.250  1.00  0.00     0.021 A   
ATOM     30  C19 UNL     1      -3.192   2.114   2.160  1.00  0.00     0.048 A   
ATOM     31  C23 UNL     1      -4.958   2.871   0.715  1.00  0.00     0.129 A   
ATOM     32  C20 UNL     1      -2.941   3.437   2.513  1.00  0.00     0.123 A   
ATOM     33  C22 UNL     1      -4.712   4.193   1.076  1.00  0.00     0.042 A   
ATOM     34  C21 UNL     1      -3.694   4.479   1.984  1.00  0.00     0.042 A   
ATOM     35  F2  UNL     1      -5.927   2.611  -0.174  1.00  0.00    -0.207 F   
ATOM     36  F1  UNL     1      -1.950   3.707   3.372  1.00  0.00    -0.207 F   
ENDBRANCH  26  29
ENDBRANCH  25  26
ENDBRANCH   3  25
TORSDOF 9
