REMARK SMILES OC[C@H](c1cccc(Cl)n1)n1cc([C@@H]([NH2+]Cc2ccc3c(c2)OCO3)C2CCCCC2)nn1
REMARK SMILES IDX 11 1 12 2 13 3 32 4 33 5 3 7 2 8 1 9 4 11 5 12 10 13 6 14
REMARK SMILES IDX 8 15 7 16 9 17 14 18 15 19 16 22 17 23 18 24 22 25 19 26
REMARK SMILES IDX 21 27 20 28 23 29 25 30 24 31 26 32 27 33 31 34 28 35 30 36
REMARK SMILES IDX 29 37
REMARK H PARENT 12 6 1 10 15 20 15 21
ROOT
ATOM     1   N2  UNL     1      -0.244  -2.510  -0.022  1.00  0.00    -0.201 N   
ATOM     2   C8  UNL     1      -0.478  -1.396  -0.786  1.00  0.00     0.046 A   
ATOM     3   C9  UNL     1       0.660  -0.638  -0.626  1.00  0.00     0.127 A   
ATOM     4   N4  UNL     1       1.548  -1.312   0.172  1.00  0.00    -0.132 NA  
ATOM     5   N5  UNL     1       0.990  -2.458   0.526  1.00  0.00    -0.075 NA  
ATOM     6   H8  UNL     1      -1.422  -1.225  -1.288  1.00  0.00     0.083 HD  
ENDROOT
BRANCH   1   7
ATOM     7   C2  UNL     1      -1.143  -3.622   0.280  1.00  0.00     0.174 C   
BRANCH   7   8
ATOM     8   C1  UNL     1      -1.817  -4.163  -0.986  1.00  0.00     0.187 C   
BRANCH   8   9
ATOM     9   O1  UNL     1      -2.302  -5.490  -0.769  1.00  0.00    -0.394 OA  
ATOM     10  H1  UNL     1      -2.665  -5.807  -1.615  1.00  0.00     0.210 HD  
ENDBRANCH   8   9
ENDBRANCH   7   8
BRANCH   7  11
ATOM     11  C3  UNL     1      -2.168  -3.205   1.325  1.00  0.00     0.067 A   
ATOM     12  C4  UNL     1      -2.691  -4.159   2.204  1.00  0.00     0.026 A   
ATOM     13  N1  UNL     1      -2.574  -1.907   1.350  1.00  0.00    -0.239 NA  
ATOM     14  C5  UNL     1      -3.633  -3.764   3.149  1.00  0.00     0.005 A   
ATOM     15  C7  UNL     1      -3.476  -1.561   2.289  1.00  0.00     0.129 A   
ATOM     16  C6  UNL     1      -4.034  -2.433   3.200  1.00  0.00     0.041 A   
ATOM     17  CL1 UNL     1      -3.866   0.101   2.289  1.00  0.00    -0.062 Cl  
ENDBRANCH   7  11
ENDBRANCH   1   7
BRANCH   3  18
ATOM     18  C10 UNL     1       0.973   0.752  -1.077  1.00  0.00     0.117 C   
BRANCH  18  19
ATOM     19  N3  UNL     1       1.331   1.587   0.131  1.00  0.00     0.249 N   
ATOM     20  H10 UNL     1       2.125   1.131   0.598  1.00  0.00     0.199 HD  
ATOM     21  H11 UNL     1       1.643   2.523  -0.137  1.00  0.00     0.199 HD  
BRANCH  19  22
ATOM     22  C11 UNL     1       0.247   1.740   1.148  1.00  0.00     0.164 C   
BRANCH  22  23
ATOM     23  C12 UNL     1       0.628   2.782   2.163  1.00  0.00    -0.002 A   
ATOM     24  C13 UNL     1       1.430   2.439   3.275  1.00  0.00     0.012 A   
ATOM     25  C17 UNL     1       0.233   4.116   1.984  1.00  0.00     0.045 A   
ATOM     26  C14 UNL     1       1.824   3.406   4.206  1.00  0.00     0.037 A   
ATOM     27  C16 UNL     1       0.637   5.045   2.921  1.00  0.00     0.109 A   
ATOM     28  C15 UNL     1       1.409   4.700   4.001  1.00  0.00     0.108 A   
ATOM     29  O2  UNL     1       0.336   6.368   2.901  1.00  0.00    -0.316 OA  
ATOM     30  O3  UNL     1       1.690   5.762   4.801  1.00  0.00    -0.316 OA  
ATOM     31  C18 UNL     1       0.982   6.816   4.115  1.00  0.00     0.337 C   
ENDBRANCH  22  23
ENDBRANCH  19  22
ENDBRANCH  18  19
BRANCH  18  32
ATOM     32  C19 UNL     1       2.148   0.787  -2.101  1.00  0.00     0.043 C   
ATOM     33  C20 UNL     1       2.536   2.203  -2.576  1.00  0.00     0.010 C   
ATOM     34  C24 UNL     1       1.853  -0.065  -3.359  1.00  0.00     0.010 C   
ATOM     35  C21 UNL     1       1.457   2.850  -3.444  1.00  0.00     0.001 C   
ATOM     36  C23 UNL     1       0.764   0.546  -4.240  1.00  0.00     0.001 C   
ATOM     37  C22 UNL     1       1.104   1.977  -4.645  1.00  0.00     0.000 C   
ENDBRANCH  18  32
ENDBRANCH   3  18
TORSDOF 9
