REMARK SMILES OC[C@@H](c1cccc(Cl)n1)n1cc([C@@H]([NH2+]Cc2ccc3c(c2)OCO3)C2CCCCC2)nn1
REMARK SMILES IDX 11 1 12 2 13 3 32 4 33 5 3 7 2 8 1 9 4 11 5 12 10 13 6 14
REMARK SMILES IDX 8 15 7 16 9 17 14 18 15 19 16 22 17 23 18 24 22 25 19 26
REMARK SMILES IDX 21 27 20 28 23 29 25 30 24 31 26 32 27 33 31 34 28 35 30 36
REMARK SMILES IDX 29 37
REMARK H PARENT 12 6 1 10 15 20 15 21
ROOT
ATOM     1   N2  UNL     1       2.535  -0.732  -0.200  1.00  0.00    -0.201 N   
ATOM     2   C8  UNL     1       1.570   0.054   0.373  1.00  0.00     0.046 A   
ATOM     3   C9  UNL     1       0.390  -0.433  -0.141  1.00  0.00     0.127 A   
ATOM     4   N4  UNL     1       0.666  -1.444  -1.025  1.00  0.00    -0.132 NA  
ATOM     5   N5  UNL     1       1.977  -1.617  -1.056  1.00  0.00    -0.075 NA  
ATOM     6   H8  UNL     1       1.806   0.825   1.094  1.00  0.00     0.083 HD  
ENDROOT
BRANCH   1   7
ATOM     7   C2  UNL     1       3.972  -0.760   0.050  1.00  0.00     0.174 C   
BRANCH   7   8
ATOM     8   C1  UNL     1       4.619   0.634  -0.006  1.00  0.00     0.187 C   
BRANCH   8   9
ATOM     9   O1  UNL     1       4.503   1.197  -1.314  1.00  0.00    -0.394 OA  
ATOM     10  H1  UNL     1       5.074   1.986  -1.339  1.00  0.00     0.210 HD  
ENDBRANCH   8   9
ENDBRANCH   7   8
BRANCH   7  11
ATOM     11  C3  UNL     1       4.220  -1.430   1.386  1.00  0.00     0.067 A   
ATOM     12  C4  UNL     1       4.679  -2.746   1.448  1.00  0.00     0.026 A   
ATOM     13  N1  UNL     1       3.942  -0.711   2.505  1.00  0.00    -0.239 NA  
ATOM     14  C5  UNL     1       4.875  -3.337   2.695  1.00  0.00     0.005 A   
ATOM     15  C7  UNL     1       4.137  -1.318   3.696  1.00  0.00     0.129 A   
ATOM     16  C6  UNL     1       4.598  -2.611   3.848  1.00  0.00     0.041 A   
ATOM     17  CL1 UNL     1       3.735  -0.348   5.051  1.00  0.00    -0.062 Cl  
ENDBRANCH   7  11
ENDBRANCH   1   7
BRANCH   3  18
ATOM     18  C10 UNL     1      -1.032  -0.017   0.073  1.00  0.00     0.117 C   
BRANCH  18  19
ATOM     19  N3  UNL     1      -1.749  -0.149  -1.253  1.00  0.00     0.249 N   
ATOM     20  H10 UNL     1      -2.760  -0.256  -1.157  1.00  0.00     0.199 HD  
ATOM     21  H11 UNL     1      -1.414  -1.031  -1.671  1.00  0.00     0.199 HD  
BRANCH  19  22
ATOM     22  C11 UNL     1      -1.470   0.936  -2.233  1.00  0.00     0.164 C   
BRANCH  22  23
ATOM     23  C12 UNL     1      -2.082   0.606  -3.567  1.00  0.00    -0.002 A   
ATOM     24  C13 UNL     1      -1.339  -0.125  -4.526  1.00  0.00     0.012 A   
ATOM     25  C17 UNL     1      -3.408   0.968  -3.849  1.00  0.00     0.045 A   
ATOM     26  C14 UNL     1      -1.905  -0.482  -5.755  1.00  0.00     0.037 A   
ATOM     27  C16 UNL     1      -3.937   0.601  -5.071  1.00  0.00     0.109 A   
ATOM     28  C15 UNL     1      -3.207  -0.104  -5.997  1.00  0.00     0.108 A   
ATOM     29  O2  UNL     1      -5.196   0.877  -5.502  1.00  0.00    -0.316 OA  
ATOM     30  O3  UNL     1      -3.915  -0.363  -7.127  1.00  0.00    -0.316 OA  
ATOM     31  C18 UNL     1      -5.179   0.257  -6.810  1.00  0.00     0.337 C   
ENDBRANCH  22  23
ENDBRANCH  19  22
ENDBRANCH  18  19
BRANCH  18  32
ATOM     32  C19 UNL     1      -1.766  -0.890   1.137  1.00  0.00     0.043 C   
ATOM     33  C20 UNL     1      -1.029  -0.941   2.496  1.00  0.00     0.010 C   
ATOM     34  C24 UNL     1      -3.218  -0.433   1.414  1.00  0.00     0.010 C   
ATOM     35  C21 UNL     1      -1.059   0.396   3.232  1.00  0.00     0.001 C   
ATOM     36  C23 UNL     1      -3.291   0.905   2.148  1.00  0.00     0.001 C   
ATOM     37  C22 UNL     1      -2.488   0.885   3.445  1.00  0.00     0.000 C   
ENDBRANCH  18  32
ENDBRANCH   3  18
TORSDOF 9
