REMARK SMILES COc1nc(Cl)ccc1Cn1cc([C@@H]([NH2+]Cc2ccc3c(c2)OCO3)C2CCCCC2)nn1
REMARK SMILES IDX 11 1 12 2 13 3 32 4 33 5 10 7 9 8 3 9 4 10 5 11 8 12 7 13
REMARK SMILES IDX 6 14 2 15 1 16 14 17 15 18 16 21 17 22 18 23 22 24 19 25
REMARK SMILES IDX 21 26 20 27 23 28 25 29 24 30 26 31 27 32 31 33 28 34 30 35
REMARK SMILES IDX 29 36
REMARK H PARENT 12 6 15 19 15 20
ROOT
ATOM     1   N2  UNL     1      -0.576  -2.385   2.408  1.00  0.00    -0.208 N   
ATOM     2   C8  UNL     1      -0.690  -2.528   1.053  1.00  0.00     0.046 A   
ATOM     3   C9  UNL     1       0.217  -1.626   0.544  1.00  0.00     0.127 A   
ATOM     4   N4  UNL     1       0.849  -0.990   1.583  1.00  0.00    -0.132 NA  
ATOM     5   N5  UNL     1       0.360  -1.464   2.716  1.00  0.00    -0.076 NA  
ATOM     6   H8  UNL     1      -1.392  -3.216   0.602  1.00  0.00     0.083 HD  
ENDROOT
BRANCH   1   7
ATOM     7   C7  UNL     1      -1.304  -3.081   3.456  1.00  0.00     0.174 C   
BRANCH   7   8
ATOM     8   C6  UNL     1      -2.427  -2.234   3.984  1.00  0.00     0.021 A   
ATOM     9   C2  UNL     1      -3.650  -2.142   3.318  1.00  0.00     0.173 A   
ATOM     10  N1  UNL     1      -4.673  -1.366   3.726  1.00  0.00    -0.212 NA  
ATOM     11  C3  UNL     1      -4.483  -0.663   4.860  1.00  0.00     0.132 A   
ATOM     12  C5  UNL     1      -2.270  -1.478   5.154  1.00  0.00     0.013 A   
ATOM     13  C4  UNL     1      -3.319  -0.681   5.605  1.00  0.00     0.041 A   
ATOM     14  CL1 UNL     1      -5.818   0.305   5.332  1.00  0.00    -0.062 Cl  
BRANCH   9  15
ATOM     15  O1  UNL     1      -3.790  -2.875   2.155  1.00  0.00    -0.332 OA  
ATOM     16  C1  UNL     1      -5.129  -2.879   1.658  1.00  0.00     0.205 C   
ENDBRANCH   9  15
ENDBRANCH   7   8
ENDBRANCH   1   7
BRANCH   3  17
ATOM     17  C10 UNL     1       0.551  -1.245  -0.864  1.00  0.00     0.117 C   
BRANCH  17  18
ATOM     18  N3  UNL     1       1.043   0.177  -0.911  1.00  0.00     0.249 N   
ATOM     19  H10 UNL     1       1.694   0.291  -0.119  1.00  0.00     0.199 HD  
ATOM     20  H11 UNL     1       1.585   0.374  -1.757  1.00  0.00     0.199 HD  
BRANCH  18  21
ATOM     21  C11 UNL     1      -0.013   1.217  -0.759  1.00  0.00     0.164 C   
BRANCH  21  22
ATOM     22  C12 UNL     1       0.604   2.586  -0.731  1.00  0.00    -0.002 A   
ATOM     23  C13 UNL     1       1.064   3.132   0.491  1.00  0.00     0.012 A   
ATOM     24  C17 UNL     1       0.779   3.310  -1.923  1.00  0.00     0.045 A   
ATOM     25  C14 UNL     1       1.679   4.388   0.530  1.00  0.00     0.037 A   
ATOM     26  C16 UNL     1       1.389   4.545  -1.848  1.00  0.00     0.109 A   
ATOM     27  C15 UNL     1       1.826   5.069  -0.657  1.00  0.00     0.108 A   
ATOM     28  O2  UNL     1       1.635   5.369  -2.900  1.00  0.00    -0.316 OA  
ATOM     29  O3  UNL     1       2.398   6.292  -0.807  1.00  0.00    -0.316 OA  
ATOM     30  C18 UNL     1       2.254   6.491  -2.230  1.00  0.00     0.337 C   
ENDBRANCH  21  22
ENDBRANCH  18  21
ENDBRANCH  17  18
BRANCH  17  31
ATOM     31  C19 UNL     1       1.595  -2.203  -1.496  1.00  0.00     0.043 C   
ATOM     32  C20 UNL     1       1.676  -2.025  -3.026  1.00  0.00     0.010 C   
ATOM     33  C24 UNL     1       3.001  -2.099  -0.871  1.00  0.00     0.010 C   
ATOM     34  C21 UNL     1       2.659  -3.009  -3.659  1.00  0.00     0.001 C   
ATOM     35  C23 UNL     1       3.976  -3.085  -1.513  1.00  0.00     0.001 C   
ATOM     36  C22 UNL     1       4.042  -2.906  -3.025  1.00  0.00     0.000 C   
ENDBRANCH  17  31
ENDBRANCH   3  17
TORSDOF 8
