REMARK SMILES CC(C)[C@H]([NH2+]Cc1ccc2c(c1)OCO2)c1cn(Cc2cccc3c2OCCO3)nn1
REMARK SMILES IDX 4 1 2 2 1 3 3 4 5 5 6 8 7 9 8 10 12 11 9 12 11 13 10 14
REMARK SMILES IDX 13 15 15 16 14 17 16 18 17 19 31 20 18 21 30 22 19 24 20 25
REMARK SMILES IDX 21 26 25 27 22 28 24 29 26 30 23 31 29 32 27 33 28 34
REMARK H PARENT 5 6 5 7 17 23
ROOT
ATOM     1   C4  UNL     1       1.153   0.029  -1.369  1.00  0.00     0.117 C   
ENDROOT
BRANCH   1   2
ATOM     2   C2  UNL     1       2.391   0.886  -0.999  1.00  0.00     0.037 C   
ATOM     3   C1  UNL     1       3.382   0.109  -0.123  1.00  0.00     0.014 C   
ATOM     4   C3  UNL     1       2.051   2.224  -0.331  1.00  0.00     0.014 C   
ENDBRANCH   1   2
BRANCH   1   5
ATOM     5   N1  UNL     1       0.343   0.785  -2.394  1.00  0.00     0.249 N   
ATOM     6   H9  UNL     1      -0.229   1.466  -1.870  1.00  0.00     0.199 HD  
ATOM     7   H10 UNL     1       0.939   1.332  -3.023  1.00  0.00     0.199 HD  
BRANCH   5   8
ATOM     8   C5  UNL     1      -0.597  -0.042  -3.200  1.00  0.00     0.164 C   
BRANCH   8   9
ATOM     9   C6  UNL     1      -1.462   0.835  -4.058  1.00  0.00    -0.002 A   
ATOM     10  C7  UNL     1      -2.654   1.389  -3.528  1.00  0.00     0.012 A   
ATOM     11  C11 UNL     1      -1.071   1.158  -5.368  1.00  0.00     0.045 A   
ATOM     12  C8  UNL     1      -3.453   2.243  -4.295  1.00  0.00     0.037 A   
ATOM     13  C10 UNL     1      -1.882   2.004  -6.097  1.00  0.00     0.109 A   
ATOM     14  C9  UNL     1      -3.039   2.530  -5.577  1.00  0.00     0.108 A   
ATOM     15  O1  UNL     1      -1.651   2.415  -7.371  1.00  0.00    -0.316 OA  
ATOM     16  O2  UNL     1      -3.683   3.337  -6.459  1.00  0.00    -0.316 OA  
ATOM     17  C12 UNL     1      -2.808   3.250  -7.604  1.00  0.00     0.337 C   
ENDBRANCH   8   9
ENDBRANCH   5   8
ENDBRANCH   1   5
BRANCH   1  18
ATOM     18  C13 UNL     1       0.286  -0.330  -0.205  1.00  0.00     0.127 A   
ATOM     19  C14 UNL     1       0.353  -1.363   0.703  1.00  0.00     0.046 A   
ATOM     20  N4  UNL     1      -0.828   0.429   0.061  1.00  0.00    -0.132 NA  
ATOM     21  N2  UNL     1      -0.710  -1.143   1.536  1.00  0.00    -0.208 N   
ATOM     22  N3  UNL     1      -1.439  -0.091   1.112  1.00  0.00    -0.076 NA  
ATOM     23  H18 UNL     1       1.045  -2.179   0.858  1.00  0.00     0.083 HD  
BRANCH  21  24
ATOM     24  C15 UNL     1      -1.101  -1.893   2.717  1.00  0.00     0.172 C   
BRANCH  24  25
ATOM     25  C16 UNL     1      -0.271  -1.486   3.906  1.00  0.00     0.004 A   
ATOM     26  C17 UNL     1      -0.657  -0.376   4.678  1.00  0.00     0.008 A   
ATOM     27  C21 UNL     1       0.900  -2.177   4.256  1.00  0.00     0.110 A   
ATOM     28  C18 UNL     1       0.102   0.026   5.778  1.00  0.00     0.003 A   
ATOM     29  C20 UNL     1       1.671  -1.754   5.347  1.00  0.00     0.106 A   
ATOM     30  O3  UNL     1       1.254  -3.258   3.483  1.00  0.00    -0.341 OA  
ATOM     31  C19 UNL     1       1.264  -0.664   6.113  1.00  0.00     0.036 A   
ATOM     32  O4  UNL     1       2.837  -2.363   5.733  1.00  0.00    -0.341 OA  
ATOM     33  C22 UNL     1       2.193  -4.099   4.167  1.00  0.00     0.197 C   
ATOM     34  C23 UNL     1       3.327  -3.266   4.738  1.00  0.00     0.197 C   
ENDBRANCH  24  25
ENDBRANCH  21  24
ENDBRANCH   1  18
TORSDOF 7
