REMARK SMILES CC(C)(C)[C@H]([NH2+]Cc1ccc2c(c1)OCO2)c1cn(Cc2cc(F)cnc2Cl)nn1
REMARK SMILES IDX 17 1 18 2 19 3 29 4 30 5 5 7 2 8 1 9 3 10 4 11 6 12 7 15
REMARK SMILES IDX 8 16 9 17 13 18 10 19 12 20 11 21 14 22 16 23 15 24 20 25
REMARK SMILES IDX 21 26 22 27 27 28 23 29 26 30 25 31 28 32 24 33
REMARK H PARENT 18 6 6 13 6 14
ROOT
ATOM     1   C14 UNL     1      -0.447  -0.567  -1.261  1.00  0.00     0.127 A   
ATOM     2   C15 UNL     1       0.047  -1.456  -2.190  1.00  0.00     0.046 A   
ATOM     3   N2  UNL     1       1.403  -1.389  -2.025  1.00  0.00    -0.208 N   
ATOM     4   N4  UNL     1       1.718  -0.598  -0.981  1.00  0.00    -0.076 NA  
ATOM     5   N5  UNL     1       0.596  -0.070  -0.520  1.00  0.00    -0.132 NA  
ATOM     6   H20 UNL     1      -0.418  -2.072  -2.947  1.00  0.00     0.083 HD  
ENDROOT
BRANCH   1   7
ATOM     7   C5  UNL     1      -1.850  -0.145  -0.932  1.00  0.00     0.120 C   
BRANCH   7   8
ATOM     8   C2  UNL     1      -2.365   1.079  -1.770  1.00  0.00     0.010 C   
ATOM     9   C1  UNL     1      -3.861   1.340  -1.473  1.00  0.00     0.017 C   
ATOM     10  C3  UNL     1      -1.579   2.372  -1.474  1.00  0.00     0.017 C   
ATOM     11  C4  UNL     1      -2.256   0.780  -3.283  1.00  0.00     0.017 C   
ENDBRANCH   7   8
BRANCH   7  12
ATOM     12  N1  UNL     1      -1.928   0.163   0.545  1.00  0.00     0.250 N   
ATOM     13  H11 UNL     1      -1.084   0.710   0.775  1.00  0.00     0.199 HD  
ATOM     14  H12 UNL     1      -2.724   0.759   0.783  1.00  0.00     0.199 HD  
BRANCH  12  15
ATOM     15  C6  UNL     1      -1.937  -1.024   1.445  1.00  0.00     0.164 C   
BRANCH  15  16
ATOM     16  C7  UNL     1      -1.924  -0.591   2.883  1.00  0.00    -0.002 A   
ATOM     17  C8  UNL     1      -0.694  -0.309   3.529  1.00  0.00     0.012 A   
ATOM     18  C12 UNL     1      -3.131  -0.404   3.577  1.00  0.00     0.045 A   
ATOM     19  C9  UNL     1      -0.666   0.138   4.854  1.00  0.00     0.037 A   
ATOM     20  C11 UNL     1      -3.066   0.036   4.883  1.00  0.00     0.109 A   
ATOM     21  C10 UNL     1      -1.870   0.300   5.504  1.00  0.00     0.108 A   
ATOM     22  O1  UNL     1      -4.133   0.264   5.692  1.00  0.00    -0.316 OA  
ATOM     23  O2  UNL     1      -2.034   0.725   6.784  1.00  0.00    -0.316 OA  
ATOM     24  C13 UNL     1      -3.471   0.674   6.911  1.00  0.00     0.337 C   
ENDBRANCH  15  16
ENDBRANCH  12  15
ENDBRANCH   7  12
ENDBRANCH   1   7
BRANCH   3  25
ATOM     25  C16 UNL     1       2.445  -2.054  -2.791  1.00  0.00     0.172 C   
BRANCH  25  26
ATOM     26  C17 UNL     1       3.112  -1.100  -3.742  1.00  0.00     0.012 A   
ATOM     27  C18 UNL     1       4.308  -0.462  -3.378  1.00  0.00     0.049 A   
ATOM     28  C21 UNL     1       2.578  -0.769  -4.988  1.00  0.00     0.134 A   
ATOM     29  C19 UNL     1       4.900   0.440  -4.252  1.00  0.00     0.141 A   
ATOM     30  N3  UNL     1       3.132   0.109  -5.851  1.00  0.00    -0.241 NA  
ATOM     31  C20 UNL     1       4.290   0.695  -5.465  1.00  0.00     0.152 A   
ATOM     32  CL1 UNL     1       1.112  -1.445  -5.584  1.00  0.00    -0.062 Cl  
ATOM     33  F1  UNL     1       6.040   1.056  -3.917  1.00  0.00    -0.205 F   
ENDBRANCH  25  26
ENDBRANCH   3  25
TORSDOF 7
