REMARK SMILES CS(=O)(=O)c1ccccc1-n1cc([C@@H]([NH2+]Cc2ccc3c(c2)OCO3)C2CCCC2)nn1
REMARK SMILES IDX 11 1 12 2 13 3 31 4 32 5 10 6 5 7 6 8 7 9 9 10 8 11 2 12
REMARK SMILES IDX 1 13 3 14 4 15 14 16 15 17 16 20 17 21 18 22 22 23 19 24
REMARK SMILES IDX 21 25 20 26 23 27 25 28 24 29 26 30 27 31 30 32 28 33 29 34
REMARK H PARENT 15 18 15 19
ROOT
ATOM     1   N1  UNL     1       2.202  -1.000  -1.905  1.00  0.00    -0.169 N   
ATOM     2   C8  UNL     1       1.475  -0.364  -0.921  1.00  0.00     0.135 A   
ATOM     3   C9  UNL     1       0.991  -1.376  -0.127  1.00  0.00     0.127 A   
ATOM     4   N3  UNL     1       1.500  -2.567  -0.559  1.00  0.00    -0.131 NA  
ATOM     5   N4  UNL     1       2.289  -2.320  -1.592  1.00  0.00    -0.071 NA  
ENDROOT
BRANCH   1   6
ATOM     6   C7  UNL     1       2.858  -0.464  -3.041  1.00  0.00     0.178 A   
ATOM     7   C2  UNL     1       2.404   0.662  -3.755  1.00  0.00     0.330 A   
ATOM     8   C3  UNL     1       3.204   1.209  -4.771  1.00  0.00     0.136 A   
ATOM     9   C4  UNL     1       4.416   0.609  -5.116  1.00  0.00     0.013 A   
ATOM     10  C6  UNL     1       4.056  -1.088  -3.438  1.00  0.00     0.039 A   
ATOM     11  C5  UNL     1       4.829  -0.550  -4.467  1.00  0.00     0.003 A   
BRANCH   7  12
ATOM     12  S1  UNL     1       0.738   1.277  -3.584  1.00  0.00    -0.237 S   
ATOM     13  C1  UNL     1       0.238   1.937  -5.151  1.00  0.00     0.674 C   
ATOM     14  O1  UNL     1      -0.112   0.126  -3.327  1.00  0.00    -0.517 OA  
ATOM     15  O2  UNL     1       0.800   2.359  -2.623  1.00  0.00    -0.517 OA  
ENDBRANCH   7  12
ENDBRANCH   1   6
BRANCH   3  16
ATOM     16  C10 UNL     1       0.014  -1.348   1.000  1.00  0.00     0.117 C   
BRANCH  16  17
ATOM     17  N2  UNL     1      -1.061  -2.381   0.745  1.00  0.00     0.249 N   
ATOM     18  H10 UNL     1      -1.612  -2.546   1.590  1.00  0.00     0.199 HD  
ATOM     19  H11 UNL     1      -0.573  -3.260   0.522  1.00  0.00     0.199 HD  
BRANCH  17  20
ATOM     20  C11 UNL     1      -1.998  -2.081  -0.382  1.00  0.00     0.164 C   
BRANCH  20  21
ATOM     21  C12 UNL     1      -2.929  -0.943  -0.069  1.00  0.00    -0.002 A   
ATOM     22  C13 UNL     1      -2.770   0.307  -0.713  1.00  0.00     0.012 A   
ATOM     23  C17 UNL     1      -3.947  -1.101   0.888  1.00  0.00     0.045 A   
ATOM     24  C14 UNL     1      -3.605   1.387  -0.409  1.00  0.00     0.037 A   
ATOM     25  C16 UNL     1      -4.752  -0.016   1.165  1.00  0.00     0.109 A   
ATOM     26  C15 UNL     1      -4.587   1.194   0.537  1.00  0.00     0.108 A   
ATOM     27  O3  UNL     1      -5.772   0.001   2.063  1.00  0.00    -0.316 OA  
ATOM     28  O4  UNL     1      -5.483   2.123   0.956  1.00  0.00    -0.316 OA  
ATOM     29  C18 UNL     1      -6.253   1.355   1.905  1.00  0.00     0.337 C   
ENDBRANCH  20  21
ENDBRANCH  17  20
ENDBRANCH  16  17
BRANCH  16  30
ATOM     30  C19 UNL     1       0.684  -1.659   2.353  1.00  0.00     0.043 C   
ATOM     31  C20 UNL     1       1.746  -0.627   2.750  1.00  0.00     0.010 C   
ATOM     32  C23 UNL     1      -0.262  -1.602   3.556  1.00  0.00     0.010 C   
ATOM     33  C21 UNL     1       1.945  -0.833   4.248  1.00  0.00     0.001 C   
ATOM     34  C22 UNL     1       0.668  -1.495   4.759  1.00  0.00     0.001 C   
ENDBRANCH  16  30
ENDBRANCH   3  16
TORSDOF 7
