REMARK SMILES COc1ccc(Cn2cc([C@@H]([NH2+]Cc3ccc4c(c3)OCO4)C(C)C)nn2)cc1O
REMARK SMILES IDX 8 1 9 2 10 3 26 4 27 5 7 7 6 8 3 9 4 10 29 11 5 12 28 13
REMARK SMILES IDX 2 14 1 15 30 16 11 18 12 19 13 22 14 23 15 24 19 25 16 26
REMARK SMILES IDX 18 27 17 28 20 29 22 30 21 31 23 32 24 33 25 34
REMARK H PARENT 9 6 30 17 12 20 12 21
ROOT
ATOM     1   N1  UNL     1      -0.221  -3.289  -0.988  1.00  0.00    -0.208 N   
ATOM     2   C7  UNL     1       0.916  -2.670  -1.438  1.00  0.00     0.046 A   
ATOM     3   C8  UNL     1       1.353  -1.950  -0.349  1.00  0.00     0.127 A   
ATOM     4   N3  UNL     1       0.515  -2.182   0.712  1.00  0.00    -0.132 NA  
ATOM     5   N4  UNL     1      -0.441  -3.002   0.309  1.00  0.00    -0.076 NA  
ATOM     6   H8  UNL     1       1.255  -2.760  -2.460  1.00  0.00     0.083 HD  
ENDROOT
BRANCH   1   7
ATOM     7   C6  UNL     1      -1.173  -4.089  -1.745  1.00  0.00     0.169 C   
BRANCH   7   8
ATOM     8   C5  UNL     1      -1.850  -3.270  -2.818  1.00  0.00    -0.026 A   
ATOM     9   C2  UNL     1      -3.121  -1.753  -4.834  1.00  0.00     0.104 A   
ATOM     10  C3  UNL     1      -2.473  -2.944  -5.158  1.00  0.00     0.036 A   
ATOM     11  C22 UNL     1      -3.128  -1.335  -3.500  1.00  0.00     0.102 A   
ATOM     12  C4  UNL     1      -1.843  -3.697  -4.156  1.00  0.00     0.008 A   
ATOM     13  C21 UNL     1      -2.518  -2.080  -2.497  1.00  0.00     0.041 A   
BRANCH   9  14
ATOM     14  O1  UNL     1      -3.769  -0.917  -5.705  1.00  0.00    -0.347 OA  
ATOM     15  C1  UNL     1      -3.888  -1.365  -7.051  1.00  0.00     0.203 C   
ENDBRANCH   9  14
BRANCH  11  16
ATOM     16  O4  UNL     1      -3.743  -0.167  -3.144  1.00  0.00    -0.358 OA  
ATOM     17  H27 UNL     1      -4.164   0.159  -3.965  1.00  0.00     0.218 HD  
ENDBRANCH  11  16
ENDBRANCH   7   8
ENDBRANCH   1   7
BRANCH   3  18
ATOM     18  C9  UNL     1       2.469  -0.967  -0.200  1.00  0.00     0.117 C   
BRANCH  18  19
ATOM     19  N2  UNL     1       2.087   0.103   0.786  1.00  0.00     0.249 N   
ATOM     20  H10 UNL     1       2.900   0.617   1.138  1.00  0.00     0.199 HD  
ATOM     21  H11 UNL     1       1.672  -0.378   1.599  1.00  0.00     0.199 HD  
BRANCH  19  22
ATOM     22  C10 UNL     1       1.069   1.080   0.298  1.00  0.00     0.164 C   
BRANCH  22  23
ATOM     23  C11 UNL     1       0.726   2.065   1.379  1.00  0.00    -0.002 A   
ATOM     24  C12 UNL     1       1.360   3.329   1.427  1.00  0.00     0.012 A   
ATOM     25  C16 UNL     1      -0.199   1.714   2.379  1.00  0.00     0.045 A   
ATOM     26  C13 UNL     1       1.067   4.240   2.448  1.00  0.00     0.037 A   
ATOM     27  C15 UNL     1      -0.461   2.633   3.373  1.00  0.00     0.109 A   
ATOM     28  C14 UNL     1       0.151   3.861   3.405  1.00  0.00     0.108 A   
ATOM     29  O2  UNL     1      -1.318   2.453   4.412  1.00  0.00    -0.316 OA  
ATOM     30  O3  UNL     1      -0.249   4.612   4.464  1.00  0.00    -0.316 OA  
ATOM     31  C17 UNL     1      -1.191   3.720   5.096  1.00  0.00     0.337 C   
ENDBRANCH  22  23
ENDBRANCH  19  22
ENDBRANCH  18  19
BRANCH  18  32
ATOM     32  C18 UNL     1       3.800  -1.643   0.221  1.00  0.00     0.037 C   
ATOM     33  C19 UNL     1       3.800  -2.187   1.656  1.00  0.00     0.014 C   
ATOM     34  C20 UNL     1       4.994  -0.700   0.029  1.00  0.00     0.014 C   
ENDBRANCH  18  32
ENDBRANCH   3  18
TORSDOF 9
