REMARK SMILES Cc1c(N([O-])[O-])cccc1-n1cc([C@@H]([NH2+]Cc2ccc3c(c2)OCO3)C(C)C)nn1
REMARK SMILES IDX 11 1 12 2 13 3 29 4 30 5 10 6 2 7 3 8 9 9 7 10 8 11 1 12
REMARK SMILES IDX 4 13 5 14 6 15 14 16 15 17 16 20 17 21 18 22 22 23 19 24
REMARK SMILES IDX 21 25 20 26 23 27 25 28 24 29 26 30 27 31 28 32
REMARK H PARENT 15 18 15 19
ROOT
ATOM     1   N1  UNL     1       2.369  -0.835  -2.034  1.00  0.00    -0.180 N   
ATOM     2   C4  UNL     1       2.833   0.030  -1.054  1.00  0.00     0.135 A   
ATOM     3   C5  UNL     1       1.809   0.135  -0.140  1.00  0.00     0.127 A   
ATOM     4   N3  UNL     1       0.761  -0.628  -0.563  1.00  0.00    -0.131 NA  
ATOM     5   N4  UNL     1       1.106  -1.198  -1.704  1.00  0.00    -0.071 NA  
ENDROOT
BRANCH   1   6
ATOM     6   C3  UNL     1       3.017  -1.256  -3.238  1.00  0.00     0.063 A   
ATOM     7   C2  UNL     1       2.503  -2.291  -4.068  1.00  0.00     0.001 A   
ATOM     8   C21 UNL     1       3.170  -2.525  -5.297  1.00  0.00     0.122 A   
ATOM     9   C18 UNL     1       4.201  -0.583  -3.619  1.00  0.00     0.026 A   
ATOM     10  C20 UNL     1       4.336  -1.844  -5.667  1.00  0.00     0.031 A   
ATOM     11  C19 UNL     1       4.858  -0.883  -4.815  1.00  0.00     0.004 A   
ATOM     12  C1  UNL     1       1.312  -3.141  -3.687  1.00  0.00     0.049 C   
BRANCH   8  13
ATOM     13  N5  UNL     1       2.656  -3.488  -6.265  1.00  0.00     0.092 N   
ATOM     14  O3  UNL     1       3.414  -4.408  -6.597  1.00  0.00    -0.138 OA  
ATOM     15  O4  UNL     1       1.509  -3.301  -6.690  1.00  0.00    -0.138 OA  
ENDBRANCH   8  13
ENDBRANCH   1   6
BRANCH   3  16
ATOM     16  C6  UNL     1       1.694   0.907   1.139  1.00  0.00     0.117 C   
BRANCH  16  17
ATOM     17  N2  UNL     1       0.250   1.082   1.525  1.00  0.00     0.249 N   
ATOM     18  H6  UNL     1      -0.218   0.179   1.355  1.00  0.00     0.199 HD  
ATOM     19  H7  UNL     1       0.138   1.277   2.523  1.00  0.00     0.199 HD  
BRANCH  17  20
ATOM     20  C7  UNL     1      -0.500   2.112   0.753  1.00  0.00     0.164 C   
BRANCH  20  21
ATOM     21  C8  UNL     1      -1.939   2.135   1.181  1.00  0.00    -0.002 A   
ATOM     22  C9  UNL     1      -2.366   2.988   2.227  1.00  0.00     0.012 A   
ATOM     23  C13 UNL     1      -2.863   1.261   0.580  1.00  0.00     0.045 A   
ATOM     24  C10 UNL     1      -3.694   2.975   2.666  1.00  0.00     0.037 A   
ATOM     25  C12 UNL     1      -4.165   1.276   1.036  1.00  0.00     0.109 A   
ATOM     26  C11 UNL     1      -4.569   2.106   2.051  1.00  0.00     0.108 A   
ATOM     27  O1  UNL     1      -5.178   0.503   0.564  1.00  0.00    -0.316 OA  
ATOM     28  O2  UNL     1      -5.887   1.960   2.347  1.00  0.00    -0.316 OA  
ATOM     29  C14 UNL     1      -6.277   0.954   1.388  1.00  0.00     0.337 C   
ENDBRANCH  20  21
ENDBRANCH  17  20
ENDBRANCH  16  17
BRANCH  16  30
ATOM     30  C15 UNL     1       2.480   0.237   2.296  1.00  0.00     0.037 C   
ATOM     31  C16 UNL     1       1.887  -1.101   2.756  1.00  0.00     0.014 C   
ATOM     32  C17 UNL     1       2.632   1.175   3.499  1.00  0.00     0.014 C   
ENDBRANCH  16  30
ENDBRANCH   3  16
TORSDOF 7
