REMARK SMILES C[C@H](Cc1ccccc1)n1cc([C@@H]([NH2+]Cc2ccc3c(c2)OCO3)C2CCCCC2)nn1
REMARK SMILES IDX 10 1 11 2 12 3 31 4 32 5 2 7 1 8 3 9 4 10 5 11 9 12 6 13
REMARK SMILES IDX 8 14 7 15 13 16 14 17 15 20 16 21 17 22 21 23 18 24 20 25
REMARK SMILES IDX 19 26 22 27 24 28 23 29 25 30 26 31 30 32 27 33 29 34 28 35
REMARK H PARENT 11 6 14 18 14 19
ROOT
ATOM     1   N1  UNL     1      -2.536   0.477   1.765  1.00  0.00    -0.209 N   
ATOM     2   C10 UNL     1      -1.679   0.429   0.701  1.00  0.00     0.046 A   
ATOM     3   C11 UNL     1      -0.436   0.611   1.265  1.00  0.00     0.127 A   
ATOM     4   N3  UNL     1      -0.581   0.814   2.614  1.00  0.00    -0.132 NA  
ATOM     5   N4  UNL     1      -1.869   0.739   2.906  1.00  0.00    -0.076 NA  
ATOM     6   H12 UNL     1      -2.017   0.240  -0.309  1.00  0.00     0.083 HD  
ENDROOT
BRANCH   1   7
ATOM     7   C2  UNL     1      -3.977   0.256   1.759  1.00  0.00     0.101 C   
ATOM     8   C1  UNL     1      -4.723   1.431   2.395  1.00  0.00     0.031 C   
BRANCH   7   9
ATOM     9   C3  UNL     1      -4.353  -1.072   2.441  1.00  0.00     0.060 C   
BRANCH   9  10
ATOM     10  C4  UNL     1      -3.744  -2.278   1.762  1.00  0.00    -0.046 A   
ATOM     11  C5  UNL     1      -2.663  -2.949   2.351  1.00  0.00     0.004 A   
ATOM     12  C9  UNL     1      -4.237  -2.730   0.530  1.00  0.00     0.004 A   
ATOM     13  C6  UNL     1      -2.090  -4.053   1.721  1.00  0.00     0.000 A   
ATOM     14  C8  UNL     1      -3.656  -3.831  -0.101  1.00  0.00     0.000 A   
ATOM     15  C7  UNL     1      -2.583  -4.491   0.494  1.00  0.00     0.000 A   
ENDBRANCH   9  10
ENDBRANCH   7   9
ENDBRANCH   1   7
BRANCH   3  16
ATOM     16  C12 UNL     1       0.923   0.666   0.653  1.00  0.00     0.117 C   
BRANCH  16  17
ATOM     17  N2  UNL     1       1.806   1.623   1.430  1.00  0.00     0.249 N   
ATOM     18  H14 UNL     1       2.788   1.484   1.179  1.00  0.00     0.199 HD  
ATOM     19  H15 UNL     1       1.699   1.366   2.422  1.00  0.00     0.199 HD  
BRANCH  17  20
ATOM     20  C13 UNL     1       1.467   3.073   1.323  1.00  0.00     0.164 C   
BRANCH  20  21
ATOM     21  C14 UNL     1       1.709   3.633  -0.051  1.00  0.00    -0.002 A   
ATOM     22  C15 UNL     1       3.028   3.861  -0.512  1.00  0.00     0.012 A   
ATOM     23  C19 UNL     1       0.622   3.908  -0.899  1.00  0.00     0.045 A   
ATOM     24  C16 UNL     1       3.263   4.351  -1.801  1.00  0.00     0.037 A   
ATOM     25  C18 UNL     1       0.889   4.388  -2.164  1.00  0.00     0.109 A   
ATOM     26  C17 UNL     1       2.172   4.602  -2.603  1.00  0.00     0.108 A   
ATOM     27  O1  UNL     1      -0.041   4.694  -3.106  1.00  0.00    -0.316 OA  
ATOM     28  O2  UNL     1       2.212   5.075  -3.876  1.00  0.00    -0.316 OA  
ATOM     29  C20 UNL     1       0.803   5.166  -4.181  1.00  0.00     0.337 C   
ENDBRANCH  20  21
ENDBRANCH  17  20
ENDBRANCH  16  17
BRANCH  16  30
ATOM     30  C21 UNL     1       1.647  -0.706   0.574  1.00  0.00     0.043 C   
ATOM     31  C22 UNL     1       0.930  -1.676  -0.386  1.00  0.00     0.010 C   
ATOM     32  C26 UNL     1       1.874  -1.387   1.938  1.00  0.00     0.010 C   
ATOM     33  C23 UNL     1       1.699  -2.988  -0.537  1.00  0.00     0.001 C   
ATOM     34  C25 UNL     1       2.640  -2.701   1.787  1.00  0.00     0.001 C   
ATOM     35  C24 UNL     1       1.953  -3.651   0.812  1.00  0.00     0.000 C   
ENDBRANCH  16  30
ENDBRANCH   3  16
TORSDOF 8
