REMARK SMILES C[C@@H](Cc1ccccc1)n1cc([C@@H]([NH2+]Cc2ccc3c(c2)OCO3)C2CCCCC2)nn1
REMARK SMILES IDX 10 1 11 2 12 3 31 4 32 5 2 7 1 8 3 9 4 10 5 11 9 12 6 13
REMARK SMILES IDX 8 14 7 15 13 16 14 17 15 20 16 21 17 22 21 23 18 24 20 25
REMARK SMILES IDX 19 26 22 27 24 28 23 29 25 30 26 31 30 32 27 33 29 34 28 35
REMARK H PARENT 11 6 14 18 14 19
ROOT
ATOM     1   N1  UNL     1      -0.862  -2.025   2.220  1.00  0.00    -0.209 N   
ATOM     2   C10 UNL     1      -0.264  -0.996   1.546  1.00  0.00     0.046 A   
ATOM     3   C11 UNL     1      -0.526  -1.267   0.223  1.00  0.00     0.127 A   
ATOM     4   N3  UNL     1      -1.189  -2.462   0.133  1.00  0.00    -0.132 NA  
ATOM     5   N4  UNL     1      -1.357  -2.931   1.358  1.00  0.00    -0.076 NA  
ATOM     6   H12 UNL     1       0.225  -0.175   2.050  1.00  0.00     0.083 HD  
ENDROOT
BRANCH   1   7
ATOM     7   C2  UNL     1      -0.993  -2.228   3.658  1.00  0.00     0.101 C   
ATOM     8   C1  UNL     1       0.334  -2.709   4.246  1.00  0.00     0.031 C   
BRANCH   7   9
ATOM     9   C3  UNL     1      -1.498  -0.971   4.397  1.00  0.00     0.060 C   
BRANCH   9  10
ATOM     10  C4  UNL     1      -2.848  -0.486   3.920  1.00  0.00    -0.046 A   
ATOM     11  C5  UNL     1      -4.001  -1.248   4.158  1.00  0.00     0.004 A   
ATOM     12  C9  UNL     1      -2.968   0.729   3.228  1.00  0.00     0.004 A   
ATOM     13  C6  UNL     1      -5.244  -0.807   3.703  1.00  0.00     0.000 A   
ATOM     14  C8  UNL     1      -4.214   1.167   2.773  1.00  0.00     0.000 A   
ATOM     15  C7  UNL     1      -5.351   0.397   3.008  1.00  0.00     0.000 A   
ENDBRANCH   9  10
ENDBRANCH   7   9
ENDBRANCH   1   7
BRANCH   3  16
ATOM     16  C12 UNL     1      -0.219  -0.493  -1.018  1.00  0.00     0.117 C   
BRANCH  16  17
ATOM     17  N2  UNL     1      -0.287  -1.382  -2.235  1.00  0.00     0.249 N   
ATOM     18  H14 UNL     1      -0.370  -0.830  -3.092  1.00  0.00     0.199 HD  
ATOM     19  H15 UNL     1      -1.153  -1.932  -2.136  1.00  0.00     0.199 HD  
BRANCH  17  20
ATOM     20  C13 UNL     1       0.830  -2.364  -2.392  1.00  0.00     0.164 C   
BRANCH  20  21
ATOM     21  C14 UNL     1       2.138  -1.708  -2.735  1.00  0.00    -0.002 A   
ATOM     22  C15 UNL     1       2.368  -1.202  -4.037  1.00  0.00     0.012 A   
ATOM     23  C19 UNL     1       3.133  -1.564  -1.750  1.00  0.00     0.045 A   
ATOM     24  C16 UNL     1       3.570  -0.559  -4.353  1.00  0.00     0.037 A   
ATOM     25  C18 UNL     1       4.305  -0.922  -2.095  1.00  0.00     0.109 A   
ATOM     26  C17 UNL     1       4.517  -0.433  -3.360  1.00  0.00     0.108 A   
ATOM     27  O1  UNL     1       5.355  -0.691  -1.265  1.00  0.00    -0.316 OA  
ATOM     28  O2  UNL     1       5.730   0.164  -3.488  1.00  0.00    -0.316 OA  
ATOM     29  C20 UNL     1       6.269  -0.017  -2.161  1.00  0.00     0.337 C   
ENDBRANCH  20  21
ENDBRANCH  17  20
ENDBRANCH  16  17
BRANCH  16  30
ATOM     30  C21 UNL     1      -1.171   0.725  -1.179  1.00  0.00     0.043 C   
ATOM     31  C22 UNL     1      -2.636   0.348  -1.475  1.00  0.00     0.010 C   
ATOM     32  C26 UNL     1      -0.658   1.721  -2.237  1.00  0.00     0.010 C   
ATOM     33  C23 UNL     1      -3.523   1.591  -1.543  1.00  0.00     0.001 C   
ATOM     34  C25 UNL     1      -1.545   2.963  -2.310  1.00  0.00     0.001 C   
ATOM     35  C24 UNL     1      -3.005   2.600  -2.563  1.00  0.00     0.000 C   
ENDBRANCH  16  30
ENDBRANCH   3  16
TORSDOF 8
