REMARK SMILES CC(C)C[C@H]([NH2+]Cc1ccc2c(c1)OCO2)c1cn(CCc2ccc(F)c(F)c2)nn1
REMARK SMILES IDX 17 1 18 2 19 3 30 4 31 5 5 7 4 8 2 9 1 10 3 11 6 12 7 15
REMARK SMILES IDX 8 16 9 17 13 18 10 19 12 20 11 21 14 22 16 23 15 24 20 25
REMARK SMILES IDX 21 26 22 27 23 28 29 29 24 30 27 31 25 32 28 33 26 34
REMARK H PARENT 18 6 6 13 6 14
ROOT
ATOM     1   C14 UNL     1      -0.169   1.029  -2.300  1.00  0.00     0.127 A   
ATOM     2   C15 UNL     1      -0.871   1.069  -3.483  1.00  0.00     0.045 A   
ATOM     3   N2  UNL     1      -0.012   0.519  -4.395  1.00  0.00    -0.212 N   
ATOM     4   N3  UNL     1       1.160   0.194  -3.818  1.00  0.00    -0.076 NA  
ATOM     5   N4  UNL     1       1.074   0.492  -2.532  1.00  0.00    -0.132 NA  
ATOM     6   H20 UNL     1      -1.872   1.387  -3.744  1.00  0.00     0.083 HD  
ENDROOT
BRANCH   1   7
ATOM     7   C5  UNL     1      -0.562   1.398  -0.903  1.00  0.00     0.114 C   
BRANCH   7   8
ATOM     8   C4  UNL     1      -0.178   2.856  -0.580  1.00  0.00     0.064 C   
BRANCH   8   9
ATOM     9   C2  UNL     1      -0.741   3.415   0.748  1.00  0.00    -0.012 C   
ATOM     10  C1  UNL     1      -0.201   4.832   0.978  1.00  0.00     0.007 C   
ATOM     11  C3  UNL     1      -2.273   3.442   0.769  1.00  0.00     0.007 C   
ENDBRANCH   8   9
ENDBRANCH   7   8
BRANCH   7  12
ATOM     12  N1  UNL     1       0.128   0.477   0.069  1.00  0.00     0.249 N   
ATOM     13  H11 UNL     1       1.066   0.286  -0.325  1.00  0.00     0.199 HD  
ATOM     14  H12 UNL     1       0.296   0.922   0.978  1.00  0.00     0.199 HD  
BRANCH  12  15
ATOM     15  C6  UNL     1      -0.546  -0.839   0.272  1.00  0.00     0.164 C   
BRANCH  15  16
ATOM     16  C7  UNL     1       0.319  -1.772   1.072  1.00  0.00    -0.002 A   
ATOM     17  C8  UNL     1       0.913  -2.900   0.448  1.00  0.00     0.012 A   
ATOM     18  C12 UNL     1       0.563  -1.526   2.437  1.00  0.00     0.045 A   
ATOM     19  C9  UNL     1       1.733  -3.774   1.171  1.00  0.00     0.037 A   
ATOM     20  C11 UNL     1       1.382  -2.404   3.119  1.00  0.00     0.109 A   
ATOM     21  C10 UNL     1       1.947  -3.498   2.508  1.00  0.00     0.108 A   
ATOM     22  O1  UNL     1       1.715  -2.310   4.433  1.00  0.00    -0.316 OA  
ATOM     23  O2  UNL     1       2.702  -4.236   3.360  1.00  0.00    -0.316 OA  
ATOM     24  C13 UNL     1       2.573  -3.467   4.578  1.00  0.00     0.337 C   
ENDBRANCH  15  16
ENDBRANCH  12  15
ENDBRANCH   7  12
ENDBRANCH   1   7
BRANCH   3  25
ATOM     25  C16 UNL     1      -0.284   0.153  -5.771  1.00  0.00     0.139 C   
BRANCH  25  26
ATOM     26  C17 UNL     1      -0.390  -1.365  -5.981  1.00  0.00     0.057 C   
BRANCH  26  27
ATOM     27  C18 UNL     1      -1.472  -1.998  -5.132  1.00  0.00    -0.043 A   
ATOM     28  C19 UNL     1      -2.808  -2.020  -5.562  1.00  0.00     0.007 A   
ATOM     29  C23 UNL     1      -1.155  -2.512  -3.864  1.00  0.00     0.046 A   
ATOM     30  C20 UNL     1      -3.811  -2.532  -4.732  1.00  0.00     0.043 A   
ATOM     31  C22 UNL     1      -2.163  -2.999  -3.036  1.00  0.00     0.159 A   
ATOM     32  C21 UNL     1      -3.482  -3.010  -3.468  1.00  0.00     0.158 A   
ATOM     33  F2  UNL     1      -1.848  -3.408  -1.799  1.00  0.00    -0.204 F   
ATOM     34  F1  UNL     1      -4.450  -3.455  -2.657  1.00  0.00    -0.204 F   
ENDBRANCH  26  27
ENDBRANCH  25  26
ENDBRANCH   3  25
TORSDOF 9
