REMARK SMILES Cc1cc([C@@H](O)Cn2cc([C@@H]([NH2+]Cc3ccc4c(c3)OCO4)C3CCCC3)nn2)cs1
REMARK SMILES IDX 8 1 9 2 10 3 28 4 29 5 7 7 5 8 4 9 2 10 3 11 31 12 30 13
REMARK SMILES IDX 1 14 6 15 11 17 12 18 13 21 14 22 15 23 19 24 16 25 18 26
REMARK SMILES IDX 17 27 20 28 22 29 21 30 23 31 24 32 27 33 25 34 26 35
REMARK H PARENT 9 6 6 16 12 19 12 20
ROOT
ATOM     1   N1  UNL     1      -0.414   2.925   1.801  1.00  0.00    -0.209 N   
ATOM     2   C7  UNL     1      -1.294   2.451   0.868  1.00  0.00     0.045 A   
ATOM     3   C8  UNL     1      -1.179   1.084   0.973  1.00  0.00     0.127 A   
ATOM     4   N3  UNL     1      -0.302   0.780   1.983  1.00  0.00    -0.132 NA  
ATOM     5   N4  UNL     1       0.154   1.914   2.485  1.00  0.00    -0.076 NA  
ATOM     6   H9  UNL     1      -1.843   3.109   0.207  1.00  0.00     0.083 HD  
ENDROOT
BRANCH   1   7
ATOM     7   C6  UNL     1      -0.010   4.294   2.054  1.00  0.00     0.170 C   
BRANCH   7   8
ATOM     8   C5  UNL     1       0.761   4.935   0.889  1.00  0.00     0.164 C   
BRANCH   8   9
ATOM     9   C4  UNL     1       1.860   4.067   0.326  1.00  0.00    -0.010 A   
ATOM     10  C2  UNL     1       3.921   2.942   0.282  1.00  0.00    -0.014 A   
ATOM     11  C3  UNL     1       3.100   3.791   0.996  1.00  0.00     0.017 A   
ATOM     12  S1  UNL     1       3.208   2.470  -1.196  1.00  0.00    -0.102 S   
ATOM     13  C23 UNL     1       1.818   3.413  -0.894  1.00  0.00     0.052 A   
ATOM     14  C1  UNL     1       5.274   2.433   0.651  1.00  0.00     0.052 C   
ENDBRANCH   8   9
BRANCH   8  15
ATOM     15  O1  UNL     1      -0.171   5.323  -0.131  1.00  0.00    -0.387 OA  
ATOM     16  H6  UNL     1       0.324   5.895  -0.748  1.00  0.00     0.211 HD  
ENDBRANCH   8  15
ENDBRANCH   7   8
ENDBRANCH   1   7
BRANCH   3  17
ATOM     17  C9  UNL     1      -1.739  -0.025   0.143  1.00  0.00     0.117 C   
BRANCH  17  18
ATOM     18  N2  UNL     1      -0.700  -1.108   0.013  1.00  0.00     0.249 N   
ATOM     19  H11 UNL     1      -1.099  -2.017  -0.234  1.00  0.00     0.199 HD  
ATOM     20  H12 UNL     1      -0.286  -1.221   0.952  1.00  0.00     0.199 HD  
BRANCH  18  21
ATOM     21  C10 UNL     1       0.423  -0.790  -0.913  1.00  0.00     0.164 C   
BRANCH  21  22
ATOM     22  C11 UNL     1       1.536  -1.787  -0.758  1.00  0.00    -0.002 A   
ATOM     23  C12 UNL     1       2.553  -1.565   0.202  1.00  0.00     0.012 A   
ATOM     24  C16 UNL     1       1.548  -2.965  -1.522  1.00  0.00     0.045 A   
ATOM     25  C13 UNL     1       3.578  -2.498   0.390  1.00  0.00     0.037 A   
ATOM     26  C15 UNL     1       2.573  -3.864  -1.310  1.00  0.00     0.109 A   
ATOM     27  C14 UNL     1       3.560  -3.638  -0.383  1.00  0.00     0.108 A   
ATOM     28  O2  UNL     1       2.733  -5.047  -1.962  1.00  0.00    -0.316 OA  
ATOM     29  O3  UNL     1       4.467  -4.648  -0.335  1.00  0.00    -0.316 OA  
ATOM     30  C17 UNL     1       3.952  -5.532  -1.353  1.00  0.00     0.337 C   
ENDBRANCH  21  22
ENDBRANCH  18  21
ENDBRANCH  17  18
BRANCH  17  31
ATOM     31  C18 UNL     1      -3.049  -0.580   0.731  1.00  0.00     0.043 C   
ATOM     32  C19 UNL     1      -3.802  -1.541  -0.195  1.00  0.00     0.010 C   
ATOM     33  C22 UNL     1      -2.930  -1.387   2.025  1.00  0.00     0.010 C   
ATOM     34  C20 UNL     1      -4.743  -2.328   0.718  1.00  0.00     0.001 C   
ATOM     35  C21 UNL     1      -4.305  -2.031   2.150  1.00  0.00     0.001 C   
ENDBRANCH  17  31
ENDBRANCH   3  17
TORSDOF 9
