REMARK SMILES Cc1cc([C@H](O)Cn2cc([C@@H]([NH2+]Cc3ccc4c(c3)OCO4)C3CCCC3)nn2)cs1
REMARK SMILES IDX 8 1 9 2 10 3 28 4 29 5 7 7 5 8 4 9 2 10 3 11 31 12 30 13
REMARK SMILES IDX 1 14 6 15 11 17 12 18 13 21 14 22 15 23 19 24 16 25 18 26
REMARK SMILES IDX 17 27 20 28 22 29 21 30 23 31 24 32 27 33 25 34 26 35
REMARK H PARENT 9 6 6 16 12 19 12 20
ROOT
ATOM     1   N1  UNL     1      -0.926  -2.376   1.664  1.00  0.00    -0.209 N   
ATOM     2   C7  UNL     1      -0.152  -1.280   1.407  1.00  0.00     0.045 A   
ATOM     3   C8  UNL     1       0.195  -1.423   0.082  1.00  0.00     0.127 A   
ATOM     4   N3  UNL     1      -0.335  -2.594  -0.398  1.00  0.00    -0.132 NA  
ATOM     5   N4  UNL     1      -1.004  -3.175   0.584  1.00  0.00    -0.076 NA  
ATOM     6   H9  UNL     1       0.046  -0.521   2.151  1.00  0.00     0.083 HD  
ENDROOT
BRANCH   1   7
ATOM     7   C6  UNL     1      -1.606  -2.724   2.890  1.00  0.00     0.170 C   
BRANCH   7   8
ATOM     8   C5  UNL     1      -3.125  -2.550   2.803  1.00  0.00     0.164 C   
BRANCH   8   9
ATOM     9   C4  UNL     1      -3.531  -1.121   2.539  1.00  0.00    -0.010 A   
ATOM     10  C2  UNL     1      -3.915   1.148   3.001  1.00  0.00    -0.014 A   
ATOM     11  C3  UNL     1      -3.506  -0.066   3.513  1.00  0.00     0.017 A   
ATOM     12  S1  UNL     1      -4.331   1.025   1.349  1.00  0.00    -0.102 S   
ATOM     13  C23 UNL     1      -3.978  -0.646   1.320  1.00  0.00     0.052 A   
ATOM     14  C1  UNL     1      -4.034   2.458   3.703  1.00  0.00     0.052 C   
ENDBRANCH   8   9
BRANCH   8  15
ATOM     15  O1  UNL     1      -3.692  -3.008   4.034  1.00  0.00    -0.387 OA  
ATOM     16  H6  UNL     1      -4.652  -2.848   3.978  1.00  0.00     0.211 HD  
ENDBRANCH   8  15
ENDBRANCH   7   8
ENDBRANCH   1   7
BRANCH   3  17
ATOM     17  C9  UNL     1       1.033  -0.570  -0.814  1.00  0.00     0.117 C   
BRANCH  17  18
ATOM     18  N2  UNL     1       1.860  -1.447  -1.733  1.00  0.00     0.249 N   
ATOM     19  H11 UNL     1       2.297  -0.886  -2.468  1.00  0.00     0.199 HD  
ATOM     20  H12 UNL     1       1.197  -2.089  -2.189  1.00  0.00     0.199 HD  
BRANCH  18  21
ATOM     21  C10 UNL     1       2.913  -2.283  -1.083  1.00  0.00     0.164 C   
BRANCH  21  22
ATOM     22  C11 UNL     1       4.020  -1.462  -0.483  1.00  0.00    -0.002 A   
ATOM     23  C12 UNL     1       4.987  -0.845  -1.314  1.00  0.00     0.012 A   
ATOM     24  C16 UNL     1       4.080  -1.270   0.908  1.00  0.00     0.045 A   
ATOM     25  C13 UNL     1       5.996  -0.044  -0.769  1.00  0.00     0.037 A   
ATOM     26  C15 UNL     1       5.085  -0.471   1.412  1.00  0.00     0.109 A   
ATOM     27  C14 UNL     1       6.016   0.124   0.598  1.00  0.00     0.108 A   
ATOM     28  O2  UNL     1       5.277  -0.175   2.724  1.00  0.00    -0.316 OA  
ATOM     29  O3  UNL     1       6.914   0.867   1.295  1.00  0.00    -0.316 OA  
ATOM     30  C17 UNL     1       6.465   0.646   2.649  1.00  0.00     0.337 C   
ENDBRANCH  21  22
ENDBRANCH  18  21
ENDBRANCH  17  18
BRANCH  17  31
ATOM     31  C18 UNL     1       0.172   0.365  -1.688  1.00  0.00     0.043 C   
ATOM     32  C19 UNL     1      -0.661   1.360  -0.872  1.00  0.00     0.010 C   
ATOM     33  C22 UNL     1       0.978   1.309  -2.586  1.00  0.00     0.010 C   
ATOM     34  C20 UNL     1      -1.075   2.425  -1.880  1.00  0.00     0.001 C   
ATOM     35  C21 UNL     1      -0.003   2.413  -2.968  1.00  0.00     0.001 C   
ENDBRANCH  17  31
ENDBRANCH   3  17
TORSDOF 9
