REMARK SMILES COc1ccc(-n2cc([C@H](CC(C)C)[NH2+]Cc3ccc4c(c3)OCO4)nn2)c(C)c1
REMARK SMILES IDX 7 1 8 2 9 3 26 4 27 5 6 6 3 7 4 8 30 9 5 10 28 11 29 12 2 13
REMARK SMILES IDX 1 14 10 15 11 16 12 17 13 18 14 19 15 20 16 23 17 24 18 25
REMARK SMILES IDX 22 26 19 27 21 28 20 29 23 30 25 31 24 32
REMARK H PARENT 15 21 15 22
ROOT
ATOM     1   N1  UNL     1      -1.961  -1.408   0.094  1.00  0.00    -0.180 N   
ATOM     2   C6  UNL     1      -1.299  -0.194   0.218  1.00  0.00     0.135 A   
ATOM     3   C7  UNL     1      -0.754   0.057  -1.022  1.00  0.00     0.127 A   
ATOM     4   N3  UNL     1      -1.063  -0.974  -1.858  1.00  0.00    -0.131 NA  
ATOM     5   N4  UNL     1      -1.772  -1.855  -1.174  1.00  0.00    -0.071 NA  
ENDROOT
BRANCH   1   6
ATOM     6   C5  UNL     1      -2.714  -2.118   1.077  1.00  0.00     0.061 A   
ATOM     7   C2  UNL     1      -4.202  -3.405   3.116  1.00  0.00     0.075 A   
ATOM     8   C3  UNL     1      -3.631  -2.163   3.350  1.00  0.00     0.035 A   
ATOM     9   C23 UNL     1      -4.024  -4.004   1.869  1.00  0.00     0.038 A   
ATOM     10  C4  UNL     1      -2.898  -1.524   2.342  1.00  0.00     0.029 A   
ATOM     11  C21 UNL     1      -3.287  -3.388   0.834  1.00  0.00    -0.025 A   
ATOM     12  C22 UNL     1      -3.174  -4.158  -0.458  1.00  0.00     0.046 C   
BRANCH   7  13
ATOM     13  O1  UNL     1      -4.942  -4.136   4.001  1.00  0.00    -0.349 OA  
ATOM     14  C1  UNL     1      -5.185  -3.558   5.278  1.00  0.00     0.203 C   
ENDBRANCH   7  13
ENDBRANCH   1   6
BRANCH   3  15
ATOM     15  C8  UNL     1       0.091   1.179  -1.530  1.00  0.00     0.114 C   
BRANCH  15  16
ATOM     16  C9  UNL     1      -0.735   2.323  -2.147  1.00  0.00     0.064 C   
BRANCH  16  17
ATOM     17  C10 UNL     1      -1.677   3.063  -1.172  1.00  0.00    -0.012 C   
ATOM     18  C11 UNL     1      -0.938   3.663   0.024  1.00  0.00     0.007 C   
ATOM     19  C12 UNL     1      -2.425   4.172  -1.920  1.00  0.00     0.007 C   
ENDBRANCH  16  17
ENDBRANCH  15  16
BRANCH  15  20
ATOM     20  N2  UNL     1       1.005   0.658  -2.624  1.00  0.00     0.249 N   
ATOM     21  H17 UNL     1       1.299   1.417  -3.246  1.00  0.00     0.199 HD  
ATOM     22  H18 UNL     1       0.432   0.014  -3.189  1.00  0.00     0.199 HD  
BRANCH  20  23
ATOM     23  C13 UNL     1       2.209  -0.092  -2.166  1.00  0.00     0.164 C   
BRANCH  23  24
ATOM     24  C14 UNL     1       3.315   0.831  -1.736  1.00  0.00    -0.002 A   
ATOM     25  C15 UNL     1       4.121   1.474  -2.709  1.00  0.00     0.012 A   
ATOM     26  C19 UNL     1       3.532   1.099  -0.374  1.00  0.00     0.045 A   
ATOM     27  C16 UNL     1       5.125   2.372  -2.332  1.00  0.00     0.037 A   
ATOM     28  C18 UNL     1       4.527   1.993  -0.037  1.00  0.00     0.109 A   
ATOM     29  C17 UNL     1       5.301   2.612  -0.988  1.00  0.00     0.108 A   
ATOM     30  O2  UNL     1       4.856   2.370   1.225  1.00  0.00    -0.316 OA  
ATOM     31  O3  UNL     1       6.217   3.454  -0.444  1.00  0.00    -0.316 OA  
ATOM     32  C20 UNL     1       5.964   3.263   0.966  1.00  0.00     0.337 C   
ENDBRANCH  23  24
ENDBRANCH  20  23
ENDBRANCH  15  20
ENDBRANCH   3  15
TORSDOF 8
