REMARK SMILES CC(C)(C)[C@H]([NH2+]Cc1ccc2c(c1)OCO2)c1cn(CCc2ccncc2F)nn1
REMARK SMILES IDX 17 1 18 2 19 3 29 4 30 5 5 7 2 8 1 9 3 10 4 11 6 12 7 15
REMARK SMILES IDX 8 16 9 17 13 18 10 19 12 20 11 21 14 22 16 23 15 24 20 25
REMARK SMILES IDX 21 26 22 27 23 28 27 29 24 30 26 31 25 32 28 33
REMARK H PARENT 18 6 6 13 6 14
ROOT
ATOM     1   C14 UNL     1       1.907  -0.144  -0.355  1.00  0.00     0.127 A   
ATOM     2   C15 UNL     1       2.488  -1.232  -0.966  1.00  0.00     0.045 A   
ATOM     3   N2  UNL     1       3.584  -1.497  -0.195  1.00  0.00    -0.212 N   
ATOM     4   N4  UNL     1       3.670  -0.636   0.835  1.00  0.00    -0.076 NA  
ATOM     5   N5  UNL     1       2.648   0.200   0.748  1.00  0.00    -0.132 NA  
ATOM     6   H20 UNL     1       2.227  -1.829  -1.830  1.00  0.00     0.083 HD  
ENDROOT
BRANCH   1   7
ATOM     7   C5  UNL     1       0.636   0.593  -0.654  1.00  0.00     0.120 C   
BRANCH   7   8
ATOM     8   C2  UNL     1       0.823   1.854  -1.571  1.00  0.00     0.010 C   
ATOM     9   C1  UNL     1       1.665   2.959  -0.902  1.00  0.00     0.017 C   
ATOM     10  C3  UNL     1       1.513   1.452  -2.895  1.00  0.00     0.017 C   
ATOM     11  C4  UNL     1      -0.553   2.452  -1.947  1.00  0.00     0.017 C   
ENDBRANCH   7   8
BRANCH   7  12
ATOM     12  N1  UNL     1      -0.015   0.989   0.658  1.00  0.00     0.250 N   
ATOM     13  H11 UNL     1       0.736   1.396   1.235  1.00  0.00     0.199 HD  
ATOM     14  H12 UNL     1      -0.716   1.719   0.521  1.00  0.00     0.199 HD  
BRANCH  12  15
ATOM     15  C6  UNL     1      -0.625  -0.121   1.450  1.00  0.00     0.164 C   
BRANCH  15  16
ATOM     16  C7  UNL     1      -1.833  -0.722   0.786  1.00  0.00    -0.002 A   
ATOM     17  C8  UNL     1      -1.799  -2.062   0.332  1.00  0.00     0.012 A   
ATOM     18  C12 UNL     1      -2.998   0.042   0.598  1.00  0.00     0.045 A   
ATOM     19  C9  UNL     1      -2.903  -2.633  -0.311  1.00  0.00     0.037 A   
ATOM     20  C11 UNL     1      -4.066  -0.551  -0.043  1.00  0.00     0.109 A   
ATOM     21  C10 UNL     1      -4.021  -1.849  -0.486  1.00  0.00     0.108 A   
ATOM     22  O1  UNL     1      -5.256   0.048  -0.311  1.00  0.00    -0.316 OA  
ATOM     23  O2  UNL     1      -5.176  -2.233  -1.088  1.00  0.00    -0.316 OA  
ATOM     24  C13 UNL     1      -5.971  -1.036  -0.949  1.00  0.00     0.337 C   
ENDBRANCH  15  16
ENDBRANCH  12  15
ENDBRANCH   7  12
ENDBRANCH   1   7
BRANCH   3  25
ATOM     25  C16 UNL     1       4.526  -2.589  -0.332  1.00  0.00     0.139 C   
BRANCH  25  26
ATOM     26  C17 UNL     1       4.402  -3.637   0.780  1.00  0.00     0.060 C   
BRANCH  26  27
ATOM     27  C18 UNL     1       3.006  -4.181   0.968  1.00  0.00    -0.007 A   
ATOM     28  C19 UNL     1       2.348  -4.044   2.196  1.00  0.00     0.027 A   
ATOM     29  C22 UNL     1       2.329  -4.824  -0.067  1.00  0.00     0.144 A   
ATOM     30  C20 UNL     1       1.047  -4.515   2.316  1.00  0.00     0.111 A   
ATOM     31  C21 UNL     1       1.031  -5.259   0.138  1.00  0.00     0.150 A   
ATOM     32  N3  UNL     1       0.362  -5.089   1.303  1.00  0.00    -0.262 NA  
ATOM     33  F1  UNL     1       2.909  -4.985  -1.263  1.00  0.00    -0.205 F   
ENDBRANCH  26  27
ENDBRANCH  25  26
ENDBRANCH   3  25
TORSDOF 8
