REMARK SMILES CC(C)C[C@H]([NH2+]Cc1ccc2c(c1)OCO2)c1cn(Cc2cn(C)nc2C(F)F)nn1
REMARK SMILES IDX 17 1 18 2 19 3 30 4 31 5 5 7 4 8 2 9 1 10 3 11 6 12 7 15
REMARK SMILES IDX 8 16 9 17 13 18 10 19 12 20 11 21 14 22 16 23 15 24 20 25
REMARK SMILES IDX 21 26 22 27 26 28 23 29 25 30 24 31 27 32 28 33 29 34
REMARK H PARENT 18 6 6 13 6 14
ROOT
ATOM     1   C14 UNL     1      -0.217  -1.590   0.506  1.00  0.00     0.127 A   
ATOM     2   C15 UNL     1      -1.581  -1.697   0.654  1.00  0.00     0.046 A   
ATOM     3   N2  UNL     1      -1.824  -3.037   0.519  1.00  0.00    -0.208 N   
ATOM     4   N5  UNL     1      -0.667  -3.722   0.409  1.00  0.00    -0.076 NA  
ATOM     5   N6  UNL     1       0.322  -2.844   0.373  1.00  0.00    -0.132 NA  
ATOM     6   H20 UNL     1      -2.374  -0.972   0.783  1.00  0.00     0.083 HD  
ENDROOT
BRANCH   1   7
ATOM     7   C5  UNL     1       0.677  -0.393   0.483  1.00  0.00     0.114 C   
BRANCH   7   8
ATOM     8   C4  UNL     1       0.768   0.192  -0.942  1.00  0.00     0.064 C   
BRANCH   8   9
ATOM     9   C2  UNL     1       1.567   1.505  -1.093  1.00  0.00    -0.012 C   
ATOM     10  C1  UNL     1       1.556   1.946  -2.560  1.00  0.00     0.007 C   
ATOM     11  C3  UNL     1       1.021   2.630  -0.213  1.00  0.00     0.007 C   
ENDBRANCH   8   9
ENDBRANCH   7   8
BRANCH   7  12
ATOM     12  N1  UNL     1       2.062  -0.774   0.948  1.00  0.00     0.249 N   
ATOM     13  H11 UNL     1       2.292  -1.650   0.457  1.00  0.00     0.199 HD  
ATOM     14  H12 UNL     1       2.753  -0.077   0.663  1.00  0.00     0.199 HD  
BRANCH  12  15
ATOM     15  C6  UNL     1       2.214  -1.028   2.411  1.00  0.00     0.164 C   
BRANCH  15  16
ATOM     16  C7  UNL     1       2.151   0.238   3.220  1.00  0.00    -0.002 A   
ATOM     17  C8  UNL     1       3.244   1.138   3.227  1.00  0.00     0.012 A   
ATOM     18  C12 UNL     1       0.987   0.559   3.939  1.00  0.00     0.045 A   
ATOM     19  C9  UNL     1       3.177   2.345   3.931  1.00  0.00     0.037 A   
ATOM     20  C11 UNL     1       0.952   1.758   4.618  1.00  0.00     0.109 A   
ATOM     21  C10 UNL     1       2.014   2.627   4.614  1.00  0.00     0.108 A   
ATOM     22  O1  UNL     1      -0.098   2.225   5.344  1.00  0.00    -0.316 OA  
ATOM     23  O2  UNL     1       1.770   3.749   5.338  1.00  0.00    -0.316 OA  
ATOM     24  C13 UNL     1       0.435   3.482   5.819  1.00  0.00     0.337 C   
ENDBRANCH  15  16
ENDBRANCH  12  15
ENDBRANCH   7  12
ENDBRANCH   1   7
BRANCH   3  25
ATOM     25  C16 UNL     1      -3.106  -3.723   0.509  1.00  0.00     0.173 C   
BRANCH  25  26
ATOM     26  C17 UNL     1      -3.611  -3.893  -0.884  1.00  0.00     0.016 A   
ATOM     27  C18 UNL     1      -3.582  -5.040  -1.653  1.00  0.00     0.102 A   
ATOM     28  C20 UNL     1      -4.244  -2.923  -1.724  1.00  0.00     0.131 A   
ATOM     29  N3  UNL     1      -4.158  -4.725  -2.846  1.00  0.00    -0.235 N   
ATOM     30  N4  UNL     1      -4.562  -3.447  -2.919  1.00  0.00    -0.180 NA  
ATOM     31  C19 UNL     1      -4.349  -5.601  -3.978  1.00  0.00     0.159 C   
BRANCH  28  32
ATOM     32  C21 UNL     1      -4.546  -1.488  -1.414  1.00  0.00     0.393 C   
ATOM     33  F1  UNL     1      -4.893  -1.339  -0.102  1.00  0.00    -0.203 F   
ATOM     34  F2  UNL     1      -3.434  -0.713  -1.574  1.00  0.00    -0.203 F   
ENDBRANCH  28  32
ENDBRANCH  25  26
ENDBRANCH   3  25
TORSDOF 9
