REMARK SMILES c1nc2cc(CCn3cc([C@@H]([NH2+]Cc4ccc5c(c4)OCO5)C4CCCC4)nn3)ccc2[nH]1
REMARK SMILES IDX 8 1 9 2 10 3 28 4 29 5 7 7 6 8 5 9 1 10 2 11 33 12 3 13
REMARK SMILES IDX 32 14 4 15 31 16 30 17 11 19 12 20 13 23 14 24 15 25 19 26
REMARK SMILES IDX 16 27 18 28 17 29 20 30 22 31 21 32 23 33 24 34 27 35 25 36
REMARK SMILES IDX 26 37
REMARK H PARENT 9 6 33 18 12 21 12 22
ROOT
ATOM     1   N2  UNL     1       2.544   2.346   0.056  1.00  0.00    -0.212 N   
ATOM     2   C7  UNL     1       2.363   1.078  -0.430  1.00  0.00     0.045 A   
ATOM     3   C8  UNL     1       1.541   0.474   0.503  1.00  0.00     0.127 A   
ATOM     4   N4  UNL     1       1.357   1.341   1.549  1.00  0.00    -0.132 NA  
ATOM     5   N5  UNL     1       1.969   2.480   1.263  1.00  0.00    -0.076 NA  
ATOM     6   H7  UNL     1       2.731   0.780  -1.401  1.00  0.00     0.083 HD  
ENDROOT
BRANCH   1   7
ATOM     7   C6  UNL     1       3.017   3.513  -0.670  1.00  0.00     0.139 C   
BRANCH   7   8
ATOM     8   C5  UNL     1       1.871   4.380  -1.229  1.00  0.00     0.057 C   
BRANCH   8   9
ATOM     9   C4  UNL     1       1.014   3.626  -2.225  1.00  0.00    -0.044 A   
ATOM     10  C1  UNL     1      -1.738   0.316  -3.546  1.00  0.00     0.186 A   
ATOM     11  N1  UNL     1      -1.402   0.774  -2.357  1.00  0.00    -0.239 NA  
ATOM     12  N6  UNL     1      -1.123   1.008  -4.560  1.00  0.00    -0.304 N   
ATOM     13  C2  UNL     1      -0.589   1.857  -2.630  1.00  0.00     0.086 A   
ATOM     14  C25 UNL     1      -0.331   1.969  -3.990  1.00  0.00     0.057 A   
ATOM     15  C3  UNL     1       0.025   2.750  -1.743  1.00  0.00     0.034 A   
ATOM     16  C24 UNL     1       0.556   2.904  -4.524  1.00  0.00     0.026 A   
ATOM     17  C23 UNL     1       1.252   3.708  -3.606  1.00  0.00     0.006 A   
ATOM     18  H29 UNL     1      -1.236   0.838  -5.552  1.00  0.00     0.154 HD  
ENDBRANCH   8   9
ENDBRANCH   7   8
ENDBRANCH   1   7
BRANCH   3  19
ATOM     19  C9  UNL     1       0.774  -0.814   0.469  1.00  0.00     0.117 C   
BRANCH  19  20
ATOM     20  N3  UNL     1      -0.635  -0.587  -0.048  1.00  0.00     0.249 N   
ATOM     21  H9  UNL     1      -1.078  -1.466  -0.306  1.00  0.00     0.199 HD  
ATOM     22  H10 UNL     1      -0.611  -0.041  -0.930  1.00  0.00     0.199 HD  
BRANCH  20  23
ATOM     23  C10 UNL     1      -1.579   0.134   0.855  1.00  0.00     0.164 C   
BRANCH  23  24
ATOM     24  C11 UNL     1      -1.922  -0.649   2.091  1.00  0.00    -0.002 A   
ATOM     25  C12 UNL     1      -2.703  -1.827   2.003  1.00  0.00     0.012 A   
ATOM     26  C16 UNL     1      -1.449  -0.225   3.346  1.00  0.00     0.045 A   
ATOM     27  C13 UNL     1      -3.008  -2.576   3.146  1.00  0.00     0.037 A   
ATOM     28  C15 UNL     1      -1.774  -0.982   4.453  1.00  0.00     0.109 A   
ATOM     29  C14 UNL     1      -2.526  -2.127   4.356  1.00  0.00     0.108 A   
ATOM     30  O1  UNL     1      -1.403  -0.712   5.732  1.00  0.00    -0.316 OA  
ATOM     31  O2  UNL     1      -2.716  -2.725   5.561  1.00  0.00    -0.316 OA  
ATOM     32  C17 UNL     1      -2.033  -1.803   6.438  1.00  0.00     0.337 C   
ENDBRANCH  23  24
ENDBRANCH  20  23
ENDBRANCH  19  20
BRANCH  19  33
ATOM     33  C18 UNL     1       1.431  -1.913  -0.394  1.00  0.00     0.043 C   
ATOM     34  C19 UNL     1       0.677  -3.250  -0.383  1.00  0.00     0.010 C   
ATOM     35  C22 UNL     1       2.813  -2.345   0.107  1.00  0.00     0.010 C   
ATOM     36  C20 UNL     1       1.694  -4.285  -0.843  1.00  0.00     0.001 C   
ATOM     37  C21 UNL     1       3.067  -3.671  -0.599  1.00  0.00     0.001 C   
ENDBRANCH  19  33
ENDBRANCH   3  19
TORSDOF 8
