REMARK SMILES Cc1cccc(F)c1CCn1cc([C@@H]([NH2+]Cc2ccc3c(c2)OCO3)C(C)C)nn1
REMARK SMILES IDX 11 1 12 2 13 3 29 4 30 5 10 7 9 8 8 9 2 10 3 11 4 12 6 13
REMARK SMILES IDX 5 14 1 15 7 16 14 17 15 18 16 21 17 22 18 23 22 24 19 25
REMARK SMILES IDX 21 26 20 27 23 28 25 29 24 30 26 31 27 32 28 33
REMARK H PARENT 12 6 15 19 15 20
ROOT
ATOM     1   N1  UNL     1       0.457  -2.203  -2.149  1.00  0.00    -0.212 N   
ATOM     2   C10 UNL     1      -0.335  -1.191  -1.685  1.00  0.00     0.045 A   
ATOM     3   C11 UNL     1       0.499  -0.095  -1.687  1.00  0.00     0.127 A   
ATOM     4   N3  UNL     1       1.726  -0.462  -2.180  1.00  0.00    -0.132 NA  
ATOM     5   N4  UNL     1       1.687  -1.754  -2.457  1.00  0.00    -0.076 NA  
ATOM     6   H11 UNL     1      -1.358  -1.350  -1.375  1.00  0.00     0.083 HD  
ENDROOT
BRANCH   1   7
ATOM     7   C9  UNL     1       0.127  -3.603  -2.311  1.00  0.00     0.139 C   
BRANCH   7   8
ATOM     8   C8  UNL     1       0.542  -4.456  -1.111  1.00  0.00     0.060 C   
BRANCH   8   9
ATOM     9   C7  UNL     1      -0.401  -4.332   0.068  1.00  0.00    -0.008 A   
ATOM     10  C2  UNL     1      -1.558  -5.129   0.195  1.00  0.00    -0.045 A   
ATOM     11  C3  UNL     1      -2.385  -4.963   1.320  1.00  0.00     0.004 A   
ATOM     12  C4  UNL     1      -2.085  -4.020   2.304  1.00  0.00     0.003 A   
ATOM     13  C6  UNL     1      -0.125  -3.387   1.069  1.00  0.00     0.126 A   
ATOM     14  C5  UNL     1      -0.950  -3.228   2.177  1.00  0.00     0.039 A   
ATOM     15  C1  UNL     1      -1.916  -6.194  -0.809  1.00  0.00     0.045 C   
ATOM     16  F1  UNL     1       0.951  -2.592   0.961  1.00  0.00    -0.207 F   
ENDBRANCH   8   9
ENDBRANCH   7   8
ENDBRANCH   1   7
BRANCH   3  17
ATOM     17  C12 UNL     1       0.288   1.304  -1.210  1.00  0.00     0.117 C   
BRANCH  17  18
ATOM     18  N2  UNL     1       1.602   1.909  -0.770  1.00  0.00     0.249 N   
ATOM     19  H13 UNL     1       2.280   1.683  -1.512  1.00  0.00     0.199 HD  
ATOM     20  H14 UNL     1       1.540   2.928  -0.714  1.00  0.00     0.199 HD  
BRANCH  18  21
ATOM     21  C13 UNL     1       2.170   1.381   0.507  1.00  0.00     0.164 C   
BRANCH  21  22
ATOM     22  C14 UNL     1       1.352   1.760   1.710  1.00  0.00    -0.002 A   
ATOM     23  C15 UNL     1       0.630   0.770   2.419  1.00  0.00     0.012 A   
ATOM     24  C19 UNL     1       1.275   3.101   2.126  1.00  0.00     0.045 A   
ATOM     25  C16 UNL     1      -0.165   1.107   3.519  1.00  0.00     0.037 A   
ATOM     26  C18 UNL     1       0.480   3.400   3.213  1.00  0.00     0.109 A   
ATOM     27  C17 UNL     1      -0.221   2.432   3.889  1.00  0.00     0.108 A   
ATOM     28  O1  UNL     1       0.290   4.640   3.735  1.00  0.00    -0.316 OA  
ATOM     29  O2  UNL     1      -0.940   2.940   4.923  1.00  0.00    -0.316 OA  
ATOM     30  C20 UNL     1      -0.590   4.339   4.842  1.00  0.00     0.337 C   
ENDBRANCH  21  22
ENDBRANCH  18  21
ENDBRANCH  17  18
BRANCH  17  31
ATOM     31  C21 UNL     1      -0.381   2.199  -2.287  1.00  0.00     0.037 C   
ATOM     32  C22 UNL     1      -0.890   3.517  -1.689  1.00  0.00     0.014 C   
ATOM     33  C23 UNL     1       0.510   2.492  -3.499  1.00  0.00     0.014 C   
ENDBRANCH  17  31
ENDBRANCH   3  17
TORSDOF 8
