REMARK SMILES Cc1cc(Cn2cc([C@@H]([NH2+]Cc3ccc4c(c3)OCO4)C3CCCC3)nn2)cc(Cl)n1
REMARK SMILES IDX 6 1 7 2 8 3 26 4 27 5 5 7 4 8 2 9 3 10 31 11 29 12 28 13
REMARK SMILES IDX 1 14 30 15 9 16 10 17 11 20 12 21 13 22 17 23 14 24 16 25
REMARK SMILES IDX 15 26 18 27 20 28 19 29 21 30 22 31 25 32 23 33 24 34
REMARK H PARENT 7 6 10 18 10 19
ROOT
ATOM     1   N1  UNL     1       0.327  -2.573   0.390  1.00  0.00    -0.208 N   
ATOM     2   C6  UNL     1       1.072  -1.648  -0.290  1.00  0.00     0.046 A   
ATOM     3   C7  UNL     1       1.383  -0.708   0.667  1.00  0.00     0.127 A   
ATOM     4   N3  UNL     1       0.843  -1.090   1.870  1.00  0.00    -0.132 NA  
ATOM     5   N4  UNL     1       0.201  -2.232   1.688  1.00  0.00    -0.076 NA  
ATOM     6   H7  UNL     1       1.286  -1.737  -1.346  1.00  0.00     0.083 HD  
ENDROOT
BRANCH   1   7
ATOM     7   C5  UNL     1      -0.270  -3.796  -0.120  1.00  0.00     0.169 C   
BRANCH   7   8
ATOM     8   C4  UNL     1      -1.552  -3.505  -0.854  1.00  0.00    -0.024 A   
ATOM     9   C2  UNL     1      -3.911  -2.996  -0.859  1.00  0.00     0.039 A   
ATOM     10  C3  UNL     1      -2.745  -3.285  -0.152  1.00  0.00     0.029 A   
ATOM     11  N5  UNL     1      -3.937  -2.900  -2.208  1.00  0.00    -0.241 NA  
ATOM     12  C23 UNL     1      -2.782  -3.121  -2.862  1.00  0.00     0.129 A   
ATOM     13  C22 UNL     1      -1.579  -3.422  -2.249  1.00  0.00     0.046 A   
ATOM     14  C1  UNL     1      -5.199  -2.762  -0.125  1.00  0.00     0.067 C   
ATOM     15  CL1 UNL     1      -2.882  -2.963  -4.566  1.00  0.00    -0.062 Cl  
ENDBRANCH   7   8
ENDBRANCH   1   7
BRANCH   3  16
ATOM     16  C8  UNL     1       2.137   0.580   0.580  1.00  0.00     0.117 C   
BRANCH  16  17
ATOM     17  N2  UNL     1       1.623   1.546   1.624  1.00  0.00     0.249 N   
ATOM     18  H9  UNL     1       2.394   2.012   2.110  1.00  0.00     0.199 HD  
ATOM     19  H10 UNL     1       1.158   0.964   2.340  1.00  0.00     0.199 HD  
BRANCH  17  20
ATOM     20  C9  UNL     1       0.651   2.572   1.152  1.00  0.00     0.164 C   
BRANCH  20  21
ATOM     21  C10 UNL     1      -0.642   1.999   0.643  1.00  0.00    -0.002 A   
ATOM     22  C11 UNL     1      -1.577   1.433   1.544  1.00  0.00     0.012 A   
ATOM     23  C15 UNL     1      -0.925   2.001  -0.734  1.00  0.00     0.045 A   
ATOM     24  C12 UNL     1      -2.776   0.880   1.083  1.00  0.00     0.037 A   
ATOM     25  C14 UNL     1      -2.117   1.448  -1.154  1.00  0.00     0.109 A   
ATOM     26  C13 UNL     1      -3.018   0.907  -0.272  1.00  0.00     0.108 A   
ATOM     27  O1  UNL     1      -2.539   1.368  -2.444  1.00  0.00    -0.316 OA  
ATOM     28  O2  UNL     1      -4.130   0.433  -0.891  1.00  0.00    -0.316 OA  
ATOM     29  C16 UNL     1      -3.839   0.753  -2.269  1.00  0.00     0.337 C   
ENDBRANCH  20  21
ENDBRANCH  17  20
ENDBRANCH  16  17
BRANCH  16  30
ATOM     30  C17 UNL     1       3.654   0.364   0.743  1.00  0.00     0.043 C   
ATOM     31  C18 UNL     1       4.500   1.608   0.450  1.00  0.00     0.010 C   
ATOM     32  C21 UNL     1       4.128  -0.116   2.128  1.00  0.00     0.010 C   
ATOM     33  C19 UNL     1       5.835   1.272   1.094  1.00  0.00     0.001 C   
ATOM     34  C20 UNL     1       5.435   0.625   2.411  1.00  0.00     0.001 C   
ENDBRANCH  16  30
ENDBRANCH   3  16
TORSDOF 7
