REMARK SMILES CC(C)(O)c1cccc(Cn2cc([C@@H]([NH2+]Cc3ccc4c(c3)OCO4)C3CCCC3)nn2)n1
REMARK SMILES IDX 11 1 12 2 13 3 31 4 32 5 10 7 9 8 5 9 6 10 33 11 7 12 8 13
REMARK SMILES IDX 2 14 1 15 3 16 4 17 14 19 15 20 16 23 17 24 18 25 22 26
REMARK SMILES IDX 19 27 21 28 20 29 23 30 25 31 24 32 26 33 27 34 30 35 28 36
REMARK SMILES IDX 29 37
REMARK H PARENT 12 6 4 18 15 21 15 22
ROOT
ATOM     1   N1  UNL     1       1.901   0.508   2.966  1.00  0.00    -0.206 N   
ATOM     2   C10 UNL     1       0.608   0.158   2.664  1.00  0.00     0.046 A   
ATOM     3   C11 UNL     1       0.135   1.227   1.935  1.00  0.00     0.127 A   
ATOM     4   N3  UNL     1       1.077   2.227   1.962  1.00  0.00    -0.132 NA  
ATOM     5   N4  UNL     1       2.139   1.786   2.616  1.00  0.00    -0.076 NA  
ATOM     6   H13 UNL     1       0.237  -0.838   2.857  1.00  0.00     0.083 HD  
ENDROOT
BRANCH   1   7
ATOM     7   C9  UNL     1       3.004  -0.388   3.295  1.00  0.00     0.190 C   
BRANCH   7   8
ATOM     8   C8  UNL     1       3.563  -1.028   2.039  1.00  0.00     0.060 A   
ATOM     9   C4  UNL     1       3.326  -1.427  -0.269  1.00  0.00     0.072 A   
ATOM     10  C5  UNL     1       4.520  -2.125  -0.313  1.00  0.00     0.027 A   
ATOM     11  N5  UNL     1       2.842  -0.909   0.894  1.00  0.00    -0.253 NA  
ATOM     12  C6  UNL     1       5.241  -2.277   0.871  1.00  0.00     0.004 A   
ATOM     13  C7  UNL     1       4.765  -1.722   2.061  1.00  0.00     0.025 A   
BRANCH   9  14
ATOM     14  C2  UNL     1       2.452  -1.126  -1.484  1.00  0.00     0.101 C   
ATOM     15  C1  UNL     1       1.859  -2.401  -2.082  1.00  0.00     0.049 C   
ATOM     16  C3  UNL     1       3.200  -0.301  -2.530  1.00  0.00     0.049 C   
BRANCH  14  17
ATOM     17  O1  UNL     1       1.334  -0.301  -1.018  1.00  0.00    -0.384 OA  
ATOM     18  H7  UNL     1       1.559  -0.230  -0.059  1.00  0.00     0.211 HD  
ENDBRANCH  14  17
ENDBRANCH   9  14
ENDBRANCH   7   8
ENDBRANCH   1   7
BRANCH   3  19
ATOM     19  C12 UNL     1      -1.054   1.430   1.043  1.00  0.00     0.117 C   
BRANCH  19  20
ATOM     20  N2  UNL     1      -0.525   1.632  -0.360  1.00  0.00     0.249 N   
ATOM     21  H15 UNL     1      -0.259   0.726  -0.794  1.00  0.00     0.199 HD  
ATOM     22  H16 UNL     1       0.395   2.089  -0.262  1.00  0.00     0.199 HD  
BRANCH  20  23
ATOM     23  C13 UNL     1      -1.334   2.458  -1.285  1.00  0.00     0.164 C   
BRANCH  23  24
ATOM     24  C14 UNL     1      -1.177   2.016  -2.714  1.00  0.00    -0.002 A   
ATOM     25  C15 UNL     1       0.076   2.118  -3.368  1.00  0.00     0.012 A   
ATOM     26  C19 UNL     1      -2.276   1.473  -3.405  1.00  0.00     0.045 A   
ATOM     27  C16 UNL     1       0.242   1.665  -4.681  1.00  0.00     0.037 A   
ATOM     28  C18 UNL     1      -2.081   1.042  -4.701  1.00  0.00     0.109 A   
ATOM     29  C17 UNL     1      -0.855   1.124  -5.317  1.00  0.00     0.108 A   
ATOM     30  O2  UNL     1      -3.030   0.486  -5.500  1.00  0.00    -0.316 OA  
ATOM     31  O3  UNL     1      -0.870   0.605  -6.571  1.00  0.00    -0.316 OA  
ATOM     32  C20 UNL     1      -2.262   0.235  -6.699  1.00  0.00     0.337 C   
ENDBRANCH  23  24
ENDBRANCH  20  23
ENDBRANCH  19  20
BRANCH  19  33
ATOM     33  C21 UNL     1      -2.136   0.337   1.029  1.00  0.00     0.043 C   
ATOM     34  C22 UNL     1      -2.816   0.082   2.380  1.00  0.00     0.010 C   
ATOM     35  C25 UNL     1      -1.720  -1.053   0.518  1.00  0.00     0.010 C   
ATOM     36  C23 UNL     1      -3.470  -1.276   2.184  1.00  0.00     0.001 C   
ATOM     37  C24 UNL     1      -2.419  -2.067   1.420  1.00  0.00     0.001 C   
ENDBRANCH  19  33
ENDBRANCH   3  19
TORSDOF 9
