REMARK SMILES CC(C)[C@H]([NH2+]Cc1ccc2c(c1)OCO2)c1cn(CCc2cnn(C)c2)nn1
REMARK SMILES IDX 16 1 17 2 18 3 27 4 28 5 4 7 2 8 1 9 3 10 5 11 6 14 7 15
REMARK SMILES IDX 8 16 12 17 9 18 11 19 10 20 13 21 15 22 14 23 19 24 20 25
REMARK SMILES IDX 21 26 22 27 26 28 23 29 24 30 25 31
REMARK H PARENT 17 6 5 12 5 13
ROOT
ATOM     1   C13 UNL     1      -0.834  -0.776   1.872  1.00  0.00     0.127 A   
ATOM     2   C14 UNL     1      -0.844  -2.144   2.055  1.00  0.00     0.045 A   
ATOM     3   N2  UNL     1       0.285  -2.383   2.794  1.00  0.00    -0.212 N   
ATOM     4   N5  UNL     1       0.831  -1.231   3.219  1.00  0.00    -0.076 NA  
ATOM     5   N6  UNL     1       0.156  -0.239   2.659  1.00  0.00    -0.132 NA  
ATOM     6   H18 UNL     1      -1.417  -2.950   1.620  1.00  0.00     0.083 HD  
ENDROOT
BRANCH   1   7
ATOM     7   C4  UNL     1      -1.579   0.114   0.921  1.00  0.00     0.117 C   
BRANCH   7   8
ATOM     8   C2  UNL     1      -2.919  -0.475   0.399  1.00  0.00     0.037 C   
ATOM     9   C1  UNL     1      -2.776  -1.500  -0.735  1.00  0.00     0.014 C   
ATOM     10  C3  UNL     1      -3.862   0.647  -0.062  1.00  0.00     0.014 C   
ENDBRANCH   7   8
BRANCH   7  11
ATOM     11  N1  UNL     1      -0.705   0.512  -0.249  1.00  0.00     0.249 N   
ATOM     12  H9  UNL     1      -1.273   0.782  -1.054  1.00  0.00     0.199 HD  
ATOM     13  H10 UNL     1      -0.154  -0.317  -0.556  1.00  0.00     0.199 HD  
BRANCH  11  14
ATOM     14  C5  UNL     1       0.283   1.603  -0.006  1.00  0.00     0.164 C   
BRANCH  14  15
ATOM     15  C6  UNL     1      -0.367   2.952   0.137  1.00  0.00    -0.002 A   
ATOM     16  C7  UNL     1      -0.871   3.628  -1.001  1.00  0.00     0.012 A   
ATOM     17  C11 UNL     1      -0.506   3.536   1.407  1.00  0.00     0.045 A   
ATOM     18  C8  UNL     1      -1.512   4.865  -0.875  1.00  0.00     0.037 A   
ATOM     19  C10 UNL     1      -1.144   4.756   1.496  1.00  0.00     0.109 A   
ATOM     20  C9  UNL     1      -1.633   5.402   0.387  1.00  0.00     0.108 A   
ATOM     21  O1  UNL     1      -1.368   5.450   2.642  1.00  0.00    -0.316 OA  
ATOM     22  O2  UNL     1      -2.225   6.585   0.695  1.00  0.00    -0.316 OA  
ATOM     23  C12 UNL     1      -2.030   6.627   2.126  1.00  0.00     0.337 C   
ENDBRANCH  14  15
ENDBRANCH  11  14
ENDBRANCH   7  11
ENDBRANCH   1   7
BRANCH   3  24
ATOM     24  C15 UNL     1       1.059  -3.613   2.800  1.00  0.00     0.139 C   
BRANCH  24  25
ATOM     25  C16 UNL     1       2.218  -3.585   1.784  1.00  0.00     0.060 C   
BRANCH  25  26
ATOM     26  C17 UNL     1       1.802  -3.075   0.438  1.00  0.00    -0.011 A   
ATOM     27  C18 UNL     1       1.869  -1.733  -0.008  1.00  0.00     0.136 A   
ATOM     28  C20 UNL     1       1.206  -3.743  -0.609  1.00  0.00     0.100 A   
ATOM     29  N3  UNL     1       1.169  -1.532  -1.134  1.00  0.00    -0.190 NA  
ATOM     30  N4  UNL     1       0.934  -2.800  -1.561  1.00  0.00    -0.236 N   
ATOM     31  C19 UNL     1       0.392  -3.033  -2.879  1.00  0.00     0.159 C   
ENDBRANCH  25  26
ENDBRANCH  24  25
ENDBRANCH   3  24
TORSDOF 8
