REMARK SMILES CC(C)C[C@H]([NH2+]Cc1ccc2c(c1)OCO2)c1cn(Cc2ccc(Cl)cc2O)nn1
REMARK SMILES IDX 17 1 18 2 19 3 29 4 30 5 5 7 4 8 2 9 1 10 3 11 6 12 7 15
REMARK SMILES IDX 8 16 9 17 13 18 10 19 12 20 11 21 14 22 16 23 15 24 20 25
REMARK SMILES IDX 21 26 22 27 27 28 23 29 26 30 24 31 25 32 28 33
REMARK H PARENT 18 6 6 13 6 14 28 34
ROOT
ATOM     1   C14 UNL     1      -0.137   1.340  -0.025  1.00  0.00     0.127 A   
ATOM     2   C15 UNL     1       0.626   2.444   0.287  1.00  0.00     0.046 A   
ATOM     3   N2  UNL     1      -0.285   3.463   0.376  1.00  0.00    -0.208 N   
ATOM     4   N3  UNL     1      -1.538   2.995   0.197  1.00  0.00    -0.076 NA  
ATOM     5   N4  UNL     1      -1.458   1.703  -0.077  1.00  0.00    -0.132 NA  
ATOM     6   H20 UNL     1       1.684   2.600   0.449  1.00  0.00     0.083 HD  
ENDROOT
BRANCH   1   7
ATOM     7   C5  UNL     1       0.242  -0.090  -0.242  1.00  0.00     0.114 C   
BRANCH   7   8
ATOM     8   C4  UNL     1       0.453  -0.378  -1.743  1.00  0.00     0.064 C   
BRANCH   8   9
ATOM     9   C2  UNL     1       0.968  -1.788  -2.104  1.00  0.00    -0.012 C   
ATOM     10  C1  UNL     1       1.111  -1.905  -3.626  1.00  0.00     0.007 C   
ATOM     11  C3  UNL     1       2.305  -2.112  -1.436  1.00  0.00     0.007 C   
ENDBRANCH   8   9
ENDBRANCH   7   8
BRANCH   7  12
ATOM     12  N1  UNL     1      -0.844  -0.991   0.287  1.00  0.00     0.249 N   
ATOM     13  H11 UNL     1      -0.779  -1.939  -0.093  1.00  0.00     0.199 HD  
ATOM     14  H12 UNL     1      -1.740  -0.606  -0.052  1.00  0.00     0.199 HD  
BRANCH  12  15
ATOM     15  C6  UNL     1      -0.929  -1.071   1.773  1.00  0.00     0.164 C   
BRANCH  15  16
ATOM     16  C7  UNL     1      -2.059  -1.970   2.188  1.00  0.00    -0.002 A   
ATOM     17  C8  UNL     1      -3.333  -1.425   2.485  1.00  0.00     0.012 A   
ATOM     18  C12 UNL     1      -1.872  -3.364   2.236  1.00  0.00     0.045 A   
ATOM     19  C9  UNL     1      -4.403  -2.253   2.842  1.00  0.00     0.037 A   
ATOM     20  C11 UNL     1      -2.950  -4.152   2.585  1.00  0.00     0.109 A   
ATOM     21  C10 UNL     1      -4.179  -3.613   2.882  1.00  0.00     0.108 A   
ATOM     22  O1  UNL     1      -2.942  -5.508   2.678  1.00  0.00    -0.316 OA  
ATOM     23  O2  UNL     1      -5.098  -4.561   3.200  1.00  0.00    -0.316 OA  
ATOM     24  C13 UNL     1      -4.300  -5.761   3.109  1.00  0.00     0.337 C   
ENDBRANCH  15  16
ENDBRANCH  12  15
ENDBRANCH   7  12
ENDBRANCH   1   7
BRANCH   3  25
ATOM     25  C16 UNL     1      -0.064   4.865   0.694  1.00  0.00     0.172 C   
BRANCH  25  26
ATOM     26  C17 UNL     1       1.010   5.481  -0.172  1.00  0.00     0.002 A   
ATOM     27  C18 UNL     1       0.694   5.974  -1.452  1.00  0.00     0.010 A   
ATOM     28  C22 UNL     1       2.340   5.566   0.266  1.00  0.00     0.078 A   
ATOM     29  C19 UNL     1       1.687   6.540  -2.260  1.00  0.00     0.021 A   
ATOM     30  C21 UNL     1       3.336   6.130  -0.534  1.00  0.00     0.054 A   
ATOM     31  C20 UNL     1       3.002   6.615  -1.798  1.00  0.00     0.043 A   
ATOM     32  CL1 UNL     1       4.222   7.301  -2.802  1.00  0.00    -0.084 Cl  
BRANCH  28  33
ATOM     33  O3  UNL     1       2.656   5.066   1.502  1.00  0.00    -0.361 OA  
ATOM     34  H26 UNL     1       3.548   5.379   1.748  1.00  0.00     0.218 HD  
ENDBRANCH  28  33
ENDBRANCH  25  26
ENDBRANCH   3  25
TORSDOF 9
