REMARK SMILES Cc1cc(C(=O)n2cc([C@@H]([NH2+]Cc3ccc4c(c3)OCO4)C(C)C)nn2)nc(Cl)n1
REMARK SMILES IDX 7 1 8 2 9 3 25 4 26 5 5 6 6 7 4 8 2 9 3 10 30 11 28 12 27 13
REMARK SMILES IDX 1 14 29 15 10 16 11 17 12 20 13 21 14 22 18 23 15 24 17 25
REMARK SMILES IDX 16 26 19 27 21 28 20 29 22 30 23 31 24 32
REMARK H PARENT 11 18 11 19
ROOT
ATOM     1   N1  UNL     1      -0.862  -0.836  -2.329  1.00  0.00    -0.142 N   
ATOM     2   C6  UNL     1       0.111  -1.021  -1.358  1.00  0.00     0.139 A   
ATOM     3   C7  UNL     1      -0.468  -0.606  -0.183  1.00  0.00     0.128 A   
ATOM     4   N3  UNL     1      -1.755  -0.215  -0.443  1.00  0.00    -0.131 NA  
ATOM     5   N4  UNL     1      -1.983  -0.353  -1.736  1.00  0.00    -0.068 NA  
ENDROOT
BRANCH   1   6
ATOM     6   C5  UNL     1      -0.798  -1.152  -3.695  1.00  0.00     0.289 C   
ATOM     7   O1  UNL     1       0.189  -1.789  -4.061  1.00  0.00    -0.268 OA  
BRANCH   6   8
ATOM     8   C4  UNL     1      -1.833  -0.779  -4.691  1.00  0.00     0.133 A   
ATOM     9   C2  UNL     1      -2.921  -1.112  -6.739  1.00  0.00     0.043 A   
ATOM     10  C3  UNL     1      -1.950  -1.524  -5.851  1.00  0.00     0.057 A   
ATOM     11  N6  UNL     1      -3.710  -0.051  -6.494  1.00  0.00    -0.223 NA  
ATOM     12  C20 UNL     1      -3.482   0.609  -5.352  1.00  0.00     0.223 A   
ATOM     13  N5  UNL     1      -2.571   0.314  -4.423  1.00  0.00    -0.213 NA  
ATOM     14  C1  UNL     1      -3.167  -1.875  -8.007  1.00  0.00     0.067 C   
ATOM     15  CL1 UNL     1      -4.454   1.974  -5.046  1.00  0.00    -0.041 Cl  
ENDBRANCH   6   8
ENDBRANCH   1   6
BRANCH   3  16
ATOM     16  C8  UNL     1       0.061  -0.536   1.221  1.00  0.00     0.117 C   
BRANCH  16  17
ATOM     17  N2  UNL     1      -0.975   0.072   2.139  1.00  0.00     0.249 N   
ATOM     18  H7  UNL     1      -0.878  -0.277   3.096  1.00  0.00     0.199 HD  
ATOM     19  H8  UNL     1      -1.892  -0.251   1.794  1.00  0.00     0.199 HD  
BRANCH  17  20
ATOM     20  C9  UNL     1      -1.018   1.564   2.175  1.00  0.00     0.164 C   
BRANCH  20  21
ATOM     21  C10 UNL     1       0.089   2.143   3.011  1.00  0.00    -0.002 A   
ATOM     22  C11 UNL     1       1.158   2.839   2.397  1.00  0.00     0.012 A   
ATOM     23  C15 UNL     1       0.082   1.983   4.408  1.00  0.00     0.045 A   
ATOM     24  C12 UNL     1       2.206   3.365   3.160  1.00  0.00     0.037 A   
ATOM     25  C14 UNL     1       1.134   2.509   5.128  1.00  0.00     0.109 A   
ATOM     26  C13 UNL     1       2.166   3.181   4.522  1.00  0.00     0.108 A   
ATOM     27  O2  UNL     1       1.285   2.439   6.477  1.00  0.00    -0.316 OA  
ATOM     28  O3  UNL     1       3.093   3.625   5.412  1.00  0.00    -0.316 OA  
ATOM     29  C16 UNL     1       2.520   3.171   6.658  1.00  0.00     0.337 C   
ENDBRANCH  20  21
ENDBRANCH  17  20
ENDBRANCH  16  17
BRANCH  16  30
ATOM     30  C17 UNL     1       0.503  -1.922   1.761  1.00  0.00     0.037 C   
ATOM     31  C18 UNL     1      -0.656  -2.910   1.954  1.00  0.00     0.014 C   
ATOM     32  C19 UNL     1       1.300  -1.796   3.066  1.00  0.00     0.014 C   
ENDBRANCH  16  30
ENDBRANCH   3  16
TORSDOF 7
