REMARK SMILES Cn1c(Cn2cc([C@@H]([NH2+]Cc3ccc4c(c3)OCO4)C3CCCC3)nn2)cc2ccccc21
REMARK SMILES IDX 5 1 6 2 7 3 25 4 26 5 4 7 3 8 2 9 33 10 27 11 28 12 32 13
REMARK SMILES IDX 29 14 31 15 30 16 1 17 8 18 9 19 10 22 11 23 12 24 16 25
REMARK SMILES IDX 13 26 15 27 14 28 17 29 19 30 18 31 20 32 21 33 24 34 22 35
REMARK SMILES IDX 23 36
REMARK H PARENT 6 6 9 20 9 21
ROOT
ATOM     1   N2  UNL     1      -0.913  -0.994   0.580  1.00  0.00    -0.206 N   
ATOM     2   C4  UNL     1      -1.057   0.147   1.322  1.00  0.00     0.046 A   
ATOM     3   C5  UNL     1      -1.660   1.033   0.459  1.00  0.00     0.127 A   
ATOM     4   N4  UNL     1      -1.868   0.415  -0.748  1.00  0.00    -0.132 NA  
ATOM     5   N5  UNL     1      -1.417  -0.826  -0.659  1.00  0.00    -0.076 NA  
ATOM     6   H6  UNL     1      -0.708   0.217   2.343  1.00  0.00     0.083 HD  
ENDROOT
BRANCH   1   7
ATOM     7   C3  UNL     1      -0.318  -2.260   0.984  1.00  0.00     0.185 C   
BRANCH   7   8
ATOM     8   C2  UNL     1       1.150  -2.095   1.225  1.00  0.00     0.030 A   
ATOM     9   N1  UNL     1       2.107  -2.162   0.230  1.00  0.00    -0.305 N   
ATOM     10  C26 UNL     1       3.359  -1.897   0.756  1.00  0.00     0.040 A   
ATOM     11  C20 UNL     1       1.813  -1.857   2.413  1.00  0.00     0.031 A   
ATOM     12  C21 UNL     1       3.196  -1.715   2.131  1.00  0.00    -0.002 A   
ATOM     13  C25 UNL     1       4.624  -1.806   0.150  1.00  0.00     0.024 A   
ATOM     14  C22 UNL     1       4.324  -1.444   2.930  1.00  0.00     0.010 A   
ATOM     15  C24 UNL     1       5.729  -1.530   0.961  1.00  0.00     0.002 A   
ATOM     16  C23 UNL     1       5.585  -1.353   2.333  1.00  0.00     0.001 A   
ATOM     17  C1  UNL     1       1.836  -2.470  -1.161  1.00  0.00     0.136 C   
ENDBRANCH   7   8
ENDBRANCH   1   7
BRANCH   3  18
ATOM     18  C6  UNL     1      -2.031   2.468   0.629  1.00  0.00     0.117 C   
BRANCH  18  19
ATOM     19  N3  UNL     1      -1.834   3.215  -0.674  1.00  0.00     0.249 N   
ATOM     20  H8  UNL     1      -1.986   2.524  -1.427  1.00  0.00     0.199 HD  
ATOM     21  H9  UNL     1      -2.560   3.927  -0.790  1.00  0.00     0.199 HD  
BRANCH  19  22
ATOM     22  C7  UNL     1      -0.501   3.850  -0.877  1.00  0.00     0.164 C   
BRANCH  22  23
ATOM     23  C8  UNL     1       0.577   2.888  -1.285  1.00  0.00    -0.002 A   
ATOM     24  C9  UNL     1       1.537   2.435  -0.349  1.00  0.00     0.012 A   
ATOM     25  C13 UNL     1       0.630   2.419  -2.610  1.00  0.00     0.045 A   
ATOM     26  C10 UNL     1       2.540   1.535  -0.727  1.00  0.00     0.037 A   
ATOM     27  C12 UNL     1       1.634   1.538  -2.950  1.00  0.00     0.109 A   
ATOM     28  C11 UNL     1       2.564   1.108  -2.036  1.00  0.00     0.108 A   
ATOM     29  O1  UNL     1       1.831   1.004  -4.184  1.00  0.00    -0.316 OA  
ATOM     30  O2  UNL     1       3.461   0.244  -2.580  1.00  0.00    -0.316 OA  
ATOM     31  C14 UNL     1       3.016   0.212  -3.953  1.00  0.00     0.337 C   
ENDBRANCH  22  23
ENDBRANCH  19  22
ENDBRANCH  18  19
BRANCH  18  32
ATOM     32  C15 UNL     1      -3.482   2.704   1.093  1.00  0.00     0.043 C   
ATOM     33  C16 UNL     1      -4.590   2.162   0.186  1.00  0.00     0.010 C   
ATOM     34  C19 UNL     1      -3.841   2.081   2.443  1.00  0.00     0.010 C   
ATOM     35  C17 UNL     1      -5.844   2.205   1.057  1.00  0.00     0.001 C   
ATOM     36  C18 UNL     1      -5.359   2.218   2.508  1.00  0.00     0.001 C   
ENDBRANCH  18  32
ENDBRANCH   3  18
TORSDOF 7
