REMARK SMILES CC(C)(C)n1cc(CCn2cc([C@@H]([NH2+]Cc3ccc4c(c3)OCO4)C3CCCC3)nn2)cn1
REMARK SMILES IDX 10 1 11 2 12 3 30 4 31 5 9 7 8 8 7 9 5 10 6 11 33 12 32 13
REMARK SMILES IDX 2 14 1 15 3 16 4 17 13 18 14 19 15 22 16 23 17 24 21 25
REMARK SMILES IDX 18 26 20 27 19 28 22 29 24 30 23 31 25 32 26 33 29 34 27 35
REMARK SMILES IDX 28 36
REMARK H PARENT 11 6 14 20 14 21
ROOT
ATOM     1   N2  UNL     1      -2.190  -2.027   2.585  1.00  0.00    -0.212 N   
ATOM     2   C9  UNL     1      -0.869  -1.976   2.225  1.00  0.00     0.045 A   
ATOM     3   C10 UNL     1      -0.886  -2.216   0.867  1.00  0.00     0.127 A   
ATOM     4   N4  UNL     1      -2.167  -2.528   0.487  1.00  0.00    -0.132 NA  
ATOM     5   N5  UNL     1      -2.953  -2.418   1.549  1.00  0.00    -0.076 NA  
ATOM     6   H15 UNL     1      -0.100  -1.651   2.911  1.00  0.00     0.083 HD  
ENDROOT
BRANCH   1   7
ATOM     7   C8  UNL     1      -2.787  -1.396   3.750  1.00  0.00     0.139 C   
BRANCH   7   8
ATOM     8   C7  UNL     1      -3.331   0.014   3.447  1.00  0.00     0.060 C   
BRANCH   8   9
ATOM     9   C6  UNL     1      -2.375   0.838   2.643  1.00  0.00    -0.011 A   
ATOM     10  N1  UNL     1      -0.673   2.044   1.923  1.00  0.00    -0.227 N   
ATOM     11  C5  UNL     1      -1.308   1.604   3.057  1.00  0.00     0.101 A   
ATOM     12  N6  UNL     1      -1.180   1.457   0.801  1.00  0.00    -0.189 NA  
ATOM     13  C25 UNL     1      -2.317   0.905   1.235  1.00  0.00     0.136 A   
BRANCH  10  14
ATOM     14  C2  UNL     1       0.463   2.980   1.804  1.00  0.00     0.047 C   
ATOM     15  C1  UNL     1       0.011   4.217   1.005  1.00  0.00     0.034 C   
ATOM     16  C3  UNL     1       0.983   3.456   3.176  1.00  0.00     0.034 C   
ATOM     17  C4  UNL     1       1.627   2.290   1.066  1.00  0.00     0.034 C   
ENDBRANCH  10  14
ENDBRANCH   8   9
ENDBRANCH   7   8
ENDBRANCH   1   7
BRANCH   3  18
ATOM     18  C11 UNL     1       0.176  -2.039  -0.174  1.00  0.00     0.117 C   
BRANCH  18  19
ATOM     19  N3  UNL     1       0.045  -0.663  -0.794  1.00  0.00     0.249 N   
ATOM     20  H17 UNL     1      -0.361   0.009  -0.107  1.00  0.00     0.199 HD  
ATOM     21  H18 UNL     1       0.953  -0.254  -1.020  1.00  0.00     0.199 HD  
BRANCH  19  22
ATOM     22  C12 UNL     1      -0.819  -0.594  -2.005  1.00  0.00     0.164 C   
BRANCH  22  23
ATOM     23  C13 UNL     1      -0.599   0.698  -2.745  1.00  0.00    -0.002 A   
ATOM     24  C14 UNL     1      -1.466   1.797  -2.547  1.00  0.00     0.012 A   
ATOM     25  C18 UNL     1       0.509   0.840  -3.599  1.00  0.00     0.045 A   
ATOM     26  C15 UNL     1      -1.241   3.019  -3.190  1.00  0.00     0.037 A   
ATOM     27  C17 UNL     1       0.705   2.058  -4.216  1.00  0.00     0.109 A   
ATOM     28  C16 UNL     1      -0.145   3.117  -4.018  1.00  0.00     0.108 A   
ATOM     29  O1  UNL     1       1.725   2.361  -5.061  1.00  0.00    -0.316 OA  
ATOM     30  O2  UNL     1       0.231   4.221  -4.714  1.00  0.00    -0.316 OA  
ATOM     31  C19 UNL     1       1.401   3.728  -5.401  1.00  0.00     0.337 C   
ENDBRANCH  22  23
ENDBRANCH  19  22
ENDBRANCH  18  19
BRANCH  18  32
ATOM     32  C20 UNL     1       1.624  -2.208   0.358  1.00  0.00     0.043 C   
ATOM     33  C21 UNL     1       2.694  -2.177  -0.746  1.00  0.00     0.010 C   
ATOM     34  C24 UNL     1       1.891  -3.596   0.962  1.00  0.00     0.010 C   
ATOM     35  C22 UNL     1       2.712  -3.587  -1.329  1.00  0.00     0.001 C   
ATOM     36  C23 UNL     1       2.178  -4.502  -0.231  1.00  0.00     0.001 C   
ENDBRANCH  18  32
ENDBRANCH   3  18
TORSDOF 9
