REMARK SMILES Cc1ccc(O)c(CCn2cc([C@@H]([NH2+]Cc3ccc4c(c3)OCO4)C(C)(C)C)nn2)c1
REMARK SMILES IDX 10 1 11 2 12 3 29 4 30 5 9 7 8 8 7 9 2 10 3 11 31 12 4 13
REMARK SMILES IDX 5 14 1 15 6 16 13 18 14 19 15 22 16 23 17 24 21 25 18 26
REMARK SMILES IDX 20 27 19 28 22 29 24 30 23 31 25 32 26 33 27 34 28 35
REMARK H PARENT 11 6 6 17 14 20 14 21
ROOT
ATOM     1   N1  UNL     1       2.507   2.745  -0.334  1.00  0.00    -0.212 N   
ATOM     2   C9  UNL     1       1.376   2.492   0.388  1.00  0.00     0.045 A   
ATOM     3   C10 UNL     1       1.685   1.353   1.097  1.00  0.00     0.127 A   
ATOM     4   N3  UNL     1       2.965   0.965   0.791  1.00  0.00    -0.132 NA  
ATOM     5   N4  UNL     1       3.458   1.826  -0.083  1.00  0.00    -0.076 NA  
ATOM     6   H11 UNL     1       0.486   3.100   0.300  1.00  0.00     0.083 HD  
ENDROOT
BRANCH   1   7
ATOM     7   C8  UNL     1       2.723   3.791  -1.312  1.00  0.00     0.139 C   
BRANCH   7   8
ATOM     8   C7  UNL     1       2.703   3.274  -2.751  1.00  0.00     0.059 C   
BRANCH   8   9
ATOM     9   C6  UNL     1       1.434   2.548  -3.143  1.00  0.00    -0.016 A   
ATOM     10  C2  UNL     1       0.336   0.491  -3.876  1.00  0.00    -0.051 A   
ATOM     11  C3  UNL     1      -0.888   1.167  -3.911  1.00  0.00     0.006 A   
ATOM     12  C24 UNL     1       1.488   1.184  -3.478  1.00  0.00     0.010 A   
ATOM     13  C4  UNL     1      -0.957   2.521  -3.578  1.00  0.00     0.034 A   
ATOM     14  C5  UNL     1       0.200   3.200  -3.204  1.00  0.00     0.074 A   
ATOM     15  C1  UNL     1       0.412  -0.966  -4.225  1.00  0.00     0.044 C   
BRANCH  14  16
ATOM     16  O1  UNL     1       0.139   4.526  -2.883  1.00  0.00    -0.361 OA  
ATOM     17  H6  UNL     1      -0.701   4.886  -3.220  1.00  0.00     0.218 HD  
ENDBRANCH  14  16
ENDBRANCH   8   9
ENDBRANCH   7   8
ENDBRANCH   1   7
BRANCH   3  18
ATOM     18  C11 UNL     1       0.841   0.490   1.982  1.00  0.00     0.120 C   
BRANCH  18  19
ATOM     19  N2  UNL     1       1.114  -0.963   1.643  1.00  0.00     0.250 N   
ATOM     20  H13 UNL     1       2.137  -1.074   1.679  1.00  0.00     0.199 HD  
ATOM     21  H14 UNL     1       0.711  -1.589   2.343  1.00  0.00     0.199 HD  
BRANCH  19  22
ATOM     22  C12 UNL     1       0.679  -1.417   0.287  1.00  0.00     0.164 C   
BRANCH  22  23
ATOM     23  C13 UNL     1      -0.815  -1.465   0.137  1.00  0.00    -0.002 A   
ATOM     24  C14 UNL     1      -1.562  -2.524   0.707  1.00  0.00     0.012 A   
ATOM     25  C18 UNL     1      -1.486  -0.436  -0.546  1.00  0.00     0.045 A   
ATOM     26  C15 UNL     1      -2.956  -2.559   0.596  1.00  0.00     0.037 A   
ATOM     27  C17 UNL     1      -2.860  -0.501  -0.638  1.00  0.00     0.109 A   
ATOM     28  C16 UNL     1      -3.575  -1.532  -0.082  1.00  0.00     0.108 A   
ATOM     29  O2  UNL     1      -3.657   0.408  -1.259  1.00  0.00    -0.316 OA  
ATOM     30  O3  UNL     1      -4.912  -1.405  -0.284  1.00  0.00    -0.316 OA  
ATOM     31  C19 UNL     1      -4.960  -0.183  -1.051  1.00  0.00     0.337 C   
ENDBRANCH  22  23
ENDBRANCH  19  22
ENDBRANCH  18  19
BRANCH  18  32
ATOM     32  C20 UNL     1       1.045   0.744   3.517  1.00  0.00     0.010 C   
ATOM     33  C21 UNL     1       0.026  -0.082   4.336  1.00  0.00     0.017 C   
ATOM     34  C22 UNL     1       0.785   2.232   3.845  1.00  0.00     0.017 C   
ATOM     35  C23 UNL     1       2.462   0.381   4.005  1.00  0.00     0.017 C   
ENDBRANCH  18  32
ENDBRANCH   3  18
TORSDOF 9
