REMARK SMILES CC(C)C[C@H]([NH2+]Cc1ccc2c(c1)OCO2)c1cn(CC(=O)c2cccc(Cl)c2)nn1
REMARK SMILES IDX 17 1 18 2 19 3 30 4 31 5 5 7 4 8 2 9 1 10 3 11 6 12 7 15
REMARK SMILES IDX 8 16 9 17 13 18 10 19 12 20 11 21 14 22 16 23 15 24 20 25
REMARK SMILES IDX 21 26 22 27 23 28 24 29 29 30 25 31 27 32 26 33 28 34
REMARK H PARENT 18 6 6 13 6 14
ROOT
ATOM     1   C14 UNL     1      -0.673  -1.673  -0.498  1.00  0.00     0.127 A   
ATOM     2   C15 UNL     1      -1.515  -0.602  -0.703  1.00  0.00     0.046 A   
ATOM     3   N2  UNL     1      -2.677  -0.984  -0.086  1.00  0.00    -0.204 N   
ATOM     4   N3  UNL     1      -2.597  -2.253   0.349  1.00  0.00    -0.076 NA  
ATOM     5   N4  UNL     1      -1.366  -2.683   0.116  1.00  0.00    -0.132 NA  
ATOM     6   H20 UNL     1      -1.367   0.389  -1.108  1.00  0.00     0.083 HD  
ENDROOT
BRANCH   1   7
ATOM     7   C5  UNL     1       0.797  -1.800  -0.714  1.00  0.00     0.114 C   
BRANCH   7   8
ATOM     8   C4  UNL     1       1.111  -2.793  -1.851  1.00  0.00     0.064 C   
BRANCH   8   9
ATOM     9   C2  UNL     1       2.601  -2.980  -2.208  1.00  0.00    -0.012 C   
ATOM     10  C1  UNL     1       3.289  -1.664  -2.572  1.00  0.00     0.007 C   
ATOM     11  C3  UNL     1       2.732  -3.969  -3.369  1.00  0.00     0.007 C   
ENDBRANCH   8   9
ENDBRANCH   7   8
BRANCH   7  12
ATOM     12  N1  UNL     1       1.479  -2.266   0.553  1.00  0.00     0.249 N   
ATOM     13  H11 UNL     1       2.476  -2.421   0.384  1.00  0.00     0.199 HD  
ATOM     14  H12 UNL     1       1.059  -3.174   0.795  1.00  0.00     0.199 HD  
BRANCH  12  15
ATOM     15  C6  UNL     1       1.333  -1.379   1.754  1.00  0.00     0.164 C   
BRANCH  15  16
ATOM     16  C7  UNL     1       1.855   0.017   1.536  1.00  0.00    -0.002 A   
ATOM     17  C8  UNL     1       3.229   0.255   1.306  1.00  0.00     0.012 A   
ATOM     18  C12 UNL     1       0.962   1.102   1.549  1.00  0.00     0.045 A   
ATOM     19  C9  UNL     1       3.703   1.551   1.064  1.00  0.00     0.037 A   
ATOM     20  C11 UNL     1       1.459   2.365   1.311  1.00  0.00     0.109 A   
ATOM     21  C10 UNL     1       2.791   2.583   1.071  1.00  0.00     0.108 A   
ATOM     22  O1  UNL     1       0.730   3.512   1.285  1.00  0.00    -0.316 OA  
ATOM     23  O2  UNL     1       3.070   3.894   0.848  1.00  0.00    -0.316 OA  
ATOM     24  C13 UNL     1       1.773   4.490   1.073  1.00  0.00     0.337 C   
ENDBRANCH  15  16
ENDBRANCH  12  15
ENDBRANCH   7  12
ENDBRANCH   1   7
BRANCH   3  25
ATOM     25  C16 UNL     1      -3.831  -0.157   0.216  1.00  0.00     0.214 C   
BRANCH  25  26
ATOM     26  C17 UNL     1      -3.450   0.920   1.209  1.00  0.00     0.182 C   
ATOM     27  O3  UNL     1      -2.538   0.783   2.024  1.00  0.00    -0.292 OA  
BRANCH  26  28
ATOM     28  C18 UNL     1      -4.176   2.219   1.159  1.00  0.00     0.021 A   
ATOM     29  C19 UNL     1      -5.512   2.312   0.746  1.00  0.00     0.012 A   
ATOM     30  C23 UNL     1      -3.478   3.374   1.542  1.00  0.00     0.032 A   
ATOM     31  C20 UNL     1      -6.135   3.564   0.690  1.00  0.00     0.002 A   
ATOM     32  C22 UNL     1      -4.107   4.618   1.472  1.00  0.00     0.041 A   
ATOM     33  C21 UNL     1      -5.431   4.717   1.047  1.00  0.00     0.020 A   
ATOM     34  CL1 UNL     1      -3.235   6.036   1.906  1.00  0.00    -0.084 Cl  
ENDBRANCH  26  28
ENDBRANCH  25  26
ENDBRANCH   3  25
TORSDOF 9
