REMARK SMILES Cc1cncc(CCn2cc([C@H](CC(C)C)[NH2+]Cc3ccc4c(c3)OCO4)nn2)n1
REMARK SMILES IDX 9 1 10 2 11 3 28 4 29 5 8 7 7 8 6 9 2 10 3 11 30 12 4 13
REMARK SMILES IDX 5 14 1 15 12 16 13 17 14 18 15 19 16 20 17 21 18 24 19 25
REMARK SMILES IDX 20 26 24 27 21 28 23 29 22 30 25 31 27 32 26 33
REMARK H PARENT 10 6 17 22 17 23
ROOT
ATOM     1   N2  UNL     1       2.697   3.080  -1.727  1.00  0.00    -0.212 N   
ATOM     2   C8  UNL     1       1.751   2.100  -1.857  1.00  0.00     0.045 A   
ATOM     3   C9  UNL     1       0.904   2.314  -0.793  1.00  0.00     0.127 A   
ATOM     4   N4  UNL     1       1.336   3.408  -0.087  1.00  0.00    -0.132 NA  
ATOM     5   N5  UNL     1       2.429   3.869  -0.672  1.00  0.00    -0.076 NA  
ATOM     6   H10 UNL     1       1.806   1.344  -2.626  1.00  0.00     0.083 HD  
ENDROOT
BRANCH   1   7
ATOM     7   C7  UNL     1       3.968   3.185  -2.419  1.00  0.00     0.140 C   
BRANCH   7   8
ATOM     8   C6  UNL     1       5.162   2.964  -1.490  1.00  0.00     0.079 C   
BRANCH   8   9
ATOM     9   C5  UNL     1       5.080   1.641  -0.780  1.00  0.00     0.061 A   
ATOM     10  C2  UNL     1       5.229  -0.660  -0.855  1.00  0.00     0.056 A   
ATOM     11  C3  UNL     1       4.829  -0.718   0.478  1.00  0.00     0.134 A   
ATOM     12  N6  UNL     1       5.321   0.523  -1.510  1.00  0.00    -0.255 NA  
ATOM     13  N1  UNL     1       4.513   0.383   1.202  1.00  0.00    -0.261 NA  
ATOM     14  C4  UNL     1       4.687   1.560   0.554  1.00  0.00     0.134 A   
ATOM     15  C1  UNL     1       5.560  -1.910  -1.615  1.00  0.00     0.068 C   
ENDBRANCH   8   9
ENDBRANCH   7   8
ENDBRANCH   1   7
BRANCH   3  16
ATOM     16  C10 UNL     1      -0.248   1.515  -0.273  1.00  0.00     0.114 C   
BRANCH  16  17
ATOM     17  C11 UNL     1      -1.594   2.197  -0.580  1.00  0.00     0.064 C   
BRANCH  17  18
ATOM     18  C12 UNL     1      -2.848   1.350  -0.270  1.00  0.00    -0.012 C   
ATOM     19  C13 UNL     1      -4.104   2.211  -0.432  1.00  0.00     0.007 C   
ATOM     20  C14 UNL     1      -2.954   0.115  -1.166  1.00  0.00     0.007 C   
ENDBRANCH  17  18
ENDBRANCH  16  17
BRANCH  16  21
ATOM     21  N3  UNL     1      -0.097   1.367   1.223  1.00  0.00     0.249 N   
ATOM     22  H21 UNL     1      -0.989   1.152   1.675  1.00  0.00     0.199 HD  
ATOM     23  H22 UNL     1       0.196   2.292   1.569  1.00  0.00     0.199 HD  
BRANCH  21  24
ATOM     24  C15 UNL     1       0.929   0.374   1.670  1.00  0.00     0.164 C   
BRANCH  24  25
ATOM     25  C16 UNL     1       0.438  -1.040   1.528  1.00  0.00    -0.002 A   
ATOM     26  C17 UNL     1       0.904  -1.862   0.479  1.00  0.00     0.012 A   
ATOM     27  C21 UNL     1      -0.524  -1.541   2.421  1.00  0.00     0.045 A   
ATOM     28  C18 UNL     1       0.420  -3.166   0.319  1.00  0.00     0.037 A   
ATOM     29  C20 UNL     1      -0.981  -2.827   2.235  1.00  0.00     0.109 A   
ATOM     30  C19 UNL     1      -0.523  -3.618   1.214  1.00  0.00     0.108 A   
ATOM     31  O1  UNL     1      -1.915  -3.451   2.998  1.00  0.00    -0.316 OA  
ATOM     32  O2  UNL     1      -1.104  -4.846   1.210  1.00  0.00    -0.316 OA  
ATOM     33  C22 UNL     1      -1.960  -4.752   2.367  1.00  0.00     0.337 C   
ENDBRANCH  24  25
ENDBRANCH  21  24
ENDBRANCH  16  21
ENDBRANCH   3  16
TORSDOF 9
