REMARK SMILES CC(C)(C)[C@H]([NH2+]Cc1ccc2c(c1)OCO2)c1cn(-c2ccccc2-c2nc3ccccc3[nH]2)nn1
REMARK SMILES IDX 17 1 18 2 19 3 35 4 36 5 5 6 2 7 1 8 3 9 4 10 6 11 7 14 8 15
REMARK SMILES IDX 9 16 13 17 10 18 12 19 11 20 14 21 16 22 15 23 20 24 21 25
REMARK SMILES IDX 25 26 22 27 24 28 23 29 26 30 27 31 34 32 28 33 33 34 29 35
REMARK SMILES IDX 32 36 30 37 31 38
REMARK H PARENT 6 12 6 13 34 39
ROOT
ATOM     1   C14 UNL     1      -0.169   1.759   2.199  1.00  0.00     0.128 A   
ATOM     2   C15 UNL     1       0.930   1.572   1.393  1.00  0.00     0.135 A   
ATOM     3   N2  UNL     1       1.203   2.820   0.878  1.00  0.00    -0.180 N   
ATOM     4   N5  UNL     1       0.516   3.735   1.613  1.00  0.00    -0.071 NA  
ATOM     5   N6  UNL     1      -0.373   3.096   2.358  1.00  0.00    -0.131 NA  
ENDROOT
BRANCH   1   6
ATOM     6   C5  UNL     1      -1.188   0.777   2.682  1.00  0.00     0.120 C   
BRANCH   6   7
ATOM     7   C2  UNL     1      -0.668  -0.382   3.597  1.00  0.00     0.010 C   
ATOM     8   C1  UNL     1       0.177   0.200   4.752  1.00  0.00     0.017 C   
ATOM     9   C3  UNL     1       0.174  -1.435   2.855  1.00  0.00     0.017 C   
ATOM     10  C4  UNL     1      -1.873  -1.111   4.239  1.00  0.00     0.017 C   
ENDBRANCH   6   7
BRANCH   6  11
ATOM     11  N1  UNL     1      -1.927   0.233   1.476  1.00  0.00     0.250 N   
ATOM     12  H11 UNL     1      -2.460  -0.608   1.707  1.00  0.00     0.199 HD  
ATOM     13  H12 UNL     1      -1.237  -0.042   0.762  1.00  0.00     0.199 HD  
BRANCH  11  14
ATOM     14  C6  UNL     1      -2.857   1.213   0.832  1.00  0.00     0.164 C   
BRANCH  14  15
ATOM     15  C7  UNL     1      -3.564   0.588  -0.337  1.00  0.00    -0.002 A   
ATOM     16  C8  UNL     1      -3.101   0.816  -1.654  1.00  0.00     0.012 A   
ATOM     17  C12 UNL     1      -4.665  -0.262  -0.128  1.00  0.00     0.045 A   
ATOM     18  C9  UNL     1      -3.730   0.218  -2.751  1.00  0.00     0.037 A   
ATOM     19  C11 UNL     1      -5.261  -0.836  -1.231  1.00  0.00     0.109 A   
ATOM     20  C10 UNL     1      -4.808  -0.601  -2.506  1.00  0.00     0.108 A   
ATOM     21  O1  UNL     1      -6.328  -1.677  -1.204  1.00  0.00    -0.316 OA  
ATOM     22  O2  UNL     1      -5.535  -1.263  -3.444  1.00  0.00    -0.316 OA  
ATOM     23  C13 UNL     1      -6.530  -1.907  -2.618  1.00  0.00     0.337 C   
ENDBRANCH  14  15
ENDBRANCH  11  14
ENDBRANCH   6  11
ENDBRANCH   1   6
BRANCH   3  24
ATOM     24  C16 UNL     1       1.979   3.197  -0.248  1.00  0.00     0.068 A   
ATOM     25  C17 UNL     1       2.417   4.537  -0.297  1.00  0.00     0.027 A   
ATOM     26  C21 UNL     1       2.308   2.312  -1.300  1.00  0.00     0.039 A   
ATOM     27  C18 UNL     1       3.220   4.992  -1.343  1.00  0.00     0.002 A   
ATOM     28  C20 UNL     1       3.110   2.806  -2.353  1.00  0.00     0.014 A   
ATOM     29  C19 UNL     1       3.571   4.125  -2.368  1.00  0.00     0.001 A   
BRANCH  26  30
ATOM     30  C22 UNL     1       1.818   0.930  -1.434  1.00  0.00     0.132 A   
ATOM     31  N3  UNL     1       0.578   0.487  -1.266  1.00  0.00    -0.231 NA  
ATOM     32  N4  UNL     1       2.656  -0.116  -1.762  1.00  0.00    -0.297 N   
ATOM     33  C23 UNL     1       0.624  -0.865  -1.533  1.00  0.00     0.087 A   
ATOM     34  C28 UNL     1       1.923  -1.270  -1.810  1.00  0.00     0.058 A   
ATOM     35  C24 UNL     1      -0.402  -1.822  -1.545  1.00  0.00     0.030 A   
ATOM     36  C27 UNL     1       2.277  -2.592  -2.080  1.00  0.00     0.026 A   
ATOM     37  C25 UNL     1      -0.076  -3.158  -1.814  1.00  0.00     0.002 A   
ATOM     38  C26 UNL     1       1.244  -3.534  -2.070  1.00  0.00     0.002 A   
ATOM     39  H29 UNL     1       3.650  -0.040  -1.933  1.00  0.00     0.154 HD  
ENDBRANCH  26  30
ENDBRANCH   3  24
TORSDOF 7
