REMARK SMILES CC(C)C[C@H]([NH2+]Cc1ccc2c(c1)OCO2)c1cn(Cc2cccc(F)c2F)nn1
REMARK SMILES IDX 17 1 18 2 19 3 29 4 30 5 5 7 4 8 2 9 1 10 3 11 6 12 7 15
REMARK SMILES IDX 8 16 9 17 13 18 10 19 12 20 11 21 14 22 16 23 15 24 20 25
REMARK SMILES IDX 21 26 22 27 27 28 23 29 25 30 24 31 28 32 26 33
REMARK H PARENT 18 6 6 13 6 14
ROOT
ATOM     1   C14 UNL     1      -0.451   0.665  -0.708  1.00  0.00     0.127 A   
ATOM     2   C15 UNL     1      -0.865  -0.597  -0.344  1.00  0.00     0.046 A   
ATOM     3   N2  UNL     1      -2.208  -0.454  -0.124  1.00  0.00    -0.208 N   
ATOM     4   N3  UNL     1      -2.610   0.798  -0.418  1.00  0.00    -0.076 NA  
ATOM     5   N4  UNL     1      -1.539   1.498  -0.758  1.00  0.00    -0.132 NA  
ATOM     6   H20 UNL     1      -0.349  -1.535  -0.188  1.00  0.00     0.083 HD  
ENDROOT
BRANCH   1   7
ATOM     7   C5  UNL     1       0.898   1.196  -1.060  1.00  0.00     0.114 C   
BRANCH   7   8
ATOM     8   C4  UNL     1       1.584   1.897   0.130  1.00  0.00     0.064 C   
BRANCH   8   9
ATOM     9   C2  UNL     1       1.903   0.988   1.337  1.00  0.00    -0.012 C   
ATOM     10  C1  UNL     1       2.849  -0.157   0.972  1.00  0.00     0.007 C   
ATOM     11  C3  UNL     1       2.518   1.826   2.463  1.00  0.00     0.007 C   
ENDBRANCH   8   9
ENDBRANCH   7   8
BRANCH   7  12
ATOM     12  N1  UNL     1       0.776   2.233  -2.161  1.00  0.00     0.249 N   
ATOM     13  H11 UNL     1       0.054   2.898  -1.849  1.00  0.00     0.199 HD  
ATOM     14  H12 UNL     1       1.653   2.755  -2.251  1.00  0.00     0.199 HD  
BRANCH  12  15
ATOM     15  C6  UNL     1       0.367   1.728  -3.505  1.00  0.00     0.164 C   
BRANCH  15  16
ATOM     16  C7  UNL     1       1.401   0.838  -4.135  1.00  0.00    -0.002 A   
ATOM     17  C8  UNL     1       1.172  -0.555  -4.245  1.00  0.00     0.012 A   
ATOM     18  C12 UNL     1       2.616   1.376  -4.593  1.00  0.00     0.045 A   
ATOM     19  C9  UNL     1       2.139  -1.402  -4.796  1.00  0.00     0.037 A   
ATOM     20  C11 UNL     1       3.549   0.513  -5.130  1.00  0.00     0.109 A   
ATOM     21  C10 UNL     1       3.318  -0.837  -5.228  1.00  0.00     0.108 A   
ATOM     22  O1  UNL     1       4.770   0.868  -5.608  1.00  0.00    -0.316 OA  
ATOM     23  O2  UNL     1       4.364  -1.502  -5.784  1.00  0.00    -0.316 OA  
ATOM     24  C13 UNL     1       5.275  -0.414  -6.048  1.00  0.00     0.337 C   
ENDBRANCH  15  16
ENDBRANCH  12  15
ENDBRANCH   7  12
ENDBRANCH   1   7
BRANCH   3  25
ATOM     25  C16 UNL     1      -3.158  -1.454   0.331  1.00  0.00     0.172 C   
BRANCH  25  26
ATOM     26  C17 UNL     1      -3.158  -1.553   1.831  1.00  0.00     0.010 A   
ATOM     27  C18 UNL     1      -4.069  -0.824   2.611  1.00  0.00     0.009 A   
ATOM     28  C22 UNL     1      -2.217  -2.359   2.481  1.00  0.00     0.163 A   
ATOM     29  C19 UNL     1      -4.040  -0.918   4.007  1.00  0.00     0.004 A   
ATOM     30  C21 UNL     1      -2.189  -2.448   3.868  1.00  0.00     0.159 A   
ATOM     31  C20 UNL     1      -3.099  -1.733   4.638  1.00  0.00     0.042 A   
ATOM     32  F2  UNL     1      -1.323  -3.043   1.751  1.00  0.00    -0.203 F   
ATOM     33  F1  UNL     1      -1.275  -3.219   4.471  1.00  0.00    -0.204 F   
ENDBRANCH  25  26
ENDBRANCH   3  25
TORSDOF 8
