REMARK SMILES Cc1cccnc1-n1cc([C@@H]([NH2+]Cc2ccc3c(c2)OCO3)C(C)(C)C)nn1
REMARK SMILES IDX 11 1 10 2 8 3 9 4 28 5 27 6 7 7 2 8 3 9 4 10 6 11 5 12 1 13
REMARK SMILES IDX 12 14 13 17 14 18 15 19 19 20 16 21 18 22 17 23 20 24 22 25
REMARK SMILES IDX 21 26 23 27 24 28 25 29 26 30
REMARK H PARENT 12 15 12 16
ROOT
ATOM     1   C9  UNL     1       2.005  -0.660  -0.284  1.00  0.00     0.120 C   
ENDROOT
BRANCH   1   2
ATOM     2   C8  UNL     1       0.800  -1.417   0.189  1.00  0.00     0.128 A   
ATOM     3   N2  UNL     1      -0.791  -2.856   0.664  1.00  0.00    -0.162 N   
ATOM     4   C7  UNL     1       0.456  -2.742   0.066  1.00  0.00     0.137 A   
ATOM     5   N5  UNL     1      -1.181  -1.622   1.075  1.00  0.00    -0.069 NA  
ATOM     6   N4  UNL     1      -0.225  -0.749   0.800  1.00  0.00    -0.131 NA  
BRANCH   3   7
ATOM     7   C6  UNL     1      -1.550  -4.056   0.803  1.00  0.00     0.148 A   
ATOM     8   C2  UNL     1      -2.805  -4.094   1.430  1.00  0.00    -0.009 A   
ATOM     9   C3  UNL     1      -3.446  -5.343   1.497  1.00  0.00     0.008 A   
ATOM     10  C4  UNL     1      -2.849  -6.480   0.965  1.00  0.00     0.021 A   
ATOM     11  N1  UNL     1      -0.957  -5.170   0.275  1.00  0.00    -0.239 NA  
ATOM     12  C5  UNL     1      -1.614  -6.345   0.369  1.00  0.00     0.113 A   
ATOM     13  C1  UNL     1      -3.512  -2.914   2.033  1.00  0.00     0.048 C   
ENDBRANCH   3   7
ENDBRANCH   1   2
BRANCH   1  14
ATOM     14  N3  UNL     1       1.571   0.727  -0.700  1.00  0.00     0.250 N   
ATOM     15  H9  UNL     1       0.939   1.074   0.038  1.00  0.00     0.199 HD  
ATOM     16  H10 UNL     1       2.351   1.388  -0.737  1.00  0.00     0.199 HD  
BRANCH  14  17
ATOM     17  C10 UNL     1       0.827   0.804  -1.988  1.00  0.00     0.164 C   
BRANCH  17  18
ATOM     18  C11 UNL     1       0.350   2.208  -2.230  1.00  0.00    -0.002 A   
ATOM     19  C12 UNL     1      -0.891   2.636  -1.701  1.00  0.00     0.012 A   
ATOM     20  C16 UNL     1       1.157   3.121  -2.930  1.00  0.00     0.045 A   
ATOM     21  C13 UNL     1      -1.330   3.953  -1.874  1.00  0.00     0.037 A   
ATOM     22  C15 UNL     1       0.695   4.412  -3.082  1.00  0.00     0.109 A   
ATOM     23  C14 UNL     1      -0.513   4.817  -2.570  1.00  0.00     0.108 A   
ATOM     24  O1  UNL     1       1.350   5.414  -3.724  1.00  0.00    -0.316 OA  
ATOM     25  O2  UNL     1      -0.773   6.124  -2.828  1.00  0.00    -0.316 OA  
ATOM     26  C17 UNL     1       0.402   6.496  -3.581  1.00  0.00     0.337 C   
ENDBRANCH  17  18
ENDBRANCH  14  17
ENDBRANCH   1  14
BRANCH   1  27
ATOM     27  C18 UNL     1       3.164  -0.574   0.771  1.00  0.00     0.010 C   
ATOM     28  C19 UNL     1       4.413   0.091   0.144  1.00  0.00     0.017 C   
ATOM     29  C20 UNL     1       3.590  -1.992   1.216  1.00  0.00     0.017 C   
ATOM     30  C21 UNL     1       2.768   0.228   2.026  1.00  0.00     0.017 C   
ENDBRANCH   1  27
TORSDOF 6
