REMARK SMILES Cc1cc(Cn2cc([C@H](CC(C)C)[NH2+]Cc3ccc4c(c3)OCO4)nn2)cc(Cl)n1
REMARK SMILES IDX 6 1 7 2 8 3 25 4 26 5 5 7 4 8 2 9 3 10 30 11 28 12 27 13
REMARK SMILES IDX 1 14 29 15 9 16 10 17 11 18 12 19 13 20 14 21 15 24 16 25
REMARK SMILES IDX 17 26 21 27 18 28 20 29 19 30 22 31 24 32 23 33
REMARK H PARENT 7 6 14 22 14 23
ROOT
ATOM     1   N1  UNL     1      -2.139   0.309   1.019  1.00  0.00    -0.208 N   
ATOM     2   C6  UNL     1      -0.891  -0.191   0.763  1.00  0.00     0.046 A   
ATOM     3   C7  UNL     1      -0.227   0.862   0.173  1.00  0.00     0.127 A   
ATOM     4   N3  UNL     1      -1.056   1.952   0.133  1.00  0.00    -0.132 NA  
ATOM     5   N4  UNL     1      -2.223   1.600   0.646  1.00  0.00    -0.076 NA  
ATOM     6   H7  UNL     1      -0.626  -1.221   0.960  1.00  0.00     0.083 HD  
ENDROOT
BRANCH   1   7
ATOM     7   C5  UNL     1      -3.319  -0.415   1.463  1.00  0.00     0.169 C   
BRANCH   7   8
ATOM     8   C4  UNL     1      -3.914  -1.183   0.309  1.00  0.00    -0.024 A   
ATOM     9   C2  UNL     1      -4.209  -3.218  -0.950  1.00  0.00     0.039 A   
ATOM     10  C3  UNL     1      -3.711  -2.562   0.175  1.00  0.00     0.029 A   
ATOM     11  N5  UNL     1      -4.880  -2.573  -1.929  1.00  0.00    -0.241 NA  
ATOM     12  C22 UNL     1      -5.087  -1.253  -1.770  1.00  0.00     0.129 A   
ATOM     13  C21 UNL     1      -4.633  -0.518  -0.690  1.00  0.00     0.046 A   
ATOM     14  C1  UNL     1      -4.012  -4.697  -1.112  1.00  0.00     0.067 C   
ATOM     15  CL1 UNL     1      -5.926  -0.496  -3.057  1.00  0.00    -0.062 Cl  
ENDBRANCH   7   8
ENDBRANCH   1   7
BRANCH   3  16
ATOM     16  C8  UNL     1       1.116   0.930  -0.469  1.00  0.00     0.114 C   
BRANCH  16  17
ATOM     17  C9  UNL     1       2.137   1.722   0.370  1.00  0.00     0.064 C   
BRANCH  17  18
ATOM     18  C10 UNL     1       2.458   1.116   1.754  1.00  0.00    -0.012 C   
ATOM     19  C11 UNL     1       3.060  -0.286   1.651  1.00  0.00     0.007 C   
ATOM     20  C12 UNL     1       3.423   2.037   2.508  1.00  0.00     0.007 C   
ENDBRANCH  17  18
ENDBRANCH  16  17
BRANCH  16  21
ATOM     21  N2  UNL     1       1.026   1.623  -1.817  1.00  0.00     0.249 N   
ATOM     22  H18 UNL     1       1.964   1.731  -2.212  1.00  0.00     0.199 HD  
ATOM     23  H19 UNL     1       0.657   2.566  -1.637  1.00  0.00     0.199 HD  
BRANCH  21  24
ATOM     24  C13 UNL     1       0.132   0.994  -2.841  1.00  0.00     0.164 C   
BRANCH  24  25
ATOM     25  C14 UNL     1       0.478  -0.436  -3.146  1.00  0.00    -0.002 A   
ATOM     26  C15 UNL     1       1.667  -0.758  -3.843  1.00  0.00     0.012 A   
ATOM     27  C19 UNL     1      -0.370  -1.471  -2.712  1.00  0.00     0.045 A   
ATOM     28  C16 UNL     1       2.014  -2.090  -4.094  1.00  0.00     0.037 A   
ATOM     29  C18 UNL     1       0.004  -2.773  -2.970  1.00  0.00     0.109 A   
ATOM     30  C17 UNL     1       1.162  -3.074  -3.642  1.00  0.00     0.108 A   
ATOM     31  O1  UNL     1      -0.688  -3.883  -2.602  1.00  0.00    -0.316 OA  
ATOM     32  O2  UNL     1       1.340  -4.412  -3.792  1.00  0.00    -0.316 OA  
ATOM     33  C20 UNL     1       0.133  -4.921  -3.185  1.00  0.00     0.337 C   
ENDBRANCH  24  25
ENDBRANCH  21  24
ENDBRANCH  16  21
ENDBRANCH   3  16
TORSDOF 8
