REMARK SMILES Cc1ncccc1CCn1cc([C@@H]([NH2+]Cc2ccc3c(c2)OCO3)C(C)(C)C)nn1
REMARK SMILES IDX 10 1 11 2 12 3 29 4 30 5 9 7 8 8 7 9 2 10 3 11 4 12 6 13
REMARK SMILES IDX 5 14 1 15 13 16 14 17 15 20 16 21 17 22 21 23 18 24 20 25
REMARK SMILES IDX 19 26 22 27 24 28 23 29 25 30 26 31 27 32 28 33
REMARK H PARENT 11 6 14 18 14 19
ROOT
ATOM     1   N2  UNL     1      -0.778   0.491  -2.243  1.00  0.00    -0.212 N   
ATOM     2   C9  UNL     1       0.512   0.129  -1.972  1.00  0.00     0.045 A   
ATOM     3   C10 UNL     1       0.383  -1.014  -1.214  1.00  0.00     0.127 A   
ATOM     4   N4  UNL     1      -0.948  -1.326  -1.097  1.00  0.00    -0.132 NA  
ATOM     5   N5  UNL     1      -1.646  -0.405  -1.743  1.00  0.00    -0.076 NA  
ATOM     6   H11 UNL     1       1.358   0.734  -2.267  1.00  0.00     0.083 HD  
ENDROOT
BRANCH   1   7
ATOM     7   C8  UNL     1      -1.246   1.736  -2.818  1.00  0.00     0.139 C   
BRANCH   7   8
ATOM     8   C7  UNL     1      -1.713   2.748  -1.760  1.00  0.00     0.059 C   
BRANCH   8   9
ATOM     9   C6  UNL     1      -0.657   3.029  -0.712  1.00  0.00    -0.025 A   
ATOM     10  C2  UNL     1      -0.733   2.538   0.599  1.00  0.00     0.040 A   
ATOM     11  N1  UNL     1       0.297   2.648   1.480  1.00  0.00    -0.261 NA  
ATOM     12  C3  UNL     1       1.376   3.366   1.099  1.00  0.00     0.111 A   
ATOM     13  C5  UNL     1       0.489   3.753  -1.070  1.00  0.00     0.007 A   
ATOM     14  C4  UNL     1       1.514   3.937  -0.150  1.00  0.00     0.020 A   
ATOM     15  C1  UNL     1      -1.964   1.865   1.137  1.00  0.00     0.067 C   
ENDBRANCH   8   9
ENDBRANCH   7   8
ENDBRANCH   1   7
BRANCH   3  16
ATOM     16  C11 UNL     1       1.405  -1.806  -0.458  1.00  0.00     0.120 C   
BRANCH  16  17
ATOM     17  N3  UNL     1       0.861  -2.114   0.917  1.00  0.00     0.250 N   
ATOM     18  H13 UNL     1       1.380  -2.857   1.388  1.00  0.00     0.199 HD  
ATOM     19  H14 UNL     1      -0.098  -2.468   0.783  1.00  0.00     0.199 HD  
BRANCH  17  20
ATOM     20  C12 UNL     1       0.765  -0.943   1.840  1.00  0.00     0.164 C   
BRANCH  20  21
ATOM     21  C13 UNL     1       0.175  -1.368   3.155  1.00  0.00    -0.002 A   
ATOM     22  C14 UNL     1       1.012  -1.698   4.247  1.00  0.00     0.012 A   
ATOM     23  C18 UNL     1      -1.220  -1.491   3.289  1.00  0.00     0.045 A   
ATOM     24  C15 UNL     1       0.469  -2.133   5.461  1.00  0.00     0.037 A   
ATOM     25  C17 UNL     1      -1.721  -1.922   4.499  1.00  0.00     0.109 A   
ATOM     26  C16 UNL     1      -0.901  -2.234   5.555  1.00  0.00     0.108 A   
ATOM     27  O1  UNL     1      -3.036  -2.092   4.793  1.00  0.00    -0.316 OA  
ATOM     28  O2  UNL     1      -1.597  -2.639   6.649  1.00  0.00    -0.316 OA  
ATOM     29  C19 UNL     1      -2.954  -2.518   6.173  1.00  0.00     0.337 C   
ENDBRANCH  20  21
ENDBRANCH  17  20
ENDBRANCH  16  17
BRANCH  16  30
ATOM     30  C20 UNL     1       1.862  -3.122  -1.177  1.00  0.00     0.010 C   
ATOM     31  C21 UNL     1       2.381  -2.799  -2.596  1.00  0.00     0.017 C   
ATOM     32  C22 UNL     1       0.731  -4.163  -1.299  1.00  0.00     0.017 C   
ATOM     33  C23 UNL     1       3.035  -3.773  -0.406  1.00  0.00     0.017 C   
ENDBRANCH  16  30
ENDBRANCH   3  16
TORSDOF 8
