REMARK SMILES CC(C)[C@H]([NH2+]Cc1ccc2c(c1)OCO2)c1cn(-c2ccc3nccnc3c2)nn1
REMARK SMILES IDX 4 1 2 2 1 3 3 4 5 5 6 8 7 9 8 10 12 11 9 12 11 13 10 14
REMARK SMILES IDX 13 15 15 16 14 17 16 18 17 19 30 20 18 21 29 22 19 23 20 24
REMARK SMILES IDX 28 25 21 26 27 27 22 28 26 29 23 30 25 31 24 32
REMARK H PARENT 5 6 5 7
ROOT
ATOM     1   C4  UNL     1       0.087  -0.768  -1.492  1.00  0.00     0.117 C   
ENDROOT
BRANCH   1   2
ATOM     2   C2  UNL     1      -0.551  -1.989  -2.206  1.00  0.00     0.037 C   
ATOM     3   C1  UNL     1       0.479  -2.762  -3.038  1.00  0.00     0.014 C   
ATOM     4   C3  UNL     1      -1.278  -2.952  -1.259  1.00  0.00     0.014 C   
ENDBRANCH   1   2
BRANCH   1   5
ATOM     5   N1  UNL     1       1.013  -1.230  -0.399  1.00  0.00     0.249 N   
ATOM     6   H9  UNL     1       0.425  -1.447   0.420  1.00  0.00     0.199 HD  
ATOM     7   H10 UNL     1       1.496  -2.100  -0.641  1.00  0.00     0.199 HD  
BRANCH   5   8
ATOM     8   C5  UNL     1       2.025  -0.230   0.045  1.00  0.00     0.164 C   
BRANCH   8   9
ATOM     9   C6  UNL     1       2.832  -0.775   1.189  1.00  0.00    -0.002 A   
ATOM     10  C7  UNL     1       4.064  -1.430   0.952  1.00  0.00     0.012 A   
ATOM     11  C11 UNL     1       2.336  -0.684   2.502  1.00  0.00     0.045 A   
ATOM     12  C8  UNL     1       4.799  -1.978   2.009  1.00  0.00     0.037 A   
ATOM     13  C10 UNL     1       3.086  -1.236   3.519  1.00  0.00     0.109 A   
ATOM     14  C9  UNL     1       4.282  -1.865   3.280  1.00  0.00     0.108 A   
ATOM     15  O1  UNL     1       2.753  -1.236   4.836  1.00  0.00    -0.316 OA  
ATOM     16  O2  UNL     1       4.856  -2.338   4.417  1.00  0.00    -0.316 OA  
ATOM     17  C12 UNL     1       3.893  -1.917   5.408  1.00  0.00     0.337 C   
ENDBRANCH   8   9
ENDBRANCH   5   8
ENDBRANCH   1   5
BRANCH   1  18
ATOM     18  C13 UNL     1      -0.947   0.168  -0.946  1.00  0.00     0.127 A   
ATOM     19  C14 UNL     1      -1.727   1.122  -1.561  1.00  0.00     0.135 A   
ATOM     20  N6  UNL     1      -1.224   0.162   0.392  1.00  0.00    -0.131 NA  
ATOM     21  N2  UNL     1      -2.486   1.675  -0.548  1.00  0.00    -0.181 N   
ATOM     22  N5  UNL     1      -2.145   1.082   0.625  1.00  0.00    -0.071 NA  
BRANCH  21  23
ATOM     23  C15 UNL     1      -3.466   2.695  -0.616  1.00  0.00     0.060 A   
ATOM     24  C16 UNL     1      -4.119   3.112   0.548  1.00  0.00     0.028 A   
ATOM     25  C22 UNL     1      -3.796   3.299  -1.835  1.00  0.00     0.056 A   
ATOM     26  C17 UNL     1      -5.085   4.120   0.479  1.00  0.00     0.032 A   
ATOM     27  C21 UNL     1      -4.756   4.302  -1.907  1.00  0.00     0.091 A   
ATOM     28  C18 UNL     1      -5.416   4.724  -0.726  1.00  0.00     0.089 A   
ATOM     29  N4  UNL     1      -5.036   4.850  -3.103  1.00  0.00    -0.253 NA  
ATOM     30  N3  UNL     1      -6.350   5.692  -0.754  1.00  0.00    -0.253 NA  
ATOM     31  C20 UNL     1      -5.978   5.821  -3.111  1.00  0.00     0.132 A   
ATOM     32  C19 UNL     1      -6.621   6.233  -1.962  1.00  0.00     0.132 A   
ENDBRANCH  21  23
ENDBRANCH   1  18
TORSDOF 6
