REMARK SMILES c1cc2c(cc1C[NH2+][C@H](c1cn(Cc3ccc4c(c3)CNC4)nn1)C1CCCC1)OCO2
REMARK SMILES IDX 10 1 11 2 12 3 23 4 24 5 9 7 8 8 7 11 6 12 1 13 2 14 3 15
REMARK SMILES IDX 5 16 4 17 32 18 30 19 31 20 25 21 26 22 29 23 27 24 28 25
REMARK SMILES IDX 13 26 14 27 15 28 19 29 16 30 18 31 17 32 20 33 22 34 21 35
REMARK H PARENT 11 6 8 9 8 10 21 36
ROOT
ATOM     1   C9  UNL     1      -1.625   1.168  -0.717  1.00  0.00     0.127 A   
ATOM     2   C10 UNL     1      -1.216   1.464   0.564  1.00  0.00     0.046 A   
ATOM     3   N2  UNL     1      -2.081   0.758   1.356  1.00  0.00    -0.208 N   
ATOM     4   N4  UNL     1      -2.970   0.074   0.608  1.00  0.00    -0.076 NA  
ATOM     5   N5  UNL     1      -2.698   0.314  -0.663  1.00  0.00    -0.132 NA  
ATOM     6   H9  UNL     1      -0.416   2.065   0.971  1.00  0.00     0.083 HD  
ENDROOT
BRANCH   1   7
ATOM     7   C8  UNL     1      -1.071   1.553  -2.051  1.00  0.00     0.117 C   
BRANCH   7   8
ATOM     8   N1  UNL     1      -1.206   0.364  -2.985  1.00  0.00     0.249 N   
ATOM     9   H6  UNL     1      -1.896  -0.263  -2.539  1.00  0.00     0.199 HD  
ATOM     10  H7  UNL     1      -1.638   0.636  -3.872  1.00  0.00     0.199 HD  
BRANCH   8  11
ATOM     11  C7  UNL     1       0.035  -0.413  -3.248  1.00  0.00     0.164 C   
BRANCH  11  12
ATOM     12  C6  UNL     1       0.655  -1.017  -2.020  1.00  0.00    -0.002 A   
ATOM     13  C1  UNL     1       0.014  -2.077  -1.335  1.00  0.00     0.012 A   
ATOM     14  C2  UNL     1       0.578  -2.635  -0.183  1.00  0.00     0.037 A   
ATOM     15  C3  UNL     1       1.776  -2.122   0.261  1.00  0.00     0.108 A   
ATOM     16  C5  UNL     1       1.875  -0.519  -1.529  1.00  0.00     0.045 A   
ATOM     17  C4  UNL     1       2.403  -1.091  -0.391  1.00  0.00     0.109 A   
ATOM     18  O2  UNL     1       2.475  -2.551   1.343  1.00  0.00    -0.316 OA  
ATOM     19  O1  UNL     1       3.569  -0.728   0.206  1.00  0.00    -0.316 OA  
ATOM     20  C25 UNL     1       3.611  -1.660   1.312  1.00  0.00     0.337 C   
ENDBRANCH  11  12
ENDBRANCH   8  11
ENDBRANCH   7   8
BRANCH   7  21
ATOM     21  C20 UNL     1      -1.810   2.754  -2.671  1.00  0.00     0.043 C   
ATOM     22  C21 UNL     1      -1.230   3.218  -4.011  1.00  0.00     0.010 C   
ATOM     23  C24 UNL     1      -1.705   4.033  -1.830  1.00  0.00     0.010 C   
ATOM     24  C22 UNL     1      -1.825   4.607  -4.202  1.00  0.00     0.001 C   
ATOM     25  C23 UNL     1      -2.005   5.175  -2.797  1.00  0.00     0.001 C   
ENDBRANCH   7  21
ENDBRANCH   1   7
BRANCH   3  26
ATOM     26  C11 UNL     1      -2.140   0.714   2.807  1.00  0.00     0.169 C   
BRANCH  26  27
ATOM     27  C12 UNL     1      -1.044  -0.153   3.372  1.00  0.00    -0.028 A   
ATOM     28  C13 UNL     1      -1.174  -1.560   3.349  1.00  0.00     0.006 A   
ATOM     29  C17 UNL     1       0.119   0.427   3.905  1.00  0.00     0.010 A   
ATOM     30  C14 UNL     1      -0.165  -2.384   3.852  1.00  0.00     0.006 A   
ATOM     31  C16 UNL     1       1.107  -0.406   4.404  1.00  0.00    -0.029 A   
ATOM     32  C15 UNL     1       0.968  -1.787   4.376  1.00  0.00    -0.030 A   
ATOM     33  C18 UNL     1       2.427  -0.051   4.999  1.00  0.00     0.117 C   
ATOM     34  C19 UNL     1       2.187  -2.426   4.948  1.00  0.00     0.117 C   
ATOM     35  N3  UNL     1       3.017  -1.320   5.487  1.00  0.00    -0.309 NA  
ATOM     36  H17 UNL     1       2.905  -1.334   6.501  1.00  0.00     0.123 HD  
ENDBRANCH  26  27
ENDBRANCH   3  26
TORSDOF 7
