REMARK SMILES CC(C)C[C@H]([NH2+]Cc1ccc2c(c1)OCO2)c1cn(C[C@H](O)c2ccc(F)c(F)c2)nn1
REMARK SMILES IDX 17 1 18 2 19 3 31 4 32 5 5 7 4 8 2 9 1 10 3 11 6 12 7 15
REMARK SMILES IDX 8 16 9 17 13 18 10 19 12 20 11 21 14 22 16 23 15 24 20 25
REMARK SMILES IDX 21 26 22 27 23 29 24 30 30 31 25 32 28 33 26 34 29 35 27 36
REMARK H PARENT 18 6 6 13 6 14 22 28
ROOT
ATOM     1   C14 UNL     1      -1.703   0.830  -0.410  1.00  0.00     0.127 A   
ATOM     2   C15 UNL     1      -2.684  -0.030  -0.850  1.00  0.00     0.045 A   
ATOM     3   N2  UNL     1      -3.253   0.629  -1.903  1.00  0.00    -0.209 N   
ATOM     4   N3  UNL     1      -2.668   1.827  -2.095  1.00  0.00    -0.076 NA  
ATOM     5   N4  UNL     1      -1.719   1.962  -1.184  1.00  0.00    -0.132 NA  
ATOM     6   H20 UNL     1      -3.007  -1.015  -0.537  1.00  0.00     0.083 HD  
ENDROOT
BRANCH   1   7
ATOM     7   C5  UNL     1      -0.694   0.694   0.682  1.00  0.00     0.114 C   
BRANCH   7   8
ATOM     8   C4  UNL     1      -1.300   0.913   2.085  1.00  0.00     0.064 C   
BRANCH   8   9
ATOM     9   C2  UNL     1      -2.003   2.260   2.369  1.00  0.00    -0.012 C   
ATOM     10  C1  UNL     1      -1.028   3.396   2.685  1.00  0.00     0.007 C   
ATOM     11  C3  UNL     1      -2.960   2.090   3.557  1.00  0.00     0.007 C   
ENDBRANCH   8   9
ENDBRANCH   7   8
BRANCH   7  12
ATOM     12  N1  UNL     1       0.469   1.622   0.469  1.00  0.00     0.249 N   
ATOM     13  H11 UNL     1       0.970   1.781   1.348  1.00  0.00     0.199 HD  
ATOM     14  H12 UNL     1       0.064   2.521   0.170  1.00  0.00     0.199 HD  
BRANCH  12  15
ATOM     15  C6  UNL     1       1.445   1.225  -0.591  1.00  0.00     0.164 C   
BRANCH  15  16
ATOM     16  C7  UNL     1       2.297   0.052  -0.192  1.00  0.00    -0.002 A   
ATOM     17  C8  UNL     1       3.333   0.209   0.760  1.00  0.00     0.012 A   
ATOM     18  C12 UNL     1       2.057  -1.216  -0.748  1.00  0.00     0.045 A   
ATOM     19  C9  UNL     1       4.117  -0.881   1.155  1.00  0.00     0.037 A   
ATOM     20  C11 UNL     1       2.847  -2.268  -0.335  1.00  0.00     0.109 A   
ATOM     21  C10 UNL     1       3.849  -2.106   0.588  1.00  0.00     0.108 A   
ATOM     22  O1  UNL     1       2.743  -3.551  -0.767  1.00  0.00    -0.316 OA  
ATOM     23  O2  UNL     1       4.509  -3.265   0.847  1.00  0.00    -0.316 OA  
ATOM     24  C13 UNL     1       3.828  -4.175  -0.045  1.00  0.00     0.337 C   
ENDBRANCH  15  16
ENDBRANCH  12  15
ENDBRANCH   7  12
ENDBRANCH   1   7
BRANCH   3  25
ATOM     25  C16 UNL     1      -4.270   0.149  -2.810  1.00  0.00     0.170 C   
BRANCH  25  26
ATOM     26  C17 UNL     1      -3.751  -0.075  -4.237  1.00  0.00     0.164 C   
BRANCH  26  27
ATOM     27  O3  UNL     1      -4.813  -0.604  -5.031  1.00  0.00    -0.387 OA  
ATOM     28  H24 UNL     1      -4.438  -0.871  -5.891  1.00  0.00     0.211 HD  
ENDBRANCH  26  27
BRANCH  26  29
ATOM     29  C18 UNL     1      -2.562  -1.018  -4.292  1.00  0.00    -0.015 A   
ATOM     30  C19 UNL     1      -2.723  -2.411  -4.180  1.00  0.00     0.010 A   
ATOM     31  C23 UNL     1      -1.262  -0.491  -4.382  1.00  0.00     0.049 A   
ATOM     32  C20 UNL     1      -1.609  -3.257  -4.156  1.00  0.00     0.043 A   
ATOM     33  C22 UNL     1      -0.159  -1.338  -4.345  1.00  0.00     0.159 A   
ATOM     34  C21 UNL     1      -0.331  -2.712  -4.234  1.00  0.00     0.158 A   
ATOM     35  F2  UNL     1       1.073  -0.811  -4.368  1.00  0.00    -0.204 F   
ATOM     36  F1  UNL     1       0.736  -3.520  -4.174  1.00  0.00    -0.204 F   
ENDBRANCH  26  29
ENDBRANCH  25  26
ENDBRANCH   3  25
TORSDOF 10
