REMARK SMILES CC(C)[C@H]([NH2+]Cc1ccc2c(c1)OCO2)c1cn(Cc2cn[nH]c2C2CCCC2)nn1
REMARK SMILES IDX 16 1 17 2 18 3 30 4 31 5 4 7 2 8 1 9 3 10 5 11 6 14 7 15
REMARK SMILES IDX 8 16 12 17 9 18 11 19 10 20 13 21 15 22 14 23 19 24 20 25
REMARK SMILES IDX 21 26 24 27 22 28 23 29 25 31 26 32 29 33 27 34 28 35
REMARK H PARENT 17 6 5 12 5 13 23 30
ROOT
ATOM     1   C13 UNL     1       1.011   1.325  -0.538  1.00  0.00     0.127 A   
ATOM     2   C14 UNL     1       1.393   0.382  -1.465  1.00  0.00     0.046 A   
ATOM     3   N2  UNL     1       2.145  -0.507  -0.742  1.00  0.00    -0.208 N   
ATOM     4   N5  UNL     1       2.233  -0.123   0.547  1.00  0.00    -0.076 NA  
ATOM     5   N6  UNL     1       1.544   0.998   0.684  1.00  0.00    -0.132 NA  
ATOM     6   H18 UNL     1       1.191   0.244  -2.518  1.00  0.00     0.083 HD  
ENDROOT
BRANCH   1   7
ATOM     7   C4  UNL     1       0.124   2.524  -0.656  1.00  0.00     0.117 C   
BRANCH   7   8
ATOM     8   C2  UNL     1       0.911   3.793  -1.083  1.00  0.00     0.037 C   
ATOM     9   C1  UNL     1      -0.026   4.925  -1.518  1.00  0.00     0.014 C   
ATOM     10  C3  UNL     1       1.880   4.317  -0.017  1.00  0.00     0.014 C   
ENDBRANCH   7   8
BRANCH   7  11
ATOM     11  N1  UNL     1      -0.602   2.767   0.640  1.00  0.00     0.249 N   
ATOM     12  H9  UNL     1       0.100   2.696   1.394  1.00  0.00     0.199 HD  
ATOM     13  H10 UNL     1      -0.989   3.713   0.694  1.00  0.00     0.199 HD  
BRANCH  11  14
ATOM     14  C5  UNL     1      -1.680   1.786   0.959  1.00  0.00     0.164 C   
BRANCH  14  15
ATOM     15  C6  UNL     1      -2.324   2.129   2.274  1.00  0.00    -0.002 A   
ATOM     16  C7  UNL     1      -3.509   2.900   2.313  1.00  0.00     0.012 A   
ATOM     17  C11 UNL     1      -1.716   1.728   3.477  1.00  0.00     0.045 A   
ATOM     18  C8  UNL     1      -4.087   3.264   3.537  1.00  0.00     0.037 A   
ATOM     19  C10 UNL     1      -2.310   2.106   4.665  1.00  0.00     0.109 A   
ATOM     20  C9  UNL     1      -3.461   2.854   4.695  1.00  0.00     0.108 A   
ATOM     21  O1  UNL     1      -1.853   1.808   5.910  1.00  0.00    -0.316 OA  
ATOM     22  O2  UNL     1      -3.872   3.122   5.964  1.00  0.00    -0.316 OA  
ATOM     23  C12 UNL     1      -2.871   2.424   6.733  1.00  0.00     0.337 C   
ENDBRANCH  14  15
ENDBRANCH  11  14
ENDBRANCH   7  11
ENDBRANCH   1   7
BRANCH   3  24
ATOM     24  C15 UNL     1       2.763  -1.743  -1.197  1.00  0.00     0.172 C   
BRANCH  24  25
ATOM     25  C16 UNL     1       1.734  -2.811  -1.327  1.00  0.00     0.010 A   
ATOM     26  C17 UNL     1       1.102  -3.493  -0.261  1.00  0.00     0.138 A   
ATOM     27  C18 UNL     1       1.168  -3.365  -2.470  1.00  0.00     0.034 A   
ATOM     28  N3  UNL     1       0.197  -4.375  -0.683  1.00  0.00    -0.192 NA  
ATOM     29  N4  UNL     1       0.277  -4.309  -2.018  1.00  0.00    -0.242 N   
ATOM     30  H22 UNL     1      -0.313  -4.932  -2.565  1.00  0.00     0.175 HD  
BRANCH  27  31
ATOM     31  C19 UNL     1       1.376  -3.087  -3.930  1.00  0.00     0.035 C   
ATOM     32  C20 UNL     1       1.544  -4.355  -4.784  1.00  0.00     0.010 C   
ATOM     33  C23 UNL     1       0.183  -2.327  -4.540  1.00  0.00     0.010 C   
ATOM     34  C21 UNL     1       0.250  -4.481  -5.577  1.00  0.00     0.001 C   
ATOM     35  C22 UNL     1      -0.130  -3.036  -5.852  1.00  0.00     0.001 C   
ENDBRANCH  27  31
ENDBRANCH  24  25
ENDBRANCH   3  24
TORSDOF 8
