REMARK SMILES CC(C)(C)[C@H]([NH2+]Cc1ccc2c(c1)OCO2)c1cn(Cc2c[nH]nc2-c2ccco2)nn1
REMARK SMILES IDX 17 1 18 2 19 3 31 4 32 5 5 7 2 8 1 9 3 10 4 11 6 12 7 15
REMARK SMILES IDX 8 16 9 17 13 18 10 19 12 20 11 21 14 22 16 23 15 24 20 25
REMARK SMILES IDX 21 26 22 27 25 28 23 29 24 30 26 32 27 33 30 34 28 35 29 36
REMARK H PARENT 18 6 6 13 6 14 23 31
ROOT
ATOM     1   C14 UNL     1      -1.139   0.362   0.028  1.00  0.00     0.127 A   
ATOM     2   C15 UNL     1      -1.726  -0.611   0.805  1.00  0.00     0.046 A   
ATOM     3   N2  UNL     1      -1.843  -1.685  -0.035  1.00  0.00    -0.208 N   
ATOM     4   N5  UNL     1      -1.360  -1.386  -1.260  1.00  0.00    -0.076 NA  
ATOM     5   N6  UNL     1      -0.923  -0.138  -1.231  1.00  0.00    -0.132 NA  
ATOM     6   H20 UNL     1      -2.044  -0.646   1.837  1.00  0.00     0.083 HD  
ENDROOT
BRANCH   1   7
ATOM     7   C5  UNL     1      -0.659   1.741   0.365  1.00  0.00     0.120 C   
BRANCH   7   8
ATOM     8   C2  UNL     1      -1.707   2.874   0.084  1.00  0.00     0.010 C   
ATOM     9   C1  UNL     1      -2.036   3.022  -1.415  1.00  0.00     0.017 C   
ATOM     10  C3  UNL     1      -3.022   2.585   0.844  1.00  0.00     0.017 C   
ATOM     11  C4  UNL     1      -1.180   4.233   0.600  1.00  0.00     0.017 C   
ENDBRANCH   7   8
BRANCH   7  12
ATOM     12  N1  UNL     1       0.619   2.004  -0.397  1.00  0.00     0.250 N   
ATOM     13  H11 UNL     1       0.451   1.690  -1.365  1.00  0.00     0.199 HD  
ATOM     14  H12 UNL     1       0.847   2.999  -0.455  1.00  0.00     0.199 HD  
BRANCH  12  15
ATOM     15  C6  UNL     1       1.817   1.268   0.097  1.00  0.00     0.164 C   
BRANCH  15  16
ATOM     16  C7  UNL     1       3.004   1.552  -0.780  1.00  0.00    -0.002 A   
ATOM     17  C8  UNL     1       3.920   2.576  -0.442  1.00  0.00     0.012 A   
ATOM     18  C12 UNL     1       3.178   0.832  -1.976  1.00  0.00     0.045 A   
ATOM     19  C9  UNL     1       5.003   2.874  -1.276  1.00  0.00     0.037 A   
ATOM     20  C11 UNL     1       4.256   1.152  -2.775  1.00  0.00     0.109 A   
ATOM     21  C10 UNL     1       5.143   2.144  -2.435  1.00  0.00     0.108 A   
ATOM     22  O1  UNL     1       4.568   0.559  -3.957  1.00  0.00    -0.316 OA  
ATOM     23  O2  UNL     1       6.127   2.298  -3.358  1.00  0.00    -0.316 OA  
ATOM     24  C13 UNL     1       5.771   1.277  -4.315  1.00  0.00     0.337 C   
ENDBRANCH  15  16
ENDBRANCH  12  15
ENDBRANCH   7  12
ENDBRANCH   1   7
BRANCH   3  25
ATOM     25  C16 UNL     1      -2.381  -3.006   0.251  1.00  0.00     0.173 C   
BRANCH  25  26
ATOM     26  C17 UNL     1      -1.303  -3.910   0.734  1.00  0.00     0.017 A   
ATOM     27  C18 UNL     1      -0.487  -4.724  -0.030  1.00  0.00     0.099 A   
ATOM     28  C19 UNL     1      -0.873  -4.149   2.067  1.00  0.00     0.118 A   
ATOM     29  N3  UNL     1       0.344  -5.366   0.838  1.00  0.00    -0.245 N   
ATOM     30  N4  UNL     1       0.151  -5.009   2.115  1.00  0.00    -0.182 NA  
ATOM     31  H24 UNL     1       1.066  -6.051   0.631  1.00  0.00     0.175 HD  
BRANCH  28  32
ATOM     32  C20 UNL     1      -1.469  -3.518   3.370  1.00  0.00     0.109 A   
ATOM     33  C21 UNL     1      -1.035  -3.775   4.657  1.00  0.00     0.038 A   
ATOM     34  O3  UNL     1      -2.510  -2.631   3.412  1.00  0.00    -0.316 OA  
ATOM     35  C22 UNL     1      -1.858  -3.020   5.526  1.00  0.00     0.028 A   
ATOM     36  C23 UNL     1      -2.743  -2.346   4.720  1.00  0.00     0.136 A   
ENDBRANCH  28  32
ENDBRANCH  25  26
ENDBRANCH   3  25
TORSDOF 8
