REMARK SMILES COc1cc(F)c(F)cc1Cn1cc([C@H](CC(C)C)[NH2+]Cc2ccc3c(c2)OCO3)nn1
REMARK SMILES IDX 12 1 13 2 14 3 31 4 32 5 11 7 10 8 3 9 4 10 5 11 9 12 7 13
REMARK SMILES IDX 6 14 8 15 2 16 1 17 15 18 16 19 17 20 18 21 19 22 20 23
REMARK SMILES IDX 21 26 22 27 23 28 27 29 24 30 26 31 25 32 28 33 30 34 29 35
REMARK H PARENT 13 6 20 24 20 25
ROOT
ATOM     1   N1  UNL     1       2.471  -1.166  -0.800  1.00  0.00    -0.208 N   
ATOM     2   C9  UNL     1       1.850  -1.485   0.380  1.00  0.00     0.046 A   
ATOM     3   C10 UNL     1       1.109  -0.362   0.678  1.00  0.00     0.127 A   
ATOM     4   N3  UNL     1       1.340   0.596  -0.277  1.00  0.00    -0.132 NA  
ATOM     5   N4  UNL     1       2.186   0.099  -1.164  1.00  0.00    -0.076 NA  
ATOM     6   H8  UNL     1       1.962  -2.453   0.851  1.00  0.00     0.083 HD  
ENDROOT
BRANCH   1   7
ATOM     7   C8  UNL     1       3.348  -1.993  -1.613  1.00  0.00     0.172 C   
BRANCH   7   8
ATOM     8   C7  UNL     1       2.567  -3.073  -2.322  1.00  0.00     0.005 A   
ATOM     9   C2  UNL     1       2.447  -4.373  -1.784  1.00  0.00     0.083 A   
ATOM     10  C3  UNL     1       1.686  -5.337  -2.452  1.00  0.00     0.076 A   
ATOM     11  C4  UNL     1       1.056  -5.014  -3.648  1.00  0.00     0.161 A   
ATOM     12  C6  UNL     1       1.919  -2.770  -3.529  1.00  0.00     0.050 A   
ATOM     13  C5  UNL     1       1.172  -3.742  -4.184  1.00  0.00     0.159 A   
ATOM     14  F1  UNL     1       0.319  -5.944  -4.271  1.00  0.00    -0.204 F   
ATOM     15  F2  UNL     1       0.555  -3.438  -5.332  1.00  0.00    -0.204 F   
BRANCH   9  16
ATOM     16  O1  UNL     1       3.087  -4.587  -0.592  1.00  0.00    -0.349 OA  
ATOM     17  C1  UNL     1       3.261  -5.947  -0.194  1.00  0.00     0.203 C   
ENDBRANCH   9  16
ENDBRANCH   7   8
ENDBRANCH   1   7
BRANCH   3  18
ATOM     18  C11 UNL     1       0.168  -0.069   1.800  1.00  0.00     0.114 C   
BRANCH  18  19
ATOM     19  C12 UNL     1      -1.125  -0.908   1.748  1.00  0.00     0.064 C   
BRANCH  19  20
ATOM     20  C13 UNL     1      -1.914  -0.960   0.419  1.00  0.00    -0.012 C   
ATOM     21  C14 UNL     1      -3.015  -2.022   0.529  1.00  0.00     0.007 C   
ATOM     22  C15 UNL     1      -2.545   0.374   0.023  1.00  0.00     0.007 C   
ENDBRANCH  19  20
ENDBRANCH  18  19
BRANCH  18  23
ATOM     23  N2  UNL     1      -0.169   1.393   1.855  1.00  0.00     0.249 N   
ATOM     24  H19 UNL     1      -1.103   1.561   2.240  1.00  0.00     0.199 HD  
ATOM     25  H20 UNL     1      -0.190   1.728   0.879  1.00  0.00     0.199 HD  
BRANCH  23  26
ATOM     26  C16 UNL     1       0.824   2.246   2.566  1.00  0.00     0.164 C   
BRANCH  26  27
ATOM     27  C17 UNL     1       0.455   3.696   2.437  1.00  0.00    -0.002 A   
ATOM     28  C18 UNL     1       0.997   4.478   1.387  1.00  0.00     0.012 A   
ATOM     29  C22 UNL     1      -0.480   4.269   3.316  1.00  0.00     0.045 A   
ATOM     30  C19 UNL     1       0.625   5.817   1.226  1.00  0.00     0.037 A   
ATOM     31  C21 UNL     1      -0.828   5.591   3.124  1.00  0.00     0.109 A   
ATOM     32  C20 UNL     1      -0.289   6.344   2.110  1.00  0.00     0.108 A   
ATOM     33  O2  UNL     1      -1.723   6.289   3.870  1.00  0.00    -0.316 OA  
ATOM     34  O3  UNL     1      -0.771   7.613   2.096  1.00  0.00    -0.316 OA  
ATOM     35  C23 UNL     1      -1.665   7.584   3.228  1.00  0.00     0.337 C   
ENDBRANCH  26  27
ENDBRANCH  23  26
ENDBRANCH  18  23
ENDBRANCH   3  18
TORSDOF 9
