REMARK SMILES CC(C)(C)[C@H]([NH2+]Cc1ccc2c(c1)OCO2)c1cn(CCc2ccccc2F)nn1
REMARK SMILES IDX 17 1 18 2 19 3 29 4 30 5 5 7 2 8 1 9 3 10 4 11 6 12 7 15
REMARK SMILES IDX 8 16 9 17 13 18 10 19 12 20 11 21 14 22 16 23 15 24 20 25
REMARK SMILES IDX 21 26 22 27 23 28 27 29 24 30 26 31 25 32 28 33
REMARK H PARENT 18 6 6 13 6 14
ROOT
ATOM     1   C14 UNL     1       1.423  -0.796   0.653  1.00  0.00     0.127 A   
ATOM     2   C15 UNL     1       1.880   0.423   0.203  1.00  0.00     0.045 A   
ATOM     3   N2  UNL     1       2.955   0.105  -0.576  1.00  0.00    -0.212 N   
ATOM     4   N3  UNL     1       3.143  -1.226  -0.619  1.00  0.00    -0.076 NA  
ATOM     5   N4  UNL     1       2.212  -1.790   0.133  1.00  0.00    -0.132 NA  
ATOM     6   H20 UNL     1       1.548   1.443   0.345  1.00  0.00     0.083 HD  
ENDROOT
BRANCH   1   7
ATOM     7   C5  UNL     1       0.226  -1.154   1.478  1.00  0.00     0.120 C   
BRANCH   7   8
ATOM     8   C2  UNL     1       0.530  -1.330   3.009  1.00  0.00     0.010 C   
ATOM     9   C1  UNL     1      -0.783  -1.558   3.793  1.00  0.00     0.017 C   
ATOM     10  C3  UNL     1       1.478  -2.509   3.302  1.00  0.00     0.017 C   
ATOM     11  C4  UNL     1       1.171  -0.040   3.572  1.00  0.00     0.017 C   
ENDBRANCH   7   8
BRANCH   7  12
ATOM     12  N1  UNL     1      -0.401  -2.417   0.917  1.00  0.00     0.250 N   
ATOM     13  H11 UNL     1      -1.113  -2.787   1.549  1.00  0.00     0.199 HD  
ATOM     14  H12 UNL     1       0.356  -3.113   0.860  1.00  0.00     0.199 HD  
BRANCH  12  15
ATOM     15  C6  UNL     1      -0.992  -2.312  -0.453  1.00  0.00     0.164 C   
BRANCH  15  16
ATOM     16  C7  UNL     1      -2.170  -1.381  -0.516  1.00  0.00    -0.002 A   
ATOM     17  C8  UNL     1      -2.037  -0.108  -1.121  1.00  0.00     0.012 A   
ATOM     18  C12 UNL     1      -3.400  -1.751   0.052  1.00  0.00     0.045 A   
ATOM     19  C9  UNL     1      -3.110   0.788  -1.157  1.00  0.00     0.037 A   
ATOM     20  C11 UNL     1      -4.438  -0.845  -0.001  1.00  0.00     0.109 A   
ATOM     21  C10 UNL     1      -4.298   0.390  -0.587  1.00  0.00     0.108 A   
ATOM     22  O1  UNL     1      -5.686  -1.043   0.499  1.00  0.00    -0.316 OA  
ATOM     23  O2  UNL     1      -5.439   1.124  -0.527  1.00  0.00    -0.316 OA  
ATOM     24  C13 UNL     1      -6.328   0.202   0.138  1.00  0.00     0.337 C   
ENDBRANCH  15  16
ENDBRANCH  12  15
ENDBRANCH   7  12
ENDBRANCH   1   7
BRANCH   3  25
ATOM     25  C16 UNL     1       3.810   1.000  -1.327  1.00  0.00     0.139 C   
BRANCH  25  26
ATOM     26  C17 UNL     1       3.572   0.929  -2.837  1.00  0.00     0.060 C   
BRANCH  26  27
ATOM     27  C18 UNL     1       2.163   1.250  -3.278  1.00  0.00    -0.011 A   
ATOM     28  C19 UNL     1       1.431   0.329  -4.043  1.00  0.00     0.007 A   
ATOM     29  C23 UNL     1       1.568   2.479  -2.975  1.00  0.00     0.126 A   
ATOM     30  C20 UNL     1       0.140   0.638  -4.481  1.00  0.00     0.000 A   
ATOM     31  C22 UNL     1       0.282   2.792  -3.405  1.00  0.00     0.039 A   
ATOM     32  C21 UNL     1      -0.434   1.869  -4.163  1.00  0.00     0.003 A   
ATOM     33  F1  UNL     1       2.240   3.382  -2.247  1.00  0.00    -0.207 F   
ENDBRANCH  26  27
ENDBRANCH  25  26
ENDBRANCH   3  25
TORSDOF 8
