REMARK SMILES CC(C)C[C@H]([NH2+]Cc1ccc2c(c1)OCO2)c1cn([C@H](CO)c2ccc(F)cc2F)nn1
REMARK SMILES IDX 17 1 18 2 19 3 31 4 32 5 5 7 4 8 2 9 1 10 3 11 6 12 7 15
REMARK SMILES IDX 8 16 9 17 13 18 10 19 12 20 11 21 14 22 16 23 15 24 20 25
REMARK SMILES IDX 21 26 22 27 23 29 24 30 29 31 25 32 28 33 26 34 30 35 27 36
REMARK H PARENT 18 6 6 13 6 14 22 28
ROOT
ATOM     1   C14 UNL     1       0.050  -1.073  -0.200  1.00  0.00     0.127 A   
ATOM     2   C15 UNL     1      -1.286  -1.377  -0.067  1.00  0.00     0.046 A   
ATOM     3   N2  UNL     1      -1.291  -2.657   0.424  1.00  0.00    -0.202 N   
ATOM     4   N3  UNL     1      -0.029  -3.095   0.615  1.00  0.00    -0.075 NA  
ATOM     5   N4  UNL     1       0.799  -2.144   0.213  1.00  0.00    -0.132 NA  
ATOM     6   H20 UNL     1      -2.199  -0.825  -0.247  1.00  0.00     0.083 HD  
ENDROOT
BRANCH   1   7
ATOM     7   C5  UNL     1       0.734   0.182  -0.626  1.00  0.00     0.114 C   
BRANCH   7   8
ATOM     8   C4  UNL     1       1.179   0.143  -2.102  1.00  0.00     0.064 C   
BRANCH   8   9
ATOM     9   C2  UNL     1       0.033   0.048  -3.132  1.00  0.00    -0.012 C   
ATOM     10  C1  UNL     1       0.616  -0.048  -4.544  1.00  0.00     0.007 C   
ATOM     11  C3  UNL     1      -0.925   1.238  -3.052  1.00  0.00     0.007 C   
ENDBRANCH   8   9
ENDBRANCH   7   8
BRANCH   7  12
ATOM     12  N1  UNL     1       1.988   0.400   0.201  1.00  0.00     0.249 N   
ATOM     13  H11 UNL     1       2.534  -0.470   0.128  1.00  0.00     0.199 HD  
ATOM     14  H12 UNL     1       2.551   1.152  -0.206  1.00  0.00     0.199 HD  
BRANCH  12  15
ATOM     15  C6  UNL     1       1.786   0.671   1.657  1.00  0.00     0.164 C   
BRANCH  15  16
ATOM     16  C7  UNL     1       1.065   1.965   1.918  1.00  0.00    -0.002 A   
ATOM     17  C8  UNL     1       1.726   3.205   1.740  1.00  0.00     0.012 A   
ATOM     18  C12 UNL     1      -0.287   1.950   2.307  1.00  0.00     0.045 A   
ATOM     19  C9  UNL     1       1.049   4.414   1.937  1.00  0.00     0.037 A   
ATOM     20  C11 UNL     1      -0.924   3.160   2.492  1.00  0.00     0.109 A   
ATOM     21  C10 UNL     1      -0.277   4.358   2.309  1.00  0.00     0.108 A   
ATOM     22  O1  UNL     1      -2.224   3.323   2.855  1.00  0.00    -0.316 OA  
ATOM     23  O2  UNL     1      -1.086   5.426   2.535  1.00  0.00    -0.316 OA  
ATOM     24  C13 UNL     1      -2.313   4.766   2.919  1.00  0.00     0.337 C   
ENDBRANCH  15  16
ENDBRANCH  12  15
ENDBRANCH   7  12
ENDBRANCH   1   7
BRANCH   3  25
ATOM     25  C16 UNL     1      -2.458  -3.470   0.784  1.00  0.00     0.158 C   
BRANCH  25  26
ATOM     26  C17 UNL     1      -2.699  -3.415   2.304  1.00  0.00     0.186 C   
BRANCH  26  27
ATOM     27  O3  UNL     1      -3.196  -2.123   2.677  1.00  0.00    -0.394 OA  
ATOM     28  H24 UNL     1      -3.437  -2.180   3.621  1.00  0.00     0.210 HD  
ENDBRANCH  26  27
ENDBRANCH  25  26
BRANCH  25  29
ATOM     29  C18 UNL     1      -2.360  -4.860   0.176  1.00  0.00     0.013 A   
ATOM     30  C19 UNL     1      -2.847  -5.094  -1.124  1.00  0.00     0.012 A   
ATOM     31  C23 UNL     1      -1.765  -5.932   0.860  1.00  0.00     0.131 A   
ATOM     32  C20 UNL     1      -2.745  -6.364  -1.701  1.00  0.00     0.040 A   
ATOM     33  C22 UNL     1      -1.662  -7.198   0.292  1.00  0.00     0.078 A   
ATOM     34  C21 UNL     1      -2.155  -7.402  -0.987  1.00  0.00     0.126 A   
ATOM     35  F2  UNL     1      -1.278  -5.753   2.095  1.00  0.00    -0.207 F   
ATOM     36  F1  UNL     1      -2.062  -8.616  -1.546  1.00  0.00    -0.207 F   
ENDBRANCH  25  29
ENDBRANCH   3  25
TORSDOF 10
