REMARK SMILES CC(C)C[C@H]([NH2+]Cc1ccc2c(c1)OCO2)c1cn([C@@H](CO)c2ccc(F)cc2F)nn1
REMARK SMILES IDX 17 1 18 2 19 3 31 4 32 5 5 7 4 8 2 9 1 10 3 11 6 12 7 15
REMARK SMILES IDX 8 16 9 17 13 18 10 19 12 20 11 21 14 22 16 23 15 24 20 25
REMARK SMILES IDX 21 26 22 27 23 29 24 30 29 31 25 32 28 33 26 34 30 35 27 36
REMARK H PARENT 18 6 6 13 6 14 22 28
ROOT
ATOM     1   C14 UNL     1      -0.211  -1.650  -0.242  1.00  0.00     0.127 A   
ATOM     2   C15 UNL     1       0.980  -1.153   0.238  1.00  0.00     0.046 A   
ATOM     3   N2  UNL     1       1.542  -0.534  -0.847  1.00  0.00    -0.202 N   
ATOM     4   N3  UNL     1       0.732  -0.630  -1.925  1.00  0.00    -0.075 NA  
ATOM     5   N4  UNL     1      -0.349  -1.302  -1.561  1.00  0.00    -0.132 NA  
ATOM     6   H20 UNL     1       1.463  -1.178   1.204  1.00  0.00     0.083 HD  
ENDROOT
BRANCH   1   7
ATOM     7   C5  UNL     1      -1.320  -2.384   0.438  1.00  0.00     0.114 C   
BRANCH   7   8
ATOM     8   C4  UNL     1      -1.247  -3.895   0.144  1.00  0.00     0.064 C   
BRANCH   8   9
ATOM     9   C2  UNL     1      -2.246  -4.774   0.928  1.00  0.00    -0.012 C   
ATOM     10  C1  UNL     1      -2.116  -6.231   0.471  1.00  0.00     0.007 C   
ATOM     11  C3  UNL     1      -2.037  -4.689   2.440  1.00  0.00     0.007 C   
ENDBRANCH   8   9
ENDBRANCH   7   8
BRANCH   7  12
ATOM     12  N1  UNL     1      -2.645  -1.844  -0.059  1.00  0.00     0.249 N   
ATOM     13  H11 UNL     1      -2.441  -1.411  -0.976  1.00  0.00     0.199 HD  
ATOM     14  H12 UNL     1      -3.303  -2.601  -0.259  1.00  0.00     0.199 HD  
BRANCH  12  15
ATOM     15  C6  UNL     1      -3.305  -0.823   0.802  1.00  0.00     0.164 C   
BRANCH  15  16
ATOM     16  C7  UNL     1      -2.491   0.424   1.008  1.00  0.00    -0.002 A   
ATOM     17  C8  UNL     1      -2.307   1.346  -0.050  1.00  0.00     0.012 A   
ATOM     18  C12 UNL     1      -1.871   0.664   2.247  1.00  0.00     0.045 A   
ATOM     19  C9  UNL     1      -1.518   2.490   0.120  1.00  0.00     0.037 A   
ATOM     20  C11 UNL     1      -1.098   1.799   2.379  1.00  0.00     0.109 A   
ATOM     21  C10 UNL     1      -0.928   2.688   1.347  1.00  0.00     0.108 A   
ATOM     22  O1  UNL     1      -0.426   2.168   3.500  1.00  0.00    -0.316 OA  
ATOM     23  O2  UNL     1      -0.134   3.734   1.692  1.00  0.00    -0.316 OA  
ATOM     24  C13 UNL     1       0.182   3.403   3.061  1.00  0.00     0.337 C   
ENDBRANCH  15  16
ENDBRANCH  12  15
ENDBRANCH   7  12
ENDBRANCH   1   7
BRANCH   3  25
ATOM     25  C16 UNL     1       2.836   0.147  -0.917  1.00  0.00     0.158 C   
BRANCH  25  26
ATOM     26  C17 UNL     1       3.808  -0.593  -1.852  1.00  0.00     0.186 C   
BRANCH  26  27
ATOM     27  O3  UNL     1       4.233  -1.819  -1.251  1.00  0.00    -0.394 OA  
ATOM     28  H24 UNL     1       4.993  -2.146  -1.770  1.00  0.00     0.210 HD  
ENDBRANCH  26  27
ENDBRANCH  25  26
BRANCH  25  29
ATOM     29  C18 UNL     1       2.648   1.617  -1.252  1.00  0.00     0.013 A   
ATOM     30  C19 UNL     1       2.485   2.078  -2.570  1.00  0.00     0.012 A   
ATOM     31  C23 UNL     1       2.616   2.558  -0.214  1.00  0.00     0.131 A   
ATOM     32  C20 UNL     1       2.312   3.439  -2.826  1.00  0.00     0.040 A   
ATOM     33  C22 UNL     1       2.450   3.915  -0.462  1.00  0.00     0.078 A   
ATOM     34  C21 UNL     1       2.302   4.344  -1.772  1.00  0.00     0.126 A   
ATOM     35  F2  UNL     1       2.740   2.147   1.055  1.00  0.00    -0.207 F   
ATOM     36  F1  UNL     1       2.135   5.647  -2.026  1.00  0.00    -0.207 F   
ENDBRANCH  25  29
ENDBRANCH   3  25
TORSDOF 10
