REMARK SMILES CC(C)C[C@H]([NH2+]Cc1ccc2c(c1)OCO2)c1cn([C@@H](C)Cc2ccccc2)nn1
REMARK SMILES IDX 17 1 18 2 19 3 29 4 30 5 5 7 4 8 2 9 1 10 3 11 6 12 7 15
REMARK SMILES IDX 8 16 9 17 13 18 10 19 12 20 11 21 14 22 16 23 15 24 20 25
REMARK SMILES IDX 21 26 22 27 23 28 24 29 28 30 25 31 27 32 26 33
REMARK H PARENT 18 6 6 13 6 14
ROOT
ATOM     1   C14 UNL     1       1.302  -0.774  -0.913  1.00  0.00     0.127 A   
ATOM     2   C15 UNL     1       1.263  -0.124   0.299  1.00  0.00     0.046 A   
ATOM     3   N2  UNL     1       2.084   0.955   0.120  1.00  0.00    -0.209 N   
ATOM     4   N3  UNL     1       2.601   0.963  -1.124  1.00  0.00    -0.076 NA  
ATOM     5   N4  UNL     1       2.134  -0.095  -1.764  1.00  0.00    -0.132 NA  
ATOM     6   H20 UNL     1       0.724  -0.297   1.220  1.00  0.00     0.083 HD  
ENDROOT
BRANCH   1   7
ATOM     7   C5  UNL     1       0.545  -1.956  -1.413  1.00  0.00     0.114 C   
BRANCH   7   8
ATOM     8   C4  UNL     1       1.423  -3.217  -1.530  1.00  0.00     0.064 C   
BRANCH   8   9
ATOM     9   C2  UNL     1       2.003  -3.735  -0.196  1.00  0.00    -0.012 C   
ATOM     10  C1  UNL     1       0.913  -4.116   0.807  1.00  0.00     0.007 C   
ATOM     11  C3  UNL     1       2.905  -4.944  -0.460  1.00  0.00     0.007 C   
ENDBRANCH   8   9
ENDBRANCH   7   8
BRANCH   7  12
ATOM     12  N1  UNL     1       0.006  -1.665  -2.801  1.00  0.00     0.249 N   
ATOM     13  H11 UNL     1      -0.365  -2.522  -3.221  1.00  0.00     0.199 HD  
ATOM     14  H12 UNL     1       0.816  -1.369  -3.364  1.00  0.00     0.199 HD  
BRANCH  12  15
ATOM     15  C6  UNL     1      -1.020  -0.583  -2.897  1.00  0.00     0.164 C   
BRANCH  15  16
ATOM     16  C7  UNL     1      -2.320  -0.949  -2.239  1.00  0.00    -0.002 A   
ATOM     17  C8  UNL     1      -3.227  -1.827  -2.879  1.00  0.00     0.012 A   
ATOM     18  C12 UNL     1      -2.631  -0.444  -0.964  1.00  0.00     0.045 A   
ATOM     19  C9  UNL     1      -4.426  -2.197  -2.260  1.00  0.00     0.037 A   
ATOM     20  C11 UNL     1      -3.821  -0.827  -0.383  1.00  0.00     0.109 A   
ATOM     21  C10 UNL     1      -4.693  -1.679  -1.012  1.00  0.00     0.108 A   
ATOM     22  O1  UNL     1      -4.270  -0.433   0.838  1.00  0.00    -0.316 OA  
ATOM     23  O2  UNL     1      -5.801  -1.929  -0.269  1.00  0.00    -0.316 OA  
ATOM     24  C13 UNL     1      -5.550  -1.103   0.888  1.00  0.00     0.337 C   
ENDBRANCH  15  16
ENDBRANCH  12  15
ENDBRANCH   7  12
ENDBRANCH   1   7
BRANCH   3  25
ATOM     25  C16 UNL     1       2.339   2.043   1.055  1.00  0.00     0.101 C   
ATOM     26  C17 UNL     1       3.835   2.184   1.343  1.00  0.00     0.031 C   
BRANCH  25  27
ATOM     27  C18 UNL     1       1.744   3.375   0.560  1.00  0.00     0.060 C   
BRANCH  27  28
ATOM     28  C19 UNL     1       0.250   3.319   0.318  1.00  0.00    -0.046 A   
ATOM     29  C20 UNL     1      -0.258   3.429  -0.985  1.00  0.00     0.004 A   
ATOM     30  C24 UNL     1      -0.645   3.165   1.385  1.00  0.00     0.004 A   
ATOM     31  C21 UNL     1      -1.634   3.389  -1.215  1.00  0.00     0.000 A   
ATOM     32  C23 UNL     1      -2.020   3.115   1.151  1.00  0.00     0.000 A   
ATOM     33  C22 UNL     1      -2.515   3.230  -0.147  1.00  0.00     0.000 A   
ENDBRANCH  27  28
ENDBRANCH  25  27
ENDBRANCH   3  25
TORSDOF 9
