REMARK SMILES CC(C)C[C@H]([NH2+]Cc1ccc2c(c1)OCO2)c1cn([C@H](C)Cc2ccccc2)nn1
REMARK SMILES IDX 17 1 18 2 19 3 29 4 30 5 5 7 4 8 2 9 1 10 3 11 6 12 7 15
REMARK SMILES IDX 8 16 9 17 13 18 10 19 12 20 11 21 14 22 16 23 15 24 20 25
REMARK SMILES IDX 21 26 22 27 23 28 24 29 28 30 25 31 27 32 26 33
REMARK H PARENT 18 6 6 13 6 14
ROOT
ATOM     1   C14 UNL     1       1.307  -0.698   0.154  1.00  0.00     0.127 A   
ATOM     2   C15 UNL     1       1.487   0.624   0.494  1.00  0.00     0.046 A   
ATOM     3   N2  UNL     1       2.798   0.692   0.876  1.00  0.00    -0.209 N   
ATOM     4   N3  UNL     1       3.410  -0.495   0.701  1.00  0.00    -0.076 NA  
ATOM     5   N4  UNL     1       2.503  -1.359   0.272  1.00  0.00    -0.132 NA  
ATOM     6   H20 UNL     1       0.821   1.474   0.555  1.00  0.00     0.083 HD  
ENDROOT
BRANCH   1   7
ATOM     7   C5  UNL     1       0.099  -1.445  -0.299  1.00  0.00     0.114 C   
BRANCH   7   8
ATOM     8   C4  UNL     1      -0.684  -2.067   0.875  1.00  0.00     0.064 C   
BRANCH   8   9
ATOM     9   C2  UNL     1      -1.329  -1.054   1.846  1.00  0.00    -0.012 C   
ATOM     10  C1  UNL     1      -2.363  -0.163   1.157  1.00  0.00     0.007 C   
ATOM     11  C3  UNL     1      -1.984  -1.799   3.012  1.00  0.00     0.007 C   
ENDBRANCH   8   9
ENDBRANCH   7   8
BRANCH   7  12
ATOM     12  N1  UNL     1       0.518  -2.592  -1.200  1.00  0.00     0.249 N   
ATOM     13  H11 UNL     1      -0.239  -3.277  -1.285  1.00  0.00     0.199 HD  
ATOM     14  H12 UNL     1       1.300  -3.056  -0.716  1.00  0.00     0.199 HD  
BRANCH  12  15
ATOM     15  C6  UNL     1       0.999  -2.216  -2.562  1.00  0.00     0.164 C   
BRANCH  15  16
ATOM     16  C7  UNL     1      -0.112  -1.738  -3.455  1.00  0.00    -0.002 A   
ATOM     17  C8  UNL     1      -1.035  -2.661  -4.004  1.00  0.00     0.012 A   
ATOM     18  C12 UNL     1      -0.266  -0.366  -3.720  1.00  0.00     0.045 A   
ATOM     19  C9  UNL     1      -2.099  -2.225  -4.800  1.00  0.00     0.037 A   
ATOM     20  C11 UNL     1      -1.327   0.030  -4.507  1.00  0.00     0.109 A   
ATOM     21  C10 UNL     1      -2.219  -0.872  -5.030  1.00  0.00     0.108 A   
ATOM     22  O1  UNL     1      -1.624   1.312  -4.847  1.00  0.00    -0.316 OA  
ATOM     23  O2  UNL     1      -3.189  -0.273  -5.768  1.00  0.00    -0.316 OA  
ATOM     24  C13 UNL     1      -2.794   1.113  -5.673  1.00  0.00     0.337 C   
ENDBRANCH  15  16
ENDBRANCH  12  15
ENDBRANCH   7  12
ENDBRANCH   1   7
BRANCH   3  25
ATOM     25  C16 UNL     1       3.495   1.826   1.472  1.00  0.00     0.101 C   
ATOM     26  C17 UNL     1       4.775   2.163   0.705  1.00  0.00     0.031 C   
BRANCH  25  27
ATOM     27  C18 UNL     1       3.792   1.588   2.965  1.00  0.00     0.060 C   
BRANCH  27  28
ATOM     28  C19 UNL     1       2.542   1.367   3.789  1.00  0.00    -0.046 A   
ATOM     29  C20 UNL     1       1.693   2.438   4.101  1.00  0.00     0.004 A   
ATOM     30  C24 UNL     1       2.206   0.079   4.232  1.00  0.00     0.004 A   
ATOM     31  C21 UNL     1       0.529   2.222   4.840  1.00  0.00     0.000 A   
ATOM     32  C23 UNL     1       1.044  -0.132   4.976  1.00  0.00     0.000 A   
ATOM     33  C22 UNL     1       0.204   0.938   5.276  1.00  0.00     0.000 A   
ENDBRANCH  27  28
ENDBRANCH  25  27
ENDBRANCH   3  25
TORSDOF 9
