REMARK SMILES O[C@H](Cn1cc([C@@H]([NH2+]Cc2ccc3c(c2)OCO3)C2CCCCC2)nn1)c1cncc(F)c1
REMARK SMILES IDX 4 1 5 2 6 3 25 4 26 5 3 7 2 8 1 9 27 11 28 12 33 13 29 14
REMARK SMILES IDX 31 15 30 16 32 17 7 18 8 19 9 22 10 23 11 24 15 25 12 26
REMARK SMILES IDX 14 27 13 28 16 29 18 30 17 31 19 32 20 33 24 34 21 35 23 36
REMARK SMILES IDX 22 37
REMARK H PARENT 5 6 1 10 8 20 8 21
ROOT
ATOM     1   N1  UNL     1      -1.450  -3.398  -0.451  1.00  0.00    -0.209 N   
ATOM     2   C3  UNL     1      -1.534  -2.100  -0.020  1.00  0.00     0.045 A   
ATOM     3   C4  UNL     1      -0.336  -1.890   0.633  1.00  0.00     0.127 A   
ATOM     4   N3  UNL     1       0.371  -3.062   0.651  1.00  0.00    -0.132 NA  
ATOM     5   N4  UNL     1      -0.327  -3.981   0.002  1.00  0.00    -0.076 NA  
ATOM     6   H5  UNL     1      -2.352  -1.450  -0.300  1.00  0.00     0.083 HD  
ENDROOT
BRANCH   1   7
ATOM     7   C2  UNL     1      -2.199  -4.010  -1.530  1.00  0.00     0.170 C   
BRANCH   7   8
ATOM     8   C1  UNL     1      -1.415  -4.019  -2.861  1.00  0.00     0.165 C   
BRANCH   8   9
ATOM     9   O1  UNL     1      -2.265  -4.495  -3.904  1.00  0.00    -0.387 OA  
ATOM     10  H1  UNL     1      -2.253  -5.469  -3.885  1.00  0.00     0.211 HD  
ENDBRANCH   8   9
BRANCH   8  11
ATOM     11  C20 UNL     1      -0.919  -2.635  -3.233  1.00  0.00     0.003 A   
ATOM     12  C21 UNL     1       0.321  -2.193  -2.760  1.00  0.00     0.117 A   
ATOM     13  C24 UNL     1      -1.703  -1.712  -3.932  1.00  0.00     0.049 A   
ATOM     14  N5  UNL     1       0.753  -0.907  -2.817  1.00  0.00    -0.261 NA  
ATOM     15  C23 UNL     1      -1.232  -0.420  -4.112  1.00  0.00     0.141 A   
ATOM     16  C22 UNL     1      -0.019  -0.061  -3.550  1.00  0.00     0.150 A   
ATOM     17  F1  UNL     1      -1.961   0.480  -4.781  1.00  0.00    -0.205 F   
ENDBRANCH   8  11
ENDBRANCH   7   8
ENDBRANCH   1   7
BRANCH   3  18
ATOM     18  C5  UNL     1       0.300  -0.635   1.151  1.00  0.00     0.117 C   
BRANCH  18  19
ATOM     19  N2  UNL     1       0.936   0.108  -0.005  1.00  0.00     0.249 N   
ATOM     20  H7  UNL     1       0.412   0.956  -0.237  1.00  0.00     0.199 HD  
ATOM     21  H8  UNL     1       0.873  -0.456  -0.876  1.00  0.00     0.199 HD  
BRANCH  19  22
ATOM     22  C6  UNL     1       2.380   0.428   0.162  1.00  0.00     0.164 C   
BRANCH  22  23
ATOM     23  C7  UNL     1       2.854   1.375  -0.904  1.00  0.00    -0.002 A   
ATOM     24  C8  UNL     1       3.424   0.882  -2.100  1.00  0.00     0.012 A   
ATOM     25  C12 UNL     1       2.686   2.762  -0.741  1.00  0.00     0.045 A   
ATOM     26  C9  UNL     1       3.827   1.751  -3.120  1.00  0.00     0.037 A   
ATOM     27  C11 UNL     1       3.094   3.592  -1.765  1.00  0.00     0.109 A   
ATOM     28  C10 UNL     1       3.648   3.102  -2.921  1.00  0.00     0.108 A   
ATOM     29  O2  UNL     1       2.998   4.947  -1.768  1.00  0.00    -0.316 OA  
ATOM     30  O3  UNL     1       3.973   4.086  -3.798  1.00  0.00    -0.316 OA  
ATOM     31  C13 UNL     1       3.589   5.260  -3.050  1.00  0.00     0.337 C   
ENDBRANCH  22  23
ENDBRANCH  19  22
ENDBRANCH  18  19
BRANCH  18  32
ATOM     32  C14 UNL     1      -0.683   0.298   1.917  1.00  0.00     0.043 C   
ATOM     33  C15 UNL     1      -1.293  -0.432   3.136  1.00  0.00     0.010 C   
ATOM     34  C19 UNL     1      -0.012   1.605   2.392  1.00  0.00     0.010 C   
ATOM     35  C16 UNL     1      -2.245   0.459   3.930  1.00  0.00     0.001 C   
ATOM     36  C18 UNL     1      -0.965   2.490   3.193  1.00  0.00     0.001 C   
ATOM     37  C17 UNL     1      -1.567   1.747   4.377  1.00  0.00     0.000 C   
ENDBRANCH  18  32
ENDBRANCH   3  18
TORSDOF 9
