REMARK SMILES O[C@@H](Cn1cc([C@@H]([NH2+]Cc2ccc3c(c2)OCO3)C2CCCCC2)nn1)c1cncc(F)c1
REMARK SMILES IDX 4 1 5 2 6 3 25 4 26 5 3 7 2 8 1 9 27 11 28 12 33 13 29 14
REMARK SMILES IDX 31 15 30 16 32 17 7 18 8 19 9 22 10 23 11 24 15 25 12 26
REMARK SMILES IDX 14 27 13 28 16 29 18 30 17 31 19 32 20 33 24 34 21 35 23 36
REMARK SMILES IDX 22 37
REMARK H PARENT 5 6 1 10 8 20 8 21
ROOT
ATOM     1   N1  UNL     1      -3.435  -0.178  -0.683  1.00  0.00    -0.209 N   
ATOM     2   C3  UNL     1      -3.040   0.166   0.581  1.00  0.00     0.045 A   
ATOM     3   C4  UNL     1      -1.686  -0.090   0.586  1.00  0.00     0.127 A   
ATOM     4   N3  UNL     1      -1.332  -0.642  -0.618  1.00  0.00    -0.132 NA  
ATOM     5   N4  UNL     1      -2.415  -0.717  -1.373  1.00  0.00    -0.076 NA  
ATOM     6   H5  UNL     1      -3.716   0.599   1.305  1.00  0.00     0.083 HD  
ENDROOT
BRANCH   1   7
ATOM     7   C2  UNL     1      -4.739  -0.002  -1.291  1.00  0.00     0.170 C   
BRANCH   7   8
ATOM     8   C1  UNL     1      -4.883   1.284  -2.129  1.00  0.00     0.165 C   
BRANCH   8   9
ATOM     9   O1  UNL     1      -4.170   1.168  -3.357  1.00  0.00    -0.387 OA  
ATOM     10  H1  UNL     1      -4.339   1.972  -3.881  1.00  0.00     0.211 HD  
ENDBRANCH   8   9
BRANCH   8  11
ATOM     11  C20 UNL     1      -4.475   2.540  -1.398  1.00  0.00     0.003 A   
ATOM     12  C21 UNL     1      -3.148   2.976  -1.380  1.00  0.00     0.117 A   
ATOM     13  C24 UNL     1      -5.403   3.282  -0.660  1.00  0.00     0.049 A   
ATOM     14  N5  UNL     1      -2.704   4.042  -0.673  1.00  0.00    -0.261 NA  
ATOM     15  C23 UNL     1      -4.975   4.400   0.044  1.00  0.00     0.141 A   
ATOM     16  C22 UNL     1      -3.636   4.743   0.013  1.00  0.00     0.150 A   
ATOM     17  F1  UNL     1      -5.849   5.120   0.756  1.00  0.00    -0.205 F   
ENDBRANCH   8  11
ENDBRANCH   7   8
ENDBRANCH   1   7
BRANCH   3  18
ATOM     18  C5  UNL     1      -0.636   0.137   1.628  1.00  0.00     0.117 C   
BRANCH  18  19
ATOM     19  N2  UNL     1       0.579  -0.700   1.331  1.00  0.00     0.249 N   
ATOM     20  H7  UNL     1       0.726  -0.646   0.311  1.00  0.00     0.199 HD  
ATOM     21  H8  UNL     1       1.429  -0.326   1.760  1.00  0.00     0.199 HD  
BRANCH  19  22
ATOM     22  C6  UNL     1       0.454  -2.144   1.672  1.00  0.00     0.164 C   
BRANCH  22  23
ATOM     23  C7  UNL     1       1.667  -2.900   1.210  1.00  0.00    -0.002 A   
ATOM     24  C8  UNL     1       2.754  -3.122   2.088  1.00  0.00     0.012 A   
ATOM     25  C12 UNL     1       1.748  -3.346  -0.121  1.00  0.00     0.045 A   
ATOM     26  C9  UNL     1       3.902  -3.792   1.652  1.00  0.00     0.037 A   
ATOM     27  C11 UNL     1       2.894  -4.002  -0.518  1.00  0.00     0.109 A   
ATOM     28  C10 UNL     1       3.941  -4.219   0.344  1.00  0.00     0.108 A   
ATOM     29  O2  UNL     1       3.132  -4.497  -1.760  1.00  0.00    -0.316 OA  
ATOM     30  O3  UNL     1       4.969  -4.880  -0.248  1.00  0.00    -0.316 OA  
ATOM     31  C13 UNL     1       4.444  -5.074  -1.579  1.00  0.00     0.337 C   
ENDBRANCH  22  23
ENDBRANCH  19  22
ENDBRANCH  18  19
BRANCH  18  32
ATOM     32  C14 UNL     1      -0.245   1.635   1.746  1.00  0.00     0.043 C   
ATOM     33  C15 UNL     1       0.505   2.184   0.516  1.00  0.00     0.010 C   
ATOM     34  C19 UNL     1       0.561   1.914   3.030  1.00  0.00     0.010 C   
ATOM     35  C16 UNL     1       0.834   3.668   0.674  1.00  0.00     0.001 C   
ATOM     36  C18 UNL     1       0.890   3.398   3.179  1.00  0.00     0.001 C   
ATOM     37  C17 UNL     1       1.618   3.939   1.953  1.00  0.00     0.000 C   
ENDBRANCH  18  32
ENDBRANCH   3  18
TORSDOF 9
