REMARK SMILES O=c1ccccn1CCn1cc([C@@H]([NH2+]Cc2ccc3c(c2)OCO3)C2CCCCC2)nn1
REMARK SMILES IDX 10 1 11 2 12 3 31 4 32 5 9 7 8 8 7 9 2 10 3 11 4 12 6 13
REMARK SMILES IDX 5 14 1 15 13 16 14 17 15 20 16 21 17 22 21 23 18 24 20 25
REMARK SMILES IDX 19 26 22 27 24 28 23 29 25 30 26 31 30 32 27 33 29 34 28 35
REMARK H PARENT 11 6 14 18 14 19
ROOT
ATOM     1   N2  UNL     1       2.119  -3.132  -0.149  1.00  0.00    -0.211 N   
ATOM     2   C8  UNL     1       1.199  -2.271   0.377  1.00  0.00     0.045 A   
ATOM     3   C9  UNL     1       0.603  -1.734  -0.747  1.00  0.00     0.127 A   
ATOM     4   N4  UNL     1       1.032  -2.414  -1.854  1.00  0.00    -0.132 NA  
ATOM     5   N5  UNL     1       1.935  -3.297  -1.470  1.00  0.00    -0.076 NA  
ATOM     6   H9  UNL     1       1.203  -1.982   1.419  1.00  0.00     0.083 HD  
ENDROOT
BRANCH   1   7
ATOM     7   C7  UNL     1       3.367  -3.557   0.452  1.00  0.00     0.153 C   
BRANCH   7   8
ATOM     8   C6  UNL     1       4.477  -2.529   0.183  1.00  0.00     0.135 C   
BRANCH   8   9
ATOM     9   N1  UNL     1       4.502  -1.430   1.165  1.00  0.00    -0.273 N   
ATOM     10  C1  UNL     1       3.833  -0.224   0.912  1.00  0.00     0.242 A   
ATOM     11  C2  UNL     1       3.939   0.810   1.981  1.00  0.00     0.069 A   
ATOM     12  C3  UNL     1       4.630   0.567   3.101  1.00  0.00     0.007 A   
ATOM     13  C5  UNL     1       5.213  -1.636   2.342  1.00  0.00     0.078 A   
ATOM     14  C4  UNL     1       5.290  -0.694   3.289  1.00  0.00     0.016 A   
ATOM     15  O1  UNL     1       3.154   0.031  -0.087  1.00  0.00    -0.272 OA  
ENDBRANCH   8   9
ENDBRANCH   7   8
ENDBRANCH   1   7
BRANCH   3  16
ATOM     16  C10 UNL     1      -0.129  -0.438  -0.903  1.00  0.00     0.117 C   
BRANCH  16  17
ATOM     17  N3  UNL     1       0.831   0.497  -1.597  1.00  0.00     0.249 N   
ATOM     18  H11 UNL     1       1.720   0.456  -1.052  1.00  0.00     0.199 HD  
ATOM     19  H12 UNL     1       1.092   0.056  -2.488  1.00  0.00     0.199 HD  
BRANCH  17  20
ATOM     20  C11 UNL     1       0.464   1.914  -1.804  1.00  0.00     0.164 C   
BRANCH  20  21
ATOM     21  C12 UNL     1       0.348   2.705  -0.532  1.00  0.00    -0.002 A   
ATOM     22  C13 UNL     1       1.509   3.222   0.092  1.00  0.00     0.012 A   
ATOM     23  C17 UNL     1      -0.908   2.933   0.055  1.00  0.00     0.045 A   
ATOM     24  C14 UNL     1       1.423   3.950   1.283  1.00  0.00     0.037 A   
ATOM     25  C16 UNL     1      -0.957   3.650   1.233  1.00  0.00     0.109 A   
ATOM     26  C15 UNL     1       0.175   4.142   1.831  1.00  0.00     0.108 A   
ATOM     27  O2  UNL     1      -2.085   3.952   1.928  1.00  0.00    -0.316 OA  
ATOM     28  O3  UNL     1      -0.096   4.811   2.983  1.00  0.00    -0.316 OA  
ATOM     29  C18 UNL     1      -1.536   4.724   3.020  1.00  0.00     0.337 C   
ENDBRANCH  20  21
ENDBRANCH  17  20
ENDBRANCH  16  17
BRANCH  16  30
ATOM     30  C19 UNL     1      -1.488  -0.539  -1.642  1.00  0.00     0.043 C   
ATOM     31  C20 UNL     1      -2.434  -1.542  -0.958  1.00  0.00     0.010 C   
ATOM     32  C24 UNL     1      -1.408  -0.814  -3.161  1.00  0.00     0.010 C   
ATOM     33  C21 UNL     1      -3.860  -1.450  -1.510  1.00  0.00     0.001 C   
ATOM     34  C23 UNL     1      -2.674  -1.457  -3.737  1.00  0.00     0.001 C   
ATOM     35  C22 UNL     1      -3.924  -1.034  -2.979  1.00  0.00     0.000 C   
ENDBRANCH  16  30
ENDBRANCH   3  16
TORSDOF 8
