REMARK SMILES CC(C)[C@H]([NH2+]Cc1ccc2c(c1)OCO2)c1cn(CCc2cc(Cl)ccc2O)nn1
REMARK SMILES IDX 16 1 17 2 18 3 29 4 30 5 4 7 2 8 1 9 3 10 5 11 6 14 7 15
REMARK SMILES IDX 8 16 12 17 9 18 11 19 10 20 13 21 15 22 14 23 19 24 20 25
REMARK SMILES IDX 21 26 22 27 27 28 23 29 26 30 25 31 24 32 28 33
REMARK H PARENT 17 6 5 12 5 13 28 34
ROOT
ATOM     1   C13 UNL     1      -0.044  -1.235   1.310  1.00  0.00     0.127 A   
ATOM     2   C14 UNL     1      -0.462  -2.546   1.259  1.00  0.00     0.045 A   
ATOM     3   N2  UNL     1      -1.810  -2.452   1.046  1.00  0.00    -0.212 N   
ATOM     4   N3  UNL     1      -2.203  -1.166   0.998  1.00  0.00    -0.076 NA  
ATOM     5   N4  UNL     1      -1.130  -0.410   1.161  1.00  0.00    -0.132 NA  
ATOM     6   H18 UNL     1       0.051  -3.496   1.304  1.00  0.00     0.083 HD  
ENDROOT
BRANCH   1   7
ATOM     7   C4  UNL     1       1.323  -0.640   1.415  1.00  0.00     0.117 C   
BRANCH   7   8
ATOM     8   C2  UNL     1       1.773  -0.450   2.886  1.00  0.00     0.037 C   
ATOM     9   C1  UNL     1       3.275  -0.157   2.985  1.00  0.00     0.014 C   
ATOM     10  C3  UNL     1       0.988   0.626   3.646  1.00  0.00     0.014 C   
ENDBRANCH   7   8
BRANCH   7  11
ATOM     11  N1  UNL     1       1.379   0.669   0.673  1.00  0.00     0.249 N   
ATOM     12  H9  UNL     1       0.539   1.200   0.947  1.00  0.00     0.199 HD  
ATOM     13  H10 UNL     1       2.184   1.237   0.949  1.00  0.00     0.199 HD  
BRANCH  11  14
ATOM     14  C5  UNL     1       1.352   0.555  -0.814  1.00  0.00     0.164 C   
BRANCH  14  15
ATOM     15  C6  UNL     1       1.354   1.918  -1.445  1.00  0.00    -0.002 A   
ATOM     16  C7  UNL     1       2.569   2.521  -1.848  1.00  0.00     0.012 A   
ATOM     17  C11 UNL     1       0.147   2.623  -1.591  1.00  0.00     0.045 A   
ATOM     18  C8  UNL     1       2.582   3.807  -2.400  1.00  0.00     0.037 A   
ATOM     19  C10 UNL     1       0.196   3.888  -2.138  1.00  0.00     0.109 A   
ATOM     20  C9  UNL     1       1.379   4.464  -2.531  1.00  0.00     0.108 A   
ATOM     21  O1  UNL     1      -0.872   4.701  -2.348  1.00  0.00    -0.316 OA  
ATOM     22  O2  UNL     1       1.204   5.711  -3.041  1.00  0.00    -0.316 OA  
ATOM     23  C12 UNL     1      -0.230   5.849  -2.946  1.00  0.00     0.337 C   
ENDBRANCH  14  15
ENDBRANCH  11  14
ENDBRANCH   7  11
ENDBRANCH   1   7
BRANCH   3  24
ATOM     24  C15 UNL     1      -2.746  -3.522   0.761  1.00  0.00     0.139 C   
BRANCH  24  25
ATOM     25  C16 UNL     1      -3.130  -3.582  -0.720  1.00  0.00     0.059 C   
BRANCH  25  26
ATOM     26  C17 UNL     1      -1.942  -3.828  -1.624  1.00  0.00    -0.015 A   
ATOM     27  C18 UNL     1      -1.349  -2.752  -2.305  1.00  0.00     0.027 A   
ATOM     28  C22 UNL     1      -1.380  -5.101  -1.765  1.00  0.00     0.075 A   
ATOM     29  C19 UNL     1      -0.218  -2.958  -3.095  1.00  0.00     0.041 A   
ATOM     30  C21 UNL     1      -0.264  -5.313  -2.573  1.00  0.00     0.035 A   
ATOM     31  C20 UNL     1       0.322  -4.234  -3.238  1.00  0.00     0.023 A   
ATOM     32  CL1 UNL     1       0.542  -1.614  -3.855  1.00  0.00    -0.084 Cl  
BRANCH  28  33
ATOM     33  O3  UNL     1      -1.938  -6.137  -1.074  1.00  0.00    -0.361 OA  
ATOM     34  H26 UNL     1      -1.590  -6.977  -1.424  1.00  0.00     0.218 HD  
ENDBRANCH  28  33
ENDBRANCH  25  26
ENDBRANCH  24  25
ENDBRANCH   3  24
TORSDOF 9
