REMARK SMILES Cc1cc(CCn2cc([C@@H]([NH2+]Cc3ccc4c(c3)OCO4)C(C)C)nn2)ccc1F
REMARK SMILES IDX 7 1 8 2 9 3 25 4 26 5 6 7 5 8 4 9 2 10 3 11 29 12 28 13
REMARK SMILES IDX 27 14 1 15 30 16 10 17 11 18 12 21 13 22 14 23 18 24 15 25
REMARK SMILES IDX 17 26 16 27 19 28 21 29 20 30 22 31 23 32 24 33
REMARK H PARENT 8 6 11 19 11 20
ROOT
ATOM     1   N1  UNL     1       0.815  -0.548   3.556  1.00  0.00    -0.212 N   
ATOM     2   C7  UNL     1      -0.317  -0.776   2.826  1.00  0.00     0.045 A   
ATOM     3   C8  UNL     1       0.101  -1.632   1.831  1.00  0.00     0.127 A   
ATOM     4   N3  UNL     1       1.430  -1.913   2.007  1.00  0.00    -0.132 NA  
ATOM     5   N4  UNL     1       1.852  -1.253   3.073  1.00  0.00    -0.076 NA  
ATOM     6   H9  UNL     1      -1.259  -0.299   3.049  1.00  0.00     0.083 HD  
ENDROOT
BRANCH   1   7
ATOM     7   C6  UNL     1       0.994   0.383   4.652  1.00  0.00     0.139 C   
BRANCH   7   8
ATOM     8   C5  UNL     1       1.991   1.502   4.341  1.00  0.00     0.057 C   
BRANCH   8   9
ATOM     9   C4  UNL     1       1.637   2.292   3.100  1.00  0.00    -0.046 A   
ATOM     10  C2  UNL     1       2.046   2.800   0.746  1.00  0.00    -0.015 A   
ATOM     11  C3  UNL     1       2.373   2.103   1.917  1.00  0.00     0.010 A   
ATOM     12  C23 UNL     1       0.984   3.705   0.784  1.00  0.00     0.126 A   
ATOM     13  C22 UNL     1       0.245   3.903   1.945  1.00  0.00     0.040 A   
ATOM     14  C21 UNL     1       0.569   3.198   3.104  1.00  0.00     0.007 A   
ATOM     15  C1  UNL     1       2.861   2.632  -0.501  1.00  0.00     0.047 C   
ATOM     16  F1  UNL     1       0.654   4.389  -0.321  1.00  0.00    -0.207 F   
ENDBRANCH   8   9
ENDBRANCH   7   8
ENDBRANCH   1   7
BRANCH   3  17
ATOM     17  C9  UNL     1      -0.621  -2.173   0.639  1.00  0.00     0.117 C   
BRANCH  17  18
ATOM     18  N2  UNL     1       0.322  -2.304  -0.534  1.00  0.00     0.249 N   
ATOM     19  H11 UNL     1       1.132  -2.837  -0.192  1.00  0.00     0.199 HD  
ATOM     20  H12 UNL     1      -0.109  -2.846  -1.286  1.00  0.00     0.199 HD  
BRANCH  18  21
ATOM     21  C10 UNL     1       0.851  -1.028  -1.103  1.00  0.00     0.164 C   
BRANCH  21  22
ATOM     22  C11 UNL     1      -0.202  -0.230  -1.818  1.00  0.00    -0.002 A   
ATOM     23  C12 UNL     1      -0.614  -0.592  -3.123  1.00  0.00     0.012 A   
ATOM     24  C16 UNL     1      -0.819   0.859  -1.176  1.00  0.00     0.045 A   
ATOM     25  C13 UNL     1      -1.622   0.120  -3.782  1.00  0.00     0.037 A   
ATOM     26  C15 UNL     1      -1.811   1.537  -1.852  1.00  0.00     0.109 A   
ATOM     27  C14 UNL     1      -2.200   1.179  -3.119  1.00  0.00     0.108 A   
ATOM     28  O1  UNL     1      -2.520   2.590  -1.369  1.00  0.00    -0.316 OA  
ATOM     29  O2  UNL     1      -3.194   1.971  -3.598  1.00  0.00    -0.316 OA  
ATOM     30  C17 UNL     1      -3.357   2.900  -2.505  1.00  0.00     0.337 C   
ENDBRANCH  21  22
ENDBRANCH  18  21
ENDBRANCH  17  18
BRANCH  17  31
ATOM     31  C18 UNL     1      -1.312  -3.532   0.933  1.00  0.00     0.037 C   
ATOM     32  C19 UNL     1      -2.313  -3.904  -0.167  1.00  0.00     0.014 C   
ATOM     33  C20 UNL     1      -0.340  -4.695   1.161  1.00  0.00     0.014 C   
ENDBRANCH  17  31
ENDBRANCH   3  17
TORSDOF 8
