REMARK SMILES CC(C)[C@H]([NH2+]Cc1ccc2c(c1)OCO2)c1cn(Cc2ncoc2C(F)(F)F)nn1
REMARK SMILES IDX 16 1 17 2 18 3 29 4 30 5 4 7 2 8 1 9 3 10 5 11 6 14 7 15
REMARK SMILES IDX 8 16 12 17 9 18 11 19 10 20 13 21 15 22 14 23 19 24 20 25
REMARK SMILES IDX 21 26 24 27 22 28 23 29 25 30 26 31 27 32 28 33
REMARK H PARENT 17 6 5 12 5 13
ROOT
ATOM     1   C13 UNL     1      -0.828  -0.116  -0.004  1.00  0.00     0.127 A   
ATOM     2   C14 UNL     1      -2.170  -0.169   0.302  1.00  0.00     0.046 A   
ATOM     3   N2  UNL     1      -2.286  -1.279   1.093  1.00  0.00    -0.206 N   
ATOM     4   N4  UNL     1      -1.083  -1.847   1.302  1.00  0.00    -0.076 NA  
ATOM     5   N5  UNL     1      -0.185  -1.154   0.624  1.00  0.00    -0.132 NA  
ATOM     6   H18 UNL     1      -3.026   0.430   0.018  1.00  0.00     0.083 HD  
ENDROOT
BRANCH   1   7
ATOM     7   C4  UNL     1      -0.039   0.835  -0.851  1.00  0.00     0.117 C   
BRANCH   7   8
ATOM     8   C2  UNL     1      -0.262   0.589  -2.367  1.00  0.00     0.037 C   
ATOM     9   C1  UNL     1       0.311  -0.741  -2.871  1.00  0.00     0.014 C   
ATOM     10  C3  UNL     1       0.284   1.744  -3.216  1.00  0.00     0.014 C   
ENDBRANCH   7   8
BRANCH   7  11
ATOM     11  N1  UNL     1       1.426   0.739  -0.518  1.00  0.00     0.249 N   
ATOM     12  H9  UNL     1       1.637  -0.265  -0.405  1.00  0.00     0.199 HD  
ATOM     13  H10 UNL     1       2.024   1.070  -1.281  1.00  0.00     0.199 HD  
BRANCH  11  14
ATOM     14  C5  UNL     1       1.836   1.413   0.745  1.00  0.00     0.164 C   
BRANCH  14  15
ATOM     15  C6  UNL     1       3.282   1.134   1.042  1.00  0.00    -0.002 A   
ATOM     16  C7  UNL     1       3.649  -0.047   1.731  1.00  0.00     0.012 A   
ATOM     17  C11 UNL     1       4.281   2.012   0.590  1.00  0.00     0.045 A   
ATOM     18  C8  UNL     1       4.993  -0.344   1.981  1.00  0.00     0.037 A   
ATOM     19  C10 UNL     1       5.596   1.688   0.853  1.00  0.00     0.109 A   
ATOM     20  C9  UNL     1       5.943   0.544   1.528  1.00  0.00     0.108 A   
ATOM     21  O1  UNL     1       6.679   2.425   0.489  1.00  0.00    -0.316 OA  
ATOM     22  O2  UNL     1       7.287   0.418   1.679  1.00  0.00    -0.316 OA  
ATOM     23  C12 UNL     1       7.751   1.624   1.036  1.00  0.00     0.337 C   
ENDBRANCH  14  15
ENDBRANCH  11  14
ENDBRANCH   7  11
ENDBRANCH   1   7
BRANCH   3  24
ATOM     24  C15 UNL     1      -3.487  -1.862   1.662  1.00  0.00     0.193 C   
BRANCH  24  25
ATOM     25  C16 UNL     1      -4.112  -2.777   0.675  1.00  0.00     0.098 A   
ATOM     26  N3  UNL     1      -5.123  -2.338  -0.157  1.00  0.00    -0.232 NA  
ATOM     27  C18 UNL     1      -3.835  -4.104   0.401  1.00  0.00     0.187 A   
ATOM     28  C17 UNL     1      -5.425  -3.397  -0.874  1.00  0.00     0.247 A   
ATOM     29  O3  UNL     1      -4.680  -4.503  -0.605  1.00  0.00    -0.291 OA  
BRANCH  27  30
ATOM     30  C19 UNL     1      -2.867  -5.083   0.938  1.00  0.00     0.440 C   
ATOM     31  F1  UNL     1      -1.725  -5.109   0.207  1.00  0.00    -0.164 F   
ATOM     32  F2  UNL     1      -2.512  -4.775   2.212  1.00  0.00    -0.164 F   
ATOM     33  F3  UNL     1      -3.359  -6.346   0.962  1.00  0.00    -0.164 F   
ENDBRANCH  27  30
ENDBRANCH  24  25
ENDBRANCH   3  24
TORSDOF 8
