REMARK SMILES Cc1cccc(N([O-])[O-])c1Cn1cc([C@@H]([NH2+]Cc2ccc3c(c2)OCO3)C(C)C)nn1
REMARK SMILES IDX 12 1 13 2 14 3 30 4 31 5 11 7 10 8 2 9 3 10 4 11 6 12 5 13
REMARK SMILES IDX 1 14 7 15 8 16 9 17 15 18 16 19 17 22 18 23 19 24 23 25
REMARK SMILES IDX 20 26 22 27 21 28 24 29 26 30 25 31 27 32 28 33 29 34
REMARK H PARENT 13 6 16 20 16 21
ROOT
ATOM     1   N2  UNL     1       2.228   0.328   0.941  1.00  0.00    -0.208 N   
ATOM     2   C9  UNL     1       1.787   0.735  -0.288  1.00  0.00     0.046 A   
ATOM     3   C10 UNL     1       0.736   1.577  -0.003  1.00  0.00     0.127 A   
ATOM     4   N4  UNL     1       0.606   1.687   1.358  1.00  0.00    -0.132 NA  
ATOM     5   N5  UNL     1       1.532   0.931   1.923  1.00  0.00    -0.076 NA  
ATOM     6   H9  UNL     1       2.206   0.356  -1.211  1.00  0.00     0.083 HD  
ENDROOT
BRANCH   1   7
ATOM     7   C8  UNL     1       3.239  -0.679   1.242  1.00  0.00     0.172 C   
BRANCH   7   8
ATOM     8   C7  UNL     1       2.723  -1.794   2.140  1.00  0.00     0.003 A   
ATOM     9   C2  UNL     1       3.350  -2.070   3.381  1.00  0.00    -0.044 A   
ATOM     10  C3  UNL     1       2.854  -3.102   4.203  1.00  0.00     0.004 A   
ATOM     11  C4  UNL     1       1.751  -3.868   3.826  1.00  0.00     0.002 A   
ATOM     12  C6  UNL     1       1.612  -2.603   1.786  1.00  0.00     0.123 A   
ATOM     13  C5  UNL     1       1.121  -3.621   2.615  1.00  0.00     0.031 A   
ATOM     14  C1  UNL     1       4.537  -1.285   3.879  1.00  0.00     0.045 C   
BRANCH  12  15
ATOM     15  N1  UNL     1       0.912  -2.408   0.524  1.00  0.00     0.092 N   
ATOM     16  O1  UNL     1      -0.300  -2.151   0.575  1.00  0.00    -0.138 OA  
ATOM     17  O2  UNL     1       1.585  -2.461  -0.514  1.00  0.00    -0.138 OA  
ENDBRANCH  12  15
ENDBRANCH   7   8
ENDBRANCH   1   7
BRANCH   3  18
ATOM     18  C11 UNL     1      -0.258   2.246  -0.895  1.00  0.00     0.117 C   
BRANCH  18  19
ATOM     19  N3  UNL     1      -1.629   2.203  -0.253  1.00  0.00     0.249 N   
ATOM     20  H11 UNL     1      -2.250   2.890  -0.688  1.00  0.00     0.199 HD  
ATOM     21  H12 UNL     1      -1.494   2.483   0.729  1.00  0.00     0.199 HD  
BRANCH  19  22
ATOM     22  C12 UNL     1      -2.303   0.869  -0.238  1.00  0.00     0.164 C   
BRANCH  22  23
ATOM     23  C13 UNL     1      -2.779   0.447  -1.600  1.00  0.00    -0.002 A   
ATOM     24  C14 UNL     1      -3.896   1.080  -2.197  1.00  0.00     0.012 A   
ATOM     25  C18 UNL     1      -2.100  -0.563  -2.303  1.00  0.00     0.045 A   
ATOM     26  C15 UNL     1      -4.326   0.721  -3.478  1.00  0.00     0.037 A   
ATOM     27  C17 UNL     1      -2.549  -0.892  -3.565  1.00  0.00     0.109 A   
ATOM     28  C16 UNL     1      -3.629  -0.268  -4.137  1.00  0.00     0.108 A   
ATOM     29  O3  UNL     1      -2.003  -1.833  -4.378  1.00  0.00    -0.316 OA  
ATOM     30  O4  UNL     1      -3.902  -0.740  -5.380  1.00  0.00    -0.316 OA  
ATOM     31  C19 UNL     1      -2.889  -1.759  -5.518  1.00  0.00     0.337 C   
ENDBRANCH  22  23
ENDBRANCH  19  22
ENDBRANCH  18  19
BRANCH  18  32
ATOM     32  C20 UNL     1       0.081   3.720  -1.235  1.00  0.00     0.037 C   
ATOM     33  C21 UNL     1       1.370   3.825  -2.058  1.00  0.00     0.014 C   
ATOM     34  C22 UNL     1       0.168   4.648  -0.018  1.00  0.00     0.014 C   
ENDBRANCH  18  32
ENDBRANCH   3  18
TORSDOF 8
