REMARK SMILES CC(C)[C@H]([NH2+]Cc1ccc2c(c1)OCO2)c1cn(CCc2nccs2)nn1
REMARK SMILES IDX 16 1 17 2 18 3 26 4 27 5 4 7 2 8 1 9 3 10 5 11 6 14 7 15
REMARK SMILES IDX 8 16 12 17 9 18 11 19 10 20 13 21 15 22 14 23 19 24 20 25
REMARK SMILES IDX 21 26 22 27 25 28 23 29 24 30
REMARK H PARENT 17 6 5 12 5 13
ROOT
ATOM     1   C13 UNL     1       2.114  -0.676   0.005  1.00  0.00     0.127 A   
ATOM     2   C14 UNL     1       2.051  -0.210   1.300  1.00  0.00     0.045 A   
ATOM     3   N2  UNL     1       3.177   0.552   1.429  1.00  0.00    -0.212 N   
ATOM     4   N4  UNL     1       3.905   0.535   0.297  1.00  0.00    -0.076 NA  
ATOM     5   N5  UNL     1       3.264  -0.217  -0.584  1.00  0.00    -0.132 NA  
ATOM     6   H18 UNL     1       1.323  -0.302   2.094  1.00  0.00     0.083 HD  
ENDROOT
BRANCH   1   7
ATOM     7   C4  UNL     1       1.129  -1.455  -0.801  1.00  0.00     0.117 C   
BRANCH   7   8
ATOM     8   C2  UNL     1       1.387  -2.985  -0.821  1.00  0.00     0.037 C   
ATOM     9   C1  UNL     1       1.205  -3.602   0.572  1.00  0.00     0.014 C   
ATOM     10  C3  UNL     1       2.752  -3.391  -1.390  1.00  0.00     0.014 C   
ENDBRANCH   7   8
BRANCH   7  11
ATOM     11  N1  UNL     1       1.111  -0.951  -2.229  1.00  0.00     0.249 N   
ATOM     12  H9  UNL     1       0.568  -1.587  -2.820  1.00  0.00     0.199 HD  
ATOM     13  H10 UNL     1       2.086  -0.975  -2.556  1.00  0.00     0.199 HD  
BRANCH  11  14
ATOM     14  C5  UNL     1       0.628   0.448  -2.432  1.00  0.00     0.164 C   
BRANCH  14  15
ATOM     15  C6  UNL     1      -0.832   0.624  -2.117  1.00  0.00    -0.002 A   
ATOM     16  C7  UNL     1      -1.232   1.217  -0.895  1.00  0.00     0.012 A   
ATOM     17  C11 UNL     1      -1.810   0.178  -3.023  1.00  0.00     0.045 A   
ATOM     18  C8  UNL     1      -2.586   1.361  -0.576  1.00  0.00     0.037 A   
ATOM     19  C10 UNL     1      -3.136   0.343  -2.679  1.00  0.00     0.109 A   
ATOM     20  C9  UNL     1      -3.514   0.915  -1.490  1.00  0.00     0.108 A   
ATOM     21  O1  UNL     1      -4.200  -0.024  -3.440  1.00  0.00    -0.316 OA  
ATOM     22  O2  UNL     1      -4.864   0.977  -1.350  1.00  0.00    -0.316 OA  
ATOM     23  C12 UNL     1      -5.297   0.425  -2.610  1.00  0.00     0.337 C   
ENDBRANCH  14  15
ENDBRANCH  11  14
ENDBRANCH   7  11
ENDBRANCH   1   7
BRANCH   3  24
ATOM     24  C15 UNL     1       3.588   1.360   2.560  1.00  0.00     0.141 C   
BRANCH  24  25
ATOM     25  C16 UNL     1       3.419   2.856   2.305  1.00  0.00     0.085 C   
BRANCH  25  26
ATOM     26  C17 UNL     1       1.980   3.270   2.213  1.00  0.00     0.079 A   
ATOM     27  N3  UNL     1       0.954   2.521   2.566  1.00  0.00    -0.254 NA  
ATOM     28  S1  UNL     1       1.576   4.839   1.628  1.00  0.00    -0.081 S   
ATOM     29  C18 UNL     1      -0.217   3.244   2.438  1.00  0.00     0.119 A   
ATOM     30  C19 UNL     1      -0.080   4.515   1.927  1.00  0.00     0.067 A   
ENDBRANCH  25  26
ENDBRANCH  24  25
ENDBRANCH   3  24
TORSDOF 8
