REMARK SMILES CC(C)C[C@H]([NH2+]Cc1ccc2c(c1)OCO2)c1cn(CCc2cscn2)nn1
REMARK SMILES IDX 17 1 18 2 19 3 27 4 28 5 5 7 4 8 2 9 1 10 3 11 6 12 7 15
REMARK SMILES IDX 8 16 9 17 13 18 10 19 12 20 11 21 14 22 16 23 15 24 20 25
REMARK SMILES IDX 21 26 22 27 23 28 26 29 24 30 25 31
REMARK H PARENT 18 6 6 13 6 14
ROOT
ATOM     1   C14 UNL     1       0.472  -1.263   1.425  1.00  0.00     0.127 A   
ATOM     2   C15 UNL     1      -0.509  -0.378   1.807  1.00  0.00     0.045 A   
ATOM     3   N2  UNL     1       0.013   0.241   2.905  1.00  0.00    -0.212 N   
ATOM     4   N4  UNL     1       1.236  -0.242   3.193  1.00  0.00    -0.076 NA  
ATOM     5   N5  UNL     1       1.531  -1.162   2.290  1.00  0.00    -0.132 NA  
ATOM     6   H20 UNL     1      -1.475  -0.112   1.399  1.00  0.00     0.083 HD  
ENDROOT
BRANCH   1   7
ATOM     7   C5  UNL     1       0.583  -2.147   0.234  1.00  0.00     0.114 C   
BRANCH   7   8
ATOM     8   C4  UNL     1       0.488  -3.650   0.565  1.00  0.00     0.064 C   
BRANCH   8   9
ATOM     9   C2  UNL     1      -0.883  -4.208   1.008  1.00  0.00    -0.012 C   
ATOM     10  C1  UNL     1      -2.021  -3.809   0.069  1.00  0.00     0.007 C   
ATOM     11  C3  UNL     1      -1.239  -3.881   2.457  1.00  0.00     0.007 C   
ENDBRANCH   8   9
ENDBRANCH   7   8
BRANCH   7  12
ATOM     12  N1  UNL     1       1.945  -1.938  -0.413  1.00  0.00     0.249 N   
ATOM     13  H11 UNL     1       2.640  -2.100   0.330  1.00  0.00     0.199 HD  
ATOM     14  H12 UNL     1       2.100  -2.642  -1.140  1.00  0.00     0.199 HD  
BRANCH  12  15
ATOM     15  C6  UNL     1       2.214  -0.582  -0.981  1.00  0.00     0.164 C   
BRANCH  15  16
ATOM     16  C7  UNL     1       1.330  -0.251  -2.150  1.00  0.00    -0.002 A   
ATOM     17  C8  UNL     1       1.562  -0.838  -3.416  1.00  0.00     0.012 A   
ATOM     18  C12 UNL     1       0.238   0.618  -1.979  1.00  0.00     0.045 A   
ATOM     19  C9  UNL     1       0.716  -0.567  -4.497  1.00  0.00     0.037 A   
ATOM     20  C11 UNL     1      -0.580   0.859  -3.063  1.00  0.00     0.109 A   
ATOM     21  C10 UNL     1      -0.349   0.281  -4.286  1.00  0.00     0.108 A   
ATOM     22  O1  UNL     1      -1.681   1.656  -3.065  1.00  0.00    -0.316 OA  
ATOM     23  O2  UNL     1      -1.274   0.639  -5.213  1.00  0.00    -0.316 OA  
ATOM     24  C13 UNL     1      -2.110   1.526  -4.440  1.00  0.00     0.337 C   
ENDBRANCH  15  16
ENDBRANCH  12  15
ENDBRANCH   7  12
ENDBRANCH   1   7
BRANCH   3  25
ATOM     25  C16 UNL     1      -0.581   1.271   3.731  1.00  0.00     0.140 C   
BRANCH  25  26
ATOM     26  C17 UNL     1      -0.022   2.662   3.441  1.00  0.00     0.078 C   
BRANCH  26  27
ATOM     27  C18 UNL     1      -0.687   3.353   2.288  1.00  0.00     0.049 A   
ATOM     28  C19 UNL     1      -1.048   4.688   2.246  1.00  0.00     0.070 A   
ATOM     29  N3  UNL     1      -0.982   2.638   1.134  1.00  0.00    -0.254 NA  
ATOM     30  S1  UNL     1      -1.793   5.059   0.749  1.00  0.00    -0.084 S   
ATOM     31  C20 UNL     1      -1.579   3.430   0.268  1.00  0.00     0.156 A   
ENDBRANCH  26  27
ENDBRANCH  25  26
ENDBRANCH   3  25
TORSDOF 9
