REMARK SMILES CC(C)C[C@H]([NH2+]Cc1ccc2c(c1)OCO2)c1cn(-c2cc(O)ccc2F)nn1
REMARK SMILES IDX 17 1 18 2 19 3 28 4 29 5 5 6 4 7 2 8 1 9 3 10 6 11 7 14 8 15
REMARK SMILES IDX 9 16 13 17 10 18 12 19 11 20 14 21 16 22 15 23 20 24 21 25
REMARK SMILES IDX 26 26 22 27 25 28 24 29 27 30 23 31
REMARK H PARENT 6 12 6 13 23 32
ROOT
ATOM     1   C14 UNL     1      -0.868   1.083   0.088  1.00  0.00     0.127 A   
ATOM     2   C15 UNL     1      -0.701   2.432  -0.126  1.00  0.00     0.135 A   
ATOM     3   N2  UNL     1      -0.692   3.005   1.132  1.00  0.00    -0.178 N   
ATOM     4   N3  UNL     1      -0.821   2.011   2.053  1.00  0.00    -0.071 NA  
ATOM     5   N4  UNL     1      -0.943   0.851   1.431  1.00  0.00    -0.131 NA  
ENDROOT
BRANCH   1   6
ATOM     6   C5  UNL     1      -0.949  -0.066  -0.868  1.00  0.00     0.114 C   
BRANCH   6   7
ATOM     7   C4  UNL     1      -2.392  -0.240  -1.385  1.00  0.00     0.064 C   
BRANCH   7   8
ATOM     8   C2  UNL     1      -2.621  -1.350  -2.433  1.00  0.00    -0.012 C   
ATOM     9   C1  UNL     1      -1.724  -1.193  -3.661  1.00  0.00     0.007 C   
ATOM     10  C3  UNL     1      -4.091  -1.352  -2.865  1.00  0.00     0.007 C   
ENDBRANCH   7   8
ENDBRANCH   6   7
BRANCH   6  11
ATOM     11  N1  UNL     1      -0.507  -1.337  -0.196  1.00  0.00     0.249 N   
ATOM     12  H11 UNL     1      -0.812  -2.171  -0.705  1.00  0.00     0.199 HD  
ATOM     13  H12 UNL     1      -0.977  -1.372   0.722  1.00  0.00     0.199 HD  
BRANCH  11  14
ATOM     14  C6  UNL     1       0.958  -1.450   0.053  1.00  0.00     0.164 C   
BRANCH  14  15
ATOM     15  C7  UNL     1       1.265  -2.722   0.791  1.00  0.00    -0.002 A   
ATOM     16  C8  UNL     1       1.209  -2.752   2.205  1.00  0.00     0.012 A   
ATOM     17  C12 UNL     1       1.551  -3.901   0.083  1.00  0.00     0.045 A   
ATOM     18  C9  UNL     1       1.446  -3.938   2.908  1.00  0.00     0.037 A   
ATOM     19  C11 UNL     1       1.780  -5.053   0.807  1.00  0.00     0.109 A   
ATOM     20  C10 UNL     1       1.729  -5.072   2.179  1.00  0.00     0.108 A   
ATOM     21  O1  UNL     1       2.068  -6.272   0.281  1.00  0.00    -0.316 OA  
ATOM     22  O2  UNL     1       1.981  -6.305   2.690  1.00  0.00    -0.316 OA  
ATOM     23  C13 UNL     1       2.220  -7.061   1.484  1.00  0.00     0.337 C   
ENDBRANCH  14  15
ENDBRANCH  11  14
ENDBRANCH   6  11
ENDBRANCH   1   6
BRANCH   3  24
ATOM     24  C16 UNL     1      -0.565   4.359   1.519  1.00  0.00     0.096 A   
ATOM     25  C17 UNL     1      -0.581   4.691   2.883  1.00  0.00     0.062 A   
ATOM     26  C21 UNL     1      -0.424   5.383   0.579  1.00  0.00     0.146 A   
ATOM     27  C18 UNL     1      -0.457   6.022   3.276  1.00  0.00     0.073 A   
ATOM     28  C20 UNL     1      -0.301   6.714   0.983  1.00  0.00     0.044 A   
ATOM     29  C19 UNL     1      -0.317   7.039   2.339  1.00  0.00     0.036 A   
ATOM     30  F1  UNL     1      -0.399   5.135  -0.737  1.00  0.00    -0.205 F   
BRANCH  27  31
ATOM     31  O3  UNL     1      -0.479   6.285   4.612  1.00  0.00    -0.361 OA  
ATOM     32  H22 UNL     1      -0.398   7.244   4.756  1.00  0.00     0.218 HD  
ENDBRANCH  27  31
ENDBRANCH   3  24
TORSDOF 8
