REMARK SMILES Cn1cnc(Cn2cc([C@@H]([NH2+]Cc3ccc4c(c3)OCO4)C(C)(C)C)nn2)c1
REMARK SMILES IDX 7 1 8 2 9 3 26 4 27 5 6 7 5 8 2 9 3 10 28 11 4 12 1 13 10 14
REMARK SMILES IDX 11 15 12 18 13 19 14 20 18 21 15 22 17 23 16 24 19 25 21 26
REMARK SMILES IDX 20 27 22 28 23 29 24 30 25 31
REMARK H PARENT 8 6 11 16 11 17
ROOT
ATOM     1   N3  UNL     1       1.048   1.056   3.081  1.00  0.00    -0.206 N   
ATOM     2   C5  UNL     1      -0.118   1.101   2.367  1.00  0.00     0.046 A   
ATOM     3   C6  UNL     1      -0.705  -0.119   2.612  1.00  0.00     0.127 A   
ATOM     4   N5  UNL     1       0.073  -0.826   3.493  1.00  0.00    -0.132 NA  
ATOM     5   N6  UNL     1       1.137  -0.094   3.782  1.00  0.00    -0.076 NA  
ATOM     6   H7  UNL     1      -0.361   1.930   1.716  1.00  0.00     0.083 HD  
ENDROOT
BRANCH   1   7
ATOM     7   C4  UNL     1       2.115   2.039   3.108  1.00  0.00     0.191 C   
BRANCH   7   8
ATOM     8   C3  UNL     1       2.997   1.886   1.916  1.00  0.00     0.075 A   
ATOM     9   N1  UNL     1       4.687   1.726   0.541  1.00  0.00    -0.299 N   
ATOM     10  C2  UNL     1       3.520   1.739  -0.164  1.00  0.00     0.188 A   
ATOM     11  C20 UNL     1       4.375   1.816   1.868  1.00  0.00     0.101 A   
ATOM     12  N2  UNL     1       2.478   1.827   0.634  1.00  0.00    -0.243 NA  
ATOM     13  C1  UNL     1       6.015   1.647  -0.015  1.00  0.00     0.137 C   
ENDBRANCH   7   8
ENDBRANCH   1   7
BRANCH   3  14
ATOM     14  C7  UNL     1      -1.892  -0.768   1.976  1.00  0.00     0.120 C   
BRANCH  14  15
ATOM     15  N4  UNL     1      -1.528  -2.189   1.586  1.00  0.00     0.250 N   
ATOM     16  H9  UNL     1      -2.348  -2.697   1.252  1.00  0.00     0.199 HD  
ATOM     17  H10 UNL     1      -1.200  -2.650   2.445  1.00  0.00     0.199 HD  
BRANCH  15  18
ATOM     18  C8  UNL     1      -0.430  -2.338   0.577  1.00  0.00     0.164 C   
BRANCH  18  19
ATOM     19  C9  UNL     1      -0.753  -1.714  -0.751  1.00  0.00    -0.002 A   
ATOM     20  C10 UNL     1      -0.091  -0.530  -1.159  1.00  0.00     0.012 A   
ATOM     21  C14 UNL     1      -1.733  -2.280  -1.584  1.00  0.00     0.045 A   
ATOM     22  C11 UNL     1      -0.404   0.088  -2.374  1.00  0.00     0.037 A   
ATOM     23  C13 UNL     1      -2.018  -1.645  -2.775  1.00  0.00     0.109 A   
ATOM     24  C12 UNL     1      -1.374  -0.494  -3.159  1.00  0.00     0.108 A   
ATOM     25  O1  UNL     1      -2.939  -2.054  -3.687  1.00  0.00    -0.316 OA  
ATOM     26  O2  UNL     1      -1.807  -0.035  -4.362  1.00  0.00    -0.316 OA  
ATOM     27  C15 UNL     1      -2.784  -1.040  -4.707  1.00  0.00     0.337 C   
ENDBRANCH  18  19
ENDBRANCH  15  18
ENDBRANCH  14  15
BRANCH  14  28
ATOM     28  C16 UNL     1      -3.189  -0.755   2.859  1.00  0.00     0.010 C   
ATOM     29  C17 UNL     1      -3.544   0.699   3.247  1.00  0.00     0.017 C   
ATOM     30  C18 UNL     1      -4.388  -1.314   2.058  1.00  0.00     0.017 C   
ATOM     31  C19 UNL     1      -3.050  -1.581   4.152  1.00  0.00     0.017 C   
ENDBRANCH  14  28
ENDBRANCH   3  14
TORSDOF 7
