REMARK SMILES CCn1c(-n2cc([C@@H]([NH2+]Cc3ccc4c(c3)OCO4)C(C)C)nn2)nc2ccccc21
REMARK SMILES IDX 5 1 6 2 7 3 23 4 24 5 4 6 3 7 31 8 25 9 26 10 30 11 27 12
REMARK SMILES IDX 29 13 28 14 2 15 1 16 8 17 9 18 10 21 11 22 12 23 16 24
REMARK SMILES IDX 13 25 15 26 14 27 17 28 19 29 18 30 20 31 21 32 22 33
REMARK H PARENT 9 19 9 20
ROOT
ATOM     1   N2  UNL     1       0.890  -1.448  -0.769  1.00  0.00    -0.149 N   
ATOM     2   C4  UNL     1       1.387  -0.443  -1.573  1.00  0.00     0.138 A   
ATOM     3   C5  UNL     1       1.380   0.681  -0.785  1.00  0.00     0.128 A   
ATOM     4   N4  UNL     1       0.875   0.357   0.446  1.00  0.00    -0.131 NA  
ATOM     5   N5  UNL     1       0.578  -0.934   0.443  1.00  0.00    -0.068 NA  
ENDROOT
BRANCH   1   6
ATOM     6   C3  UNL     1       0.669  -2.780  -1.094  1.00  0.00     0.215 A   
ATOM     7   N1  UNL     1       0.201  -3.785  -0.275  1.00  0.00    -0.270 N   
ATOM     8   C23 UNL     1       0.085  -4.926  -1.050  1.00  0.00     0.061 A   
ATOM     9   N6  UNL     1       0.898  -3.220  -2.317  1.00  0.00    -0.215 NA  
ATOM     10  C18 UNL     1       0.533  -4.541  -2.309  1.00  0.00     0.088 A   
ATOM     11  C22 UNL     1      -0.352  -6.229  -0.777  1.00  0.00     0.026 A   
ATOM     12  C19 UNL     1       0.558  -5.476  -3.354  1.00  0.00     0.030 A   
ATOM     13  C21 UNL     1      -0.322  -7.149  -1.831  1.00  0.00     0.002 A   
ATOM     14  C20 UNL     1       0.125  -6.782  -3.100  1.00  0.00     0.002 A   
BRANCH   7  15
ATOM     15  C2  UNL     1      -0.085  -3.744   1.148  1.00  0.00     0.111 C   
ATOM     16  C1  UNL     1      -1.522  -3.354   1.445  1.00  0.00     0.025 C   
ENDBRANCH   7  15
ENDBRANCH   1   6
BRANCH   3  17
ATOM     17  C6  UNL     1       1.780   2.092  -1.083  1.00  0.00     0.117 C   
BRANCH  17  18
ATOM     18  N3  UNL     1       0.991   3.055  -0.237  1.00  0.00     0.249 N   
ATOM     19  H8  UNL     1       1.439   3.974  -0.184  1.00  0.00     0.199 HD  
ATOM     20  H9  UNL     1       0.987   2.682   0.723  1.00  0.00     0.199 HD  
BRANCH  18  21
ATOM     21  C7  UNL     1      -0.430   3.240  -0.646  1.00  0.00     0.164 C   
BRANCH  21  22
ATOM     22  C8  UNL     1      -1.132   4.171   0.300  1.00  0.00    -0.002 A   
ATOM     23  C9  UNL     1      -1.207   5.556   0.020  1.00  0.00     0.012 A   
ATOM     24  C13 UNL     1      -1.677   3.675   1.497  1.00  0.00     0.045 A   
ATOM     25  C10 UNL     1      -1.832   6.435   0.911  1.00  0.00     0.037 A   
ATOM     26  C12 UNL     1      -2.285   4.569   2.354  1.00  0.00     0.109 A   
ATOM     27  C11 UNL     1      -2.362   5.910   2.069  1.00  0.00     0.108 A   
ATOM     28  O1  UNL     1      -2.864   4.257   3.544  1.00  0.00    -0.316 OA  
ATOM     29  O2  UNL     1      -3.003   6.610   3.040  1.00  0.00    -0.316 OA  
ATOM     30  C14 UNL     1      -3.348   5.553   3.962  1.00  0.00     0.337 C   
ENDBRANCH  21  22
ENDBRANCH  18  21
ENDBRANCH  17  18
BRANCH  17  31
ATOM     31  C15 UNL     1       3.302   2.323  -0.887  1.00  0.00     0.037 C   
ATOM     32  C16 UNL     1       3.763   2.235   0.572  1.00  0.00     0.014 C   
ATOM     33  C17 UNL     1       3.757   3.657  -1.492  1.00  0.00     0.014 C   
ENDBRANCH  17  31
ENDBRANCH   3  17
TORSDOF 7
