REMARK SMILES CC(C)(C)[C@H]([NH2+]Cc1ccc2c(c1)OCO2)c1cn(CCc2ccncn2)nn1
REMARK SMILES IDX 17 1 18 2 19 3 28 4 29 5 5 7 2 8 1 9 3 10 4 11 6 12 7 15
REMARK SMILES IDX 8 16 9 17 13 18 10 19 12 20 11 21 14 22 16 23 15 24 20 25
REMARK SMILES IDX 21 26 22 27 23 28 27 29 24 30 26 31 25 32
REMARK H PARENT 18 6 6 13 6 14
ROOT
ATOM     1   C14 UNL     1      -0.500   1.595  -1.602  1.00  0.00     0.127 A   
ATOM     2   C15 UNL     1      -1.395   2.603  -1.326  1.00  0.00     0.045 A   
ATOM     3   N2  UNL     1      -2.611   2.052  -1.623  1.00  0.00    -0.212 N   
ATOM     4   N5  UNL     1      -2.469   0.808  -2.118  1.00  0.00    -0.076 NA  
ATOM     5   N6  UNL     1      -1.180   0.511  -2.096  1.00  0.00    -0.132 NA  
ATOM     6   H20 UNL     1      -1.301   3.584  -0.880  1.00  0.00     0.083 HD  
ENDROOT
BRANCH   1   7
ATOM     7   C5  UNL     1       0.960   1.473  -1.289  1.00  0.00     0.120 C   
BRANCH   7   8
ATOM     8   C2  UNL     1       1.907   1.641  -2.526  1.00  0.00     0.010 C   
ATOM     9   C1  UNL     1       1.730   0.527  -3.577  1.00  0.00     0.017 C   
ATOM     10  C3  UNL     1       3.385   1.644  -2.072  1.00  0.00     0.017 C   
ATOM     11  C4  UNL     1       1.641   3.002  -3.209  1.00  0.00     0.017 C   
ENDBRANCH   7   8
BRANCH   7  12
ATOM     12  N1  UNL     1       1.187   0.139  -0.616  1.00  0.00     0.250 N   
ATOM     13  H11 UNL     1       2.174  -0.127  -0.588  1.00  0.00     0.199 HD  
ATOM     14  H12 UNL     1       0.712  -0.566  -1.200  1.00  0.00     0.199 HD  
BRANCH  12  15
ATOM     15  C6  UNL     1       0.618   0.023   0.761  1.00  0.00     0.164 C   
BRANCH  15  16
ATOM     16  C7  UNL     1       0.765  -1.381   1.276  1.00  0.00    -0.002 A   
ATOM     17  C8  UNL     1       1.835  -1.723   2.136  1.00  0.00     0.012 A   
ATOM     18  C12 UNL     1      -0.144  -2.374   0.869  1.00  0.00     0.045 A   
ATOM     19  C9  UNL     1       1.992  -3.035   2.597  1.00  0.00     0.037 A   
ATOM     20  C11 UNL     1       0.042  -3.657   1.340  1.00  0.00     0.109 A   
ATOM     21  C10 UNL     1       1.079  -3.978   2.180  1.00  0.00     0.108 A   
ATOM     22  O1  UNL     1      -0.746  -4.727   1.053  1.00  0.00    -0.316 OA  
ATOM     23  O2  UNL     1       1.077  -5.291   2.527  1.00  0.00    -0.316 OA  
ATOM     24  C13 UNL     1      -0.080  -5.767   1.807  1.00  0.00     0.337 C   
ENDBRANCH  15  16
ENDBRANCH  12  15
ENDBRANCH   7  12
ENDBRANCH   1   7
BRANCH   3  25
ATOM     25  C16 UNL     1      -3.922   2.568  -1.285  1.00  0.00     0.140 C   
BRANCH  25  26
ATOM     26  C17 UNL     1      -4.649   1.706  -0.247  1.00  0.00     0.077 C   
BRANCH  26  27
ATOM     27  C18 UNL     1      -3.815   1.437   0.983  1.00  0.00     0.045 A   
ATOM     28  C19 UNL     1      -3.744   0.165   1.519  1.00  0.00     0.044 A   
ATOM     29  N4  UNL     1      -3.145   2.482   1.521  1.00  0.00    -0.241 NA  
ATOM     30  C20 UNL     1      -2.910   0.005   2.602  1.00  0.00     0.115 A   
ATOM     31  C21 UNL     1      -2.391   2.217   2.599  1.00  0.00     0.221 A   
ATOM     32  N3  UNL     1      -2.190   1.008   3.138  1.00  0.00    -0.245 NA  
ENDBRANCH  26  27
ENDBRANCH  25  26
ENDBRANCH   3  25
TORSDOF 8
