REMARK SMILES CC(C)[C@H]([NH2+]Cc1ccc2c(c1)OCO2)c1cn(CCc2cc[nH]c2)nn1
REMARK SMILES IDX 16 1 17 2 18 3 26 4 27 5 4 7 2 8 1 9 3 10 5 11 6 14 7 15
REMARK SMILES IDX 8 16 12 17 9 18 11 19 10 20 13 21 15 22 14 23 19 24 20 25
REMARK SMILES IDX 21 26 22 27 25 28 23 29 24 30
REMARK H PARENT 17 6 5 12 5 13 24 31
ROOT
ATOM     1   C13 UNL     1      -0.332   0.014   0.428  1.00  0.00     0.127 A   
ATOM     2   C14 UNL     1      -0.238  -0.589   1.662  1.00  0.00     0.045 A   
ATOM     3   N2  UNL     1       0.965  -1.236   1.620  1.00  0.00    -0.212 N   
ATOM     4   N4  UNL     1       1.607  -0.988   0.463  1.00  0.00    -0.076 NA  
ATOM     5   N5  UNL     1       0.814  -0.238  -0.284  1.00  0.00    -0.132 NA  
ATOM     6   H18 UNL     1      -0.903  -0.662   2.511  1.00  0.00     0.083 HD  
ENDROOT
BRANCH   1   7
ATOM     7   C4  UNL     1      -1.422   0.831  -0.189  1.00  0.00     0.117 C   
BRANCH   7   8
ATOM     8   C2  UNL     1      -2.628  -0.043  -0.626  1.00  0.00     0.037 C   
ATOM     9   C1  UNL     1      -2.316  -0.997  -1.786  1.00  0.00     0.014 C   
ATOM     10  C3  UNL     1      -3.854   0.810  -0.972  1.00  0.00     0.014 C   
ENDBRANCH   7   8
BRANCH   7  11
ATOM     11  N1  UNL     1      -0.891   1.611  -1.362  1.00  0.00     0.249 N   
ATOM     12  H9  UNL     1      -0.272   0.972  -1.883  1.00  0.00     0.199 HD  
ATOM     13  H10 UNL     1      -1.630   1.889  -2.013  1.00  0.00     0.199 HD  
BRANCH  11  14
ATOM     14  C5  UNL     1      -0.079   2.809  -1.010  1.00  0.00     0.164 C   
BRANCH  14  15
ATOM     15  C6  UNL     1       0.490   3.437  -2.250  1.00  0.00    -0.002 A   
ATOM     16  C7  UNL     1       1.713   2.966  -2.785  1.00  0.00     0.012 A   
ATOM     17  C11 UNL     1      -0.212   4.455  -2.917  1.00  0.00     0.045 A   
ATOM     18  C8  UNL     1       2.239   3.508  -3.963  1.00  0.00     0.037 A   
ATOM     19  C10 UNL     1       0.334   4.968  -4.075  1.00  0.00     0.109 A   
ATOM     20  C9  UNL     1       1.524   4.509  -4.584  1.00  0.00     0.108 A   
ATOM     21  O1  UNL     1      -0.212   5.951  -4.838  1.00  0.00    -0.316 OA  
ATOM     22  O2  UNL     1       1.878   5.147  -5.729  1.00  0.00    -0.316 OA  
ATOM     23  C12 UNL     1       0.788   6.081  -5.874  1.00  0.00     0.337 C   
ENDBRANCH  14  15
ENDBRANCH  11  14
ENDBRANCH   7  11
ENDBRANCH   1   7
BRANCH   3  24
ATOM     24  C15 UNL     1       1.549  -2.107   2.619  1.00  0.00     0.139 C   
BRANCH  24  25
ATOM     25  C16 UNL     1       1.316  -3.586   2.315  1.00  0.00     0.058 C   
BRANCH  25  26
ATOM     26  C17 UNL     1      -0.126  -3.981   2.405  1.00  0.00    -0.031 A   
ATOM     27  C18 UNL     1      -1.033  -4.132   1.318  1.00  0.00     0.020 A   
ATOM     28  C20 UNL     1      -0.836  -4.279   3.552  1.00  0.00     0.075 A   
ATOM     29  C19 UNL     1      -2.250  -4.509   1.837  1.00  0.00     0.071 A   
ATOM     30  N3  UNL     1      -2.117  -4.613   3.197  1.00  0.00    -0.327 N   
ATOM     31  H25 UNL     1      -2.845  -4.910   3.836  1.00  0.00     0.152 HD  
ENDBRANCH  25  26
ENDBRANCH  24  25
ENDBRANCH   3  24
TORSDOF 8
