REMARK SMILES Cc1ccc([C@H](O)Cn2cc([C@@H]([NH2+]Cc3ccc4c(c3)OCO4)C3CCCC3)nn2)s1
REMARK SMILES IDX 9 1 10 2 11 3 29 4 30 5 8 7 6 8 5 9 2 10 3 11 31 12 4 13
REMARK SMILES IDX 1 14 7 15 12 17 13 18 14 21 15 22 16 23 20 24 17 25 19 26
REMARK SMILES IDX 18 27 21 28 23 29 22 30 24 31 25 32 28 33 26 34 27 35
REMARK H PARENT 10 6 7 16 13 19 13 20
ROOT
ATOM     1   N1  UNL     1      -0.585  -2.971   0.438  1.00  0.00    -0.209 N   
ATOM     2   C8  UNL     1       0.112  -2.004  -0.233  1.00  0.00     0.045 A   
ATOM     3   C9  UNL     1      -0.260  -0.835   0.390  1.00  0.00     0.127 A   
ATOM     4   N3  UNL     1      -1.194  -1.115   1.354  1.00  0.00    -0.132 NA  
ATOM     5   N4  UNL     1      -1.404  -2.420   1.355  1.00  0.00    -0.076 NA  
ATOM     6   H10 UNL     1       0.805  -2.241  -1.029  1.00  0.00     0.083 HD  
ENDROOT
BRANCH   1   7
ATOM     7   C7  UNL     1      -0.578  -4.403   0.219  1.00  0.00     0.171 C   
BRANCH   7   8
ATOM     8   C6  UNL     1       0.732  -5.096   0.608  1.00  0.00     0.170 C   
BRANCH   8   9
ATOM     9   C5  UNL     1       1.174  -4.824   2.019  1.00  0.00     0.020 A   
ATOM     10  C2  UNL     1       1.439  -4.924   4.476  1.00  0.00    -0.014 A   
ATOM     11  C3  UNL     1       2.222  -3.942   3.908  1.00  0.00     0.011 A   
ATOM     12  S1  UNL     1       0.529  -5.765   3.299  1.00  0.00    -0.097 S   
ATOM     13  C4  UNL     1       2.070  -3.884   2.493  1.00  0.00     0.014 A   
ATOM     14  C1  UNL     1       1.321  -5.300   5.914  1.00  0.00     0.052 C   
ENDBRANCH   8   9
BRANCH   8  15
ATOM     15  O1  UNL     1       1.788  -4.689  -0.270  1.00  0.00    -0.386 OA  
ATOM     16  H7  UNL     1       2.556  -5.250  -0.049  1.00  0.00     0.211 HD  
ENDBRANCH   8  15
ENDBRANCH   7   8
ENDBRANCH   1   7
BRANCH   3  17
ATOM     17  C10 UNL     1       0.168   0.579   0.172  1.00  0.00     0.117 C   
BRANCH  17  18
ATOM     18  N2  UNL     1      -0.898   1.522   0.680  1.00  0.00     0.249 N   
ATOM     19  H12 UNL     1      -0.506   2.439   0.909  1.00  0.00     0.199 HD  
ATOM     20  H13 UNL     1      -1.237   1.109   1.562  1.00  0.00     0.199 HD  
BRANCH  18  21
ATOM     21  C11 UNL     1      -2.089   1.696  -0.201  1.00  0.00     0.164 C   
BRANCH  21  22
ATOM     22  C12 UNL     1      -1.787   2.518  -1.423  1.00  0.00    -0.002 A   
ATOM     23  C13 UNL     1      -1.589   3.916  -1.316  1.00  0.00     0.012 A   
ATOM     24  C17 UNL     1      -1.666   1.897  -2.679  1.00  0.00     0.045 A   
ATOM     25  C14 UNL     1      -1.267   4.685  -2.440  1.00  0.00     0.037 A   
ATOM     26  C16 UNL     1      -1.347   2.684  -3.766  1.00  0.00     0.109 A   
ATOM     27  C15 UNL     1      -1.151   4.038  -3.650  1.00  0.00     0.108 A   
ATOM     28  O2  UNL     1      -1.184   2.242  -5.040  1.00  0.00    -0.316 OA  
ATOM     29  O3  UNL     1      -0.844   4.620  -4.838  1.00  0.00    -0.316 OA  
ATOM     30  C18 UNL     1      -0.894   3.482  -5.725  1.00  0.00     0.337 C   
ENDBRANCH  21  22
ENDBRANCH  18  21
ENDBRANCH  17  18
BRANCH  17  31
ATOM     31  C19 UNL     1       1.516   0.876   0.859  1.00  0.00     0.043 C   
ATOM     32  C20 UNL     1       2.127   2.243   0.495  1.00  0.00     0.010 C   
ATOM     33  C23 UNL     1       1.513   0.842   2.393  1.00  0.00     0.010 C   
ATOM     34  C21 UNL     1       2.712   2.808   1.789  1.00  0.00     0.001 C   
ATOM     35  C22 UNL     1       2.758   1.636   2.756  1.00  0.00     0.001 C   
ENDBRANCH  17  31
ENDBRANCH   3  17
TORSDOF 9
