REMARK SMILES Cc1ccc([C@@H](O)Cn2cc([C@@H]([NH2+]Cc3ccc4c(c3)OCO4)C3CCCC3)nn2)s1
REMARK SMILES IDX 9 1 10 2 11 3 29 4 30 5 8 7 6 8 5 9 2 10 3 11 31 12 4 13
REMARK SMILES IDX 1 14 7 15 12 17 13 18 14 21 15 22 16 23 20 24 17 25 19 26
REMARK SMILES IDX 18 27 21 28 23 29 22 30 24 31 25 32 28 33 26 34 27 35
REMARK H PARENT 10 6 7 16 13 19 13 20
ROOT
ATOM     1   N1  UNL     1       2.413  -2.067   0.937  1.00  0.00    -0.209 N   
ATOM     2   C8  UNL     1       1.100  -1.926   1.292  1.00  0.00     0.045 A   
ATOM     3   C9  UNL     1       0.532  -1.297   0.207  1.00  0.00     0.127 A   
ATOM     4   N3  UNL     1       1.491  -1.101  -0.754  1.00  0.00    -0.132 NA  
ATOM     5   N4  UNL     1       2.636  -1.575  -0.295  1.00  0.00    -0.076 NA  
ATOM     6   H10 UNL     1       0.722  -2.244   2.254  1.00  0.00     0.083 HD  
ENDROOT
BRANCH   1   7
ATOM     7   C7  UNL     1       3.502  -2.590   1.728  1.00  0.00     0.171 C   
BRANCH   7   8
ATOM     8   C6  UNL     1       4.449  -1.497   2.225  1.00  0.00     0.170 C   
BRANCH   8   9
ATOM     9   C5  UNL     1       3.782  -0.551   3.189  1.00  0.00     0.020 A   
ATOM     10  C2  UNL     1       2.702   1.426   4.213  1.00  0.00    -0.014 A   
ATOM     11  C3  UNL     1       2.826   0.380   5.103  1.00  0.00     0.011 A   
ATOM     12  S1  UNL     1       3.323   1.020   2.673  1.00  0.00    -0.097 S   
ATOM     13  C4  UNL     1       3.450  -0.757   4.515  1.00  0.00     0.014 A   
ATOM     14  C1  UNL     1       2.137   2.784   4.457  1.00  0.00     0.052 C   
ENDBRANCH   8   9
BRANCH   8  15
ATOM     15  O1  UNL     1       5.521  -2.119   2.938  1.00  0.00    -0.386 OA  
ATOM     16  H7  UNL     1       6.127  -1.408   3.219  1.00  0.00     0.211 HD  
ENDBRANCH   8  15
ENDBRANCH   7   8
ENDBRANCH   1   7
BRANCH   3  17
ATOM     17  C10 UNL     1      -0.851  -0.780  -0.024  1.00  0.00     0.117 C   
BRANCH  17  18
ATOM     18  N2  UNL     1      -0.791   0.463  -0.869  1.00  0.00     0.249 N   
ATOM     19  H12 UNL     1      -0.123   0.266  -1.631  1.00  0.00     0.199 HD  
ATOM     20  H13 UNL     1      -1.684   0.675  -1.320  1.00  0.00     0.199 HD  
BRANCH  18  21
ATOM     21  C11 UNL     1      -0.295   1.681  -0.167  1.00  0.00     0.164 C   
BRANCH  21  22
ATOM     22  C12 UNL     1      -0.182   2.829  -1.129  1.00  0.00    -0.002 A   
ATOM     23  C13 UNL     1      -1.247   3.748  -1.282  1.00  0.00     0.012 A   
ATOM     24  C17 UNL     1       0.970   2.963  -1.925  1.00  0.00     0.045 A   
ATOM     25  C14 UNL     1      -1.165   4.793  -2.209  1.00  0.00     0.037 A   
ATOM     26  C16 UNL     1       1.017   4.004  -2.829  1.00  0.00     0.109 A   
ATOM     27  C15 UNL     1      -0.020   4.893  -2.967  1.00  0.00     0.108 A   
ATOM     28  O2  UNL     1       2.049   4.273  -3.671  1.00  0.00    -0.316 OA  
ATOM     29  O3  UNL     1       0.229   5.837  -3.912  1.00  0.00    -0.316 OA  
ATOM     30  C18 UNL     1       1.552   5.453  -4.344  1.00  0.00     0.337 C   
ENDBRANCH  21  22
ENDBRANCH  18  21
ENDBRANCH  17  18
BRANCH  17  31
ATOM     31  C19 UNL     1      -1.754  -1.847  -0.672  1.00  0.00     0.043 C   
ATOM     32  C20 UNL     1      -3.239  -1.482  -0.724  1.00  0.00     0.010 C   
ATOM     33  C23 UNL     1      -1.460  -2.196  -2.133  1.00  0.00     0.010 C   
ATOM     34  C21 UNL     1      -3.840  -2.506  -1.684  1.00  0.00     0.001 C   
ATOM     35  C22 UNL     1      -2.692  -2.978  -2.577  1.00  0.00     0.001 C   
ENDBRANCH  17  31
ENDBRANCH   3  17
TORSDOF 9
