REMARK SMILES Cc1cc(CCn2cc([C@@H]([NH2+]Cc3ccc4c(c3)OCO4)C3CCCC3)nn2)ccc1F
REMARK SMILES IDX 7 1 8 2 9 3 27 4 28 5 6 7 5 8 4 9 2 10 3 11 31 12 30 13
REMARK SMILES IDX 29 14 1 15 32 16 10 17 11 18 12 21 13 22 14 23 18 24 15 25
REMARK SMILES IDX 17 26 16 27 19 28 21 29 20 30 22 31 23 32 26 33 24 34 25 35
REMARK H PARENT 8 6 11 19 11 20
ROOT
ATOM     1   N1  UNL     1       2.176   0.503   1.803  1.00  0.00    -0.212 N   
ATOM     2   C7  UNL     1       0.905   0.335   1.333  1.00  0.00     0.045 A   
ATOM     3   C8  UNL     1       0.761   1.338   0.401  1.00  0.00     0.127 A   
ATOM     4   N3  UNL     1       1.905   2.093   0.372  1.00  0.00    -0.132 NA  
ATOM     5   N4  UNL     1       2.757   1.581   1.246  1.00  0.00    -0.076 NA  
ATOM     6   H9  UNL     1       0.264  -0.470   1.667  1.00  0.00     0.083 HD  
ENDROOT
BRANCH   1   7
ATOM     7   C6  UNL     1       2.885  -0.298   2.779  1.00  0.00     0.139 C   
BRANCH   7   8
ATOM     8   C5  UNL     1       3.808  -1.338   2.141  1.00  0.00     0.057 C   
BRANCH   8   9
ATOM     9   C4  UNL     1       3.058  -2.389   1.354  1.00  0.00    -0.046 A   
ATOM     10  C2  UNL     1       2.398  -3.341  -0.792  1.00  0.00    -0.015 A   
ATOM     11  C3  UNL     1       3.117  -2.395  -0.050  1.00  0.00     0.010 A   
ATOM     12  C25 UNL     1       1.631  -4.286  -0.111  1.00  0.00     0.126 A   
ATOM     13  C24 UNL     1       1.569  -4.301   1.278  1.00  0.00     0.040 A   
ATOM     14  C23 UNL     1       2.284  -3.356   2.012  1.00  0.00     0.007 A   
ATOM     15  C1  UNL     1       2.478  -3.379  -2.288  1.00  0.00     0.047 C   
ATOM     16  F1  UNL     1       0.932  -5.200  -0.799  1.00  0.00    -0.207 F   
ENDBRANCH   8   9
ENDBRANCH   7   8
ENDBRANCH   1   7
BRANCH   3  17
ATOM     17  C9  UNL     1      -0.388   1.705  -0.481  1.00  0.00     0.117 C   
BRANCH  17  18
ATOM     18  N2  UNL     1      -0.502   3.212  -0.577  1.00  0.00     0.249 N   
ATOM     19  H11 UNL     1      -1.166   3.477  -1.308  1.00  0.00     0.199 HD  
ATOM     20  H12 UNL     1       0.426   3.552  -0.864  1.00  0.00     0.199 HD  
BRANCH  18  21
ATOM     21  C10 UNL     1      -0.868   3.933   0.679  1.00  0.00     0.164 C   
BRANCH  21  22
ATOM     22  C11 UNL     1      -2.263   3.620   1.145  1.00  0.00    -0.002 A   
ATOM     23  C12 UNL     1      -3.383   4.179   0.483  1.00  0.00     0.012 A   
ATOM     24  C16 UNL     1      -2.465   2.736   2.218  1.00  0.00     0.045 A   
ATOM     25  C13 UNL     1      -4.685   3.858   0.880  1.00  0.00     0.037 A   
ATOM     26  C15 UNL     1      -3.761   2.439   2.582  1.00  0.00     0.109 A   
ATOM     27  C14 UNL     1      -4.841   2.982   1.931  1.00  0.00     0.108 A   
ATOM     28  O1  UNL     1      -4.127   1.597   3.583  1.00  0.00    -0.316 OA  
ATOM     29  O2  UNL     1      -6.024   2.553   2.442  1.00  0.00    -0.316 OA  
ATOM     30  C17 UNL     1      -5.569   1.693   3.509  1.00  0.00     0.337 C   
ENDBRANCH  21  22
ENDBRANCH  18  21
ENDBRANCH  17  18
BRANCH  17  31
ATOM     31  C18 UNL     1      -0.213   1.143  -1.908  1.00  0.00     0.043 C   
ATOM     32  C19 UNL     1      -0.171  -0.388  -1.954  1.00  0.00     0.010 C   
ATOM     33  C22 UNL     1      -1.376   1.445  -2.858  1.00  0.00     0.010 C   
ATOM     34  C20 UNL     1      -0.445  -0.739  -3.412  1.00  0.00     0.001 C   
ATOM     35  C21 UNL     1      -1.194   0.453  -4.001  1.00  0.00     0.001 C   
ENDBRANCH  17  31
ENDBRANCH   3  17
TORSDOF 8
