REMARK SMILES COc1ccc(Cn2cc([C@@H]([NH2+]Cc3ccc4c(c3)OCO4)C(C)C)nn2)cc1C
REMARK SMILES IDX 8 1 9 2 10 3 26 4 27 5 7 7 6 8 3 9 4 10 29 11 5 12 28 13
REMARK SMILES IDX 30 14 2 15 1 16 11 17 12 18 13 21 14 22 15 23 19 24 16 25
REMARK SMILES IDX 18 26 17 27 20 28 22 29 21 30 23 31 24 32 25 33
REMARK H PARENT 9 6 12 19 12 20
ROOT
ATOM     1   N1  UNL     1      -2.997   1.539   0.591  1.00  0.00    -0.208 N   
ATOM     2   C7  UNL     1      -2.850   0.189   0.416  1.00  0.00     0.046 A   
ATOM     3   C8  UNL     1      -2.022  -0.192   1.449  1.00  0.00     0.127 A   
ATOM     4   N3  UNL     1      -1.704   0.911   2.201  1.00  0.00    -0.132 NA  
ATOM     5   N4  UNL     1      -2.304   1.962   1.667  1.00  0.00    -0.076 NA  
ATOM     6   H8  UNL     1      -3.311  -0.340  -0.406  1.00  0.00     0.083 HD  
ENDROOT
BRANCH   1   7
ATOM     7   C6  UNL     1      -3.744   2.478  -0.230  1.00  0.00     0.169 C   
BRANCH   7   8
ATOM     8   C5  UNL     1      -3.034   2.732  -1.536  1.00  0.00    -0.028 A   
ATOM     9   C2  UNL     1      -1.671   3.178  -3.966  1.00  0.00     0.077 A   
ATOM     10  C3  UNL     1      -2.842   2.417  -3.939  1.00  0.00     0.034 A   
ATOM     11  C22 UNL     1      -1.175   3.728  -2.770  1.00  0.00    -0.020 A   
ATOM     12  C4  UNL     1      -3.519   2.197  -2.735  1.00  0.00     0.008 A   
ATOM     13  C21 UNL     1      -1.859   3.499  -1.566  1.00  0.00     0.011 A   
ATOM     14  C23 UNL     1       0.079   4.562  -2.769  1.00  0.00     0.047 C   
BRANCH   9  15
ATOM     15  O1  UNL     1      -0.930   3.437  -5.088  1.00  0.00    -0.349 OA  
ATOM     16  C1  UNL     1      -1.477   3.041  -6.341  1.00  0.00     0.203 C   
ENDBRANCH   9  15
ENDBRANCH   7   8
ENDBRANCH   1   7
BRANCH   3  17
ATOM     17  C9  UNL     1      -1.406  -1.511   1.787  1.00  0.00     0.117 C   
BRANCH  17  18
ATOM     18  N2  UNL     1      -0.034  -1.295   2.379  1.00  0.00     0.249 N   
ATOM     19  H10 UNL     1       0.288  -2.117   2.899  1.00  0.00     0.199 HD  
ATOM     20  H11 UNL     1      -0.127  -0.532   3.066  1.00  0.00     0.199 HD  
BRANCH  18  21
ATOM     21  C10 UNL     1       1.021  -0.883   1.411  1.00  0.00     0.164 C   
BRANCH  21  22
ATOM     22  C11 UNL     1       2.302  -0.582   2.135  1.00  0.00    -0.002 A   
ATOM     23  C12 UNL     1       2.518   0.704   2.689  1.00  0.00     0.012 A   
ATOM     24  C16 UNL     1       3.267  -1.587   2.320  1.00  0.00     0.045 A   
ATOM     25  C13 UNL     1       3.683   0.989   3.409  1.00  0.00     0.037 A   
ATOM     26  C15 UNL     1       4.404  -1.271   3.034  1.00  0.00     0.109 A   
ATOM     27  C14 UNL     1       4.607  -0.021   3.563  1.00  0.00     0.108 A   
ATOM     28  O2  UNL     1       5.429  -2.122   3.302  1.00  0.00    -0.316 OA  
ATOM     29  O3  UNL     1       5.785   0.074   4.232  1.00  0.00    -0.316 OA  
ATOM     30  C17 UNL     1       6.312  -1.258   4.053  1.00  0.00     0.337 C   
ENDBRANCH  21  22
ENDBRANCH  18  21
ENDBRANCH  17  18
BRANCH  17  31
ATOM     31  C18 UNL     1      -2.237  -2.369   2.776  1.00  0.00     0.037 C   
ATOM     32  C19 UNL     1      -2.458  -1.716   4.145  1.00  0.00     0.014 C   
ATOM     33  C20 UNL     1      -3.587  -2.777   2.174  1.00  0.00     0.014 C   
ENDBRANCH  17  31
ENDBRANCH   3  17
TORSDOF 8
