REMARK SMILES COc1cccc(F)c1Cn1cc([C@@H]([NH2+]Cc2ccc3c(c2)OCO3)C2CCCC2)nn1
REMARK SMILES IDX 11 1 12 2 13 3 31 4 32 5 10 7 9 8 3 9 4 10 5 11 7 12 6 13
REMARK SMILES IDX 8 14 2 15 1 16 14 17 15 18 16 21 17 22 18 23 22 24 19 25
REMARK SMILES IDX 21 26 20 27 23 28 25 29 24 30 26 31 27 32 30 33 28 34 29 35
REMARK H PARENT 12 6 15 19 15 20
ROOT
ATOM     1   N1  UNL     1       1.281   2.376  -0.998  1.00  0.00    -0.208 N   
ATOM     2   C9  UNL     1       1.248   1.326  -1.877  1.00  0.00     0.046 A   
ATOM     3   C10 UNL     1       0.216   0.539  -1.420  1.00  0.00     0.127 A   
ATOM     4   N3  UNL     1      -0.336   1.122  -0.308  1.00  0.00    -0.132 NA  
ATOM     5   N4  UNL     1       0.323   2.241  -0.059  1.00  0.00    -0.076 NA  
ATOM     6   H9  UNL     1       1.937   1.247  -2.706  1.00  0.00     0.083 HD  
ENDROOT
BRANCH   1   7
ATOM     7   C8  UNL     1       2.150   3.541  -1.025  1.00  0.00     0.175 C   
BRANCH   7   8
ATOM     8   C7  UNL     1       3.362   3.343  -0.156  1.00  0.00     0.037 A   
ATOM     9   C2  UNL     1       3.454   3.899   1.132  1.00  0.00     0.082 A   
ATOM     10  C3  UNL     1       4.607   3.684   1.897  1.00  0.00     0.034 A   
ATOM     11  C4  UNL     1       5.663   2.918   1.394  1.00  0.00     0.006 A   
ATOM     12  C6  UNL     1       4.429   2.573  -0.634  1.00  0.00     0.130 A   
ATOM     13  C5  UNL     1       5.572   2.357   0.125  1.00  0.00     0.040 A   
ATOM     14  F1  UNL     1       4.349   2.020  -1.853  1.00  0.00    -0.207 F   
BRANCH   9  15
ATOM     15  O1  UNL     1       2.372   4.631   1.542  1.00  0.00    -0.349 OA  
ATOM     16  C1  UNL     1       2.418   5.206   2.844  1.00  0.00     0.203 C   
ENDBRANCH   9  15
ENDBRANCH   7   8
ENDBRANCH   1   7
BRANCH   3  17
ATOM     17  C11 UNL     1      -0.332  -0.762  -1.911  1.00  0.00     0.117 C   
BRANCH  17  18
ATOM     18  N2  UNL     1      -1.014  -1.484  -0.781  1.00  0.00     0.249 N   
ATOM     19  H11 UNL     1      -1.724  -2.145  -1.107  1.00  0.00     0.199 HD  
ATOM     20  H12 UNL     1      -1.522  -0.764  -0.242  1.00  0.00     0.199 HD  
BRANCH  18  21
ATOM     21  C12 UNL     1      -0.103  -2.171   0.175  1.00  0.00     0.164 C   
BRANCH  21  22
ATOM     22  C13 UNL     1      -0.886  -2.736   1.326  1.00  0.00    -0.002 A   
ATOM     23  C14 UNL     1      -1.107  -1.956   2.487  1.00  0.00     0.012 A   
ATOM     24  C18 UNL     1      -1.459  -4.017   1.230  1.00  0.00     0.045 A   
ATOM     25  C15 UNL     1      -1.875  -2.449   3.547  1.00  0.00     0.037 A   
ATOM     26  C17 UNL     1      -2.215  -4.470   2.292  1.00  0.00     0.109 A   
ATOM     27  C16 UNL     1      -2.416  -3.709   3.418  1.00  0.00     0.108 A   
ATOM     28  O2  UNL     1      -2.843  -5.673   2.357  1.00  0.00    -0.316 OA  
ATOM     29  O3  UNL     1      -3.190  -4.341   4.337  1.00  0.00    -0.316 OA  
ATOM     30  C19 UNL     1      -3.463  -5.587   3.660  1.00  0.00     0.337 C   
ENDBRANCH  21  22
ENDBRANCH  18  21
ENDBRANCH  17  18
BRANCH  17  31
ATOM     31  C20 UNL     1      -1.303  -0.559  -3.090  1.00  0.00     0.043 C   
ATOM     32  C21 UNL     1      -2.646   0.097  -2.756  1.00  0.00     0.010 C   
ATOM     33  C24 UNL     1      -1.710  -1.851  -3.812  1.00  0.00     0.010 C   
ATOM     34  C22 UNL     1      -3.457  -0.149  -4.018  1.00  0.00     0.001 C   
ATOM     35  C23 UNL     1      -3.061  -1.552  -4.467  1.00  0.00     0.001 C   
ENDBRANCH  17  31
ENDBRANCH   3  17
TORSDOF 8
