REMARK SMILES CC(C)Cc1n[nH]cc1Cn1cc([C@@H]([NH2+]Cc2ccc3c(c2)OCO3)C(C)C)nn1
REMARK SMILES IDX 11 1 12 2 13 3 29 4 30 5 10 7 9 8 5 9 6 10 7 11 8 12 4 14
REMARK SMILES IDX 2 15 1 16 3 17 14 18 15 19 16 22 17 23 18 24 22 25 19 26
REMARK SMILES IDX 21 27 20 28 23 29 25 30 24 31 26 32 27 33 28 34
REMARK H PARENT 12 6 7 13 15 20 15 21
ROOT
ATOM     1   N3  UNL     1      -1.089  -1.576   1.141  1.00  0.00    -0.208 N   
ATOM     2   C9  UNL     1      -1.961  -1.159   0.171  1.00  0.00     0.046 A   
ATOM     3   C10 UNL     1      -1.460   0.061  -0.228  1.00  0.00     0.127 A   
ATOM     4   N5  UNL     1      -0.360   0.363   0.532  1.00  0.00    -0.132 NA  
ATOM     5   N6  UNL     1      -0.158  -0.631   1.381  1.00  0.00    -0.076 NA  
ATOM     6   H14 UNL     1      -2.793  -1.767  -0.157  1.00  0.00     0.083 HD  
ENDROOT
BRANCH   1   7
ATOM     7   C8  UNL     1      -1.088  -2.827   1.885  1.00  0.00     0.172 C   
BRANCH   7   8
ATOM     8   C7  UNL     1      -0.972  -3.993   0.965  1.00  0.00     0.010 A   
ATOM     9   C5  UNL     1       0.177  -4.441   0.250  1.00  0.00     0.065 A   
ATOM     10  N1  UNL     1      -0.103  -5.505  -0.511  1.00  0.00    -0.189 NA  
ATOM     11  N2  UNL     1      -1.383  -5.788  -0.239  1.00  0.00    -0.245 N   
ATOM     12  C6  UNL     1      -1.956  -4.900   0.623  1.00  0.00     0.099 A   
ATOM     13  H10 UNL     1      -1.800  -6.601  -0.682  1.00  0.00     0.175 HD  
BRANCH   9  14
ATOM     14  C4  UNL     1       1.567  -3.880   0.247  1.00  0.00     0.061 C   
BRANCH  14  15
ATOM     15  C2  UNL     1       2.579  -4.740   1.028  1.00  0.00    -0.011 C   
ATOM     16  C1  UNL     1       2.289  -4.745   2.532  1.00  0.00     0.008 C   
ATOM     17  C3  UNL     1       4.001  -4.229   0.780  1.00  0.00     0.008 C   
ENDBRANCH  14  15
ENDBRANCH   9  14
ENDBRANCH   7   8
ENDBRANCH   1   7
BRANCH   3  18
ATOM     18  C11 UNL     1      -1.915   1.016  -1.288  1.00  0.00     0.117 C   
BRANCH  18  19
ATOM     19  N4  UNL     1      -1.276   2.365  -1.092  1.00  0.00     0.249 N   
ATOM     20  H16 UNL     1      -1.255   2.914  -1.957  1.00  0.00     0.199 HD  
ATOM     21  H17 UNL     1      -0.291   2.193  -0.837  1.00  0.00     0.199 HD  
BRANCH  19  22
ATOM     22  C12 UNL     1      -1.870   3.197  -0.008  1.00  0.00     0.164 C   
BRANCH  22  23
ATOM     23  C13 UNL     1      -1.095   4.474   0.156  1.00  0.00    -0.002 A   
ATOM     24  C14 UNL     1       0.030   4.516   1.014  1.00  0.00     0.012 A   
ATOM     25  C18 UNL     1      -1.444   5.616  -0.585  1.00  0.00     0.045 A   
ATOM     26  C15 UNL     1       0.789   5.684   1.147  1.00  0.00     0.037 A   
ATOM     27  C17 UNL     1      -0.674   6.750  -0.432  1.00  0.00     0.109 A   
ATOM     28  C16 UNL     1       0.410   6.785   0.410  1.00  0.00     0.108 A   
ATOM     29  O1  UNL     1      -0.875   7.933  -1.071  1.00  0.00    -0.316 OA  
ATOM     30  O2  UNL     1       1.027   7.995   0.411  1.00  0.00    -0.316 OA  
ATOM     31  C19 UNL     1       0.193   8.731  -0.509  1.00  0.00     0.337 C   
ENDBRANCH  22  23
ENDBRANCH  19  22
ENDBRANCH  18  19
BRANCH  18  32
ATOM     32  C20 UNL     1      -1.622   0.487  -2.717  1.00  0.00     0.037 C   
ATOM     33  C21 UNL     1      -0.128   0.417  -3.059  1.00  0.00     0.014 C   
ATOM     34  C22 UNL     1      -2.362   1.300  -3.787  1.00  0.00     0.014 C   
ENDBRANCH  18  32
ENDBRANCH   3  18
TORSDOF 9
