REMARK SMILES CC(C)C[C@H]([NH2+]Cc1ccc2c(c1)OCO2)c1cn(Cc2cnn3cc[nH]c23)nn1
REMARK SMILES IDX 17 1 18 2 19 3 29 4 30 5 5 7 4 8 2 9 1 10 3 11 6 12 7 15
REMARK SMILES IDX 8 16 9 17 13 18 10 19 12 20 11 21 14 22 16 23 15 24 20 25
REMARK SMILES IDX 21 26 22 27 28 28 23 29 24 30 27 31 25 32 26 33
REMARK H PARENT 18 6 6 13 6 14 27 34
ROOT
ATOM     1   C14 UNL     1      -0.370   2.228   0.296  1.00  0.00     0.127 A   
ATOM     2   C15 UNL     1      -1.474   1.881   1.042  1.00  0.00     0.046 A   
ATOM     3   N2  UNL     1      -2.350   2.912   0.830  1.00  0.00    -0.208 N   
ATOM     4   N6  UNL     1      -1.798   3.857   0.044  1.00  0.00    -0.076 NA  
ATOM     5   N7  UNL     1      -0.581   3.453  -0.282  1.00  0.00    -0.132 NA  
ATOM     6   H20 UNL     1      -1.740   1.004   1.615  1.00  0.00     0.083 HD  
ENDROOT
BRANCH   1   7
ATOM     7   C5  UNL     1       0.867   1.457  -0.025  1.00  0.00     0.114 C   
BRANCH   7   8
ATOM     8   C4  UNL     1       2.069   1.989   0.783  1.00  0.00     0.064 C   
BRANCH   8   9
ATOM     9   C2  UNL     1       3.408   1.247   0.588  1.00  0.00    -0.012 C   
ATOM     10  C1  UNL     1       3.305  -0.245   0.907  1.00  0.00     0.007 C   
ATOM     11  C3  UNL     1       4.484   1.890   1.468  1.00  0.00     0.007 C   
ENDBRANCH   8   9
ENDBRANCH   7   8
BRANCH   7  12
ATOM     12  N1  UNL     1       1.190   1.540  -1.500  1.00  0.00     0.249 N   
ATOM     13  H11 UNL     1       1.352   2.533  -1.712  1.00  0.00     0.199 HD  
ATOM     14  H12 UNL     1       2.057   1.036  -1.698  1.00  0.00     0.199 HD  
BRANCH  12  15
ATOM     15  C6  UNL     1       0.134   1.058  -2.447  1.00  0.00     0.164 C   
BRANCH  15  16
ATOM     16  C7  UNL     1      -0.301  -0.360  -2.199  1.00  0.00    -0.002 A   
ATOM     17  C8  UNL     1      -1.626  -0.629  -1.774  1.00  0.00     0.012 A   
ATOM     18  C12 UNL     1       0.601  -1.425  -2.364  1.00  0.00     0.045 A   
ATOM     19  C9  UNL     1      -2.043  -1.934  -1.497  1.00  0.00     0.037 A   
ATOM     20  C11 UNL     1       0.156  -2.700  -2.083  1.00  0.00     0.109 A   
ATOM     21  C10 UNL     1      -1.127  -2.949  -1.660  1.00  0.00     0.108 A   
ATOM     22  O1  UNL     1       0.899  -3.834  -2.182  1.00  0.00    -0.316 OA  
ATOM     23  O2  UNL     1      -1.352  -4.269  -1.438  1.00  0.00    -0.316 OA  
ATOM     24  C13 UNL     1      -0.077  -4.834  -1.810  1.00  0.00     0.337 C   
ENDBRANCH  15  16
ENDBRANCH  12  15
ENDBRANCH   7  12
ENDBRANCH   1   7
BRANCH   3  25
ATOM     25  C16 UNL     1      -3.756   2.976   1.198  1.00  0.00     0.174 C   
BRANCH  25  26
ATOM     26  C17 UNL     1      -4.527   2.084   0.301  1.00  0.00     0.030 A   
ATOM     27  C18 UNL     1      -4.899   2.312  -1.058  1.00  0.00     0.140 A   
ATOM     28  C21 UNL     1      -5.004   0.825   0.522  1.00  0.00     0.120 A   
ATOM     29  N3  UNL     1      -5.521   1.270  -1.632  1.00  0.00    -0.184 NA  
ATOM     30  N4  UNL     1      -5.614   0.381  -0.634  1.00  0.00    -0.185 N   
ATOM     31  N5  UNL     1      -5.118  -0.158   1.450  1.00  0.00    -0.306 N   
ATOM     32  C19 UNL     1      -6.154  -0.874  -0.406  1.00  0.00     0.118 A   
ATOM     33  C20 UNL     1      -5.870  -1.185   0.876  1.00  0.00     0.091 A   
ATOM     34  H26 UNL     1      -5.115  -0.055   2.462  1.00  0.00     0.154 HD  
ENDBRANCH  25  26
ENDBRANCH   3  25
TORSDOF 8
