REMARK SMILES COc1ccc(F)cc1Cn1cc([C@@H]([NH2+]Cc2ccc3c(c2)OCO3)C2CCCC2)nn1
REMARK SMILES IDX 11 1 12 2 13 3 31 4 32 5 10 7 9 8 3 9 4 10 5 11 8 12 6 13
REMARK SMILES IDX 7 14 2 15 1 16 14 17 15 18 16 21 17 22 18 23 22 24 19 25
REMARK SMILES IDX 21 26 20 27 23 28 25 29 24 30 26 31 27 32 30 33 28 34 29 35
REMARK H PARENT 12 6 15 19 15 20
ROOT
ATOM     1   N1  UNL     1       1.284  -2.151   2.304  1.00  0.00    -0.208 N   
ATOM     2   C9  UNL     1       0.529  -1.015   2.197  1.00  0.00     0.046 A   
ATOM     3   C10 UNL     1      -0.548  -1.403   1.434  1.00  0.00     0.127 A   
ATOM     4   N3  UNL     1      -0.432  -2.735   1.131  1.00  0.00    -0.132 NA  
ATOM     5   N4  UNL     1       0.693  -3.181   1.665  1.00  0.00    -0.076 NA  
ATOM     6   H9  UNL     1       0.841  -0.073   2.627  1.00  0.00     0.083 HD  
ENDROOT
BRANCH   1   7
ATOM     7   C8  UNL     1       2.571  -2.319   2.955  1.00  0.00     0.172 C   
BRANCH   7   8
ATOM     8   C7  UNL     1       3.696  -1.972   2.009  1.00  0.00     0.005 A   
ATOM     9   C2  UNL     1       4.210  -0.662   1.921  1.00  0.00     0.080 A   
ATOM     10  C3  UNL     1       5.241  -0.379   1.016  1.00  0.00     0.037 A   
ATOM     11  C4  UNL     1       5.762  -1.389   0.202  1.00  0.00     0.042 A   
ATOM     12  C6  UNL     1       4.226  -2.975   1.178  1.00  0.00     0.047 A   
ATOM     13  C5  UNL     1       5.249  -2.675   0.288  1.00  0.00     0.123 A   
ATOM     14  F1  UNL     1       5.740  -3.638  -0.502  1.00  0.00    -0.207 F   
BRANCH   9  15
ATOM     15  O1  UNL     1       3.622   0.267   2.740  1.00  0.00    -0.349 OA  
ATOM     16  C1  UNL     1       4.295   1.516   2.887  1.00  0.00     0.203 C   
ENDBRANCH   9  15
ENDBRANCH   7   8
ENDBRANCH   1   7
BRANCH   3  17
ATOM     17  C11 UNL     1      -1.684  -0.615   0.873  1.00  0.00     0.117 C   
BRANCH  17  18
ATOM     18  N2  UNL     1      -2.011  -1.084  -0.527  1.00  0.00     0.249 N   
ATOM     19  H11 UNL     1      -2.160  -2.101  -0.465  1.00  0.00     0.199 HD  
ATOM     20  H12 UNL     1      -2.884  -0.666  -0.855  1.00  0.00     0.199 HD  
BRANCH  18  21
ATOM     21  C12 UNL     1      -0.949  -0.881  -1.561  1.00  0.00     0.164 C   
BRANCH  21  22
ATOM     22  C13 UNL     1      -0.555   0.558  -1.741  1.00  0.00    -0.002 A   
ATOM     23  C14 UNL     1       0.715   1.006  -1.300  1.00  0.00     0.012 A   
ATOM     24  C18 UNL     1      -1.451   1.475  -2.317  1.00  0.00     0.045 A   
ATOM     25  C15 UNL     1       1.086   2.349  -1.422  1.00  0.00     0.037 A   
ATOM     26  C17 UNL     1      -1.052   2.792  -2.422  1.00  0.00     0.109 A   
ATOM     27  C16 UNL     1       0.178   3.218  -1.985  1.00  0.00     0.108 A   
ATOM     28  O2  UNL     1      -1.796   3.802  -2.945  1.00  0.00    -0.316 OA  
ATOM     29  O3  UNL     1       0.364   4.549  -2.179  1.00  0.00    -0.316 OA  
ATOM     30  C19 UNL     1      -0.873   4.909  -2.831  1.00  0.00     0.337 C   
ENDBRANCH  21  22
ENDBRANCH  18  21
ENDBRANCH  17  18
BRANCH  17  31
ATOM     31  C20 UNL     1      -2.933  -0.686   1.776  1.00  0.00     0.043 C   
ATOM     32  C21 UNL     1      -3.668  -2.029   1.831  1.00  0.00     0.010 C   
ATOM     33  C24 UNL     1      -4.034   0.328   1.419  1.00  0.00     0.010 C   
ATOM     34  C22 UNL     1      -5.001  -1.653   2.459  1.00  0.00     0.001 C   
ATOM     35  C23 UNL     1      -5.363  -0.343   1.774  1.00  0.00     0.001 C   
ENDBRANCH  17  31
ENDBRANCH   3  17
TORSDOF 8
