REMARK SMILES CC(C)(C)[C@H]([NH2+]Cc1ccc2c(c1)OCO2)c1cn(Cc2c(F)cncc2Cl)nn1
REMARK SMILES IDX 17 1 18 2 19 3 29 4 30 5 5 7 2 8 1 9 3 10 4 11 6 12 7 15
REMARK SMILES IDX 8 16 9 17 13 18 10 19 12 20 11 21 14 22 16 23 15 24 20 25
REMARK SMILES IDX 21 26 22 27 27 28 24 29 26 30 25 31 23 32 28 33
REMARK H PARENT 18 6 6 13 6 14
ROOT
ATOM     1   C14 UNL     1      -0.953  -0.218   1.419  1.00  0.00     0.127 A   
ATOM     2   C15 UNL     1      -0.809   1.147   1.538  1.00  0.00     0.046 A   
ATOM     3   N2  UNL     1       0.183   1.294   2.470  1.00  0.00    -0.208 N   
ATOM     4   N4  UNL     1       0.628   0.095   2.890  1.00  0.00    -0.076 NA  
ATOM     5   N5  UNL     1      -0.055  -0.839   2.251  1.00  0.00    -0.132 NA  
ATOM     6   H20 UNL     1      -1.288   1.992   1.061  1.00  0.00     0.083 HD  
ENDROOT
BRANCH   1   7
ATOM     7   C5  UNL     1      -1.813  -1.060   0.526  1.00  0.00     0.120 C   
BRANCH   7   8
ATOM     8   C2  UNL     1      -3.214  -1.424   1.127  1.00  0.00     0.010 C   
ATOM     9   C1  UNL     1      -4.016  -0.134   1.416  1.00  0.00     0.017 C   
ATOM     10  C3  UNL     1      -3.115  -2.231   2.436  1.00  0.00     0.017 C   
ATOM     11  C4  UNL     1      -4.034  -2.243   0.103  1.00  0.00     0.017 C   
ENDBRANCH   7   8
BRANCH   7  12
ATOM     12  N1  UNL     1      -1.031  -2.316   0.182  1.00  0.00     0.250 N   
ATOM     13  H11 UNL     1      -1.558  -3.161   0.409  1.00  0.00     0.199 HD  
ATOM     14  H12 UNL     1      -0.229  -2.334   0.832  1.00  0.00     0.199 HD  
BRANCH  12  15
ATOM     15  C6  UNL     1      -0.508  -2.413  -1.206  1.00  0.00     0.164 C   
BRANCH  15  16
ATOM     16  C7  UNL     1       0.456  -1.321  -1.580  1.00  0.00    -0.002 A   
ATOM     17  C8  UNL     1       0.104  -0.376  -2.577  1.00  0.00     0.012 A   
ATOM     18  C12 UNL     1       1.713  -1.228  -0.955  1.00  0.00     0.045 A   
ATOM     19  C9  UNL     1       0.988   0.643  -2.948  1.00  0.00     0.037 A   
ATOM     20  C11 UNL     1       2.565  -0.217  -1.351  1.00  0.00     0.109 A   
ATOM     21  C10 UNL     1       2.213   0.692  -2.320  1.00  0.00     0.108 A   
ATOM     22  O1  UNL     1       3.818   0.000  -0.867  1.00  0.00    -0.316 OA  
ATOM     23  O2  UNL     1       3.199   1.592  -2.569  1.00  0.00    -0.316 OA  
ATOM     24  C13 UNL     1       4.253   1.083  -1.721  1.00  0.00     0.337 C   
ENDBRANCH  15  16
ENDBRANCH  12  15
ENDBRANCH   7  12
ENDBRANCH   1   7
BRANCH   3  25
ATOM     25  C16 UNL     1       0.734   2.525   3.010  1.00  0.00     0.174 C   
BRANCH  25  26
ATOM     26  C17 UNL     1       1.922   2.985   2.213  1.00  0.00     0.029 A   
ATOM     27  C18 UNL     1       1.709   3.708   1.034  1.00  0.00     0.147 A   
ATOM     28  C21 UNL     1       3.248   2.707   2.568  1.00  0.00     0.067 A   
ATOM     29  C19 UNL     1       2.787   4.134   0.276  1.00  0.00     0.150 A   
ATOM     30  C20 UNL     1       4.273   3.174   1.749  1.00  0.00     0.132 A   
ATOM     31  N3  UNL     1       4.073   3.881   0.608  1.00  0.00    -0.260 NA  
ATOM     32  F1  UNL     1       0.461   3.985   0.632  1.00  0.00    -0.205 F   
ATOM     33  CL1 UNL     1       3.664   1.812   3.979  1.00  0.00    -0.082 Cl  
ENDBRANCH  25  26
ENDBRANCH   3  25
TORSDOF 7
