REMARK SMILES Cn1ccc2cc(Cn3cc([C@@H]([NH2+]Cc4ccc5c(c4)OCO5)C4CCCC4)nn3)ccc21
REMARK SMILES IDX 9 1 10 2 11 3 29 4 30 5 8 7 7 8 2 9 3 10 33 11 4 12 5 13
REMARK SMILES IDX 32 14 6 15 31 16 1 17 12 18 13 19 14 22 15 23 16 24 20 25
REMARK SMILES IDX 17 26 19 27 18 28 21 29 23 30 22 31 24 32 25 33 28 34 26 35
REMARK SMILES IDX 27 36
REMARK H PARENT 10 6 13 20 13 21
ROOT
ATOM     1   N2  UNL     1      -0.667  -2.873  -0.003  1.00  0.00    -0.208 N   
ATOM     2   C8  UNL     1       0.103  -1.916  -0.606  1.00  0.00     0.046 A   
ATOM     3   C9  UNL     1       1.143  -1.723   0.275  1.00  0.00     0.127 A   
ATOM     4   N4  UNL     1       1.012  -2.595   1.324  1.00  0.00    -0.132 NA  
ATOM     5   N5  UNL     1      -0.096  -3.294   1.142  1.00  0.00    -0.076 NA  
ATOM     6   H9  UNL     1      -0.196  -1.425  -1.521  1.00  0.00     0.083 HD  
ENDROOT
BRANCH   1   7
ATOM     7   C7  UNL     1      -2.011  -3.293  -0.366  1.00  0.00     0.169 C   
BRANCH   7   8
ATOM     8   C6  UNL     1      -2.992  -2.194  -0.035  1.00  0.00    -0.028 A   
ATOM     9   N1  UNL     1      -5.457   1.063   0.684  1.00  0.00    -0.310 N   
ATOM     10  C2  UNL     1      -5.510   1.658  -0.549  1.00  0.00     0.075 A   
ATOM     11  C26 UNL     1      -4.664  -0.065   0.635  1.00  0.00     0.040 A   
ATOM     12  C3  UNL     1      -4.759   0.900  -1.417  1.00  0.00     0.025 A   
ATOM     13  C4  UNL     1      -4.217  -0.188  -0.682  1.00  0.00    -0.002 A   
ATOM     14  C25 UNL     1      -4.309  -0.987   1.630  1.00  0.00     0.025 A   
ATOM     15  C5  UNL     1      -3.378  -1.268  -1.022  1.00  0.00     0.015 A   
ATOM     16  C24 UNL     1      -3.466  -2.045   1.275  1.00  0.00     0.007 A   
ATOM     17  C1  UNL     1      -6.137   1.555   1.862  1.00  0.00     0.136 C   
ENDBRANCH   7   8
ENDBRANCH   1   7
BRANCH   3  18
ATOM     18  C10 UNL     1       2.206  -0.677   0.302  1.00  0.00     0.117 C   
BRANCH  18  19
ATOM     19  N3  UNL     1       2.356  -0.114   1.702  1.00  0.00     0.249 N   
ATOM     20  H11 UNL     1       2.591  -0.909   2.313  1.00  0.00     0.199 HD  
ATOM     21  H12 UNL     1       3.141   0.542   1.731  1.00  0.00     0.199 HD  
BRANCH  19  22
ATOM     22  C11 UNL     1       1.143   0.533   2.297  1.00  0.00     0.164 C   
BRANCH  22  23
ATOM     23  C12 UNL     1       0.596   1.667   1.478  1.00  0.00    -0.002 A   
ATOM     24  C13 UNL     1      -0.660   1.537   0.837  1.00  0.00     0.012 A   
ATOM     25  C17 UNL     1       1.330   2.854   1.323  1.00  0.00     0.045 A   
ATOM     26  C14 UNL     1      -1.170   2.563   0.036  1.00  0.00     0.037 A   
ATOM     27  C16 UNL     1       0.801   3.844   0.521  1.00  0.00     0.109 A   
ATOM     28  C15 UNL     1      -0.409   3.701  -0.109  1.00  0.00     0.108 A   
ATOM     29  O1  UNL     1       1.389   5.038   0.251  1.00  0.00    -0.316 OA  
ATOM     30  O2  UNL     1      -0.735   4.786  -0.858  1.00  0.00    -0.316 OA  
ATOM     31  C18 UNL     1       0.408   5.636  -0.628  1.00  0.00     0.337 C   
ENDBRANCH  22  23
ENDBRANCH  19  22
ENDBRANCH  18  19
BRANCH  18  32
ATOM     32  C19 UNL     1       3.595  -1.148  -0.169  1.00  0.00     0.043 C   
ATOM     33  C20 UNL     1       3.637  -1.667  -1.609  1.00  0.00     0.010 C   
ATOM     34  C23 UNL     1       4.236  -2.298   0.608  1.00  0.00     0.010 C   
ATOM     35  C21 UNL     1       4.969  -2.408  -1.713  1.00  0.00     0.001 C   
ATOM     36  C22 UNL     1       5.400  -2.723  -0.280  1.00  0.00     0.001 C   
ENDBRANCH  18  32
ENDBRANCH   3  18
TORSDOF 7
