REMARK SMILES Cn1cnc(Cl)c1CCn1cc([C@@H]([NH2+]Cc2ccc3c(c2)OCO3)C2CCCCC2)nn1
REMARK SMILES IDX 10 1 11 2 12 3 31 4 32 5 9 7 8 8 7 9 2 10 3 11 4 12 5 13
REMARK SMILES IDX 1 14 6 15 13 16 14 17 15 20 16 21 17 22 21 23 18 24 20 25
REMARK SMILES IDX 19 26 22 27 24 28 23 29 25 30 26 31 30 32 27 33 29 34 28 35
REMARK H PARENT 11 6 14 18 14 19
ROOT
ATOM     1   N3  UNL     1      -2.893  -1.818  -1.059  1.00  0.00    -0.212 N   
ATOM     2   C7  UNL     1      -2.557  -0.492  -0.967  1.00  0.00     0.045 A   
ATOM     3   C8  UNL     1      -1.226  -0.478  -1.317  1.00  0.00     0.127 A   
ATOM     4   N5  UNL     1      -0.872  -1.715  -1.793  1.00  0.00    -0.132 NA  
ATOM     5   N6  UNL     1      -1.925  -2.512  -1.688  1.00  0.00    -0.076 NA  
ATOM     6   H9  UNL     1      -3.203   0.237  -0.500  1.00  0.00     0.083 HD  
ENDROOT
BRANCH   1   7
ATOM     7   C6  UNL     1      -3.891  -2.495  -0.253  1.00  0.00     0.140 C   
BRANCH   7   8
ATOM     8   C5  UNL     1      -3.327  -3.371   0.889  1.00  0.00     0.076 C   
BRANCH   8   9
ATOM     9   C4  UNL     1      -1.951  -2.994   1.364  1.00  0.00     0.050 A   
ATOM     10  N1  UNL     1      -0.836  -3.784   1.185  1.00  0.00    -0.296 N   
ATOM     11  C2  UNL     1       0.259  -3.053   1.558  1.00  0.00     0.190 A   
ATOM     12  N2  UNL     1      -0.075  -1.838   1.937  1.00  0.00    -0.227 NA  
ATOM     13  C3  UNL     1      -1.457  -1.848   1.961  1.00  0.00     0.147 A   
ATOM     14  C1  UNL     1      -0.789  -5.134   0.666  1.00  0.00     0.137 C   
ATOM     15  CL1 UNL     1      -2.344  -0.502   2.507  1.00  0.00    -0.061 Cl  
ENDBRANCH   8   9
ENDBRANCH   7   8
ENDBRANCH   1   7
BRANCH   3  16
ATOM     16  C9  UNL     1      -0.185   0.563  -1.046  1.00  0.00     0.117 C   
BRANCH  16  17
ATOM     17  N4  UNL     1       0.894  -0.080  -0.209  1.00  0.00     0.249 N   
ATOM     18  H11 UNL     1       1.289  -0.858  -0.747  1.00  0.00     0.199 HD  
ATOM     19  H12 UNL     1       0.425  -0.562   0.584  1.00  0.00     0.199 HD  
BRANCH  17  20
ATOM     20  C10 UNL     1       1.960   0.766   0.376  1.00  0.00     0.164 C   
BRANCH  20  21
ATOM     21  C11 UNL     1       1.445   1.771   1.367  1.00  0.00    -0.002 A   
ATOM     22  C12 UNL     1       1.114   1.366   2.683  1.00  0.00     0.012 A   
ATOM     23  C16 UNL     1       1.255   3.114   0.991  1.00  0.00     0.045 A   
ATOM     24  C13 UNL     1       0.611   2.281   3.617  1.00  0.00     0.037 A   
ATOM     25  C15 UNL     1       0.748   3.988   1.931  1.00  0.00     0.109 A   
ATOM     26  C14 UNL     1       0.440   3.584   3.210  1.00  0.00     0.108 A   
ATOM     27  O1  UNL     1       0.499   5.309   1.728  1.00  0.00    -0.316 OA  
ATOM     28  O2  UNL     1      -0.026   4.604   3.975  1.00  0.00    -0.316 OA  
ATOM     29  C17 UNL     1       0.023   5.701   3.036  1.00  0.00     0.337 C   
ENDBRANCH  20  21
ENDBRANCH  17  20
ENDBRANCH  16  17
BRANCH  16  30
ATOM     30  C18 UNL     1       0.392   1.238  -2.317  1.00  0.00     0.043 C   
ATOM     31  C19 UNL     1       1.145   0.293  -3.272  1.00  0.00     0.010 C   
ATOM     32  C23 UNL     1      -0.707   2.002  -3.085  1.00  0.00     0.010 C   
ATOM     33  C20 UNL     1       1.706   1.044  -4.481  1.00  0.00     0.001 C   
ATOM     34  C22 UNL     1      -0.133   2.760  -4.279  1.00  0.00     0.001 C   
ATOM     35  C21 UNL     1       0.623   1.827  -5.219  1.00  0.00     0.000 C   
ENDBRANCH  16  30
ENDBRANCH   3  16
TORSDOF 8
