REMARK SMILES CC(C)C[C@H]([NH2+]Cc1ccc2c(c1)OCO2)c1cn(C[C@H](O)c2cccc(F)c2)nn1
REMARK SMILES IDX 17 1 18 2 19 3 30 4 31 5 5 7 4 8 2 9 1 10 3 11 6 12 7 15
REMARK SMILES IDX 8 16 9 17 13 18 10 19 12 20 11 21 14 22 16 23 15 24 20 25
REMARK SMILES IDX 21 26 22 27 23 29 24 30 29 31 25 32 27 33 26 34 28 35
REMARK H PARENT 18 6 6 13 6 14 22 28
ROOT
ATOM     1   C14 UNL     1      -0.341  -0.179  -0.712  1.00  0.00     0.127 A   
ATOM     2   C15 UNL     1      -0.347  -0.986   0.405  1.00  0.00     0.045 A   
ATOM     3   N2  UNL     1      -1.145  -0.320   1.293  1.00  0.00    -0.209 N   
ATOM     4   N3  UNL     1      -1.615   0.821   0.757  1.00  0.00    -0.076 NA  
ATOM     5   N4  UNL     1      -1.145   0.911  -0.475  1.00  0.00    -0.132 NA  
ATOM     6   H20 UNL     1       0.128  -1.925   0.653  1.00  0.00     0.083 HD  
ENDROOT
BRANCH   1   7
ATOM     7   C5  UNL     1       0.333  -0.321  -2.043  1.00  0.00     0.114 C   
BRANCH   7   8
ATOM     8   C4  UNL     1       1.762  -0.888  -1.958  1.00  0.00     0.064 C   
BRANCH   8   9
ATOM     9   C2  UNL     1       2.488  -1.092  -3.305  1.00  0.00    -0.012 C   
ATOM     10  C1  UNL     1       1.752  -2.070  -4.222  1.00  0.00     0.007 C   
ATOM     11  C3  UNL     1       3.912  -1.595  -3.050  1.00  0.00     0.007 C   
ENDBRANCH   8   9
ENDBRANCH   7   8
BRANCH   7  12
ATOM     12  N1  UNL     1       0.303   0.979  -2.802  1.00  0.00     0.249 N   
ATOM     13  H11 UNL     1       0.473   0.832  -3.801  1.00  0.00     0.199 HD  
ATOM     14  H12 UNL     1      -0.669   1.313  -2.730  1.00  0.00     0.199 HD  
BRANCH  12  15
ATOM     15  C6  UNL     1       1.154   2.097  -2.301  1.00  0.00     0.164 C   
BRANCH  15  16
ATOM     16  C7  UNL     1       0.784   3.379  -2.994  1.00  0.00    -0.002 A   
ATOM     17  C8  UNL     1      -0.256   4.188  -2.475  1.00  0.00     0.012 A   
ATOM     18  C12 UNL     1       1.420   3.749  -4.190  1.00  0.00     0.045 A   
ATOM     19  C9  UNL     1      -0.651   5.358  -3.133  1.00  0.00     0.037 A   
ATOM     20  C11 UNL     1       1.005   4.908  -4.813  1.00  0.00     0.109 A   
ATOM     21  C10 UNL     1      -0.001   5.690  -4.300  1.00  0.00     0.108 A   
ATOM     22  O1  UNL     1       1.510   5.405  -5.972  1.00  0.00    -0.316 OA  
ATOM     23  O2  UNL     1      -0.254   6.779  -5.071  1.00  0.00    -0.316 OA  
ATOM     24  C13 UNL     1       0.725   6.610  -6.119  1.00  0.00     0.337 C   
ENDBRANCH  15  16
ENDBRANCH  12  15
ENDBRANCH   7  12
ENDBRANCH   1   7
BRANCH   3  25
ATOM     25  C16 UNL     1      -1.519  -0.717   2.636  1.00  0.00     0.170 C   
BRANCH  25  26
ATOM     26  C17 UNL     1      -0.551  -0.145   3.675  1.00  0.00     0.164 C   
BRANCH  26  27
ATOM     27  O3  UNL     1       0.715  -0.809   3.568  1.00  0.00    -0.387 OA  
ATOM     28  H24 UNL     1       1.158  -0.733   4.434  1.00  0.00     0.211 HD  
ENDBRANCH  26  27
BRANCH  26  29
ATOM     29  C18 UNL     1      -1.080  -0.310   5.084  1.00  0.00    -0.015 A   
ATOM     30  C19 UNL     1      -1.471   0.813   5.830  1.00  0.00     0.006 A   
ATOM     31  C23 UNL     1      -1.201  -1.581   5.669  1.00  0.00     0.045 A   
ATOM     32  C20 UNL     1      -1.967   0.670   7.130  1.00  0.00     0.003 A   
ATOM     33  C22 UNL     1      -1.695  -1.711   6.963  1.00  0.00     0.123 A   
ATOM     34  C21 UNL     1      -2.078  -0.598   7.699  1.00  0.00     0.039 A   
ATOM     35  F1  UNL     1      -1.799  -2.930   7.506  1.00  0.00    -0.207 F   
ENDBRANCH  26  29
ENDBRANCH  25  26
ENDBRANCH   3  25
TORSDOF 10
