REMARK SMILES CC(C)C[C@H]([NH2+]Cc1ccc2c(c1)OCO2)c1cn(C[C@@H](O)c2cccc(F)c2)nn1
REMARK SMILES IDX 17 1 18 2 19 3 30 4 31 5 5 7 4 8 2 9 1 10 3 11 6 12 7 15
REMARK SMILES IDX 8 16 9 17 13 18 10 19 12 20 11 21 14 22 16 23 15 24 20 25
REMARK SMILES IDX 21 26 22 27 23 29 24 30 29 31 25 32 27 33 26 34 28 35
REMARK H PARENT 18 6 6 13 6 14 22 28
ROOT
ATOM     1   C14 UNL     1       0.506  -0.153  -1.227  1.00  0.00     0.127 A   
ATOM     2   C15 UNL     1       0.173   0.604  -2.330  1.00  0.00     0.045 A   
ATOM     3   N2  UNL     1       0.990   1.696  -2.241  1.00  0.00    -0.209 N   
ATOM     4   N3  UNL     1       1.787   1.616  -1.162  1.00  0.00    -0.076 NA  
ATOM     5   N4  UNL     1       1.504   0.485  -0.534  1.00  0.00    -0.132 NA  
ATOM     6   H20 UNL     1      -0.537   0.474  -3.135  1.00  0.00     0.083 HD  
ENDROOT
BRANCH   1   7
ATOM     7   C5  UNL     1       0.002  -1.478  -0.751  1.00  0.00     0.114 C   
BRANCH   7   8
ATOM     8   C4  UNL     1      -1.516  -1.513  -0.478  1.00  0.00     0.064 C   
BRANCH   8   9
ATOM     9   C2  UNL     1      -2.049  -0.884   0.831  1.00  0.00    -0.012 C   
ATOM     10  C1  UNL     1      -1.768   0.613   0.946  1.00  0.00     0.007 C   
ATOM     11  C3  UNL     1      -3.562  -1.123   0.920  1.00  0.00     0.007 C   
ENDBRANCH   8   9
ENDBRANCH   7   8
BRANCH   7  12
ATOM     12  N1  UNL     1       0.787  -1.931   0.445  1.00  0.00     0.249 N   
ATOM     13  H11 UNL     1       1.779  -1.735   0.240  1.00  0.00     0.199 HD  
ATOM     14  H12 UNL     1       0.596  -1.306   1.238  1.00  0.00     0.199 HD  
BRANCH  12  15
ATOM     15  C6  UNL     1       0.656  -3.352   0.843  1.00  0.00     0.164 C   
BRANCH  15  16
ATOM     16  C7  UNL     1       1.567  -3.677   1.992  1.00  0.00    -0.002 A   
ATOM     17  C8  UNL     1       2.814  -4.308   1.764  1.00  0.00     0.012 A   
ATOM     18  C12 UNL     1       1.200  -3.321   3.304  1.00  0.00     0.045 A   
ATOM     19  C9  UNL     1       3.679  -4.596   2.826  1.00  0.00     0.037 A   
ATOM     20  C11 UNL     1       2.078  -3.615   4.327  1.00  0.00     0.109 A   
ATOM     21  C10 UNL     1       3.282  -4.236   4.096  1.00  0.00     0.108 A   
ATOM     22  O1  UNL     1       1.877  -3.337   5.644  1.00  0.00    -0.316 OA  
ATOM     23  O2  UNL     1       3.990  -4.433   5.238  1.00  0.00    -0.316 OA  
ATOM     24  C13 UNL     1       3.093  -3.867   6.222  1.00  0.00     0.337 C   
ENDBRANCH  15  16
ENDBRANCH  12  15
ENDBRANCH   7  12
ENDBRANCH   1   7
BRANCH   3  25
ATOM     25  C16 UNL     1       1.082   2.817  -3.147  1.00  0.00     0.170 C   
BRANCH  25  26
ATOM     26  C17 UNL     1       0.555   4.127  -2.551  1.00  0.00     0.164 C   
BRANCH  26  27
ATOM     27  O3  UNL     1       0.727   5.164  -3.520  1.00  0.00    -0.387 OA  
ATOM     28  H24 UNL     1       0.181   5.923  -3.244  1.00  0.00     0.211 HD  
ENDBRANCH  26  27
BRANCH  26  29
ATOM     29  C18 UNL     1      -0.905   4.074  -2.153  1.00  0.00    -0.015 A   
ATOM     30  C19 UNL     1      -1.278   4.225  -0.807  1.00  0.00     0.006 A   
ATOM     31  C23 UNL     1      -1.911   3.880  -3.113  1.00  0.00     0.045 A   
ATOM     32  C20 UNL     1      -2.623   4.181  -0.429  1.00  0.00     0.003 A   
ATOM     33  C22 UNL     1      -3.246   3.828  -2.723  1.00  0.00     0.123 A   
ATOM     34  C21 UNL     1      -3.611   3.978  -1.391  1.00  0.00     0.039 A   
ATOM     35  F1  UNL     1      -4.192   3.628  -3.649  1.00  0.00    -0.207 F   
ENDBRANCH  26  29
ENDBRANCH  25  26
ENDBRANCH   3  25
TORSDOF 10
