REMARK SMILES Cc1ccc([C@@H](CO)n2cc([C@@H]([NH2+]Cc3ccc4c(c3)OCO4)C3CCCCC3)nn2)cc1F
REMARK SMILES IDX 9 1 10 2 11 3 30 4 31 5 6 7 5 8 2 9 3 10 33 11 4 12 32 13
REMARK SMILES IDX 1 14 34 15 7 16 8 17 12 19 13 20 14 23 15 24 16 25 20 26
REMARK SMILES IDX 17 27 19 28 18 29 21 30 23 31 22 32 24 33 25 34 29 35 26 36
REMARK SMILES IDX 28 37 27 38
REMARK H PARENT 10 6 8 18 13 21 13 22
ROOT
ATOM     1   N1  UNL     1       0.504  -1.408  -1.772  1.00  0.00    -0.202 N   
ATOM     2   C8  UNL     1       0.455  -0.210  -1.110  1.00  0.00     0.046 A   
ATOM     3   C9  UNL     1       1.456  -0.302  -0.172  1.00  0.00     0.127 A   
ATOM     4   N3  UNL     1       2.030  -1.544  -0.246  1.00  0.00    -0.132 NA  
ATOM     5   N4  UNL     1       1.453  -2.206  -1.235  1.00  0.00    -0.075 NA  
ATOM     6   H10 UNL     1      -0.255   0.563  -1.367  1.00  0.00     0.083 HD  
ENDROOT
BRANCH   1   7
ATOM     7   C6  UNL     1      -0.322  -1.896  -2.874  1.00  0.00     0.155 C   
BRANCH   7   8
ATOM     8   C5  UNL     1      -1.699  -2.300  -2.363  1.00  0.00    -0.020 A   
ATOM     9   C2  UNL     1      -4.218  -3.169  -1.393  1.00  0.00    -0.015 A   
ATOM     10  C3  UNL     1      -4.055  -1.872  -1.897  1.00  0.00     0.007 A   
ATOM     11  C26 UNL     1      -3.106  -4.009  -1.351  1.00  0.00     0.126 A   
ATOM     12  C4  UNL     1      -2.809  -1.441  -2.373  1.00  0.00     0.006 A   
ATOM     13  C25 UNL     1      -1.866  -3.591  -1.827  1.00  0.00     0.045 A   
ATOM     14  C1  UNL     1      -5.542  -3.645  -0.878  1.00  0.00     0.047 C   
ATOM     15  F1  UNL     1      -3.218  -5.247  -0.846  1.00  0.00    -0.207 F   
ENDBRANCH   7   8
BRANCH   7  16
ATOM     16  C7  UNL     1      -0.272  -0.987  -4.122  1.00  0.00     0.185 C   
BRANCH  16  17
ATOM     17  O1  UNL     1      -0.721   0.348  -3.888  1.00  0.00    -0.394 OA  
ATOM     18  H9  UNL     1      -0.728   0.800  -4.753  1.00  0.00     0.210 HD  
ENDBRANCH  16  17
ENDBRANCH   7  16
ENDBRANCH   1   7
BRANCH   3  19
ATOM     19  C10 UNL     1       1.911   0.647   0.886  1.00  0.00     0.117 C   
BRANCH  19  20
ATOM     20  N2  UNL     1       2.263  -0.140   2.135  1.00  0.00     0.249 N   
ATOM     21  H12 UNL     1       3.161   0.168   2.518  1.00  0.00     0.199 HD  
ATOM     22  H13 UNL     1       2.415  -1.113   1.822  1.00  0.00     0.199 HD  
BRANCH  20  23
ATOM     23  C11 UNL     1       1.248  -0.141   3.225  1.00  0.00     0.164 C   
BRANCH  23  24
ATOM     24  C12 UNL     1      -0.099  -0.677   2.829  1.00  0.00    -0.002 A   
ATOM     25  C13 UNL     1      -0.265  -2.043   2.499  1.00  0.00     0.012 A   
ATOM     26  C17 UNL     1      -1.211   0.185   2.785  1.00  0.00     0.045 A   
ATOM     27  C14 UNL     1      -1.520  -2.548   2.140  1.00  0.00     0.037 A   
ATOM     28  C16 UNL     1      -2.434  -0.347   2.435  1.00  0.00     0.109 A   
ATOM     29  C15 UNL     1      -2.585  -1.676   2.125  1.00  0.00     0.108 A   
ATOM     30  O2  UNL     1      -3.604   0.340   2.366  1.00  0.00    -0.316 OA  
ATOM     31  O3  UNL     1      -3.872  -1.995   1.832  1.00  0.00    -0.316 OA  
ATOM     32  C18 UNL     1      -4.524  -0.725   2.034  1.00  0.00     0.337 C   
ENDBRANCH  23  24
ENDBRANCH  20  23
ENDBRANCH  19  20
BRANCH  19  33
ATOM     33  C19 UNL     1       3.135   1.513   0.482  1.00  0.00     0.043 C   
ATOM     34  C20 UNL     1       2.781   2.496  -0.651  1.00  0.00     0.010 C   
ATOM     35  C24 UNL     1       4.393   0.707   0.102  1.00  0.00     0.010 C   
ATOM     36  C21 UNL     1       3.955   3.418  -0.977  1.00  0.00     0.001 C   
ATOM     37  C23 UNL     1       5.568   1.628  -0.230  1.00  0.00     0.001 C   
ATOM     38  C22 UNL     1       5.212   2.628  -1.325  1.00  0.00     0.000 C   
ENDBRANCH  19  33
ENDBRANCH   3  19
TORSDOF 9
