REMARK SMILES Nc1ccccc1-n1cc([C@@H]([NH2+]Cc2ccc3c(c2)OCO3)C2CCCCC2)nn1
REMARK SMILES IDX 8 1 9 2 10 3 29 4 30 5 7 6 2 7 3 8 4 9 6 10 5 11 1 12 11 15
REMARK SMILES IDX 12 16 13 19 14 20 15 21 19 22 16 23 18 24 17 25 20 26 22 27
REMARK SMILES IDX 21 28 23 29 24 30 28 31 25 32 27 33 26 34
REMARK H PARENT 1 13 1 14 12 17 12 18
ROOT
ATOM     1   N2  UNL     1       0.760   2.916   1.879  1.00  0.00    -0.179 N   
ATOM     2   C7  UNL     1       0.921   1.545   1.778  1.00  0.00     0.135 A   
ATOM     3   C8  UNL     1       0.264   1.177   0.630  1.00  0.00     0.127 A   
ATOM     4   N4  UNL     1      -0.278   2.288   0.048  1.00  0.00    -0.131 NA  
ATOM     5   N5  UNL     1       0.023   3.329   0.804  1.00  0.00    -0.071 NA  
ENDROOT
BRANCH   1   6
ATOM     6   C6  UNL     1       1.187   3.834   2.880  1.00  0.00     0.078 A   
ATOM     7   C1  UNL     1       1.961   3.454   4.001  1.00  0.00     0.047 A   
ATOM     8   C2  UNL     1       2.316   4.442   4.938  1.00  0.00     0.025 A   
ATOM     9   C3  UNL     1       1.871   5.761   4.812  1.00  0.00     0.002 A   
ATOM     10  C5  UNL     1       0.758   5.175   2.758  1.00  0.00     0.028 A   
ATOM     11  C4  UNL     1       1.091   6.128   3.720  1.00  0.00     0.002 A   
BRANCH   7  12
ATOM     12  N1  UNL     1       2.609   2.203   4.114  1.00  0.00    -0.357 N   
ATOM     13  H1  UNL     1       2.800   1.982   5.094  1.00  0.00     0.143 HD  
ATOM     14  H2  UNL     1       3.515   2.254   3.642  1.00  0.00     0.143 HD  
ENDBRANCH   7  12
ENDBRANCH   1   6
BRANCH   3  15
ATOM     15  C9  UNL     1       0.058  -0.166   0.008  1.00  0.00     0.117 C   
BRANCH  15  16
ATOM     16  N3  UNL     1      -1.274  -0.233  -0.683  1.00  0.00     0.249 N   
ATOM     17  H9  UNL     1      -1.362   0.614  -1.267  1.00  0.00     0.199 HD  
ATOM     18  H10 UNL     1      -1.331  -1.032  -1.319  1.00  0.00     0.199 HD  
BRANCH  16  19
ATOM     19  C10 UNL     1      -2.458  -0.255   0.223  1.00  0.00     0.164 C   
BRANCH  19  20
ATOM     20  C11 UNL     1      -3.708  -0.605  -0.536  1.00  0.00    -0.002 A   
ATOM     21  C12 UNL     1      -4.594   0.413  -0.964  1.00  0.00     0.012 A   
ATOM     22  C16 UNL     1      -3.990  -1.947  -0.854  1.00  0.00     0.045 A   
ATOM     23  C13 UNL     1      -5.758   0.098  -1.677  1.00  0.00     0.037 A   
ATOM     24  C15 UNL     1      -5.146  -2.220  -1.554  1.00  0.00     0.109 A   
ATOM     25  C14 UNL     1      -6.008  -1.229  -1.952  1.00  0.00     0.108 A   
ATOM     26  O1  UNL     1      -5.566  -3.456  -1.934  1.00  0.00    -0.316 OA  
ATOM     27  O2  UNL     1      -7.085  -1.718  -2.625  1.00  0.00    -0.316 OA  
ATOM     28  C17 UNL     1      -6.826  -3.136  -2.570  1.00  0.00     0.337 C   
ENDBRANCH  19  20
ENDBRANCH  16  19
ENDBRANCH  15  16
BRANCH  15  29
ATOM     29  C18 UNL     1       1.204  -0.541  -0.971  1.00  0.00     0.043 C   
ATOM     30  C19 UNL     1       1.177  -2.038  -1.340  1.00  0.00     0.010 C   
ATOM     31  C23 UNL     1       1.238   0.312  -2.251  1.00  0.00     0.010 C   
ATOM     32  C20 UNL     1       2.360  -2.415  -2.228  1.00  0.00     0.001 C   
ATOM     33  C22 UNL     1       2.417  -0.067  -3.146  1.00  0.00     0.001 C   
ATOM     34  C21 UNL     1       2.412  -1.554  -3.485  1.00  0.00     0.000 C   
ENDBRANCH  15  29
ENDBRANCH   3  15
TORSDOF 7
