REMARK SMILES Cc1c[nH]c(C)c1[C@H](CO)n1cc([C@H](CC(C)C)[NH2+]Cc2ccc3c(c2)OCO3)nn1
REMARK SMILES IDX 11 1 12 2 13 3 30 4 31 5 8 7 7 8 2 9 3 10 4 11 5 12 1 13
REMARK SMILES IDX 6 15 9 16 10 17 14 19 15 20 16 21 17 22 18 23 19 24 20 27
REMARK SMILES IDX 21 28 22 29 26 30 23 31 25 32 24 33 27 34 29 35 28 36
REMARK H PARENT 12 6 4 14 10 18 19 25 19 26
ROOT
ATOM     1   N2  UNL     1       0.856   1.631  -0.807  1.00  0.00    -0.202 N   
ATOM     2   C9  UNL     1       0.751   0.969   0.391  1.00  0.00     0.046 A   
ATOM     3   C10 UNL     1       1.445  -0.202   0.188  1.00  0.00     0.127 A   
ATOM     4   N4  UNL     1       1.937  -0.223  -1.091  1.00  0.00    -0.132 NA  
ATOM     5   N5  UNL     1       1.574   0.899  -1.688  1.00  0.00    -0.075 NA  
ATOM     6   H13 UNL     1       0.200   1.377   1.227  1.00  0.00     0.083 HD  
ENDROOT
BRANCH   1   7
ATOM     7   C7  UNL     1       0.319   2.948  -1.149  1.00  0.00     0.157 C   
BRANCH   7   8
ATOM     8   C6  UNL     1      -0.843   2.814  -2.116  1.00  0.00    -0.002 A   
ATOM     9   C2  UNL     1      -2.233   2.803  -1.737  1.00  0.00    -0.030 A   
ATOM     10  C3  UNL     1      -2.967   2.675  -2.896  1.00  0.00     0.075 A   
ATOM     11  N1  UNL     1      -2.107   2.615  -3.952  1.00  0.00    -0.324 N   
ATOM     12  C4  UNL     1      -0.812   2.695  -3.503  1.00  0.00     0.009 A   
ATOM     13  C1  UNL     1      -2.797   2.915  -0.365  1.00  0.00     0.046 C   
ATOM     14  H5  UNL     1      -2.387   2.537  -4.921  1.00  0.00     0.152 HD  
ATOM     15  C5  UNL     1       0.316   2.658  -4.474  1.00  0.00     0.062 C   
ENDBRANCH   7   8
BRANCH   7  16
ATOM     16  C8  UNL     1       1.419   3.922  -1.594  1.00  0.00     0.186 C   
BRANCH  16  17
ATOM     17  O1  UNL     1       2.209   4.324  -0.466  1.00  0.00    -0.394 OA  
ATOM     18  H12 UNL     1       2.872   4.958  -0.799  1.00  0.00     0.210 HD  
ENDBRANCH  16  17
ENDBRANCH   7  16
ENDBRANCH   1   7
BRANCH   3  19
ATOM     19  C11 UNL     1       1.655  -1.396   1.055  1.00  0.00     0.114 C   
BRANCH  19  20
ATOM     20  C12 UNL     1       3.069  -1.443   1.663  1.00  0.00     0.064 C   
BRANCH  20  21
ATOM     21  C13 UNL     1       3.408  -0.282   2.624  1.00  0.00    -0.012 C   
ATOM     22  C14 UNL     1       2.474  -0.235   3.834  1.00  0.00     0.007 C   
ATOM     23  C15 UNL     1       4.857  -0.413   3.100  1.00  0.00     0.007 C   
ENDBRANCH  20  21
ENDBRANCH  19  20
BRANCH  19  24
ATOM     24  N3  UNL     1       1.492  -2.642   0.199  1.00  0.00     0.249 N   
ATOM     25  H24 UNL     1       2.242  -3.313   0.393  1.00  0.00     0.199 HD  
ATOM     26  H25 UNL     1       1.647  -2.334  -0.775  1.00  0.00     0.199 HD  
BRANCH  24  27
ATOM     27  C16 UNL     1       0.179  -3.339   0.279  1.00  0.00     0.164 C   
BRANCH  27  28
ATOM     28  C17 UNL     1      -1.014  -2.485  -0.048  1.00  0.00    -0.002 A   
ATOM     29  C18 UNL     1      -1.171  -1.917  -1.336  1.00  0.00     0.012 A   
ATOM     30  C22 UNL     1      -1.996  -2.249   0.931  1.00  0.00     0.045 A   
ATOM     31  C19 UNL     1      -2.279  -1.119  -1.643  1.00  0.00     0.037 A   
ATOM     32  C21 UNL     1      -3.081  -1.467   0.592  1.00  0.00     0.109 A   
ATOM     33  C20 UNL     1      -3.221  -0.920  -0.659  1.00  0.00     0.108 A   
ATOM     34  O2  UNL     1      -4.113  -1.150   1.415  1.00  0.00    -0.316 OA  
ATOM     35  O3  UNL     1      -4.364  -0.196  -0.783  1.00  0.00    -0.316 OA  
ATOM     36  C23 UNL     1      -4.946  -0.374   0.524  1.00  0.00     0.337 C   
ENDBRANCH  27  28
ENDBRANCH  24  27
ENDBRANCH  19  24
ENDBRANCH   3  19
TORSDOF 10
