REMARK SMILES Cc1c[nH]c(C)c1[C@@H](CO)n1cc([C@H](CC(C)C)[NH2+]Cc2ccc3c(c2)OCO3)nn1
REMARK SMILES IDX 11 1 12 2 13 3 30 4 31 5 8 7 7 8 2 9 3 10 4 11 5 12 1 13
REMARK SMILES IDX 6 15 9 16 10 17 14 19 15 20 16 21 17 22 18 23 19 24 20 27
REMARK SMILES IDX 21 28 22 29 26 30 23 31 25 32 24 33 27 34 29 35 28 36
REMARK H PARENT 12 6 4 14 10 18 19 25 19 26
ROOT
ATOM     1   N2  UNL     1       1.291   2.045  -0.716  1.00  0.00    -0.202 N   
ATOM     2   C9  UNL     1       0.312   2.086   0.246  1.00  0.00     0.046 A   
ATOM     3   C10 UNL     1      -0.531   1.048  -0.084  1.00  0.00     0.127 A   
ATOM     4   N4  UNL     1      -0.064   0.436  -1.220  1.00  0.00    -0.132 NA  
ATOM     5   N5  UNL     1       1.048   1.045  -1.591  1.00  0.00    -0.075 NA  
ATOM     6   H13 UNL     1       0.325   2.814   1.045  1.00  0.00     0.083 HD  
ENDROOT
BRANCH   1   7
ATOM     7   C7  UNL     1       2.475   2.901  -0.817  1.00  0.00     0.157 C   
BRANCH   7   8
ATOM     8   C6  UNL     1       3.708   2.134  -0.377  1.00  0.00    -0.002 A   
ATOM     9   C2  UNL     1       4.274   2.170   0.949  1.00  0.00    -0.030 A   
ATOM     10  C3  UNL     1       5.380   1.347   0.939  1.00  0.00     0.075 A   
ATOM     11  N1  UNL     1       5.524   0.826  -0.314  1.00  0.00    -0.324 N   
ATOM     12  C4  UNL     1       4.515   1.281  -1.127  1.00  0.00     0.009 A   
ATOM     13  C1  UNL     1       3.790   2.950   2.121  1.00  0.00     0.046 C   
ATOM     14  H5  UNL     1       6.268   0.201  -0.599  1.00  0.00     0.152 HD  
ATOM     15  C5  UNL     1       4.454   0.847  -2.550  1.00  0.00     0.062 C   
ENDBRANCH   7   8
BRANCH   7  16
ATOM     16  C8  UNL     1       2.590   3.579  -2.188  1.00  0.00     0.186 C   
BRANCH  16  17
ATOM     17  O1  UNL     1       1.612   4.620  -2.307  1.00  0.00    -0.394 OA  
ATOM     18  H12 UNL     1       1.761   5.052  -3.168  1.00  0.00     0.210 HD  
ENDBRANCH  16  17
ENDBRANCH   7  16
ENDBRANCH   1   7
BRANCH   3  19
ATOM     19  C11 UNL     1      -1.757   0.493   0.568  1.00  0.00     0.114 C   
BRANCH  19  20
ATOM     20  C12 UNL     1      -1.966   0.945   2.023  1.00  0.00     0.064 C   
BRANCH  20  21
ATOM     21  C13 UNL     1      -3.208   0.373   2.740  1.00  0.00    -0.012 C   
ATOM     22  C14 UNL     1      -4.511   0.730   2.024  1.00  0.00     0.007 C   
ATOM     23  C15 UNL     1      -3.252   0.888   4.182  1.00  0.00     0.007 C   
ENDBRANCH  20  21
ENDBRANCH  19  20
BRANCH  19  24
ATOM     24  N3  UNL     1      -1.765  -1.008   0.453  1.00  0.00     0.249 N   
ATOM     25  H24 UNL     1      -1.620  -1.206  -0.548  1.00  0.00     0.199 HD  
ATOM     26  H25 UNL     1      -2.686  -1.395   0.681  1.00  0.00     0.199 HD  
BRANCH  24  27
ATOM     27  C16 UNL     1      -0.699  -1.758   1.177  1.00  0.00     0.164 C   
BRANCH  27  28
ATOM     28  C17 UNL     1      -0.807  -3.228   0.884  1.00  0.00    -0.002 A   
ATOM     29  C18 UNL     1      -0.152  -3.777  -0.246  1.00  0.00     0.012 A   
ATOM     30  C22 UNL     1      -1.599  -4.056   1.696  1.00  0.00     0.045 A   
ATOM     31  C19 UNL     1      -0.273  -5.136  -0.554  1.00  0.00     0.037 A   
ATOM     32  C21 UNL     1      -1.696  -5.390   1.363  1.00  0.00     0.109 A   
ATOM     33  C20 UNL     1      -1.052  -5.916   0.271  1.00  0.00     0.108 A   
ATOM     34  O2  UNL     1      -2.416  -6.322   2.040  1.00  0.00    -0.316 OA  
ATOM     35  O3  UNL     1      -1.282  -7.247   0.124  1.00  0.00    -0.316 OA  
ATOM     36  C23 UNL     1      -2.131  -7.508   1.263  1.00  0.00     0.337 C   
ENDBRANCH  27  28
ENDBRANCH  24  27
ENDBRANCH  19  24
ENDBRANCH   3  19
TORSDOF 10
