REMARK SMILES Cc1ccc([C@@H](CO)n2cc([C@@H]([NH2+]Cc3ccc4c(c3)OCO4)C3CCCCC3)nn2)cc1
REMARK SMILES IDX 9 1 10 2 11 3 30 4 31 5 6 7 5 8 2 9 3 10 33 11 4 12 32 13
REMARK SMILES IDX 1 14 7 15 8 16 12 18 13 19 14 22 15 23 16 24 20 25 17 26
REMARK SMILES IDX 19 27 18 28 21 29 23 30 22 31 24 32 25 33 29 34 26 35 28 36
REMARK SMILES IDX 27 37
REMARK H PARENT 10 6 8 17 13 20 13 21
ROOT
ATOM     1   N1  UNL     1       2.880  -0.201  -0.153  1.00  0.00    -0.202 N   
ATOM     2   C8  UNL     1       1.835   0.106   0.680  1.00  0.00     0.046 A   
ATOM     3   C9  UNL     1       0.734   0.101  -0.147  1.00  0.00     0.127 A   
ATOM     4   N3  UNL     1       1.141  -0.145  -1.433  1.00  0.00    -0.132 NA  
ATOM     5   N4  UNL     1       2.451  -0.320  -1.426  1.00  0.00    -0.075 NA  
ATOM     6   H10 UNL     1       1.969   0.252   1.743  1.00  0.00     0.083 HD  
ENDROOT
BRANCH   1   7
ATOM     7   C6  UNL     1       4.280  -0.406   0.214  1.00  0.00     0.155 C   
BRANCH   7   8
ATOM     8   C5  UNL     1       4.473  -1.806   0.781  1.00  0.00    -0.023 A   
ATOM     9   C2  UNL     1       4.878  -4.383   1.861  1.00  0.00    -0.051 A   
ATOM     10  C3  UNL     1       5.158  -3.244   2.621  1.00  0.00     0.004 A   
ATOM     11  C26 UNL     1       4.377  -4.228   0.564  1.00  0.00     0.004 A   
ATOM     12  C4  UNL     1       4.965  -1.968   2.086  1.00  0.00     0.006 A   
ATOM     13  C25 UNL     1       4.184  -2.954   0.026  1.00  0.00     0.006 A   
ATOM     14  C1  UNL     1       5.063  -5.753   2.446  1.00  0.00     0.044 C   
ENDBRANCH   7   8
BRANCH   7  15
ATOM     15  C7  UNL     1       5.264  -0.098  -0.928  1.00  0.00     0.185 C   
BRANCH  15  16
ATOM     16  O1  UNL     1       6.595   0.048  -0.429  1.00  0.00    -0.394 OA  
ATOM     17  H9  UNL     1       6.940  -0.845  -0.241  1.00  0.00     0.210 HD  
ENDBRANCH  15  16
ENDBRANCH   7  15
ENDBRANCH   1   7
BRANCH   3  18
ATOM     18  C10 UNL     1      -0.715   0.339   0.134  1.00  0.00     0.117 C   
BRANCH  18  19
ATOM     19  N2  UNL     1      -1.385   0.948  -1.080  1.00  0.00     0.249 N   
ATOM     20  H12 UNL     1      -1.082   0.386  -1.888  1.00  0.00     0.199 HD  
ATOM     21  H13 UNL     1      -2.403   0.856  -1.009  1.00  0.00     0.199 HD  
BRANCH  19  22
ATOM     22  C11 UNL     1      -1.042   2.370  -1.382  1.00  0.00     0.164 C   
BRANCH  22  23
ATOM     23  C12 UNL     1      -1.583   3.330  -0.359  1.00  0.00    -0.002 A   
ATOM     24  C13 UNL     1      -0.705   3.993   0.532  1.00  0.00     0.012 A   
ATOM     25  C17 UNL     1      -2.968   3.557  -0.262  1.00  0.00     0.045 A   
ATOM     26  C14 UNL     1      -1.196   4.862   1.512  1.00  0.00     0.037 A   
ATOM     27  C16 UNL     1      -3.418   4.418   0.717  1.00  0.00     0.109 A   
ATOM     28  C15 UNL     1      -2.558   5.052   1.580  1.00  0.00     0.108 A   
ATOM     29  O2  UNL     1      -4.718   4.736   0.952  1.00  0.00    -0.316 OA  
ATOM     30  O3  UNL     1      -3.208   5.849   2.466  1.00  0.00    -0.316 OA  
ATOM     31  C18 UNL     1      -4.578   5.678   2.040  1.00  0.00     0.337 C   
ENDBRANCH  22  23
ENDBRANCH  19  22
ENDBRANCH  18  19
BRANCH  18  32
ATOM     32  C19 UNL     1      -1.504  -0.940   0.531  1.00  0.00     0.043 C   
ATOM     33  C20 UNL     1      -1.478  -2.057  -0.532  1.00  0.00     0.010 C   
ATOM     34  C24 UNL     1      -1.044  -1.492   1.895  1.00  0.00     0.010 C   
ATOM     35  C21 UNL     1      -2.299  -3.270  -0.095  1.00  0.00     0.001 C   
ATOM     36  C23 UNL     1      -1.873  -2.701   2.323  1.00  0.00     0.001 C   
ATOM     37  C22 UNL     1      -1.850  -3.797   1.263  1.00  0.00     0.000 C   
ENDBRANCH  18  32
ENDBRANCH   3  18
TORSDOF 9
