REMARK SMILES Cc1ccc([C@H](CO)n2cc([C@@H]([NH2+]Cc3ccc4c(c3)OCO4)C3CCCCC3)nn2)cc1
REMARK SMILES IDX 9 1 10 2 11 3 30 4 31 5 6 7 5 8 2 9 3 10 33 11 4 12 32 13
REMARK SMILES IDX 1 14 7 15 8 16 12 18 13 19 14 22 15 23 16 24 20 25 17 26
REMARK SMILES IDX 19 27 18 28 21 29 23 30 22 31 24 32 25 33 29 34 26 35 28 36
REMARK SMILES IDX 27 37
REMARK H PARENT 10 6 8 17 13 20 13 21
ROOT
ATOM     1   N1  UNL     1       1.694  -0.446   2.831  1.00  0.00    -0.202 N   
ATOM     2   C8  UNL     1       0.335  -0.546   2.679  1.00  0.00     0.046 A   
ATOM     3   C9  UNL     1       0.142  -0.458   1.318  1.00  0.00     0.127 A   
ATOM     4   N3  UNL     1       1.356  -0.295   0.700  1.00  0.00    -0.132 NA  
ATOM     5   N4  UNL     1       2.294  -0.282   1.630  1.00  0.00    -0.075 NA  
ATOM     6   H10 UNL     1      -0.332  -0.674   3.521  1.00  0.00     0.083 HD  
ENDROOT
BRANCH   1   7
ATOM     7   C6  UNL     1       2.461  -0.495   4.078  1.00  0.00     0.155 C   
BRANCH   7   8
ATOM     8   C5  UNL     1       2.976   0.887   4.448  1.00  0.00    -0.023 A   
ATOM     9   C2  UNL     1       3.916   3.448   5.187  1.00  0.00    -0.051 A   
ATOM     10  C3  UNL     1       4.499   2.758   4.120  1.00  0.00     0.004 A   
ATOM     11  C26 UNL     1       2.869   2.846   5.891  1.00  0.00     0.004 A   
ATOM     12  C4  UNL     1       4.032   1.494   3.750  1.00  0.00     0.006 A   
ATOM     13  C25 UNL     1       2.400   1.582   5.523  1.00  0.00     0.006 A   
ATOM     14  C1  UNL     1       4.452   4.783   5.616  1.00  0.00     0.044 C   
ENDBRANCH   7   8
BRANCH   7  15
ATOM     15  C7  UNL     1       3.560  -1.571   4.039  1.00  0.00     0.185 C   
BRANCH  15  16
ATOM     16  O1  UNL     1       2.970  -2.873   4.110  1.00  0.00    -0.394 OA  
ATOM     17  H9  UNL     1       3.704  -3.515   4.140  1.00  0.00     0.210 HD  
ENDBRANCH  15  16
ENDBRANCH   7  15
ENDBRANCH   1   7
BRANCH   3  18
ATOM     18  C10 UNL     1      -1.103  -0.480   0.490  1.00  0.00     0.117 C   
BRANCH  18  19
ATOM     19  N2  UNL     1      -0.856   0.216  -0.822  1.00  0.00     0.249 N   
ATOM     20  H12 UNL     1      -1.494  -0.096  -1.560  1.00  0.00     0.199 HD  
ATOM     21  H13 UNL     1       0.090  -0.066  -1.124  1.00  0.00     0.199 HD  
BRANCH  19  22
ATOM     22  C11 UNL     1      -0.861   1.703  -0.760  1.00  0.00     0.164 C   
BRANCH  22  23
ATOM     23  C12 UNL     1      -0.447   2.281  -2.083  1.00  0.00    -0.002 A   
ATOM     24  C13 UNL     1       0.915   2.582  -2.329  1.00  0.00     0.012 A   
ATOM     25  C17 UNL     1      -1.396   2.470  -3.103  1.00  0.00     0.045 A   
ATOM     26  C14 UNL     1       1.327   3.083  -3.568  1.00  0.00     0.037 A   
ATOM     27  C16 UNL     1      -0.956   2.966  -4.313  1.00  0.00     0.109 A   
ATOM     28  C15 UNL     1       0.366   3.268  -4.538  1.00  0.00     0.108 A   
ATOM     29  O2  UNL     1      -1.738   3.211  -5.396  1.00  0.00    -0.316 OA  
ATOM     30  O3  UNL     1       0.581   3.743  -5.792  1.00  0.00    -0.316 OA  
ATOM     31  C18 UNL     1      -0.761   3.735  -6.325  1.00  0.00     0.337 C   
ENDBRANCH  22  23
ENDBRANCH  19  22
ENDBRANCH  18  19
BRANCH  18  32
ATOM     32  C19 UNL     1      -1.626  -1.921   0.248  1.00  0.00     0.043 C   
ATOM     33  C20 UNL     1      -3.073  -1.915  -0.285  1.00  0.00     0.010 C   
ATOM     34  C24 UNL     1      -0.722  -2.770  -0.667  1.00  0.00     0.010 C   
ATOM     35  C21 UNL     1      -3.615  -3.331  -0.470  1.00  0.00     0.001 C   
ATOM     36  C23 UNL     1      -1.274  -4.183  -0.853  1.00  0.00     0.001 C   
ATOM     37  C22 UNL     1      -2.709  -4.165  -1.369  1.00  0.00     0.000 C   
ENDBRANCH  18  32
ENDBRANCH   3  18
TORSDOF 9
