REMARK SMILES COc1cc(-n2cc([C@H](CC(C)C)[NH2+]Cc3ccc4c(c3)OCO4)nn2)ccc1N
REMARK SMILES IDX 6 1 7 2 8 3 25 4 26 5 5 6 3 7 4 8 29 9 28 10 27 11 2 12 1 13
REMARK SMILES IDX 30 14 9 17 10 18 11 19 12 20 13 21 14 22 15 25 16 26 17 27
REMARK SMILES IDX 21 28 18 29 20 30 19 31 22 32 24 33 23 34
REMARK H PARENT 30 15 30 16 14 23 14 24
ROOT
ATOM     1   N1  UNL     1      -1.190   2.123  -0.492  1.00  0.00    -0.181 N   
ATOM     2   C5  UNL     1      -0.479   0.967  -0.751  1.00  0.00     0.135 A   
ATOM     3   C6  UNL     1      -0.870   0.078   0.226  1.00  0.00     0.127 A   
ATOM     4   N3  UNL     1      -1.766   0.691   1.054  1.00  0.00    -0.131 NA  
ATOM     5   N4  UNL     1      -1.946   1.927   0.621  1.00  0.00    -0.071 NA  
ENDROOT
BRANCH   1   6
ATOM     6   C4  UNL     1      -1.180   3.358  -1.185  1.00  0.00     0.060 A   
ATOM     7   C2  UNL     1      -0.389   4.782  -2.967  1.00  0.00     0.097 A   
ATOM     8   C3  UNL     1      -0.370   3.548  -2.310  1.00  0.00     0.061 A   
ATOM     9   C22 UNL     1      -1.145   5.863  -2.488  1.00  0.00     0.054 A   
ATOM     10  C21 UNL     1      -1.994   5.641  -1.404  1.00  0.00     0.028 A   
ATOM     11  C20 UNL     1      -2.002   4.407  -0.743  1.00  0.00     0.028 A   
BRANCH   7  12
ATOM     12  O1  UNL     1       0.427   4.956  -4.058  1.00  0.00    -0.347 OA  
ATOM     13  C1  UNL     1      -0.276   4.604  -5.255  1.00  0.00     0.203 C   
ENDBRANCH   7  12
BRANCH   9  14
ATOM     14  N5  UNL     1      -1.221   7.067  -3.206  1.00  0.00    -0.356 N   
ATOM     15  H27 UNL     1      -1.469   7.874  -2.645  1.00  0.00     0.143 HD  
ATOM     16  H28 UNL     1      -0.383   7.226  -3.765  1.00  0.00     0.143 HD  
ENDBRANCH   9  14
ENDBRANCH   1   6
BRANCH   3  17
ATOM     17  C7  UNL     1      -0.453  -1.326   0.518  1.00  0.00     0.114 C   
BRANCH  17  18
ATOM     18  C8  UNL     1      -1.438  -2.365  -0.054  1.00  0.00     0.064 C   
BRANCH  18  19
ATOM     19  C9  UNL     1      -1.524  -2.408  -1.595  1.00  0.00    -0.012 C   
ATOM     20  C10 UNL     1      -2.596  -3.413  -2.022  1.00  0.00     0.007 C   
ATOM     21  C11 UNL     1      -0.188  -2.775  -2.242  1.00  0.00     0.007 C   
ENDBRANCH  18  19
ENDBRANCH  17  18
BRANCH  17  22
ATOM     22  N2  UNL     1      -0.414  -1.543   2.019  1.00  0.00     0.249 N   
ATOM     23  H16 UNL     1      -0.401  -2.546   2.235  1.00  0.00     0.199 HD  
ATOM     24  H17 UNL     1      -1.302  -1.165   2.386  1.00  0.00     0.199 HD  
BRANCH  22  25
ATOM     25  C12 UNL     1       0.698  -0.871   2.755  1.00  0.00     0.164 C   
BRANCH  25  26
ATOM     26  C13 UNL     1       2.033  -1.521   2.501  1.00  0.00    -0.002 A   
ATOM     27  C14 UNL     1       2.983  -0.906   1.650  1.00  0.00     0.012 A   
ATOM     28  C18 UNL     1       2.335  -2.760   3.093  1.00  0.00     0.045 A   
ATOM     29  C15 UNL     1       4.215  -1.516   1.387  1.00  0.00     0.037 A   
ATOM     30  C17 UNL     1       3.561  -3.331   2.818  1.00  0.00     0.109 A   
ATOM     31  C16 UNL     1       4.474  -2.729   1.988  1.00  0.00     0.108 A   
ATOM     32  O2  UNL     1       4.011  -4.512   3.316  1.00  0.00    -0.316 OA  
ATOM     33  O3  UNL     1       5.611  -3.459   1.852  1.00  0.00    -0.316 OA  
ATOM     34  C19 UNL     1       5.333  -4.572   2.732  1.00  0.00     0.337 C   
ENDBRANCH  25  26
ENDBRANCH  22  25
ENDBRANCH  17  22
ENDBRANCH   3  17
TORSDOF 9
