REMARK SMILES COc1ncc(F)cc1Cn1cc([C@@H]([NH2+]Cc2ccc3c(c2)OCO3)C2CCCCC2)nn1
REMARK SMILES IDX 11 1 12 2 13 3 32 4 33 5 10 7 9 8 3 9 4 10 5 11 8 12 6 13
REMARK SMILES IDX 7 14 2 15 1 16 14 17 15 18 16 21 17 22 18 23 22 24 19 25
REMARK SMILES IDX 21 26 20 27 23 28 25 29 24 30 26 31 27 32 31 33 28 34 30 35
REMARK SMILES IDX 29 36
REMARK H PARENT 12 6 15 19 15 20
ROOT
ATOM     1   N2  UNL     1      -0.968   1.442   1.972  1.00  0.00    -0.208 N   
ATOM     2   C8  UNL     1      -0.398   0.250   2.328  1.00  0.00     0.046 A   
ATOM     3   C9  UNL     1      -0.858  -0.637   1.381  1.00  0.00     0.127 A   
ATOM     4   N4  UNL     1      -1.722   0.017   0.539  1.00  0.00    -0.132 NA  
ATOM     5   N5  UNL     1      -1.797   1.280   0.923  1.00  0.00    -0.076 NA  
ATOM     6   H8  UNL     1       0.297   0.167   3.154  1.00  0.00     0.083 HD  
ENDROOT
BRANCH   1   7
ATOM     7   C7  UNL     1      -0.754   2.757   2.557  1.00  0.00     0.174 C   
BRANCH   7   8
ATOM     8   C6  UNL     1       0.172   3.578   1.704  1.00  0.00     0.024 A   
ATOM     9   C2  UNL     1       1.554   3.364   1.704  1.00  0.00     0.171 A   
ATOM     10  N1  UNL     1       2.424   4.048   0.928  1.00  0.00    -0.229 NA  
ATOM     11  C3  UNL     1       1.903   5.001   0.120  1.00  0.00     0.153 A   
ATOM     12  C5  UNL     1      -0.328   4.570   0.849  1.00  0.00     0.050 A   
ATOM     13  C4  UNL     1       0.553   5.290   0.053  1.00  0.00     0.142 A   
ATOM     14  F1  UNL     1       0.096   6.242  -0.767  1.00  0.00    -0.205 F   
BRANCH   9  15
ATOM     15  O1  UNL     1       2.039   2.382   2.549  1.00  0.00    -0.332 OA  
ATOM     16  C1  UNL     1       3.465   2.299   2.555  1.00  0.00     0.205 C   
ENDBRANCH   9  15
ENDBRANCH   7   8
ENDBRANCH   1   7
BRANCH   3  17
ATOM     17  C10 UNL     1      -0.548  -2.084   1.146  1.00  0.00     0.117 C   
BRANCH  17  18
ATOM     18  N3  UNL     1      -1.422  -2.632   0.050  1.00  0.00     0.249 N   
ATOM     19  H10 UNL     1      -0.993  -3.420  -0.446  1.00  0.00     0.199 HD  
ATOM     20  H11 UNL     1      -1.518  -1.875  -0.647  1.00  0.00     0.199 HD  
BRANCH  18  21
ATOM     21  C11 UNL     1      -2.803  -3.014   0.463  1.00  0.00     0.164 C   
BRANCH  21  22
ATOM     22  C12 UNL     1      -3.635  -3.334  -0.748  1.00  0.00    -0.002 A   
ATOM     23  C13 UNL     1      -3.765  -4.667  -1.200  1.00  0.00     0.012 A   
ATOM     24  C17 UNL     1      -4.234  -2.293  -1.478  1.00  0.00     0.045 A   
ATOM     25  C14 UNL     1      -4.487  -4.962  -2.362  1.00  0.00     0.037 A   
ATOM     26  C16 UNL     1      -4.934  -2.619  -2.620  1.00  0.00     0.109 A   
ATOM     27  C15 UNL     1      -5.057  -3.916  -3.051  1.00  0.00     0.108 A   
ATOM     28  O2  UNL     1      -5.558  -1.738  -3.443  1.00  0.00    -0.316 OA  
ATOM     29  O3  UNL     1      -5.777  -4.015  -4.199  1.00  0.00    -0.316 OA  
ATOM     30  C18 UNL     1      -6.121  -2.631  -4.428  1.00  0.00     0.337 C   
ENDBRANCH  21  22
ENDBRANCH  18  21
ENDBRANCH  17  18
BRANCH  17  31
ATOM     31  C19 UNL     1       0.951  -2.307   0.800  1.00  0.00     0.043 C   
ATOM     32  C20 UNL     1       1.372  -1.712  -0.560  1.00  0.00     0.010 C   
ATOM     33  C24 UNL     1       1.338  -3.797   0.878  1.00  0.00     0.010 C   
ATOM     34  C21 UNL     1       2.860  -1.932  -0.830  1.00  0.00     0.001 C   
ATOM     35  C23 UNL     1       2.826  -4.008   0.600  1.00  0.00     0.001 C   
ATOM     36  C22 UNL     1       3.239  -3.406  -0.738  1.00  0.00     0.000 C   
ENDBRANCH  17  31
ENDBRANCH   3  17
TORSDOF 8
