REMARK SMILES Cc1cc(C)cc([C@H](O)Cn2cc([C@H](CC(C)C)[NH2+]Cc3ccc4c(c3)OCO4)nn2)c1
REMARK SMILES IDX 11 1 12 2 13 3 30 4 31 5 10 7 8 8 7 9 2 10 3 11 32 12 4 13
REMARK SMILES IDX 6 14 1 15 5 16 9 17 14 19 15 20 16 21 17 22 18 23 19 24
REMARK SMILES IDX 20 27 21 28 22 29 26 30 23 31 25 32 24 33 27 34 29 35 28 36
REMARK H PARENT 12 6 9 18 19 25 19 26
ROOT
ATOM     1   N1  UNL     1       1.179  -2.288  -1.093  1.00  0.00    -0.209 N   
ATOM     2   C10 UNL     1       0.604  -1.050  -1.177  1.00  0.00     0.045 A   
ATOM     3   C11 UNL     1      -0.576  -1.183  -0.481  1.00  0.00     0.127 A   
ATOM     4   N3  UNL     1      -0.711  -2.485  -0.070  1.00  0.00    -0.132 NA  
ATOM     5   N4  UNL     1       0.355  -3.155  -0.472  1.00  0.00    -0.076 NA  
ATOM     6   H13 UNL     1       1.090  -0.222  -1.676  1.00  0.00     0.083 HD  
ENDROOT
BRANCH   1   7
ATOM     7   C9  UNL     1       2.438  -2.742  -1.647  1.00  0.00     0.170 C   
BRANCH   7   8
ATOM     8   C8  UNL     1       3.677  -2.056  -1.057  1.00  0.00     0.164 C   
BRANCH   8   9
ATOM     9   C7  UNL     1       3.757  -2.105   0.456  1.00  0.00    -0.017 A   
ATOM     10  C2  UNL     1       3.537  -1.053   2.649  1.00  0.00    -0.051 A   
ATOM     11  C3  UNL     1       3.887  -2.263   3.257  1.00  0.00     0.006 A   
ATOM     12  C25 UNL     1       3.467  -0.985   1.252  1.00  0.00     0.010 A   
ATOM     13  C4  UNL     1       4.187  -3.392   2.487  1.00  0.00    -0.051 A   
ATOM     14  C6  UNL     1       4.109  -3.307   1.091  1.00  0.00     0.010 A   
ATOM     15  C1  UNL     1       3.225   0.145   3.499  1.00  0.00     0.044 C   
ATOM     16  C5  UNL     1       4.529  -4.692   3.153  1.00  0.00     0.044 C   
ENDBRANCH   8   9
BRANCH   8  17
ATOM     17  O1  UNL     1       3.768  -0.712  -1.545  1.00  0.00    -0.387 OA  
ATOM     18  H10 UNL     1       4.617  -0.362  -1.212  1.00  0.00     0.211 HD  
ENDBRANCH   8  17
ENDBRANCH   7   8
ENDBRANCH   1   7
BRANCH   3  19
ATOM     19  C12 UNL     1      -1.666  -0.205  -0.183  1.00  0.00     0.114 C   
BRANCH  19  20
ATOM     20  C13 UNL     1      -1.499   0.452   1.200  1.00  0.00     0.064 C   
BRANCH  20  21
ATOM     21  C14 UNL     1      -0.245   1.340   1.359  1.00  0.00    -0.012 C   
ATOM     22  C15 UNL     1      -0.245   2.523   0.390  1.00  0.00     0.007 C   
ATOM     23  C16 UNL     1      -0.156   1.854   2.800  1.00  0.00     0.007 C   
ENDBRANCH  20  21
ENDBRANCH  19  20
BRANCH  19  24
ATOM     24  N2  UNL     1      -2.974  -0.969  -0.213  1.00  0.00     0.249 N   
ATOM     25  H24 UNL     1      -2.930  -1.672   0.538  1.00  0.00     0.199 HD  
ATOM     26  H25 UNL     1      -2.956  -1.532  -1.073  1.00  0.00     0.199 HD  
BRANCH  24  27
ATOM     27  C17 UNL     1      -4.254  -0.221  -0.163  1.00  0.00     0.164 C   
BRANCH  27  28
ATOM     28  C18 UNL     1      -4.432   0.722  -1.319  1.00  0.00    -0.002 A   
ATOM     29  C19 UNL     1      -4.784   0.227  -2.597  1.00  0.00     0.012 A   
ATOM     30  C23 UNL     1      -4.210   2.100  -1.150  1.00  0.00     0.045 A   
ATOM     31  C20 UNL     1      -4.912   1.089  -3.692  1.00  0.00     0.037 A   
ATOM     32  C22 UNL     1      -4.340   2.921  -2.251  1.00  0.00     0.109 A   
ATOM     33  C21 UNL     1      -4.680   2.430  -3.486  1.00  0.00     0.108 A   
ATOM     34  O2  UNL     1      -4.151   4.267  -2.260  1.00  0.00    -0.316 OA  
ATOM     35  O3  UNL     1      -4.751   3.405  -4.429  1.00  0.00    -0.316 OA  
ATOM     36  C24 UNL     1      -4.440   4.574  -3.643  1.00  0.00     0.337 C   
ENDBRANCH  27  28
ENDBRANCH  24  27
ENDBRANCH  19  24
ENDBRANCH   3  19
TORSDOF 10
