REMARK SMILES Cc1cc(C)cc([C@@H](O)Cn2cc([C@H](CC(C)C)[NH2+]Cc3ccc4c(c3)OCO4)nn2)c1
REMARK SMILES IDX 11 1 12 2 13 3 30 4 31 5 10 7 8 8 7 9 2 10 3 11 32 12 4 13
REMARK SMILES IDX 6 14 1 15 5 16 9 17 14 19 15 20 16 21 17 22 18 23 19 24
REMARK SMILES IDX 20 27 21 28 22 29 26 30 23 31 25 32 24 33 27 34 29 35 28 36
REMARK H PARENT 12 6 9 18 19 25 19 26
ROOT
ATOM     1   N1  UNL     1      -1.339  -1.704  -2.438  1.00  0.00    -0.209 N   
ATOM     2   C10 UNL     1      -1.141  -2.092  -1.142  1.00  0.00     0.045 A   
ATOM     3   C11 UNL     1      -1.579  -1.015  -0.406  1.00  0.00     0.127 A   
ATOM     4   N3  UNL     1      -2.029  -0.038  -1.258  1.00  0.00    -0.132 NA  
ATOM     5   N4  UNL     1      -1.876  -0.471  -2.498  1.00  0.00    -0.076 NA  
ATOM     6   H13 UNL     1      -0.690  -3.040  -0.883  1.00  0.00     0.083 HD  
ENDROOT
BRANCH   1   7
ATOM     7   C9  UNL     1      -0.952  -2.400  -3.644  1.00  0.00     0.170 C   
BRANCH   7   8
ATOM     8   C8  UNL     1       0.223  -1.730  -4.366  1.00  0.00     0.164 C   
BRANCH   8   9
ATOM     9   C7  UNL     1       1.453  -1.573  -3.491  1.00  0.00    -0.017 A   
ATOM     10  C2  UNL     1       3.327  -2.545  -2.271  1.00  0.00    -0.051 A   
ATOM     11  C3  UNL     1       3.695  -1.266  -1.835  1.00  0.00     0.006 A   
ATOM     12  C25 UNL     1       2.199  -2.691  -3.086  1.00  0.00     0.010 A   
ATOM     13  C4  UNL     1       2.970  -0.136  -2.232  1.00  0.00    -0.051 A   
ATOM     14  C6  UNL     1       1.849  -0.298  -3.056  1.00  0.00     0.010 A   
ATOM     15  C1  UNL     1       4.116  -3.748  -1.841  1.00  0.00     0.044 C   
ATOM     16  C5  UNL     1       3.413   1.227  -1.785  1.00  0.00     0.044 C   
ENDBRANCH   8   9
BRANCH   8  17
ATOM     17  O1  UNL     1       0.561  -2.513  -5.513  1.00  0.00    -0.387 OA  
ATOM     18  H10 UNL     1       1.437  -2.216  -5.822  1.00  0.00     0.211 HD  
ENDBRANCH   8  17
ENDBRANCH   7   8
ENDBRANCH   1   7
BRANCH   3  19
ATOM     19  C12 UNL     1      -1.538  -0.743   1.060  1.00  0.00     0.114 C   
BRANCH  19  20
ATOM     20  C13 UNL     1      -2.913  -0.893   1.734  1.00  0.00     0.064 C   
BRANCH  20  21
ATOM     21  C14 UNL     1      -3.508  -2.317   1.699  1.00  0.00    -0.012 C   
ATOM     22  C15 UNL     1      -2.627  -3.333   2.426  1.00  0.00     0.007 C   
ATOM     23  C16 UNL     1      -4.906  -2.305   2.324  1.00  0.00     0.007 C   
ENDBRANCH  20  21
ENDBRANCH  19  20
BRANCH  19  24
ATOM     24  N2  UNL     1      -1.090   0.682   1.283  1.00  0.00     0.249 N   
ATOM     25  H24 UNL     1      -1.648   1.268   0.644  1.00  0.00     0.199 HD  
ATOM     26  H25 UNL     1      -1.309   1.002   2.232  1.00  0.00     0.199 HD  
BRANCH  24  27
ATOM     27  C17 UNL     1       0.347   0.948   0.992  1.00  0.00     0.164 C   
BRANCH  27  28
ATOM     28  C18 UNL     1       0.633   2.419   1.090  1.00  0.00    -0.002 A   
ATOM     29  C19 UNL     1       0.486   3.246  -0.051  1.00  0.00     0.012 A   
ATOM     30  C23 UNL     1       0.979   2.995   2.325  1.00  0.00     0.045 A   
ATOM     31  C20 UNL     1       0.691   4.627   0.033  1.00  0.00     0.037 A   
ATOM     32  C22 UNL     1       1.169   4.360   2.373  1.00  0.00     0.109 A   
ATOM     33  C21 UNL     1       1.030   5.153   1.260  1.00  0.00     0.108 A   
ATOM     34  O2  UNL     1       1.491   5.074   3.485  1.00  0.00    -0.316 OA  
ATOM     35  O3  UNL     1       1.253   6.466   1.529  1.00  0.00    -0.316 OA  
ATOM     36  C24 UNL     1       1.573   6.410   2.936  1.00  0.00     0.337 C   
ENDBRANCH  27  28
ENDBRANCH  24  27
ENDBRANCH  19  24
ENDBRANCH   3  19
TORSDOF 10
