REMARK SMILES c1cc(CCn2cc([C@@H]([NH2+]Cc3ccc4c(c3)OCO4)C3CCCCC3)nn2)no1
REMARK SMILES IDX 6 1 7 2 8 3 27 4 28 5 5 7 4 8 3 9 1 10 2 11 30 12 29 13 9 14
REMARK SMILES IDX 10 15 11 18 12 19 13 20 17 21 14 22 16 23 15 24 18 25 20 26
REMARK SMILES IDX 19 27 21 28 22 29 26 30 23 31 25 32 24 33
REMARK H PARENT 7 6 10 16 10 17
ROOT
ATOM     1   N1  UNL     1       0.485  -2.603  -0.308  1.00  0.00    -0.212 N   
ATOM     2   C6  UNL     1      -0.323  -1.887  -1.145  1.00  0.00     0.045 A   
ATOM     3   C7  UNL     1       0.065  -0.582  -0.934  1.00  0.00     0.127 A   
ATOM     4   N3  UNL     1       1.127  -0.562  -0.066  1.00  0.00    -0.132 NA  
ATOM     5   N4  UNL     1       1.383  -1.806   0.298  1.00  0.00    -0.076 NA  
ATOM     6   H7  UNL     1      -1.126  -2.341  -1.709  1.00  0.00     0.083 HD  
ENDROOT
BRANCH   1   7
ATOM     7   C5  UNL     1       0.376  -3.996   0.073  1.00  0.00     0.140 C   
BRANCH   7   8
ATOM     8   C4  UNL     1      -0.950  -4.336   0.755  1.00  0.00     0.080 C   
BRANCH   8   9
ATOM     9   C3  UNL     1      -1.239  -3.491   1.951  1.00  0.00     0.072 A   
ATOM     10  C1  UNL     1      -1.376  -2.628   3.964  1.00  0.00     0.166 A   
ATOM     11  C2  UNL     1      -0.860  -3.705   3.295  1.00  0.00     0.054 A   
ATOM     12  O3  UNL     1      -2.021  -1.816   3.091  1.00  0.00    -0.222 OA  
ATOM     13  N5  UNL     1      -1.940  -2.354   1.818  1.00  0.00    -0.134 NA  
ENDBRANCH   8   9
ENDBRANCH   7   8
ENDBRANCH   1   7
BRANCH   3  14
ATOM     14  C8  UNL     1      -0.557   0.709  -1.352  1.00  0.00     0.117 C   
BRANCH  14  15
ATOM     15  N2  UNL     1      -0.569   1.648  -0.169  1.00  0.00     0.249 N   
ATOM     16  H9  UNL     1       0.357   1.561   0.279  1.00  0.00     0.199 HD  
ATOM     17  H10 UNL     1      -0.666   2.627  -0.453  1.00  0.00     0.199 HD  
BRANCH  15  18
ATOM     18  C9  UNL     1      -1.583   1.326   0.876  1.00  0.00     0.164 C   
BRANCH  18  19
ATOM     19  C10 UNL     1      -1.352   2.157   2.106  1.00  0.00    -0.002 A   
ATOM     20  C11 UNL     1      -1.958   3.428   2.243  1.00  0.00     0.012 A   
ATOM     21  C15 UNL     1      -0.483   1.689   3.108  1.00  0.00     0.045 A   
ATOM     22  C12 UNL     1      -1.708   4.223   3.368  1.00  0.00     0.037 A   
ATOM     23  C14 UNL     1      -0.261   2.496   4.204  1.00  0.00     0.109 A   
ATOM     24  C13 UNL     1      -0.855   3.728   4.330  1.00  0.00     0.108 A   
ATOM     25  O1  UNL     1       0.543   2.197   5.257  1.00  0.00    -0.316 OA  
ATOM     26  O2  UNL     1      -0.498   4.361   5.478  1.00  0.00    -0.316 OA  
ATOM     27  C16 UNL     1       0.381   3.381   6.070  1.00  0.00     0.337 C   
ENDBRANCH  18  19
ENDBRANCH  15  18
ENDBRANCH  14  15
BRANCH  14  28
ATOM     28  C17 UNL     1       0.142   1.412  -2.542  1.00  0.00     0.043 C   
ATOM     29  C18 UNL     1       0.020   0.581  -3.835  1.00  0.00     0.010 C   
ATOM     30  C22 UNL     1       1.615   1.788  -2.289  1.00  0.00     0.010 C   
ATOM     31  C19 UNL     1       0.633   1.306  -5.032  1.00  0.00     0.001 C   
ATOM     32  C21 UNL     1       2.226   2.509  -3.491  1.00  0.00     0.001 C   
ATOM     33  C20 UNL     1       2.085   1.692  -4.771  1.00  0.00     0.000 C   
ENDBRANCH  14  28
ENDBRANCH   3  14
TORSDOF 8
