REMARK SMILES c1nc(C2CC2)c(CCn2cc([C@@H]([NH2+]Cc3ccc4c(c3)OCO4)C3CCCC3)nn2)s1
REMARK SMILES IDX 10 1 11 2 12 3 30 4 31 5 9 7 8 8 7 9 1 10 2 11 32 12 3 13
REMARK SMILES IDX 4 14 5 15 6 16 13 17 14 18 15 21 16 22 17 23 21 24 18 25
REMARK SMILES IDX 20 26 19 27 22 28 24 29 23 30 25 31 26 32 29 33 27 34 28 35
REMARK H PARENT 11 6 14 19 14 20
ROOT
ATOM     1   N2  UNL     1      -2.208  -2.077   1.460  1.00  0.00    -0.212 N   
ATOM     2   C9  UNL     1      -1.425  -0.977   1.699  1.00  0.00     0.045 A   
ATOM     3   C10 UNL     1      -1.726  -0.132   0.652  1.00  0.00     0.127 A   
ATOM     4   N4  UNL     1      -2.770  -0.661  -0.062  1.00  0.00    -0.132 NA  
ATOM     5   N5  UNL     1      -3.082  -1.834   0.467  1.00  0.00    -0.076 NA  
ATOM     6   H11 UNL     1      -0.649  -0.973   2.454  1.00  0.00     0.083 HD  
ENDROOT
BRANCH   1   7
ATOM     7   C8  UNL     1      -1.927  -3.444   1.863  1.00  0.00     0.139 C   
BRANCH   7   8
ATOM     8   C7  UNL     1      -1.162  -4.234   0.780  1.00  0.00     0.066 C   
BRANCH   8   9
ATOM     9   C6  UNL     1       0.010  -3.463   0.236  1.00  0.00     0.014 A   
ATOM     10  C1  UNL     1       2.021  -2.148  -0.004  1.00  0.00     0.157 A   
ATOM     11  N1  UNL     1       1.195  -1.855  -0.990  1.00  0.00    -0.253 NA  
ATOM     12  S1  UNL     1       1.462  -3.298   1.139  1.00  0.00    -0.080 S   
ATOM     13  C2  UNL     1       0.130  -2.738  -0.938  1.00  0.00     0.054 A   
BRANCH  13  14
ATOM     14  C3  UNL     1      -0.918  -2.787  -2.092  1.00  0.00     0.039 C   
ATOM     15  C4  UNL     1      -0.688  -3.775  -3.206  1.00  0.00     0.011 C   
ATOM     16  C5  UNL     1      -0.528  -2.304  -3.466  1.00  0.00     0.011 C   
ENDBRANCH  13  14
ENDBRANCH   8   9
ENDBRANCH   7   8
ENDBRANCH   1   7
BRANCH   3  17
ATOM     17  C11 UNL     1      -0.990   1.072   0.144  1.00  0.00     0.117 C   
BRANCH  17  18
ATOM     18  N3  UNL     1      -0.394   0.704  -1.195  1.00  0.00     0.249 N   
ATOM     19  H13 UNL     1      -1.165   0.386  -1.796  1.00  0.00     0.199 HD  
ATOM     20  H14 UNL     1       0.175  -0.154  -1.062  1.00  0.00     0.199 HD  
BRANCH  18  21
ATOM     21  C12 UNL     1       0.450   1.681  -1.924  1.00  0.00     0.164 C   
BRANCH  21  22
ATOM     22  C13 UNL     1       1.754   1.984  -1.242  1.00  0.00    -0.002 A   
ATOM     23  C14 UNL     1       2.852   1.101  -1.385  1.00  0.00     0.012 A   
ATOM     24  C18 UNL     1       1.897   3.133  -0.446  1.00  0.00     0.045 A   
ATOM     25  C15 UNL     1       4.069   1.350  -0.741  1.00  0.00     0.037 A   
ATOM     26  C17 UNL     1       3.110   3.350   0.175  1.00  0.00     0.109 A   
ATOM     27  C16 UNL     1       4.165   2.483   0.035  1.00  0.00     0.108 A   
ATOM     28  O1  UNL     1       3.410   4.406   0.975  1.00  0.00    -0.316 OA  
ATOM     29  O2  UNL     1       5.263   2.884   0.726  1.00  0.00    -0.316 OA  
ATOM     30  C19 UNL     1       4.796   4.132   1.283  1.00  0.00     0.337 C   
ENDBRANCH  21  22
ENDBRANCH  18  21
ENDBRANCH  17  18
BRANCH  17  31
ATOM     31  C20 UNL     1      -1.848   2.350   0.053  1.00  0.00     0.043 C   
ATOM     32  C21 UNL     1      -2.951   2.392  -1.020  1.00  0.00     0.010 C   
ATOM     33  C24 UNL     1      -2.568   2.725   1.354  1.00  0.00     0.010 C   
ATOM     34  C22 UNL     1      -4.108   3.185  -0.410  1.00  0.00     0.001 C   
ATOM     35  C23 UNL     1      -3.575   3.764   0.891  1.00  0.00     0.001 C   
ENDBRANCH  17  31
ENDBRANCH   3  17
TORSDOF 9
