REMARK SMILES Oc1ccc(-n2cc([C@@H]([NH2+]Cc3ccc4c(c3)OCO4)C3CCCCC3)nn2)cc1Cl
REMARK SMILES IDX 6 1 7 2 8 3 27 4 28 5 5 6 2 7 3 8 30 9 4 10 29 11 31 12 1 13
REMARK SMILES IDX 9 15 10 16 11 19 12 20 13 21 17 22 14 23 16 24 15 25 18 26
REMARK SMILES IDX 20 27 19 28 21 29 22 30 26 31 23 32 25 33 24 34
REMARK H PARENT 1 14 10 17 10 18
ROOT
ATOM     1   N1  UNL     1       1.737   1.709   2.313  1.00  0.00    -0.181 N   
ATOM     2   C5  UNL     1       0.605   0.920   2.255  1.00  0.00     0.135 A   
ATOM     3   C6  UNL     1       0.441   0.625   0.917  1.00  0.00     0.127 A   
ATOM     4   N3  UNL     1       1.413   1.258   0.200  1.00  0.00    -0.131 NA  
ATOM     5   N4  UNL     1       2.179   1.925   1.047  1.00  0.00    -0.071 NA  
ENDROOT
BRANCH   1   6
ATOM     6   C4  UNL     1       2.392   2.255   3.444  1.00  0.00     0.059 A   
ATOM     7   C1  UNL     1       3.729   3.336   5.651  1.00  0.00     0.090 A   
ATOM     8   C2  UNL     1       4.209   3.577   4.370  1.00  0.00     0.037 A   
ATOM     9   C23 UNL     1       2.587   2.559   5.838  1.00  0.00     0.072 A   
ATOM     10  C3  UNL     1       3.544   3.038   3.265  1.00  0.00     0.029 A   
ATOM     11  C22 UNL     1       1.914   2.015   4.741  1.00  0.00     0.049 A   
ATOM     12  CL1 UNL     1       1.990   2.253   7.426  1.00  0.00    -0.081 Cl  
BRANCH   7  13
ATOM     13  O1  UNL     1       4.418   3.888   6.693  1.00  0.00    -0.359 OA  
ATOM     14  H1  UNL     1       3.926   3.696   7.514  1.00  0.00     0.218 HD  
ENDBRANCH   7  13
ENDBRANCH   1   6
BRANCH   3  15
ATOM     15  C7  UNL     1      -0.594  -0.194   0.207  1.00  0.00     0.117 C   
BRANCH  15  16
ATOM     16  N2  UNL     1      -1.027   0.511  -1.056  1.00  0.00     0.249 N   
ATOM     17  H6  UNL     1      -1.697  -0.058  -1.584  1.00  0.00     0.199 HD  
ATOM     18  H7  UNL     1      -0.197   0.620  -1.655  1.00  0.00     0.199 HD  
BRANCH  16  19
ATOM     19  C8  UNL     1      -1.634   1.865  -0.881  1.00  0.00     0.164 C   
BRANCH  19  20
ATOM     20  C9  UNL     1      -2.345   2.285  -2.139  1.00  0.00    -0.002 A   
ATOM     21  C10 UNL     1      -3.755   2.215  -2.219  1.00  0.00     0.012 A   
ATOM     22  C14 UNL     1      -1.608   2.699  -3.263  1.00  0.00     0.045 A   
ATOM     23  C11 UNL     1      -4.424   2.555  -3.399  1.00  0.00     0.037 A   
ATOM     24  C13 UNL     1      -2.300   3.019  -4.412  1.00  0.00     0.109 A   
ATOM     25  C12 UNL     1      -3.669   2.950  -4.479  1.00  0.00     0.108 A   
ATOM     26  O2  UNL     1      -1.741   3.416  -5.587  1.00  0.00    -0.316 OA  
ATOM     27  O3  UNL     1      -4.148   3.300  -5.700  1.00  0.00    -0.316 OA  
ATOM     28  C15 UNL     1      -2.924   3.632  -6.391  1.00  0.00     0.337 C   
ENDBRANCH  19  20
ENDBRANCH  16  19
ENDBRANCH  15  16
BRANCH  15  29
ATOM     29  C16 UNL     1      -0.057  -1.614  -0.163  1.00  0.00     0.043 C   
ATOM     30  C17 UNL     1      -1.055  -2.488  -0.955  1.00  0.00     0.010 C   
ATOM     31  C21 UNL     1       0.387  -2.422   1.079  1.00  0.00     0.010 C   
ATOM     32  C18 UNL     1      -2.256  -2.917  -0.115  1.00  0.00     0.001 C   
ATOM     33  C20 UNL     1      -0.790  -2.856   1.951  1.00  0.00     0.001 C   
ATOM     34  C19 UNL     1      -1.820  -3.649   1.151  1.00  0.00     0.000 C   
ENDBRANCH  15  29
ENDBRANCH   3  15
TORSDOF 7
