REMARK SMILES CC(C)[C@H]([NH2+]Cc1ccc2c(c1)OCO2)c1cn(-c2ccc(N)cc2)nn1
REMARK SMILES IDX 16 1 17 2 18 3 26 4 27 5 4 6 2 7 1 8 3 9 5 10 6 13 7 14 8 15
REMARK SMILES IDX 12 16 9 17 11 18 10 19 13 20 15 21 14 22 19 23 20 24 25 25
REMARK SMILES IDX 21 26 24 27 22 28 23 29
REMARK H PARENT 5 11 5 12 23 30 23 31
ROOT
ATOM     1   C13 UNL     1      -0.655  -0.775  -0.696  1.00  0.00     0.127 A   
ATOM     2   C14 UNL     1      -0.564  -1.868  -1.529  1.00  0.00     0.135 A   
ATOM     3   N2  UNL     1       0.076  -1.404  -2.664  1.00  0.00    -0.181 N   
ATOM     4   N4  UNL     1       0.380  -0.092  -2.484  1.00  0.00    -0.071 NA  
ATOM     5   N5  UNL     1      -0.067   0.298  -1.303  1.00  0.00    -0.131 NA  
ENDROOT
BRANCH   1   6
ATOM     6   C4  UNL     1      -1.210  -0.622   0.685  1.00  0.00     0.117 C   
BRANCH   6   7
ATOM     7   C2  UNL     1      -2.727  -0.300   0.730  1.00  0.00     0.037 C   
ATOM     8   C1  UNL     1      -3.115   0.993   0.003  1.00  0.00     0.014 C   
ATOM     9   C3  UNL     1      -3.571  -1.465   0.200  1.00  0.00     0.014 C   
ENDBRANCH   6   7
BRANCH   6  10
ATOM     10  N1  UNL     1      -0.473   0.473   1.418  1.00  0.00     0.249 N   
ATOM     11  H9  UNL     1      -1.012   0.823   2.217  1.00  0.00     0.199 HD  
ATOM     12  H10 UNL     1      -0.381   1.264   0.763  1.00  0.00     0.199 HD  
BRANCH  10  13
ATOM     13  C5  UNL     1       0.901   0.125   1.876  1.00  0.00     0.164 C   
BRANCH  13  14
ATOM     14  C6  UNL     1       1.563   1.320   2.499  1.00  0.00    -0.002 A   
ATOM     15  C7  UNL     1       2.259   2.249   1.689  1.00  0.00     0.012 A   
ATOM     16  C11 UNL     1       1.446   1.556   3.880  1.00  0.00     0.045 A   
ATOM     17  C8  UNL     1       2.843   3.392   2.245  1.00  0.00     0.037 A   
ATOM     18  C10 UNL     1       2.033   2.693   4.395  1.00  0.00     0.109 A   
ATOM     19  C9  UNL     1       2.712   3.585   3.602  1.00  0.00     0.108 A   
ATOM     20  O1  UNL     1       2.014   3.069   5.701  1.00  0.00    -0.316 OA  
ATOM     21  O2  UNL     1       3.208   4.633   4.309  1.00  0.00    -0.316 OA  
ATOM     22  C12 UNL     1       2.784   4.292   5.646  1.00  0.00     0.337 C   
ENDBRANCH  13  14
ENDBRANCH  10  13
ENDBRANCH   6  10
ENDBRANCH   1   6
BRANCH   3  23
ATOM     23  C15 UNL     1       0.417  -2.103  -3.847  1.00  0.00     0.058 A   
ATOM     24  C16 UNL     1       1.098  -1.433  -4.873  1.00  0.00     0.028 A   
ATOM     25  C20 UNL     1       0.104  -3.458  -4.005  1.00  0.00     0.028 A   
ATOM     26  C17 UNL     1       1.450  -2.114  -6.044  1.00  0.00     0.025 A   
ATOM     27  C19 UNL     1       0.462  -4.124  -5.184  1.00  0.00     0.025 A   
ATOM     28  C18 UNL     1       1.094  -3.450  -6.230  1.00  0.00     0.023 A   
BRANCH  28  29
ATOM     29  N3  UNL     1       1.561  -4.154  -7.342  1.00  0.00    -0.358 N   
ATOM     30  H21 UNL     1       1.735  -3.581  -8.162  1.00  0.00     0.143 HD  
ATOM     31  H22 UNL     1       1.031  -4.991  -7.567  1.00  0.00     0.143 HD  
ENDBRANCH  28  29
ENDBRANCH   3  23
TORSDOF 7
