REMARK SMILES CC(C)(C)[C@H]([NH2+]Cc1ccc2c(c1)OCO2)c1cn([C@H](CO)c2ccc(F)nc2)nn1
REMARK SMILES IDX 17 1 18 2 19 3 30 4 31 5 5 7 2 8 1 9 3 10 4 11 6 12 7 15
REMARK SMILES IDX 8 16 9 17 13 18 10 19 12 20 11 21 14 22 16 23 15 24 20 25
REMARK SMILES IDX 21 26 22 27 23 29 24 30 29 31 25 32 28 33 26 34 27 35
REMARK H PARENT 18 6 6 13 6 14 22 28
ROOT
ATOM     1   C14 UNL     1      -1.653  -0.865   0.731  1.00  0.00     0.127 A   
ATOM     2   C15 UNL     1      -0.583  -1.693   0.485  1.00  0.00     0.046 A   
ATOM     3   N2  UNL     1      -0.885  -2.290  -0.710  1.00  0.00    -0.202 N   
ATOM     4   N4  UNL     1      -2.067  -1.837  -1.181  1.00  0.00    -0.075 NA  
ATOM     5   N5  UNL     1      -2.546  -0.966  -0.307  1.00  0.00    -0.132 NA  
ATOM     6   H20 UNL     1       0.329  -1.905   1.026  1.00  0.00     0.083 HD  
ENDROOT
BRANCH   1   7
ATOM     7   C5  UNL     1      -1.919   0.118   1.833  1.00  0.00     0.120 C   
BRANCH   7   8
ATOM     8   C2  UNL     1      -2.712  -0.473   3.049  1.00  0.00     0.010 C   
ATOM     9   C1  UNL     1      -2.880   0.602   4.150  1.00  0.00     0.017 C   
ATOM     10  C3  UNL     1      -1.918  -1.641   3.679  1.00  0.00     0.017 C   
ATOM     11  C4  UNL     1      -4.109  -0.995   2.656  1.00  0.00     0.017 C   
ENDBRANCH   7   8
BRANCH   7  12
ATOM     12  N1  UNL     1      -2.662   1.300   1.230  1.00  0.00     0.250 N   
ATOM     13  H11 UNL     1      -3.043   0.959   0.332  1.00  0.00     0.199 HD  
ATOM     14  H12 UNL     1      -3.483   1.552   1.784  1.00  0.00     0.199 HD  
BRANCH  12  15
ATOM     15  C6  UNL     1      -1.857   2.524   0.962  1.00  0.00     0.164 C   
BRANCH  15  16
ATOM     16  C7  UNL     1      -0.681   2.311   0.049  1.00  0.00    -0.002 A   
ATOM     17  C8  UNL     1      -0.870   1.947  -1.307  1.00  0.00     0.012 A   
ATOM     18  C12 UNL     1       0.627   2.464   0.543  1.00  0.00     0.045 A   
ATOM     19  C9  UNL     1       0.223   1.727  -2.154  1.00  0.00     0.037 A   
ATOM     20  C11 UNL     1       1.681   2.244  -0.320  1.00  0.00     0.109 A   
ATOM     21  C10 UNL     1       1.486   1.884  -1.630  1.00  0.00     0.108 A   
ATOM     22  O1  UNL     1       2.998   2.351   0.001  1.00  0.00    -0.316 OA  
ATOM     23  O2  UNL     1       2.656   1.720  -2.303  1.00  0.00    -0.316 OA  
ATOM     24  C13 UNL     1       3.616   2.040  -1.270  1.00  0.00     0.337 C   
ENDBRANCH  15  16
ENDBRANCH  12  15
ENDBRANCH   7  12
ENDBRANCH   1   7
BRANCH   3  25
ATOM     25  C16 UNL     1      -0.115  -3.266  -1.480  1.00  0.00     0.157 C   
BRANCH  25  26
ATOM     26  C17 UNL     1      -0.159  -4.668  -0.836  1.00  0.00     0.186 C   
BRANCH  26  27
ATOM     27  O3  UNL     1       0.337  -4.687   0.503  1.00  0.00    -0.394 OA  
ATOM     28  H24 UNL     1       0.292  -5.614   0.810  1.00  0.00     0.210 HD  
ENDBRANCH  26  27
ENDBRANCH  25  26
BRANCH  25  29
ATOM     29  C18 UNL     1       1.260  -2.720  -1.821  1.00  0.00    -0.005 A   
ATOM     30  C19 UNL     1       1.453  -1.978  -2.998  1.00  0.00     0.012 A   
ATOM     31  C22 UNL     1       2.368  -2.878  -0.991  1.00  0.00     0.120 A   
ATOM     32  C20 UNL     1       2.708  -1.453  -3.291  1.00  0.00     0.061 A   
ATOM     33  N3  UNL     1       3.591  -2.363  -1.244  1.00  0.00    -0.228 NA  
ATOM     34  C21 UNL     1       3.734  -1.669  -2.391  1.00  0.00     0.212 A   
ATOM     35  F1  UNL     1       4.937  -1.137  -2.650  1.00  0.00    -0.185 F   
ENDBRANCH  25  29
ENDBRANCH   3  25
TORSDOF 9
