REMARK SMILES CC(C)(C)[C@H]([NH2+]Cc1ccc2c(c1)OCO2)c1cn([C@@H](CO)c2ccc(F)nc2)nn1
REMARK SMILES IDX 17 1 18 2 19 3 30 4 31 5 5 7 2 8 1 9 3 10 4 11 6 12 7 15
REMARK SMILES IDX 8 16 9 17 13 18 10 19 12 20 11 21 14 22 16 23 15 24 20 25
REMARK SMILES IDX 21 26 22 27 23 29 24 30 29 31 25 32 28 33 26 34 27 35
REMARK H PARENT 18 6 6 13 6 14 22 28
ROOT
ATOM     1   C14 UNL     1      -0.555  -1.361  -0.827  1.00  0.00     0.127 A   
ATOM     2   C15 UNL     1      -0.374  -1.557   0.523  1.00  0.00     0.046 A   
ATOM     3   N2  UNL     1       0.162  -2.813   0.613  1.00  0.00    -0.202 N   
ATOM     4   N4  UNL     1       0.354  -3.334  -0.618  1.00  0.00    -0.075 NA  
ATOM     5   N5  UNL     1      -0.088  -2.458  -1.505  1.00  0.00    -0.132 NA  
ATOM     6   H20 UNL     1      -0.573  -0.947   1.394  1.00  0.00     0.083 HD  
ENDROOT
BRANCH   1   7
ATOM     7   C5  UNL     1      -1.071  -0.176  -1.586  1.00  0.00     0.120 C   
BRANCH   7   8
ATOM     8   C2  UNL     1      -2.601  -0.255  -1.933  1.00  0.00     0.010 C   
ATOM     9   C1  UNL     1      -2.939  -1.410  -2.896  1.00  0.00     0.017 C   
ATOM     10  C3  UNL     1      -3.430  -0.444  -0.640  1.00  0.00     0.017 C   
ATOM     11  C4  UNL     1      -3.073   1.069  -2.579  1.00  0.00     0.017 C   
ENDBRANCH   7   8
BRANCH   7  12
ATOM     12  N1  UNL     1      -0.253  -0.006  -2.852  1.00  0.00     0.250 N   
ATOM     13  H11 UNL     1      -0.702   0.647  -3.496  1.00  0.00     0.199 HD  
ATOM     14  H12 UNL     1      -0.238  -0.928  -3.310  1.00  0.00     0.199 HD  
BRANCH  12  15
ATOM     15  C6  UNL     1       1.170   0.412  -2.666  1.00  0.00     0.164 C   
BRANCH  15  16
ATOM     16  C7  UNL     1       1.304   1.799  -2.102  1.00  0.00    -0.002 A   
ATOM     17  C8  UNL     1       1.732   1.986  -0.765  1.00  0.00     0.012 A   
ATOM     18  C12 UNL     1       0.976   2.918  -2.886  1.00  0.00     0.045 A   
ATOM     19  C9  UNL     1       1.826   3.268  -0.213  1.00  0.00     0.037 A   
ATOM     20  C11 UNL     1       1.079   4.168  -2.311  1.00  0.00     0.109 A   
ATOM     21  C10 UNL     1       1.492   4.338  -1.012  1.00  0.00     0.108 A   
ATOM     22  O1  UNL     1       0.795   5.346  -2.925  1.00  0.00    -0.316 OA  
ATOM     23  O2  UNL     1       1.521   5.646  -0.646  1.00  0.00    -0.316 OA  
ATOM     24  C13 UNL     1       1.105   6.286  -1.871  1.00  0.00     0.337 C   
ENDBRANCH  15  16
ENDBRANCH  12  15
ENDBRANCH   7  12
ENDBRANCH   1   7
BRANCH   3  25
ATOM     25  C16 UNL     1       0.523  -3.584   1.803  1.00  0.00     0.157 C   
BRANCH  25  26
ATOM     26  C17 UNL     1       1.883  -3.135   2.373  1.00  0.00     0.186 C   
BRANCH  26  27
ATOM     27  O3  UNL     1       1.919  -1.745   2.696  1.00  0.00    -0.394 OA  
ATOM     28  H24 UNL     1       2.772  -1.579   3.142  1.00  0.00     0.210 HD  
ENDBRANCH  26  27
ENDBRANCH  25  26
BRANCH  25  29
ATOM     29  C18 UNL     1      -0.642  -3.642   2.775  1.00  0.00    -0.005 A   
ATOM     30  C19 UNL     1      -1.661  -4.591   2.594  1.00  0.00     0.012 A   
ATOM     31  C22 UNL     1      -0.790  -2.761   3.844  1.00  0.00     0.120 A   
ATOM     32  C20 UNL     1      -2.745  -4.625   3.468  1.00  0.00     0.061 A   
ATOM     33  N3  UNL     1      -1.838  -2.767   4.697  1.00  0.00    -0.228 NA  
ATOM     34  C21 UNL     1      -2.786  -3.702   4.495  1.00  0.00     0.212 A   
ATOM     35  F1  UNL     1      -3.831  -3.721   5.333  1.00  0.00    -0.185 F   
ENDBRANCH  25  29
ENDBRANCH   3  25
TORSDOF 9
