REMARK SMILES Cc1nc(Cl)ccc1Cn1cc([C@@H]([NH2+]Cc2ccc3c(c2)OCO3)C(C)C)nn1
REMARK SMILES IDX 10 1 11 2 12 3 28 4 29 5 9 7 8 8 2 9 3 10 4 11 7 12 6 13
REMARK SMILES IDX 1 14 5 15 13 16 14 17 15 20 16 21 17 22 21 23 18 24 20 25
REMARK SMILES IDX 19 26 22 27 24 28 23 29 25 30 26 31 27 32
REMARK H PARENT 11 6 14 18 14 19
ROOT
ATOM     1   N2  UNL     1       2.023   0.306   1.395  1.00  0.00    -0.208 N   
ATOM     2   C8  UNL     1       1.738   0.475   0.067  1.00  0.00     0.046 A   
ATOM     3   C9  UNL     1       0.894   1.563   0.045  1.00  0.00     0.127 A   
ATOM     4   N4  UNL     1       0.760   2.054   1.317  1.00  0.00    -0.132 NA  
ATOM     5   N5  UNL     1       1.467   1.286   2.131  1.00  0.00    -0.076 NA  
ATOM     6   H8  UNL     1       2.075  -0.217  -0.693  1.00  0.00     0.083 HD  
ENDROOT
BRANCH   1   7
ATOM     7   C7  UNL     1       2.671  -0.829   2.035  1.00  0.00     0.171 C   
BRANCH   7   8
ATOM     8   C6  UNL     1       1.826  -2.072   1.872  1.00  0.00    -0.007 A   
ATOM     9   C2  UNL     1       0.649  -2.294   2.602  1.00  0.00     0.044 A   
ATOM     10  N1  UNL     1      -0.171  -3.342   2.351  1.00  0.00    -0.241 NA  
ATOM     11  C3  UNL     1       0.203  -4.228   1.407  1.00  0.00     0.129 A   
ATOM     12  C5  UNL     1       2.182  -3.026   0.905  1.00  0.00     0.010 A   
ATOM     13  C4  UNL     1       1.364  -4.126   0.671  1.00  0.00     0.041 A   
ATOM     14  C1  UNL     1       0.172  -1.369   3.685  1.00  0.00     0.067 C   
ATOM     15  CL1 UNL     1      -0.895  -5.517   1.156  1.00  0.00    -0.062 Cl  
ENDBRANCH   7   8
ENDBRANCH   1   7
BRANCH   3  16
ATOM     16  C10 UNL     1       0.078   2.135  -1.067  1.00  0.00     0.117 C   
BRANCH  16  17
ATOM     17  N3  UNL     1      -1.324   2.459  -0.602  1.00  0.00     0.249 N   
ATOM     18  H10 UNL     1      -1.847   2.922  -1.349  1.00  0.00     0.199 HD  
ATOM     19  H11 UNL     1      -1.232   3.128   0.173  1.00  0.00     0.199 HD  
BRANCH  17  20
ATOM     20  C11 UNL     1      -2.140   1.315  -0.081  1.00  0.00     0.164 C   
BRANCH  20  21
ATOM     21  C12 UNL     1      -2.304   0.192  -1.066  1.00  0.00    -0.002 A   
ATOM     22  C13 UNL     1      -3.132   0.344  -2.203  1.00  0.00     0.012 A   
ATOM     23  C17 UNL     1      -1.601  -1.012  -0.878  1.00  0.00     0.045 A   
ATOM     24  C14 UNL     1      -3.252  -0.684  -3.144  1.00  0.00     0.037 A   
ATOM     25  C16 UNL     1      -1.730  -1.999  -1.831  1.00  0.00     0.109 A   
ATOM     26  C15 UNL     1      -2.535  -1.841  -2.932  1.00  0.00     0.108 A   
ATOM     27  O1  UNL     1      -1.098  -3.201  -1.816  1.00  0.00    -0.316 OA  
ATOM     28  O2  UNL     1      -2.524  -2.932  -3.740  1.00  0.00    -0.316 OA  
ATOM     29  C18 UNL     1      -1.653  -3.815  -3.002  1.00  0.00     0.337 C   
ENDBRANCH  20  21
ENDBRANCH  17  20
ENDBRANCH  16  17
BRANCH  16  30
ATOM     30  C19 UNL     1       0.739   3.381  -1.716  1.00  0.00     0.037 C   
ATOM     31  C20 UNL     1       0.057   3.756  -3.038  1.00  0.00     0.014 C   
ATOM     32  C21 UNL     1       0.801   4.614  -0.807  1.00  0.00     0.014 C   
ENDBRANCH  16  30
ENDBRANCH   3  16
TORSDOF 7
