REMARK SMILES Cc1ccoc1[C@H](CO)n1cc([C@@H]([NH2+]Cc2ccc3c(c2)OCO3)C(C)C)nn1
REMARK SMILES IDX 10 1 11 2 12 3 28 4 29 5 7 7 6 8 2 9 3 10 4 11 5 12 1 13
REMARK SMILES IDX 8 14 9 15 13 17 14 18 15 21 16 22 17 23 21 24 18 25 20 26
REMARK SMILES IDX 19 27 22 28 24 29 23 30 25 31 26 32 27 33
REMARK H PARENT 11 6 9 16 14 19 14 20
ROOT
ATOM     1   N1  UNL     1       0.845   1.155   2.228  1.00  0.00    -0.200 N   
ATOM     2   C8  UNL     1       1.192   0.572   1.038  1.00  0.00     0.046 A   
ATOM     3   C9  UNL     1      -0.009   0.237   0.457  1.00  0.00     0.127 A   
ATOM     4   N3  UNL     1      -1.029   0.601   1.299  1.00  0.00    -0.132 NA  
ATOM     5   N4  UNL     1      -0.498   1.155   2.377  1.00  0.00    -0.075 NA  
ATOM     6   H10 UNL     1       2.224   0.452   0.737  1.00  0.00     0.083 HD  
ENDROOT
BRANCH   1   7
ATOM     7   C6  UNL     1       1.702   1.701   3.275  1.00  0.00     0.179 C   
BRANCH   7   8
ATOM     8   C5  UNL     1       2.547   2.813   2.730  1.00  0.00     0.086 A   
ATOM     9   C2  UNL     1       2.371   4.187   2.666  1.00  0.00    -0.020 A   
ATOM     10  C3  UNL     1       3.539   4.694   2.031  1.00  0.00     0.031 A   
ATOM     11  C4  UNL     1       4.339   3.612   1.754  1.00  0.00     0.136 A   
ATOM     12  O1  UNL     1       3.745   2.467   2.169  1.00  0.00    -0.320 OA  
ATOM     13  C1  UNL     1       1.211   4.973   3.155  1.00  0.00     0.047 C   
ENDBRANCH   7   8
BRANCH   7  14
ATOM     14  C7  UNL     1       2.509   0.606   3.992  1.00  0.00     0.188 C   
BRANCH  14  15
ATOM     15  O2  UNL     1       3.414  -0.096   3.134  1.00  0.00    -0.394 OA  
ATOM     16  H9  UNL     1       4.095   0.552   2.859  1.00  0.00     0.210 HD  
ENDBRANCH  14  15
ENDBRANCH   7  14
ENDBRANCH   1   7
BRANCH   3  17
ATOM     17  C10 UNL     1      -0.318  -0.470  -0.825  1.00  0.00     0.117 C   
BRANCH  17  18
ATOM     18  N2  UNL     1      -1.599  -1.242  -0.636  1.00  0.00     0.249 N   
ATOM     19  H12 UNL     1      -1.519  -1.735   0.265  1.00  0.00     0.199 HD  
ATOM     20  H13 UNL     1      -2.364  -0.577  -0.458  1.00  0.00     0.199 HD  
BRANCH  18  21
ATOM     21  C11 UNL     1      -1.980  -2.228  -1.673  1.00  0.00     0.164 C   
BRANCH  21  22
ATOM     22  C12 UNL     1      -3.199  -2.997  -1.249  1.00  0.00    -0.002 A   
ATOM     23  C13 UNL     1      -4.494  -2.492  -1.523  1.00  0.00     0.012 A   
ATOM     24  C17 UNL     1      -3.061  -4.196  -0.527  1.00  0.00     0.045 A   
ATOM     25  C14 UNL     1      -5.636  -3.176  -1.095  1.00  0.00     0.037 A   
ATOM     26  C16 UNL     1      -4.209  -4.846  -0.122  1.00  0.00     0.109 A   
ATOM     27  C15 UNL     1      -5.460  -4.351  -0.397  1.00  0.00     0.108 A   
ATOM     28  O3  UNL     1      -4.252  -6.010   0.579  1.00  0.00    -0.316 OA  
ATOM     29  O4  UNL     1      -6.449  -5.141   0.096  1.00  0.00    -0.316 OA  
ATOM     30  C18 UNL     1      -5.680  -6.205   0.697  1.00  0.00     0.337 C   
ENDBRANCH  21  22
ENDBRANCH  18  21
ENDBRANCH  17  18
BRANCH  17  31
ATOM     31  C19 UNL     1      -0.410   0.466  -2.058  1.00  0.00     0.037 C   
ATOM     32  C20 UNL     1      -1.527   1.512  -1.976  1.00  0.00     0.014 C   
ATOM     33  C21 UNL     1       0.928   1.163  -2.341  1.00  0.00     0.014 C   
ENDBRANCH  17  31
ENDBRANCH   3  17
TORSDOF 9
