REMARK SMILES Cc1ccoc1[C@@H](CO)n1cc([C@@H]([NH2+]Cc2ccc3c(c2)OCO3)C(C)C)nn1
REMARK SMILES IDX 10 1 11 2 12 3 28 4 29 5 7 7 6 8 2 9 3 10 4 11 5 12 1 13
REMARK SMILES IDX 8 14 9 15 13 17 14 18 15 21 16 22 17 23 21 24 18 25 20 26
REMARK SMILES IDX 19 27 22 28 24 29 23 30 25 31 26 32 27 33
REMARK H PARENT 11 6 9 16 14 19 14 20
ROOT
ATOM     1   N1  UNL     1      -1.206  -0.803  -2.318  1.00  0.00    -0.200 N   
ATOM     2   C8  UNL     1      -1.574   0.380  -1.734  1.00  0.00     0.046 A   
ATOM     3   C9  UNL     1      -0.389   0.935  -1.311  1.00  0.00     0.127 A   
ATOM     4   N3  UNL     1       0.638   0.073  -1.601  1.00  0.00    -0.132 NA  
ATOM     5   N4  UNL     1       0.128  -0.987  -2.207  1.00  0.00    -0.075 NA  
ATOM     6   H10 UNL     1      -2.604   0.707  -1.697  1.00  0.00     0.083 HD  
ENDROOT
BRANCH   1   7
ATOM     7   C6  UNL     1      -2.034  -1.808  -2.978  1.00  0.00     0.179 C   
BRANCH   7   8
ATOM     8   C5  UNL     1      -2.954  -2.451  -1.985  1.00  0.00     0.086 A   
ATOM     9   C2  UNL     1      -2.871  -3.617  -1.237  1.00  0.00    -0.020 A   
ATOM     10  C3  UNL     1      -4.077  -3.677  -0.484  1.00  0.00     0.031 A   
ATOM     11  C4  UNL     1      -4.804  -2.559  -0.813  1.00  0.00     0.136 A   
ATOM     12  O1  UNL     1      -4.130  -1.808  -1.718  1.00  0.00    -0.320 OA  
ATOM     13  C1  UNL     1      -1.763  -4.605  -1.226  1.00  0.00     0.047 C   
ENDBRANCH   7   8
BRANCH   7  14
ATOM     14  C7  UNL     1      -2.755  -1.257  -4.219  1.00  0.00     0.188 C   
BRANCH  14  15
ATOM     15  O2  UNL     1      -3.689  -0.214  -3.931  1.00  0.00    -0.394 OA  
ATOM     16  H9  UNL     1      -4.406  -0.617  -3.401  1.00  0.00     0.210 HD  
ENDBRANCH  14  15
ENDBRANCH   7  14
ENDBRANCH   1   7
BRANCH   3  17
ATOM     17  C10 UNL     1      -0.103   2.210  -0.589  1.00  0.00     0.117 C   
BRANCH  17  18
ATOM     18  N2  UNL     1       1.091   2.031   0.318  1.00  0.00     0.249 N   
ATOM     19  H12 UNL     1       1.809   1.538  -0.233  1.00  0.00     0.199 HD  
ATOM     20  H13 UNL     1       1.497   2.932   0.587  1.00  0.00     0.199 HD  
BRANCH  18  21
ATOM     21  C11 UNL     1       0.841   1.219   1.541  1.00  0.00     0.164 C   
BRANCH  21  22
ATOM     22  C12 UNL     1       2.107   1.060   2.333  1.00  0.00    -0.002 A   
ATOM     23  C13 UNL     1       2.391   1.924   3.417  1.00  0.00     0.012 A   
ATOM     24  C17 UNL     1       3.043   0.076   1.968  1.00  0.00     0.045 A   
ATOM     25  C14 UNL     1       3.586   1.805   4.135  1.00  0.00     0.037 A   
ATOM     26  C16 UNL     1       4.211  -0.013   2.696  1.00  0.00     0.109 A   
ATOM     27  C15 UNL     1       4.476   0.827   3.749  1.00  0.00     0.108 A   
ATOM     28  O3  UNL     1       5.214  -0.903   2.477  1.00  0.00    -0.316 OA  
ATOM     29  O4  UNL     1       5.678   0.572   4.327  1.00  0.00    -0.316 OA  
ATOM     30  C18 UNL     1       6.139  -0.539   3.527  1.00  0.00     0.337 C   
ENDBRANCH  21  22
ENDBRANCH  18  21
ENDBRANCH  17  18
BRANCH  17  31
ATOM     31  C19 UNL     1       0.167   3.421  -1.519  1.00  0.00     0.037 C   
ATOM     32  C20 UNL     1       1.359   3.235  -2.465  1.00  0.00     0.014 C   
ATOM     33  C21 UNL     1      -1.079   3.804  -2.326  1.00  0.00     0.014 C   
ENDBRANCH  17  31
ENDBRANCH   3  17
TORSDOF 9
