REMARK SMILES c1ccc(-n2cc([C@@H]([NH2+]Cc3ccc4c(c3)OCO4)C3CCCCC3)nn2)cc1
REMARK SMILES IDX 8 1 7 2 5 3 6 4 27 5 26 6 4 7 1 8 2 9 29 10 3 11 28 12 9 13
REMARK SMILES IDX 10 16 11 17 12 18 16 19 13 20 15 21 14 22 17 23 19 24 18 25
REMARK SMILES IDX 20 26 21 27 25 28 22 29 24 30 23 31
REMARK H PARENT 9 14 9 15
ROOT
ATOM     1   C7  UNL     1       0.404  -0.637   0.556  1.00  0.00     0.117 C   
ENDROOT
BRANCH   1   2
ATOM     2   C6  UNL     1       0.653  -0.783  -0.910  1.00  0.00     0.127 A   
ATOM     3   N1  UNL     1       0.935  -0.582  -3.075  1.00  0.00    -0.181 N   
ATOM     4   C5  UNL     1       0.697   0.147  -1.925  1.00  0.00     0.135 A   
ATOM     5   N4  UNL     1       0.986  -1.901  -2.748  1.00  0.00    -0.071 NA  
ATOM     6   N3  UNL     1       0.828  -2.029  -1.441  1.00  0.00    -0.131 NA  
BRANCH   3   7
ATOM     7   C4  UNL     1       1.088  -0.129  -4.407  1.00  0.00     0.057 A   
ATOM     8   C1  UNL     1       1.393   0.727  -7.056  1.00  0.00     0.000 A   
ATOM     9   C2  UNL     1       1.176   1.658  -6.043  1.00  0.00     0.002 A   
ATOM     10  C23 UNL     1       1.460  -0.631  -6.752  1.00  0.00     0.002 A   
ATOM     11  C3  UNL     1       1.024   1.237  -4.718  1.00  0.00     0.026 A   
ATOM     12  C22 UNL     1       1.309  -1.062  -5.433  1.00  0.00     0.026 A   
ENDBRANCH   3   7
ENDBRANCH   1   2
BRANCH   1  13
ATOM     13  N2  UNL     1      -0.308  -1.864   1.090  1.00  0.00     0.249 N   
ATOM     14  H6  UNL     1      -0.257  -1.888   2.113  1.00  0.00     0.199 HD  
ATOM     15  H7  UNL     1       0.212  -2.680   0.739  1.00  0.00     0.199 HD  
BRANCH  13  16
ATOM     16  C8  UNL     1      -1.730  -2.043   0.668  1.00  0.00     0.164 C   
BRANCH  16  17
ATOM     17  C9  UNL     1      -2.644  -0.982   1.216  1.00  0.00    -0.002 A   
ATOM     18  C10 UNL     1      -3.207  -0.011   0.352  1.00  0.00     0.012 A   
ATOM     19  C14 UNL     1      -2.927  -0.930   2.592  1.00  0.00     0.045 A   
ATOM     20  C11 UNL     1      -4.033   1.002   0.850  1.00  0.00     0.037 A   
ATOM     21  C13 UNL     1      -3.744   0.082   3.049  1.00  0.00     0.109 A   
ATOM     22  C12 UNL     1      -4.281   1.022   2.205  1.00  0.00     0.108 A   
ATOM     23  O1  UNL     1      -4.109   0.278   4.343  1.00  0.00    -0.316 OA  
ATOM     24  O2  UNL     1      -5.053   1.927   2.860  1.00  0.00    -0.316 OA  
ATOM     25  C15 UNL     1      -4.970   1.433   4.214  1.00  0.00     0.337 C   
ENDBRANCH  16  17
ENDBRANCH  13  16
ENDBRANCH   1  13
BRANCH   1  26
ATOM     26  C16 UNL     1       1.688  -0.417   1.404  1.00  0.00     0.043 C   
ATOM     27  C17 UNL     1       2.349   0.940   1.093  1.00  0.00     0.010 C   
ATOM     28  C21 UNL     1       2.726  -1.552   1.291  1.00  0.00     0.010 C   
ATOM     29  C18 UNL     1       3.563   1.194   1.985  1.00  0.00     0.001 C   
ATOM     30  C20 UNL     1       3.945  -1.290   2.176  1.00  0.00     0.001 C   
ATOM     31  C19 UNL     1       4.580   0.064   1.880  1.00  0.00     0.000 C   
ENDBRANCH   1  26
TORSDOF 6
