REMARK SMILES CC(C)[C@H]([NH2+]Cc1ccc2c(c1)OCO2)c1cn(Cc2ccc(CO)cc2)nn1
REMARK SMILES IDX 16 1 17 2 18 3 28 4 29 5 4 7 2 8 1 9 3 10 5 11 6 14 7 15
REMARK SMILES IDX 8 16 12 17 9 18 11 19 10 20 13 21 15 22 14 23 19 24 20 25
REMARK SMILES IDX 21 26 27 27 22 28 26 29 23 30 24 31 25 32
REMARK H PARENT 17 6 5 12 5 13 25 33
ROOT
ATOM     1   C13 UNL     1       2.488  -1.137   1.164  1.00  0.00     0.127 A   
ATOM     2   C14 UNL     1       2.649  -0.184   0.183  1.00  0.00     0.046 A   
ATOM     3   N2  UNL     1       2.388  -0.862  -0.977  1.00  0.00    -0.208 N   
ATOM     4   N3  UNL     1       2.126  -2.161  -0.728  1.00  0.00    -0.076 NA  
ATOM     5   N4  UNL     1       2.159  -2.335   0.582  1.00  0.00    -0.132 NA  
ATOM     6   H18 UNL     1       2.864   0.875   0.199  1.00  0.00     0.083 HD  
ENDROOT
BRANCH   1   7
ATOM     7   C4  UNL     1       2.500  -1.042   2.655  1.00  0.00     0.117 C   
BRANCH   7   8
ATOM     8   C2  UNL     1       3.854  -1.468   3.280  1.00  0.00     0.037 C   
ATOM     9   C1  UNL     1       3.899  -1.147   4.779  1.00  0.00     0.014 C   
ATOM     10  C3  UNL     1       4.232  -2.937   3.053  1.00  0.00     0.014 C   
ENDBRANCH   7   8
BRANCH   7  11
ATOM     11  N1  UNL     1       1.362  -1.877   3.202  1.00  0.00     0.249 N   
ATOM     12  H9  UNL     1       1.034  -2.454   2.410  1.00  0.00     0.199 HD  
ATOM     13  H10 UNL     1       1.697  -2.552   3.894  1.00  0.00     0.199 HD  
BRANCH  11  14
ATOM     14  C5  UNL     1       0.196  -1.139   3.760  1.00  0.00     0.164 C   
BRANCH  14  15
ATOM     15  C6  UNL     1      -0.419  -0.134   2.825  1.00  0.00    -0.002 A   
ATOM     16  C7  UNL     1      -1.070  -0.546   1.637  1.00  0.00     0.012 A   
ATOM     17  C11 UNL     1      -0.343   1.238   3.126  1.00  0.00     0.045 A   
ATOM     18  C8  UNL     1      -1.632   0.391   0.762  1.00  0.00     0.037 A   
ATOM     19  C10 UNL     1      -0.904   2.134   2.240  1.00  0.00     0.109 A   
ATOM     20  C9  UNL     1      -1.532   1.724   1.091  1.00  0.00     0.108 A   
ATOM     21  O1  UNL     1      -0.907   3.485   2.383  1.00  0.00    -0.316 OA  
ATOM     22  O2  UNL     1      -2.015   2.768   0.367  1.00  0.00    -0.316 OA  
ATOM     23  C12 UNL     1      -1.650   3.881   1.209  1.00  0.00     0.337 C   
ENDBRANCH  14  15
ENDBRANCH  11  14
ENDBRANCH   7  11
ENDBRANCH   1   7
BRANCH   3  24
ATOM     24  C15 UNL     1       2.321  -0.338  -2.331  1.00  0.00     0.169 C   
BRANCH  24  25
ATOM     25  C16 UNL     1       0.919   0.112  -2.652  1.00  0.00    -0.029 A   
ATOM     26  C17 UNL     1      -0.052  -0.824  -3.035  1.00  0.00     0.006 A   
ATOM     27  C22 UNL     1       0.548   1.457  -2.522  1.00  0.00     0.006 A   
ATOM     28  C18 UNL     1      -1.368  -0.426  -3.267  1.00  0.00     0.006 A   
ATOM     29  C21 UNL     1      -0.771   1.854  -2.758  1.00  0.00     0.006 A   
ATOM     30  C19 UNL     1      -1.745   0.914  -3.117  1.00  0.00    -0.023 A   
BRANCH  30  31
ATOM     31  C20 UNL     1      -3.171   1.332  -3.349  1.00  0.00     0.191 C   
BRANCH  31  32
ATOM     32  O3  UNL     1      -4.027   0.541  -2.534  1.00  0.00    -0.392 OA  
ATOM     33  H25 UNL     1      -4.935   0.832  -2.726  1.00  0.00     0.211 HD  
ENDBRANCH  31  32
ENDBRANCH  30  31
ENDBRANCH  24  25
ENDBRANCH   3  24
TORSDOF 9
