REMARK SMILES CC(C)(C)[C@H]([NH2+]Cc1ccc2c(c1)OCO2)c1cn(Cc2cc(C(F)F)on2)nn1
REMARK SMILES IDX 17 1 18 2 19 3 29 4 30 5 5 7 2 8 1 9 3 10 4 11 6 12 7 15
REMARK SMILES IDX 8 16 9 17 13 18 10 19 12 20 11 21 14 22 16 23 15 24 20 25
REMARK SMILES IDX 21 26 22 27 28 28 23 29 27 30 24 31 25 32 26 33
REMARK H PARENT 18 6 6 13 6 14
ROOT
ATOM     1   C14 UNL     1       0.890   0.188   0.144  1.00  0.00     0.127 A   
ATOM     2   C15 UNL     1       1.179   0.372  -1.190  1.00  0.00     0.046 A   
ATOM     3   N2  UNL     1       2.271  -0.426  -1.405  1.00  0.00    -0.206 N   
ATOM     4   N4  UNL     1       2.636  -1.058  -0.271  1.00  0.00    -0.076 NA  
ATOM     5   N5  UNL     1       1.794  -0.694   0.681  1.00  0.00    -0.132 NA  
ATOM     6   H20 UNL     1       0.718   0.947  -1.982  1.00  0.00     0.083 HD  
ENDROOT
BRANCH   1   7
ATOM     7   C5  UNL     1      -0.233   0.704   0.991  1.00  0.00     0.120 C   
BRANCH   7   8
ATOM     8   C2  UNL     1       0.117   1.997   1.810  1.00  0.00     0.010 C   
ATOM     9   C1  UNL     1       0.574   3.121   0.852  1.00  0.00     0.017 C   
ATOM     10  C3  UNL     1       1.230   1.763   2.852  1.00  0.00     0.017 C   
ATOM     11  C4  UNL     1      -1.138   2.517   2.550  1.00  0.00     0.017 C   
ENDBRANCH   7   8
BRANCH   7  12
ATOM     12  N1  UNL     1      -0.682  -0.406   1.919  1.00  0.00     0.250 N   
ATOM     13  H11 UNL     1       0.178  -0.820   2.306  1.00  0.00     0.199 HD  
ATOM     14  H12 UNL     1      -1.220  -0.040   2.708  1.00  0.00     0.199 HD  
BRANCH  12  15
ATOM     15  C6  UNL     1      -1.455  -1.517   1.287  1.00  0.00     0.164 C   
BRANCH  15  16
ATOM     16  C7  UNL     1      -2.836  -1.093   0.869  1.00  0.00    -0.002 A   
ATOM     17  C8  UNL     1      -3.143  -0.896  -0.500  1.00  0.00     0.012 A   
ATOM     18  C12 UNL     1      -3.824  -0.851   1.840  1.00  0.00     0.045 A   
ATOM     19  C9  UNL     1      -4.412  -0.455  -0.897  1.00  0.00     0.037 A   
ATOM     20  C11 UNL     1      -5.063  -0.416   1.415  1.00  0.00     0.109 A   
ATOM     21  C10 UNL     1      -5.349  -0.222   0.085  1.00  0.00     0.108 A   
ATOM     22  O1  UNL     1      -6.118  -0.130   2.222  1.00  0.00    -0.316 OA  
ATOM     23  O2  UNL     1      -6.622   0.208  -0.112  1.00  0.00    -0.316 OA  
ATOM     24  C13 UNL     1      -7.120   0.238   1.243  1.00  0.00     0.337 C   
ENDBRANCH  15  16
ENDBRANCH  12  15
ENDBRANCH   7  12
ENDBRANCH   1   7
BRANCH   3  25
ATOM     25  C16 UNL     1       2.982  -0.663  -2.649  1.00  0.00     0.192 C   
BRANCH  25  26
ATOM     26  C17 UNL     1       2.331  -1.773  -3.392  1.00  0.00     0.090 A   
ATOM     27  C18 UNL     1       2.756  -3.115  -3.517  1.00  0.00     0.066 A   
ATOM     28  N3  UNL     1       1.178  -1.568  -4.049  1.00  0.00    -0.132 NA  
ATOM     29  C19 UNL     1       1.782  -3.712  -4.283  1.00  0.00     0.153 A   
ATOM     30  O3  UNL     1       0.836  -2.789  -4.603  1.00  0.00    -0.212 OA  
BRANCH  29  31
ATOM     31  C20 UNL     1       1.559  -5.084  -4.781  1.00  0.00     0.398 C   
ATOM     32  F1  UNL     1       2.740  -5.750  -4.903  1.00  0.00    -0.203 F   
ATOM     33  F2  UNL     1       0.816  -5.797  -3.891  1.00  0.00    -0.203 F   
ENDBRANCH  29  31
ENDBRANCH  25  26
ENDBRANCH   3  25
TORSDOF 8
