REMARK SMILES c1cc2c(cc1C[NH2+][C@H](c1cn(Cc3cnc(C4CC4)nc3)nn1)C1CCCCC1)OCO2
REMARK SMILES IDX 10 1 11 2 12 3 23 4 24 5 9 7 8 8 7 11 6 12 1 13 2 14 3 15
REMARK SMILES IDX 5 16 4 17 33 18 31 19 32 20 25 21 26 22 30 23 27 24 29 25
REMARK SMILES IDX 28 26 13 27 14 28 15 29 22 30 16 31 21 32 17 33 18 34 19 35
REMARK SMILES IDX 20 36
REMARK H PARENT 11 6 8 9 8 10
ROOT
ATOM     1   C9  UNL     1      -1.006  -0.484  -1.255  1.00  0.00     0.127 A   
ATOM     2   C10 UNL     1      -2.017  -0.162  -0.376  1.00  0.00     0.046 A   
ATOM     3   N2  UNL     1      -2.881  -1.220  -0.464  1.00  0.00    -0.208 N   
ATOM     4   N5  UNL     1      -2.445  -2.121  -1.365  1.00  0.00    -0.076 NA  
ATOM     5   N6  UNL     1      -1.306  -1.675  -1.867  1.00  0.00    -0.132 NA  
ATOM     6   H9  UNL     1      -2.168   0.657   0.313  1.00  0.00     0.083 HD  
ENDROOT
BRANCH   1   7
ATOM     7   C8  UNL     1       0.295   0.194  -1.539  1.00  0.00     0.117 C   
BRANCH   7   8
ATOM     8   N1  UNL     1       1.360  -0.812  -1.906  1.00  0.00     0.249 N   
ATOM     9   H6  UNL     1       2.194  -0.342  -2.265  1.00  0.00     0.199 HD  
ATOM     10  H7  UNL     1       0.973  -1.383  -2.670  1.00  0.00     0.199 HD  
BRANCH   8  11
ATOM     11  C7  UNL     1       1.774  -1.767  -0.830  1.00  0.00     0.164 C   
BRANCH  11  12
ATOM     12  C6  UNL     1       2.388  -1.088   0.362  1.00  0.00    -0.002 A   
ATOM     13  C1  UNL     1       3.690  -0.536   0.283  1.00  0.00     0.012 A   
ATOM     14  C2  UNL     1       4.252   0.133   1.376  1.00  0.00     0.037 A   
ATOM     15  C3  UNL     1       3.501   0.235   2.527  1.00  0.00     0.108 A   
ATOM     16  C5  UNL     1       1.656  -0.969   1.558  1.00  0.00     0.045 A   
ATOM     17  C4  UNL     1       2.240  -0.303   2.615  1.00  0.00     0.109 A   
ATOM     18  O2  UNL     1       3.883   0.847   3.677  1.00  0.00    -0.316 OA  
ATOM     19  O1  UNL     1       1.671  -0.098   3.830  1.00  0.00    -0.316 OA  
ATOM     20  C25 UNL     1       2.739   0.590   4.520  1.00  0.00     0.337 C   
ENDBRANCH  11  12
ENDBRANCH   8  11
ENDBRANCH   7   8
BRANCH   7  21
ATOM     21  C19 UNL     1       0.161   1.278  -2.643  1.00  0.00     0.043 C   
ATOM     22  C20 UNL     1       1.390   2.208  -2.681  1.00  0.00     0.010 C   
ATOM     23  C24 UNL     1      -0.122   0.718  -4.051  1.00  0.00     0.010 C   
ATOM     24  C21 UNL     1       1.218   3.327  -3.707  1.00  0.00     0.001 C   
ATOM     25  C23 UNL     1      -0.289   1.839  -5.076  1.00  0.00     0.001 C   
ATOM     26  C22 UNL     1       0.916   2.774  -5.096  1.00  0.00     0.000 C   
ENDBRANCH   7  21
ENDBRANCH   1   7
BRANCH   3  27
ATOM     27  C11 UNL     1      -4.047  -1.499   0.361  1.00  0.00     0.172 C   
BRANCH  27  28
ATOM     28  C12 UNL     1      -3.626  -1.787   1.764  1.00  0.00     0.008 A   
ATOM     29  C13 UNL     1      -2.880  -2.896   2.103  1.00  0.00     0.120 A   
ATOM     30  C18 UNL     1      -3.904  -0.941   2.813  1.00  0.00     0.120 A   
ATOM     31  N3  UNL     1      -2.413  -3.133   3.342  1.00  0.00    -0.241 NA  
ATOM     32  N4  UNL     1      -3.468  -1.143   4.069  1.00  0.00    -0.241 NA  
ATOM     33  C14 UNL     1      -2.726  -2.245   4.307  1.00  0.00     0.131 A   
BRANCH  33  34
ATOM     34  C15 UNL     1      -2.216  -2.496   5.704  1.00  0.00     0.058 C   
ATOM     35  C16 UNL     1      -1.698  -1.361   6.559  1.00  0.00     0.012 C   
ATOM     36  C17 UNL     1      -0.737  -2.366   5.997  1.00  0.00     0.012 C   
ENDBRANCH  33  34
ENDBRANCH  27  28
ENDBRANCH   3  27
TORSDOF 8
