REMARK SMILES Cc1ccc(CCn2cc([C@@H]([NH2+]Cc3ccc4c(c3)OCO4)C3CCCC3)nn2)cc1
REMARK SMILES IDX 8 1 9 2 10 3 28 4 29 5 7 7 6 8 5 9 2 10 3 11 31 12 4 13
REMARK SMILES IDX 30 14 1 15 11 16 12 17 13 20 14 21 15 22 19 23 16 24 18 25
REMARK SMILES IDX 17 26 20 27 22 28 21 29 23 30 24 31 27 32 25 33 26 34
REMARK H PARENT 9 6 12 18 12 19
ROOT
ATOM     1   N1  UNL     1      -3.257  -2.014   0.978  1.00  0.00    -0.212 N   
ATOM     2   C8  UNL     1      -2.257  -1.147   1.311  1.00  0.00     0.045 A   
ATOM     3   C9  UNL     1      -2.254  -0.236   0.281  1.00  0.00     0.127 A   
ATOM     4   N3  UNL     1      -3.249  -0.555  -0.608  1.00  0.00    -0.132 NA  
ATOM     5   N4  UNL     1      -3.859  -1.643  -0.167  1.00  0.00    -0.076 NA  
ATOM     6   H10 UNL     1      -1.637  -1.282   2.186  1.00  0.00     0.083 HD  
ENDROOT
BRANCH   1   7
ATOM     7   C7  UNL     1      -3.626  -3.246   1.644  1.00  0.00     0.139 C   
BRANCH   7   8
ATOM     8   C6  UNL     1      -3.200  -4.492   0.865  1.00  0.00     0.057 C   
BRANCH   8   9
ATOM     9   C5  UNL     1      -1.714  -4.564   0.592  1.00  0.00    -0.046 A   
ATOM     10  C2  UNL     1       1.052  -4.723   0.058  1.00  0.00    -0.051 A   
ATOM     11  C3  UNL     1       0.141  -4.510  -0.981  1.00  0.00     0.004 A   
ATOM     12  C25 UNL     1       0.569  -4.867   1.364  1.00  0.00     0.004 A   
ATOM     13  C4  UNL     1      -1.229  -4.424  -0.716  1.00  0.00     0.004 A   
ATOM     14  C24 UNL     1      -0.801  -4.788   1.630  1.00  0.00     0.004 A   
ATOM     15  C1  UNL     1       2.515  -4.872  -0.239  1.00  0.00     0.044 C   
ENDBRANCH   8   9
ENDBRANCH   7   8
ENDBRANCH   1   7
BRANCH   3  16
ATOM     16  C10 UNL     1      -1.327   0.890  -0.026  1.00  0.00     0.117 C   
BRANCH  16  17
ATOM     17  N2  UNL     1      -0.927   0.824  -1.485  1.00  0.00     0.249 N   
ATOM     18  H12 UNL     1      -0.450   1.683  -1.771  1.00  0.00     0.199 HD  
ATOM     19  H13 UNL     1      -1.807   0.772  -2.017  1.00  0.00     0.199 HD  
BRANCH  17  20
ATOM     20  C11 UNL     1      -0.096  -0.350  -1.888  1.00  0.00     0.164 C   
BRANCH  20  21
ATOM     21  C12 UNL     1       1.319  -0.250  -1.392  1.00  0.00    -0.002 A   
ATOM     22  C13 UNL     1       1.736  -0.987  -0.259  1.00  0.00     0.012 A   
ATOM     23  C17 UNL     1       2.229   0.608  -2.032  1.00  0.00     0.045 A   
ATOM     24  C14 UNL     1       3.043  -0.878   0.228  1.00  0.00     0.037 A   
ATOM     25  C16 UNL     1       3.510   0.692  -1.528  1.00  0.00     0.109 A   
ATOM     26  C15 UNL     1       3.907  -0.031  -0.431  1.00  0.00     0.108 A   
ATOM     27  O1  UNL     1       4.505   1.469  -2.028  1.00  0.00    -0.316 OA  
ATOM     28  O2  UNL     1       5.205   0.199  -0.103  1.00  0.00    -0.316 OA  
ATOM     29  C18 UNL     1       5.592   1.130  -1.137  1.00  0.00     0.337 C   
ENDBRANCH  20  21
ENDBRANCH  17  20
ENDBRANCH  16  17
BRANCH  16  30
ATOM     30  C19 UNL     1      -1.966   2.269   0.233  1.00  0.00     0.043 C   
ATOM     31  C20 UNL     1      -0.999   3.448   0.023  1.00  0.00     0.010 C   
ATOM     32  C23 UNL     1      -2.462   2.463   1.670  1.00  0.00     0.010 C   
ATOM     33  C21 UNL     1      -1.360   4.499   1.074  1.00  0.00     0.001 C   
ATOM     34  C22 UNL     1      -2.595   3.971   1.786  1.00  0.00     0.001 C   
ENDBRANCH  16  30
ENDBRANCH   3  16
TORSDOF 8
