REMARK SMILES Fc1cnccc1CCn1cc([C@@H]([NH2+]Cc2ccc3c(c2)OCO3)C2CCCCC2)nn1
REMARK SMILES IDX 10 1 11 2 12 3 31 4 32 5 9 7 8 8 7 9 2 10 3 11 4 12 6 13
REMARK SMILES IDX 5 14 1 15 13 16 14 17 15 20 16 21 17 22 21 23 18 24 20 25
REMARK SMILES IDX 19 26 22 27 24 28 23 29 25 30 26 31 30 32 27 33 29 34 28 35
REMARK H PARENT 11 6 14 18 14 19
ROOT
ATOM     1   N2  UNL     1      -2.447   1.297   2.476  1.00  0.00    -0.212 N   
ATOM     2   C8  UNL     1      -1.341   0.580   2.118  1.00  0.00     0.045 A   
ATOM     3   C9  UNL     1      -0.831   1.274   1.044  1.00  0.00     0.127 A   
ATOM     4   N4  UNL     1      -1.610   2.378   0.811  1.00  0.00    -0.132 NA  
ATOM     5   N5  UNL     1      -2.595   2.379   1.693  1.00  0.00    -0.076 NA  
ATOM     6   H8  UNL     1      -1.048  -0.330   2.627  1.00  0.00     0.083 HD  
ENDROOT
BRANCH   1   7
ATOM     7   C7  UNL     1      -3.421   0.997   3.504  1.00  0.00     0.139 C   
BRANCH   7   8
ATOM     8   C6  UNL     1      -4.595   0.164   2.982  1.00  0.00     0.060 C   
BRANCH   8   9
ATOM     9   C5  UNL     1      -4.230  -1.277   2.704  1.00  0.00    -0.007 A   
ATOM     10  C1  UNL     1      -3.907  -1.712   1.417  1.00  0.00     0.144 A   
ATOM     11  C2  UNL     1      -3.563  -3.042   1.217  1.00  0.00     0.150 A   
ATOM     12  N1  UNL     1      -3.496  -3.956   2.209  1.00  0.00    -0.262 NA  
ATOM     13  C4  UNL     1      -4.190  -2.218   3.740  1.00  0.00     0.027 A   
ATOM     14  C3  UNL     1      -3.821  -3.528   3.449  1.00  0.00     0.111 A   
ATOM     15  F1  UNL     1      -3.889  -0.856   0.388  1.00  0.00    -0.205 F   
ENDBRANCH   8   9
ENDBRANCH   7   8
ENDBRANCH   1   7
BRANCH   3  16
ATOM     16  C10 UNL     1       0.309   0.980   0.124  1.00  0.00     0.117 C   
BRANCH  16  17
ATOM     17  N3  UNL     1       0.021   1.571  -1.242  1.00  0.00     0.249 N   
ATOM     18  H10 UNL     1      -0.337   2.522  -1.068  1.00  0.00     0.199 HD  
ATOM     19  H11 UNL     1       0.884   1.663  -1.785  1.00  0.00     0.199 HD  
BRANCH  17  20
ATOM     20  C11 UNL     1      -1.008   0.862  -2.061  1.00  0.00     0.164 C   
BRANCH  20  21
ATOM     21  C12 UNL     1      -0.524  -0.469  -2.567  1.00  0.00    -0.002 A   
ATOM     22  C13 UNL     1      -1.035  -1.670  -2.020  1.00  0.00     0.012 A   
ATOM     23  C17 UNL     1       0.463  -0.530  -3.567  1.00  0.00     0.045 A   
ATOM     24  C14 UNL     1      -0.569  -2.915  -2.454  1.00  0.00     0.037 A   
ATOM     25  C16 UNL     1       0.902  -1.773  -3.973  1.00  0.00     0.109 A   
ATOM     26  C15 UNL     1       0.400  -2.932  -3.433  1.00  0.00     0.108 A   
ATOM     27  O1  UNL     1       1.846  -2.005  -4.922  1.00  0.00    -0.316 OA  
ATOM     28  O2  UNL     1       0.966  -4.042  -3.974  1.00  0.00    -0.316 OA  
ATOM     29  C18 UNL     1       1.865  -3.452  -4.939  1.00  0.00     0.337 C   
ENDBRANCH  20  21
ENDBRANCH  17  20
ENDBRANCH  16  17
BRANCH  16  30
ATOM     30  C19 UNL     1       1.683   1.518   0.604  1.00  0.00     0.043 C   
ATOM     31  C20 UNL     1       1.730   3.046   0.807  1.00  0.00     0.010 C   
ATOM     32  C24 UNL     1       2.166   0.795   1.878  1.00  0.00     0.010 C   
ATOM     33  C21 UNL     1       3.118   3.514   1.245  1.00  0.00     0.001 C   
ATOM     34  C23 UNL     1       3.556   1.267   2.298  1.00  0.00     0.001 C   
ATOM     35  C22 UNL     1       3.595   2.779   2.493  1.00  0.00     0.000 C   
ENDBRANCH  16  30
ENDBRANCH   3  16
TORSDOF 8
