REMARK SMILES Cc1ccnc(CCn2cc([C@@H]([NH2+]Cc3ccc4c(c3)OCO4)C3CCCCC3)nn2)c1
REMARK SMILES IDX 9 1 10 2 11 3 30 4 31 5 8 7 7 8 6 9 2 10 3 11 32 12 4 13
REMARK SMILES IDX 5 14 1 15 12 16 13 17 14 20 15 21 16 22 20 23 17 24 19 25
REMARK SMILES IDX 18 26 21 27 23 28 22 29 24 30 25 31 29 32 26 33 28 34 27 35
REMARK H PARENT 10 6 13 18 13 19
ROOT
ATOM     1   N2  UNL     1      -2.435   1.206   0.211  1.00  0.00    -0.212 N   
ATOM     2   C8  UNL     1      -1.570   0.554   1.042  1.00  0.00     0.045 A   
ATOM     3   C9  UNL     1      -0.329   0.951   0.601  1.00  0.00     0.127 A   
ATOM     4   N4  UNL     1      -0.480   1.853  -0.423  1.00  0.00    -0.132 NA  
ATOM     5   N5  UNL     1      -1.774   2.006  -0.646  1.00  0.00    -0.076 NA  
ATOM     6   H10 UNL     1      -1.908  -0.154   1.786  1.00  0.00     0.083 HD  
ENDROOT
BRANCH   1   7
ATOM     7   C7  UNL     1      -3.878   1.103   0.151  1.00  0.00     0.140 C   
BRANCH   7   8
ATOM     8   C6  UNL     1      -4.356   0.136  -0.928  1.00  0.00     0.077 C   
BRANCH   8   9
ATOM     9   C5  UNL     1      -4.241  -1.305  -0.493  1.00  0.00     0.042 A   
ATOM     10  C2  UNL     1      -5.259  -3.349   0.278  1.00  0.00    -0.048 A   
ATOM     11  C3  UNL     1      -3.992  -3.928   0.279  1.00  0.00     0.023 A   
ATOM     12  C25 UNL     1      -5.380  -2.011  -0.105  1.00  0.00     0.027 A   
ATOM     13  C4  UNL     1      -2.913  -3.157  -0.117  1.00  0.00     0.111 A   
ATOM     14  N1  UNL     1      -3.002  -1.859  -0.491  1.00  0.00    -0.261 NA  
ATOM     15  C1  UNL     1      -6.459  -4.129   0.725  1.00  0.00     0.044 C   
ENDBRANCH   8   9
ENDBRANCH   7   8
ENDBRANCH   1   7
BRANCH   3  16
ATOM     16  C10 UNL     1       1.039   0.483   0.965  1.00  0.00     0.117 C   
BRANCH  16  17
ATOM     17  N3  UNL     1       1.890   0.408  -0.279  1.00  0.00     0.249 N   
ATOM     18  H12 UNL     1       2.889   0.370  -0.054  1.00  0.00     0.199 HD  
ATOM     19  H13 UNL     1       1.736   1.288  -0.794  1.00  0.00     0.199 HD  
BRANCH  17  20
ATOM     20  C11 UNL     1       1.547  -0.702  -1.214  1.00  0.00     0.164 C   
BRANCH  20  21
ATOM     21  C12 UNL     1       2.429  -0.650  -2.429  1.00  0.00    -0.002 A   
ATOM     22  C13 UNL     1       3.624  -1.406  -2.483  1.00  0.00     0.012 A   
ATOM     23  C17 UNL     1       2.096   0.198  -3.500  1.00  0.00     0.045 A   
ATOM     24  C14 UNL     1       4.474  -1.327  -3.592  1.00  0.00     0.037 A   
ATOM     25  C16 UNL     1       2.956   0.253  -4.577  1.00  0.00     0.109 A   
ATOM     26  C15 UNL     1       4.111  -0.487  -4.622  1.00  0.00     0.108 A   
ATOM     27  O1  UNL     1       2.786   1.018  -5.687  1.00  0.00    -0.316 OA  
ATOM     28  O2  UNL     1       4.813  -0.284  -5.767  1.00  0.00    -0.316 OA  
ATOM     29  C18 UNL     1       3.960   0.659  -6.450  1.00  0.00     0.337 C   
ENDBRANCH  20  21
ENDBRANCH  17  20
ENDBRANCH  16  17
BRANCH  16  30
ATOM     30  C19 UNL     1       1.768   1.366   2.011  1.00  0.00     0.043 C   
ATOM     31  C20 UNL     1       1.978   2.829   1.573  1.00  0.00     0.010 C   
ATOM     32  C24 UNL     1       1.062   1.317   3.380  1.00  0.00     0.010 C   
ATOM     33  C21 UNL     1       2.731   3.632   2.634  1.00  0.00     0.001 C   
ATOM     34  C23 UNL     1       1.821   2.121   4.435  1.00  0.00     0.001 C   
ATOM     35  C22 UNL     1       2.040   3.563   3.991  1.00  0.00     0.000 C   
ENDBRANCH  16  30
ENDBRANCH   3  16
TORSDOF 8
