REMARK SMILES Cc1cc(CCn2cc([C@@H]([NH2+]Cc3ccc4c(c3)OCO4)C(C)C)nn2)on1
REMARK SMILES IDX 7 1 8 2 9 3 25 4 26 5 6 7 5 8 4 9 2 10 3 11 28 12 27 13 1 14
REMARK SMILES IDX 10 15 11 16 12 19 13 20 14 21 18 22 15 23 17 24 16 25 19 26
REMARK SMILES IDX 21 27 20 28 22 29 23 30 24 31
REMARK H PARENT 8 6 11 17 11 18
ROOT
ATOM     1   N1  UNL     1      -3.145  -1.074   1.093  1.00  0.00    -0.212 N   
ATOM     2   C7  UNL     1      -1.816  -1.391   1.059  1.00  0.00     0.045 A   
ATOM     3   C8  UNL     1      -1.235  -0.454   1.885  1.00  0.00     0.127 A   
ATOM     4   N3  UNL     1      -2.212   0.351   2.411  1.00  0.00    -0.132 NA  
ATOM     5   N4  UNL     1      -3.378  -0.051   1.934  1.00  0.00    -0.076 NA  
ATOM     6   H9  UNL     1      -1.418  -2.169   0.423  1.00  0.00     0.083 HD  
ENDROOT
BRANCH   1   7
ATOM     7   C6  UNL     1      -4.209  -1.599   0.262  1.00  0.00     0.141 C   
BRANCH   7   8
ATOM     8   C5  UNL     1      -4.694  -0.598  -0.790  1.00  0.00     0.086 C   
BRANCH   8   9
ATOM     9   C4  UNL     1      -3.633  -0.241  -1.767  1.00  0.00     0.088 A   
ATOM     10  C2  UNL     1      -2.171   0.113  -3.375  1.00  0.00     0.068 A   
ATOM     11  C3  UNL     1      -3.350  -0.604  -3.061  1.00  0.00     0.057 A   
ATOM     12  N5  UNL     1      -1.763   0.854  -2.336  1.00  0.00    -0.134 NA  
ATOM     13  O3  UNL     1      -2.698   0.651  -1.341  1.00  0.00    -0.218 OA  
ATOM     14  C1  UNL     1      -1.413   0.123  -4.648  1.00  0.00     0.069 C   
ENDBRANCH   8   9
ENDBRANCH   7   8
ENDBRANCH   1   7
BRANCH   3  15
ATOM     15  C9  UNL     1       0.200  -0.137   2.149  1.00  0.00     0.117 C   
BRANCH  15  16
ATOM     16  N2  UNL     1       0.421   1.353   1.997  1.00  0.00     0.249 N   
ATOM     17  H11 UNL     1       1.291   1.636   2.456  1.00  0.00     0.199 HD  
ATOM     18  H12 UNL     1      -0.355   1.809   2.498  1.00  0.00     0.199 HD  
BRANCH  16  19
ATOM     19  C10 UNL     1       0.408   1.875   0.596  1.00  0.00     0.164 C   
BRANCH  19  20
ATOM     20  C11 UNL     1       1.649   1.501  -0.167  1.00  0.00    -0.002 A   
ATOM     21  C12 UNL     1       2.880   2.144   0.107  1.00  0.00     0.012 A   
ATOM     22  C16 UNL     1       1.603   0.487  -1.139  1.00  0.00     0.045 A   
ATOM     23  C13 UNL     1       4.049   1.779  -0.570  1.00  0.00     0.037 A   
ATOM     24  C15 UNL     1       2.772   0.151  -1.788  1.00  0.00     0.109 A   
ATOM     25  C14 UNL     1       3.961   0.778  -1.512  1.00  0.00     0.108 A   
ATOM     26  O1  UNL     1       2.900  -0.810  -2.741  1.00  0.00    -0.316 OA  
ATOM     27  O2  UNL     1       4.989   0.291  -2.254  1.00  0.00    -0.316 OA  
ATOM     28  C17 UNL     1       4.306  -0.693  -3.059  1.00  0.00     0.337 C   
ENDBRANCH  19  20
ENDBRANCH  16  19
ENDBRANCH  15  16
BRANCH  15  29
ATOM     29  C18 UNL     1       0.710  -0.578   3.546  1.00  0.00     0.037 C   
ATOM     30  C19 UNL     1      -0.006   0.082   4.729  1.00  0.00     0.014 C   
ATOM     31  C20 UNL     1       0.665  -2.103   3.699  1.00  0.00     0.014 C   
ENDBRANCH  15  29
ENDBRANCH   3  15
TORSDOF 8
