REMARK SMILES Fc1cc(F)c(Cn2cc([C@@H]([NH2+]Cc3ccc4c(c3)OCO4)C3CCCCC3)nn2)c(F)c1
REMARK SMILES IDX 8 1 9 2 10 3 29 4 30 5 7 7 6 8 2 9 3 10 33 11 4 12 31 13
REMARK SMILES IDX 1 14 5 15 32 16 11 17 12 18 13 21 14 22 15 23 19 24 16 25
REMARK SMILES IDX 18 26 17 27 20 28 22 29 21 30 23 31 24 32 28 33 25 34 27 35
REMARK SMILES IDX 26 36
REMARK H PARENT 9 6 12 19 12 20
ROOT
ATOM     1   N1  UNL     1       1.990   1.624  -0.559  1.00  0.00    -0.208 N   
ATOM     2   C6  UNL     1       1.073   1.501   0.448  1.00  0.00     0.046 A   
ATOM     3   C7  UNL     1       0.904   0.140   0.581  1.00  0.00     0.127 A   
ATOM     4   N3  UNL     1       1.701  -0.502  -0.331  1.00  0.00    -0.132 NA  
ATOM     5   N4  UNL     1       2.358   0.414  -1.022  1.00  0.00    -0.076 NA  
ATOM     6   H4  UNL     1       0.634   2.358   0.941  1.00  0.00     0.083 HD  
ENDROOT
BRANCH   1   7
ATOM     7   C5  UNL     1       2.542   2.842  -1.129  1.00  0.00     0.175 C   
BRANCH   7   8
ATOM     8   C4  UNL     1       1.963   3.127  -2.484  1.00  0.00     0.043 A   
ATOM     9   C1  UNL     1       0.890   3.647  -5.010  1.00  0.00     0.129 A   
ATOM     10  C2  UNL     1       2.228   3.295  -4.895  1.00  0.00     0.079 A   
ATOM     11  C24 UNL     1       0.076   3.745  -3.889  1.00  0.00     0.079 A   
ATOM     12  C3  UNL     1       2.752   3.039  -3.632  1.00  0.00     0.133 A   
ATOM     13  C23 UNL     1       0.621   3.484  -2.637  1.00  0.00     0.133 A   
ATOM     14  F1  UNL     1       0.374   3.891  -6.220  1.00  0.00    -0.207 F   
ATOM     15  F2  UNL     1       4.044   2.704  -3.525  1.00  0.00    -0.206 F   
ATOM     16  F3  UNL     1      -0.169   3.568  -1.557  1.00  0.00    -0.206 F   
ENDBRANCH   7   8
ENDBRANCH   1   7
BRANCH   3  17
ATOM     17  C8  UNL     1      -0.010  -0.658   1.452  1.00  0.00     0.117 C   
BRANCH  17  18
ATOM     18  N2  UNL     1      -0.499  -1.885   0.708  1.00  0.00     0.249 N   
ATOM     19  H6  UNL     1      -0.954  -2.534   1.357  1.00  0.00     0.199 HD  
ATOM     20  H7  UNL     1       0.339  -2.354   0.339  1.00  0.00     0.199 HD  
BRANCH  18  21
ATOM     21  C9  UNL     1      -1.402  -1.640  -0.457  1.00  0.00     0.164 C   
BRANCH  21  22
ATOM     22  C10 UNL     1      -2.709  -1.008  -0.070  1.00  0.00    -0.002 A   
ATOM     23  C11 UNL     1      -2.967   0.348  -0.389  1.00  0.00     0.012 A   
ATOM     24  C15 UNL     1      -3.673  -1.747   0.638  1.00  0.00     0.045 A   
ATOM     25  C12 UNL     1      -4.164   0.962  -0.005  1.00  0.00     0.037 A   
ATOM     26  C14 UNL     1      -4.842  -1.110   1.001  1.00  0.00     0.109 A   
ATOM     27  C13 UNL     1      -5.081   0.205   0.690  1.00  0.00     0.108 A   
ATOM     28  O1  UNL     1      -5.867  -1.676   1.689  1.00  0.00    -0.316 OA  
ATOM     29  O2  UNL     1      -6.287   0.634   1.142  1.00  0.00    -0.316 OA  
ATOM     30  C16 UNL     1      -6.800  -0.573   1.748  1.00  0.00     0.337 C   
ENDBRANCH  21  22
ENDBRANCH  18  21
ENDBRANCH  17  18
BRANCH  17  31
ATOM     31  C17 UNL     1       0.622  -1.121   2.793  1.00  0.00     0.043 C   
ATOM     32  C18 UNL     1       1.874  -2.007   2.636  1.00  0.00     0.010 C   
ATOM     33  C22 UNL     1       0.931   0.076   3.714  1.00  0.00     0.010 C   
ATOM     34  C19 UNL     1       2.422  -2.453   3.992  1.00  0.00     0.001 C   
ATOM     35  C21 UNL     1       1.476  -0.378   5.067  1.00  0.00     0.001 C   
ATOM     36  C20 UNL     1       2.705  -1.266   4.906  1.00  0.00     0.000 C   
ENDBRANCH  17  31
ENDBRANCH   3  17
TORSDOF 7
