REMARK SMILES CCc1n[nH]c(CC)c1Cn1cc([C@@H]([NH2+]Cc2ccc3c(c2)OCO3)C2CCCC2)nn1
REMARK SMILES IDX 11 1 12 2 13 3 31 4 32 5 10 7 9 8 3 9 4 10 5 11 6 12 2 14
REMARK SMILES IDX 1 15 7 16 8 17 14 18 15 19 16 22 17 23 18 24 22 25 19 26
REMARK SMILES IDX 21 27 20 28 23 29 25 30 24 31 26 32 27 33 30 34 28 35 29 36
REMARK H PARENT 12 6 5 13 15 20 15 21
ROOT
ATOM     1   N3  UNL     1      -0.584  -1.068  -1.488  1.00  0.00    -0.208 N   
ATOM     2   C9  UNL     1      -0.887  -1.401  -0.195  1.00  0.00     0.046 A   
ATOM     3   C10 UNL     1      -0.994  -0.186   0.442  1.00  0.00     0.127 A   
ATOM     4   N5  UNL     1      -0.772   0.821  -0.462  1.00  0.00    -0.132 NA  
ATOM     5   N6  UNL     1      -0.551   0.270  -1.643  1.00  0.00    -0.076 NA  
ATOM     6   H14 UNL     1      -0.970  -2.427   0.134  1.00  0.00     0.083 HD  
ENDROOT
BRANCH   1   7
ATOM     7   C8  UNL     1      -0.369  -1.957  -2.619  1.00  0.00     0.173 C   
BRANCH   7   8
ATOM     8   C7  UNL     1       1.073  -2.301  -2.755  1.00  0.00     0.013 A   
ATOM     9   C3  UNL     1       2.082  -1.556  -3.435  1.00  0.00     0.065 A   
ATOM     10  N1  UNL     1       3.268  -2.171  -3.382  1.00  0.00    -0.189 NA  
ATOM     11  N2  UNL     1       3.037  -3.287  -2.682  1.00  0.00    -0.242 N   
ATOM     12  C4  UNL     1       1.737  -3.422  -2.279  1.00  0.00     0.031 A   
ATOM     13  H6  UNL     1       3.816  -3.917  -2.516  1.00  0.00     0.175 HD  
BRANCH   9  14
ATOM     14  C2  UNL     1       1.960  -0.259  -4.170  1.00  0.00     0.055 C   
ATOM     15  C1  UNL     1       2.586   0.905  -3.417  1.00  0.00     0.011 C   
ENDBRANCH   9  14
BRANCH  12  16
ATOM     16  C5  UNL     1       1.286  -4.609  -1.500  1.00  0.00     0.050 C   
ATOM     17  C6  UNL     1       0.786  -5.719  -2.410  1.00  0.00     0.010 C   
ENDBRANCH  12  16
ENDBRANCH   7   8
ENDBRANCH   1   7
BRANCH   3  18
ATOM     18  C11 UNL     1      -1.241   0.164   1.872  1.00  0.00     0.117 C   
BRANCH  18  19
ATOM     19  N4  UNL     1      -0.341   1.308   2.277  1.00  0.00     0.249 N   
ATOM     20  H16 UNL     1      -0.071   1.783   1.400  1.00  0.00     0.199 HD  
ATOM     21  H17 UNL     1      -0.859   2.008   2.817  1.00  0.00     0.199 HD  
BRANCH  19  22
ATOM     22  C12 UNL     1       0.897   0.943   3.018  1.00  0.00     0.164 C   
BRANCH  22  23
ATOM     23  C13 UNL     1       1.881   0.145   2.210  1.00  0.00    -0.002 A   
ATOM     24  C14 UNL     1       2.005  -1.253   2.398  1.00  0.00     0.012 A   
ATOM     25  C18 UNL     1       2.684   0.784   1.250  1.00  0.00     0.045 A   
ATOM     26  C15 UNL     1       2.914  -2.004   1.645  1.00  0.00     0.037 A   
ATOM     27  C17 UNL     1       3.581   0.017   0.536  1.00  0.00     0.109 A   
ATOM     28  C16 UNL     1       3.692  -1.338   0.724  1.00  0.00     0.108 A   
ATOM     29  O1  UNL     1       4.452   0.486  -0.394  1.00  0.00    -0.316 OA  
ATOM     30  O2  UNL     1       4.643  -1.897  -0.069  1.00  0.00    -0.316 OA  
ATOM     31  C19 UNL     1       5.145  -0.728  -0.758  1.00  0.00     0.337 C   
ENDBRANCH  22  23
ENDBRANCH  19  22
ENDBRANCH  18  19
BRANCH  18  32
ATOM     32  C20 UNL     1      -2.719   0.520   2.132  1.00  0.00     0.043 C   
ATOM     33  C21 UNL     1      -3.060   0.730   3.622  1.00  0.00     0.010 C   
ATOM     34  C24 UNL     1      -3.247   1.776   1.421  1.00  0.00     0.010 C   
ATOM     35  C22 UNL     1      -3.918   1.992   3.691  1.00  0.00     0.001 C   
ATOM     36  C23 UNL     1      -4.431   2.195   2.276  1.00  0.00     0.001 C   
ENDBRANCH  18  32
ENDBRANCH   3  18
TORSDOF 9
