REMARK SMILES CCC[C@H](c1cnn[nH]1)n1cc([C@@H]([NH2+]Cc2ccc3c(c2)OCO3)C2CCCCC2)nn1
REMARK SMILES IDX 10 1 11 2 12 3 31 4 32 5 4 7 3 8 2 9 1 10 5 11 6 12 9 13
REMARK SMILES IDX 7 14 8 15 13 17 14 18 15 21 16 22 17 23 21 24 18 25 20 26
REMARK SMILES IDX 19 27 22 28 24 29 23 30 25 31 26 32 30 33 27 34 29 35 28 36
REMARK H PARENT 11 6 9 16 14 19 14 20
ROOT
ATOM     1   N4  UNL     1       2.679  -0.838   1.687  1.00  0.00    -0.203 N   
ATOM     2   C7  UNL     1       1.573  -0.550   0.932  1.00  0.00     0.046 A   
ATOM     3   C8  UNL     1       0.701   0.030   1.826  1.00  0.00     0.127 A   
ATOM     4   N6  UNL     1       1.279   0.053   3.069  1.00  0.00    -0.132 NA  
ATOM     5   N7  UNL     1       2.476  -0.501   2.977  1.00  0.00    -0.075 NA  
ATOM     6   H11 UNL     1       1.506  -0.793  -0.120  1.00  0.00     0.083 HD  
ENDROOT
BRANCH   1   7
ATOM     7   C4  UNL     1       3.879  -1.585   1.308  1.00  0.00     0.147 C   
BRANCH   7   8
ATOM     8   C3  UNL     1       4.569  -1.023   0.051  1.00  0.00     0.031 C   
BRANCH   8   9
ATOM     9   C2  UNL     1       5.073   0.411   0.249  1.00  0.00    -0.001 C   
ATOM     10  C1  UNL     1       5.801   0.919  -0.986  1.00  0.00     0.004 C   
ENDBRANCH   8   9
ENDBRANCH   7   8
BRANCH   7  11
ATOM     11  C5  UNL     1       3.491  -3.023   1.169  1.00  0.00     0.069 A   
ATOM     12  C6  UNL     1       3.236  -3.855   0.101  1.00  0.00     0.160 A   
ATOM     13  N3  UNL     1       3.256  -3.825   2.257  1.00  0.00    -0.220 N   
ATOM     14  N1  UNL     1       2.797  -5.064   0.558  1.00  0.00    -0.141 NA  
ATOM     15  N2  UNL     1       2.793  -5.025   1.882  1.00  0.00    -0.079 NA  
ATOM     16  H10 UNL     1       3.344  -3.623   3.248  1.00  0.00     0.177 HD  
ENDBRANCH   7  11
ENDBRANCH   1   7
BRANCH   3  17
ATOM     17  C9  UNL     1      -0.706   0.510   1.652  1.00  0.00     0.117 C   
BRANCH  17  18
ATOM     18  N5  UNL     1      -1.552  -0.010   2.799  1.00  0.00     0.249 N   
ATOM     19  H13 UNL     1      -2.494   0.383   2.760  1.00  0.00     0.199 HD  
ATOM     20  H14 UNL     1      -1.112   0.328   3.667  1.00  0.00     0.199 HD  
BRANCH  18  21
ATOM     21  C10 UNL     1      -1.685  -1.498   2.911  1.00  0.00     0.164 C   
BRANCH  21  22
ATOM     22  C11 UNL     1      -2.337  -2.128   1.711  1.00  0.00    -0.002 A   
ATOM     23  C12 UNL     1      -1.603  -3.014   0.884  1.00  0.00     0.012 A   
ATOM     24  C16 UNL     1      -3.676  -1.835   1.392  1.00  0.00     0.045 A   
ATOM     25  C13 UNL     1      -2.186  -3.590  -0.250  1.00  0.00     0.037 A   
ATOM     26  C15 UNL     1      -4.219  -2.419   0.266  1.00  0.00     0.109 A   
ATOM     27  C14 UNL     1      -3.496  -3.270  -0.534  1.00  0.00     0.108 A   
ATOM     28  O1  UNL     1      -5.490  -2.236  -0.183  1.00  0.00    -0.316 OA  
ATOM     29  O2  UNL     1      -4.221  -3.731  -1.587  1.00  0.00    -0.316 OA  
ATOM     30  C17 UNL     1      -5.502  -3.112  -1.333  1.00  0.00     0.337 C   
ENDBRANCH  21  22
ENDBRANCH  18  21
ENDBRANCH  17  18
BRANCH  17  31
ATOM     31  C18 UNL     1      -0.790   2.069   1.616  1.00  0.00     0.043 C   
ATOM     32  C19 UNL     1      -2.226   2.628   1.495  1.00  0.00     0.010 C   
ATOM     33  C23 UNL     1       0.044   2.676   0.464  1.00  0.00     0.010 C   
ATOM     34  C20 UNL     1      -2.863   2.324   0.140  1.00  0.00     0.001 C   
ATOM     35  C22 UNL     1      -0.556   2.386  -0.914  1.00  0.00     0.001 C   
ATOM     36  C21 UNL     1      -2.008   2.852  -1.008  1.00  0.00     0.000 C   
ENDBRANCH  17  31
ENDBRANCH   3  17
TORSDOF 9
