REMARK SMILES CCC[C@@H](c1cnn[nH]1)n1cc([C@@H]([NH2+]Cc2ccc3c(c2)OCO3)C2CCCCC2)nn1
REMARK SMILES IDX 10 1 11 2 12 3 31 4 32 5 4 7 3 8 2 9 1 10 5 11 6 12 9 13
REMARK SMILES IDX 7 14 8 15 13 17 14 18 15 21 16 22 17 23 21 24 18 25 20 26
REMARK SMILES IDX 19 27 22 28 24 29 23 30 25 31 26 32 30 33 27 34 29 35 28 36
REMARK H PARENT 11 6 9 16 14 19 14 20
ROOT
ATOM     1   N4  UNL     1      -1.705   0.018   0.291  1.00  0.00    -0.203 N   
ATOM     2   C7  UNL     1      -0.531   0.702   0.438  1.00  0.00     0.046 A   
ATOM     3   C8  UNL     1       0.079   0.587  -0.791  1.00  0.00     0.127 A   
ATOM     4   N6  UNL     1      -0.727  -0.141  -1.629  1.00  0.00    -0.132 NA  
ATOM     5   N7  UNL     1      -1.817  -0.478  -0.962  1.00  0.00    -0.075 NA  
ATOM     6   H11 UNL     1      -0.242   1.167   1.369  1.00  0.00     0.083 HD  
ENDROOT
BRANCH   1   7
ATOM     7   C4  UNL     1      -2.739  -0.236   1.302  1.00  0.00     0.147 C   
BRANCH   7   8
ATOM     8   C3  UNL     1      -4.105   0.304   0.838  1.00  0.00     0.031 C   
BRANCH   8   9
ATOM     9   C2  UNL     1      -5.216   0.247   1.892  1.00  0.00    -0.001 C   
ATOM     10  C1  UNL     1      -4.963   1.147   3.091  1.00  0.00     0.004 C   
ENDBRANCH   8   9
ENDBRANCH   7   8
BRANCH   7  11
ATOM     11  C5  UNL     1      -2.755  -1.687   1.642  1.00  0.00     0.069 A   
ATOM     12  C6  UNL     1      -2.574  -2.377   2.821  1.00  0.00     0.160 A   
ATOM     13  N3  UNL     1      -2.967  -2.683   0.724  1.00  0.00    -0.220 N   
ATOM     14  N1  UNL     1      -2.652  -3.715   2.583  1.00  0.00    -0.141 NA  
ATOM     15  N2  UNL     1      -2.893  -3.893   1.291  1.00  0.00    -0.079 NA  
ATOM     16  H10 UNL     1      -3.142  -2.612  -0.274  1.00  0.00     0.177 HD  
ENDBRANCH   7  11
ENDBRANCH   1   7
BRANCH   3  17
ATOM     17  C9  UNL     1       1.425   1.029  -1.279  1.00  0.00     0.117 C   
BRANCH  17  18
ATOM     18  N5  UNL     1       1.993  -0.094  -2.136  1.00  0.00     0.249 N   
ATOM     19  H13 UNL     1       1.180  -0.663  -2.423  1.00  0.00     0.199 HD  
ATOM     20  H14 UNL     1       2.382   0.263  -3.012  1.00  0.00     0.199 HD  
BRANCH  18  21
ATOM     21  C10 UNL     1       2.977  -0.997  -1.477  1.00  0.00     0.164 C   
BRANCH  21  22
ATOM     22  C11 UNL     1       2.432  -1.719  -0.276  1.00  0.00    -0.002 A   
ATOM     23  C12 UNL     1       1.456  -2.735  -0.426  1.00  0.00     0.012 A   
ATOM     24  C16 UNL     1       2.862  -1.366   1.015  1.00  0.00     0.045 A   
ATOM     25  C13 UNL     1       0.916  -3.386   0.688  1.00  0.00     0.037 A   
ATOM     26  C15 UNL     1       2.316  -2.034   2.090  1.00  0.00     0.109 A   
ATOM     27  C14 UNL     1       1.373  -3.018   1.932  1.00  0.00     0.108 A   
ATOM     28  O1  UNL     1       2.615  -1.810   3.397  1.00  0.00    -0.316 OA  
ATOM     29  O2  UNL     1       0.970  -3.542   3.117  1.00  0.00    -0.316 OA  
ATOM     30  C17 UNL     1       1.823  -2.837   4.037  1.00  0.00     0.337 C   
ENDBRANCH  21  22
ENDBRANCH  18  21
ENDBRANCH  17  18
BRANCH  17  31
ATOM     31  C18 UNL     1       1.371   2.336  -2.126  1.00  0.00     0.043 C   
ATOM     32  C19 UNL     1       2.771   2.838  -2.548  1.00  0.00     0.010 C   
ATOM     33  C23 UNL     1       0.648   3.495  -1.403  1.00  0.00     0.010 C   
ATOM     34  C20 UNL     1       3.588   3.394  -1.380  1.00  0.00     0.001 C   
ATOM     35  C22 UNL     1       1.435   4.016  -0.202  1.00  0.00     0.001 C   
ATOM     36  C21 UNL     1       2.831   4.473  -0.614  1.00  0.00     0.000 C   
ENDBRANCH  17  31
ENDBRANCH   3  17
TORSDOF 9
