REMARK SMILES Cc1cc(CCn2cc([C@@H]([NH2+]Cc3ccc4c(c3)OCO4)C(C)(C)C)nn2)n[nH]1
REMARK SMILES IDX 7 1 8 2 9 3 26 4 27 5 6 7 5 8 4 9 2 10 3 11 29 12 28 13 1 14
REMARK SMILES IDX 10 16 11 17 12 20 13 21 14 22 18 23 15 24 17 25 16 26 19 27
REMARK SMILES IDX 21 28 20 29 22 30 23 31 24 32 25 33
REMARK H PARENT 8 6 29 15 11 18 11 19
ROOT
ATOM     1   N1  UNL     1      -1.352  -0.993   3.574  1.00  0.00    -0.212 N   
ATOM     2   C7  UNL     1      -2.005  -0.513   2.476  1.00  0.00     0.045 A   
ATOM     3   C8  UNL     1      -1.385  -1.149   1.424  1.00  0.00     0.127 A   
ATOM     4   N3  UNL     1      -0.437  -2.013   1.912  1.00  0.00    -0.132 NA  
ATOM     5   N4  UNL     1      -0.434  -1.915   3.230  1.00  0.00    -0.076 NA  
ATOM     6   H9  UNL     1      -2.758   0.259   2.543  1.00  0.00     0.083 HD  
ENDROOT
BRANCH   1   7
ATOM     7   C6  UNL     1      -1.506  -0.595   4.957  1.00  0.00     0.140 C   
BRANCH   7   8
ATOM     8   C5  UNL     1      -0.469   0.440   5.382  1.00  0.00     0.079 C   
BRANCH   8   9
ATOM     9   C4  UNL     1      -0.796   1.822   4.916  1.00  0.00     0.062 A   
ATOM     10  C2  UNL     1      -1.424   3.946   4.830  1.00  0.00     0.024 A   
ATOM     11  C3  UNL     1      -1.350   2.872   5.686  1.00  0.00     0.045 A   
ATOM     12  N6  UNL     1      -0.920   3.505   3.640  1.00  0.00    -0.243 N   
ATOM     13  N5  UNL     1      -0.571   2.202   3.649  1.00  0.00    -0.189 NA  
ATOM     14  C1  UNL     1      -1.890   5.337   5.029  1.00  0.00     0.063 C   
ATOM     15  H29 UNL     1      -0.791   4.039   2.787  1.00  0.00     0.175 HD  
ENDBRANCH   8   9
ENDBRANCH   7   8
ENDBRANCH   1   7
BRANCH   3  16
ATOM     16  C9  UNL     1      -1.488  -0.931  -0.052  1.00  0.00     0.120 C   
BRANCH  16  17
ATOM     17  N2  UNL     1      -0.088  -0.925  -0.623  1.00  0.00     0.250 N   
ATOM     18  H11 UNL     1      -0.074  -1.057  -1.636  1.00  0.00     0.199 HD  
ATOM     19  H12 UNL     1       0.395  -1.740  -0.215  1.00  0.00     0.199 HD  
BRANCH  17  20
ATOM     20  C10 UNL     1       0.731   0.273  -0.276  1.00  0.00     0.164 C   
BRANCH  20  21
ATOM     21  C11 UNL     1       2.119   0.131  -0.835  1.00  0.00    -0.002 A   
ATOM     22  C12 UNL     1       3.123  -0.521  -0.080  1.00  0.00     0.012 A   
ATOM     23  C16 UNL     1       2.412   0.589  -2.131  1.00  0.00     0.045 A   
ATOM     24  C13 UNL     1       4.408  -0.706  -0.602  1.00  0.00     0.037 A   
ATOM     25  C15 UNL     1       3.688   0.390  -2.615  1.00  0.00     0.109 A   
ATOM     26  C14 UNL     1       4.658  -0.239  -1.873  1.00  0.00     0.108 A   
ATOM     27  O1  UNL     1       4.136   0.768  -3.841  1.00  0.00    -0.316 OA  
ATOM     28  O2  UNL     1       5.839  -0.333  -2.537  1.00  0.00    -0.316 OA  
ATOM     29  C17 UNL     1       5.511   0.325  -3.780  1.00  0.00     0.337 C   
ENDBRANCH  20  21
ENDBRANCH  17  20
ENDBRANCH  16  17
BRANCH  16  30
ATOM     30  C18 UNL     1      -2.385  -1.974  -0.802  1.00  0.00     0.010 C   
ATOM     31  C19 UNL     1      -1.806  -3.402  -0.764  1.00  0.00     0.017 C   
ATOM     32  C20 UNL     1      -2.558  -1.562  -2.282  1.00  0.00     0.017 C   
ATOM     33  C21 UNL     1      -3.798  -2.005  -0.174  1.00  0.00     0.017 C   
ENDBRANCH  16  30
ENDBRANCH   3  16
TORSDOF 8
