REMARK SMILES Cc1ccc([C@H](CO)n2cc([C@H](CC(C)C)[NH2+]Cc3ccc4c(c3)OCO4)nn2)cc1C
REMARK SMILES IDX 9 1 10 2 11 3 28 4 29 5 6 7 5 8 2 9 3 10 31 11 4 12 30 13
REMARK SMILES IDX 1 14 32 15 7 16 8 17 12 19 13 20 14 21 15 22 16 23 17 24
REMARK SMILES IDX 18 27 19 28 20 29 24 30 21 31 23 32 22 33 25 34 27 35 26 36
REMARK H PARENT 10 6 8 18 17 25 17 26
ROOT
ATOM     1   N1  UNL     1       1.363  -1.573  -1.448  1.00  0.00    -0.202 N   
ATOM     2   C8  UNL     1       0.943  -0.548  -0.642  1.00  0.00     0.046 A   
ATOM     3   C9  UNL     1       1.204  -0.994   0.633  1.00  0.00     0.127 A   
ATOM     4   N3  UNL     1       1.725  -2.261   0.574  1.00  0.00    -0.132 NA  
ATOM     5   N4  UNL     1       1.815  -2.606  -0.702  1.00  0.00    -0.075 NA  
ATOM     6   H10 UNL     1       0.520   0.364  -1.041  1.00  0.00     0.083 HD  
ENDROOT
BRANCH   1   7
ATOM     7   C6  UNL     1       1.332  -1.678  -2.908  1.00  0.00     0.155 C   
BRANCH   7   8
ATOM     8   C5  UNL     1       1.751  -0.365  -3.561  1.00  0.00    -0.023 A   
ATOM     9   C2  UNL     1       2.636   2.064  -4.727  1.00  0.00    -0.048 A   
ATOM     10  C3  UNL     1       1.277   1.721  -4.717  1.00  0.00     0.004 A   
ATOM     11  C24 UNL     1       3.566   1.190  -4.136  1.00  0.00    -0.048 A   
ATOM     12  C4  UNL     1       0.840   0.524  -4.144  1.00  0.00     0.006 A   
ATOM     13  C23 UNL     1       3.115  -0.011  -3.563  1.00  0.00     0.009 A   
ATOM     14  C1  UNL     1       3.062   3.361  -5.358  1.00  0.00     0.044 C   
ATOM     15  C25 UNL     1       5.037   1.507  -4.119  1.00  0.00     0.044 C   
ENDBRANCH   7   8
BRANCH   7  16
ATOM     16  C7  UNL     1       0.005  -2.309  -3.381  1.00  0.00     0.185 C   
BRANCH  16  17
ATOM     17  O1  UNL     1      -1.149  -1.603  -2.914  1.00  0.00    -0.394 OA  
ATOM     18  H9  UNL     1      -1.922  -1.990  -3.366  1.00  0.00     0.210 HD  
ENDBRANCH  16  17
ENDBRANCH   7  16
ENDBRANCH   1   7
BRANCH   3  19
ATOM     19  C10 UNL     1       0.951  -0.365   1.960  1.00  0.00     0.114 C   
BRANCH  19  20
ATOM     20  C11 UNL     1       2.229   0.233   2.581  1.00  0.00     0.064 C   
BRANCH  20  21
ATOM     21  C12 UNL     1       2.870   1.386   1.778  1.00  0.00    -0.012 C   
ATOM     22  C13 UNL     1       4.178   1.816   2.449  1.00  0.00     0.007 C   
ATOM     23  C14 UNL     1       1.939   2.593   1.644  1.00  0.00     0.007 C   
ENDBRANCH  20  21
ENDBRANCH  19  20
BRANCH  19  24
ATOM     24  N2  UNL     1       0.436  -1.410   2.930  1.00  0.00     0.249 N   
ATOM     25  H21 UNL     1       0.451  -1.042   3.885  1.00  0.00     0.199 HD  
ATOM     26  H22 UNL     1       1.106  -2.191   2.889  1.00  0.00     0.199 HD  
BRANCH  24  27
ATOM     27  C15 UNL     1      -0.920  -1.964   2.641  1.00  0.00     0.164 C   
BRANCH  27  28
ATOM     28  C16 UNL     1      -2.018  -0.976   2.921  1.00  0.00    -0.002 A   
ATOM     29  C17 UNL     1      -2.647  -0.281   1.859  1.00  0.00     0.012 A   
ATOM     30  C21 UNL     1      -2.406  -0.713   4.247  1.00  0.00     0.045 A   
ATOM     31  C18 UNL     1      -3.643   0.669   2.112  1.00  0.00     0.037 A   
ATOM     32  C20 UNL     1      -3.396   0.224   4.460  1.00  0.00     0.109 A   
ATOM     33  C19 UNL     1      -3.994   0.900   3.424  1.00  0.00     0.108 A   
ATOM     34  O2  UNL     1      -3.883   0.594   5.674  1.00  0.00    -0.316 OA  
ATOM     35  O3  UNL     1      -4.930   1.786   3.856  1.00  0.00    -0.316 OA  
ATOM     36  C22 UNL     1      -4.894   1.552   5.282  1.00  0.00     0.337 C   
ENDBRANCH  27  28
ENDBRANCH  24  27
ENDBRANCH  19  24
ENDBRANCH   3  19
TORSDOF 10
