REMARK SMILES Cc1ccc([C@@H](CO)n2cc([C@H](CC(C)C)[NH2+]Cc3ccc4c(c3)OCO4)nn2)cc1C
REMARK SMILES IDX 9 1 10 2 11 3 28 4 29 5 6 7 5 8 2 9 3 10 31 11 4 12 30 13
REMARK SMILES IDX 1 14 32 15 7 16 8 17 12 19 13 20 14 21 15 22 16 23 17 24
REMARK SMILES IDX 18 27 19 28 20 29 24 30 21 31 23 32 22 33 25 34 27 35 26 36
REMARK H PARENT 10 6 8 18 17 25 17 26
ROOT
ATOM     1   N1  UNL     1      -0.711  -0.544  -2.659  1.00  0.00    -0.202 N   
ATOM     2   C8  UNL     1      -0.856   0.175  -1.502  1.00  0.00     0.046 A   
ATOM     3   C9  UNL     1      -0.201   1.357  -1.752  1.00  0.00     0.127 A   
ATOM     4   N3  UNL     1       0.321   1.321  -3.019  1.00  0.00    -0.132 NA  
ATOM     5   N4  UNL     1       0.019   0.150  -3.558  1.00  0.00    -0.075 NA  
ATOM     6   H10 UNL     1      -1.404  -0.210  -0.653  1.00  0.00     0.083 HD  
ENDROOT
BRANCH   1   7
ATOM     7   C6  UNL     1      -1.193  -1.889  -2.972  1.00  0.00     0.155 C   
BRANCH   7   8
ATOM     8   C5  UNL     1      -0.765  -2.871  -1.885  1.00  0.00    -0.023 A   
ATOM     9   C2  UNL     1       0.158  -4.634   0.135  1.00  0.00    -0.048 A   
ATOM     10  C3  UNL     1      -1.187  -4.245   0.075  1.00  0.00     0.004 A   
ATOM     11  C24 UNL     1       1.056  -4.145  -0.831  1.00  0.00    -0.048 A   
ATOM     12  C4  UNL     1      -1.643  -3.374  -0.918  1.00  0.00     0.006 A   
ATOM     13  C23 UNL     1       0.586  -3.268  -1.823  1.00  0.00     0.009 A   
ATOM     14  C1  UNL     1       0.606  -5.577   1.219  1.00  0.00     0.044 C   
ATOM     15  C25 UNL     1       2.512  -4.527  -0.810  1.00  0.00     0.044 C   
ENDBRANCH   7   8
BRANCH   7  16
ATOM     16  C7  UNL     1      -2.684  -1.862  -3.367  1.00  0.00     0.185 C   
BRANCH  16  17
ATOM     17  O1  UNL     1      -3.526  -1.302  -2.356  1.00  0.00    -0.394 OA  
ATOM     18  H9  UNL     1      -4.443  -1.385  -2.685  1.00  0.00     0.210 HD  
ENDBRANCH  16  17
ENDBRANCH   7  16
ENDBRANCH   1   7
BRANCH   3  19
ATOM     19  C10 UNL     1       0.028   2.548  -0.885  1.00  0.00     0.114 C   
BRANCH  19  20
ATOM     20  C11 UNL     1      -1.088   3.604  -1.022  1.00  0.00     0.064 C   
BRANCH  20  21
ATOM     21  C12 UNL     1      -2.478   3.167  -0.511  1.00  0.00    -0.012 C   
ATOM     22  C13 UNL     1      -3.493   4.287  -0.762  1.00  0.00     0.007 C   
ATOM     23  C14 UNL     1      -2.467   2.808   0.976  1.00  0.00     0.007 C   
ENDBRANCH  20  21
ENDBRANCH  19  20
BRANCH  19  24
ATOM     24  N2  UNL     1       1.327   3.235  -1.266  1.00  0.00     0.249 N   
ATOM     25  H21 UNL     1       1.285   3.384  -2.284  1.00  0.00     0.199 HD  
ATOM     26  H22 UNL     1       1.381   4.154  -0.822  1.00  0.00     0.199 HD  
BRANCH  24  27
ATOM     27  C15 UNL     1       2.584   2.481  -0.984  1.00  0.00     0.164 C   
BRANCH  27  28
ATOM     28  C16 UNL     1       2.814   2.238   0.481  1.00  0.00    -0.002 A   
ATOM     29  C17 UNL     1       3.164   3.307   1.341  1.00  0.00     0.012 A   
ATOM     30  C21 UNL     1       2.656   0.945   1.012  1.00  0.00     0.045 A   
ATOM     31  C18 UNL     1       3.354   3.094   2.710  1.00  0.00     0.037 A   
ATOM     32  C20 UNL     1       2.852   0.768   2.366  1.00  0.00     0.109 A   
ATOM     33  C19 UNL     1       3.190   1.812   3.191  1.00  0.00     0.108 A   
ATOM     34  O2  UNL     1       2.735  -0.407   3.038  1.00  0.00    -0.316 OA  
ATOM     35  O3  UNL     1       3.331   1.425   4.486  1.00  0.00    -0.316 OA  
ATOM     36  C22 UNL     1       3.052   0.012   4.384  1.00  0.00     0.337 C   
ENDBRANCH  27  28
ENDBRANCH  24  27
ENDBRANCH  19  24
ENDBRANCH   3  19
TORSDOF 10
