REMARK SMILES CC(C)C[C@H]([NH2+]Cc1ccc2c(c1)OCO2)c1cn(CCc2ccncc2)nn1
REMARK SMILES IDX 17 1 18 2 19 3 28 4 29 5 5 7 4 8 2 9 1 10 3 11 6 12 7 15
REMARK SMILES IDX 8 16 9 17 13 18 10 19 12 20 11 21 14 22 16 23 15 24 20 25
REMARK SMILES IDX 21 26 22 27 23 28 27 29 24 30 26 31 25 32
REMARK H PARENT 18 6 6 13 6 14
ROOT
ATOM     1   C14 UNL     1       1.839   0.901   1.125  1.00  0.00     0.127 A   
ATOM     2   C15 UNL     1       2.860   1.702   0.664  1.00  0.00     0.045 A   
ATOM     3   N2  UNL     1       3.977   0.918   0.799  1.00  0.00    -0.212 N   
ATOM     4   N4  UNL     1       3.684  -0.224   1.445  1.00  0.00    -0.076 NA  
ATOM     5   N5  UNL     1       2.371  -0.262   1.620  1.00  0.00    -0.132 NA  
ATOM     6   H20 UNL     1       2.882   2.659   0.163  1.00  0.00     0.083 HD  
ENDROOT
BRANCH   1   7
ATOM     7   C5  UNL     1       0.356   1.060   1.010  1.00  0.00     0.114 C   
BRANCH   7   8
ATOM     8   C4  UNL     1      -0.377   0.859   2.353  1.00  0.00     0.064 C   
BRANCH   8   9
ATOM     9   C2  UNL     1      -0.383   2.097   3.278  1.00  0.00    -0.012 C   
ATOM     10  C1  UNL     1      -1.349   1.858   4.444  1.00  0.00     0.007 C   
ATOM     11  C3  UNL     1       0.994   2.456   3.835  1.00  0.00     0.007 C   
ENDBRANCH   8   9
ENDBRANCH   7   8
BRANCH   7  12
ATOM     12  N1  UNL     1      -0.118   0.024   0.018  1.00  0.00     0.249 N   
ATOM     13  H11 UNL     1      -0.002  -0.904   0.447  1.00  0.00     0.199 HD  
ATOM     14  H12 UNL     1       0.539   0.009  -0.782  1.00  0.00     0.199 HD  
BRANCH  12  15
ATOM     15  C6  UNL     1      -1.472   0.177  -0.569  1.00  0.00     0.164 C   
BRANCH  15  16
ATOM     16  C7  UNL     1      -1.860  -1.041  -1.361  1.00  0.00    -0.002 A   
ATOM     17  C8  UNL     1      -1.830  -1.019  -2.776  1.00  0.00     0.012 A   
ATOM     18  C12 UNL     1      -2.224  -2.226  -0.697  1.00  0.00     0.045 A   
ATOM     19  C9  UNL     1      -2.159  -2.157  -3.521  1.00  0.00     0.037 A   
ATOM     20  C11 UNL     1      -2.537  -3.330  -1.461  1.00  0.00     0.109 A   
ATOM     21  C10 UNL     1      -2.508  -3.298  -2.834  1.00  0.00     0.108 A   
ATOM     22  O1  UNL     1      -2.894  -4.549  -0.978  1.00  0.00    -0.316 OA  
ATOM     23  O2  UNL     1      -2.847  -4.490  -3.388  1.00  0.00    -0.316 OA  
ATOM     24  C13 UNL     1      -3.103  -5.280  -2.208  1.00  0.00     0.337 C   
ENDBRANCH  15  16
ENDBRANCH  12  15
ENDBRANCH   7  12
ENDBRANCH   1   7
BRANCH   3  25
ATOM     25  C16 UNL     1       5.226   1.060   0.073  1.00  0.00     0.139 C   
BRANCH  25  26
ATOM     26  C17 UNL     1       5.352   0.086  -1.117  1.00  0.00     0.057 C   
BRANCH  26  27
ATOM     27  C18 UNL     1       4.054  -0.095  -1.875  1.00  0.00    -0.043 A   
ATOM     28  C19 UNL     1       3.359  -1.306  -1.785  1.00  0.00     0.024 A   
ATOM     29  C22 UNL     1       3.460   0.967  -2.562  1.00  0.00     0.024 A   
ATOM     30  C20 UNL     1       2.066  -1.365  -2.271  1.00  0.00     0.111 A   
ATOM     31  C21 UNL     1       2.152   0.819  -2.993  1.00  0.00     0.111 A   
ATOM     32  N3  UNL     1       1.412  -0.294  -2.779  1.00  0.00    -0.265 NA  
ENDBRANCH  26  27
ENDBRANCH  25  26
ENDBRANCH   3  25
TORSDOF 9
