REMARK SMILES O=C(c1cccc(N([O-])[O-])c1)n1cc([C@@H]([NH2+]Cc2ccc3c(c2)OCO3)C2CCCCC2)nn1
REMARK SMILES IDX 12 1 13 2 14 3 33 4 34 5 2 6 1 7 3 8 4 9 11 10 5 11 7 12
REMARK SMILES IDX 6 13 8 14 9 15 10 16 15 17 16 18 17 21 18 22 19 23 23 24
REMARK SMILES IDX 20 25 22 26 21 27 24 28 26 29 25 30 27 31 28 32 32 33 29 34
REMARK SMILES IDX 31 35 30 36
REMARK H PARENT 16 19 16 20
ROOT
ATOM     1   N2  UNL     1      -2.467  -0.257  -0.056  1.00  0.00    -0.143 N   
ATOM     2   C8  UNL     1      -1.643  -1.269  -0.515  1.00  0.00     0.139 A   
ATOM     3   C9  UNL     1      -0.366  -0.770  -0.405  1.00  0.00     0.128 A   
ATOM     4   N4  UNL     1      -0.433   0.508   0.083  1.00  0.00    -0.131 NA  
ATOM     5   N5  UNL     1      -1.704   0.808   0.294  1.00  0.00    -0.068 NA  
ENDROOT
BRANCH   1   6
ATOM     6   C1  UNL     1      -3.864  -0.260   0.084  1.00  0.00     0.271 C   
ATOM     7   O1  UNL     1      -4.427  -1.324  -0.171  1.00  0.00    -0.269 OA  
BRANCH   6   8
ATOM     8   C2  UNL     1      -4.691   0.898   0.520  1.00  0.00     0.042 A   
ATOM     9   C3  UNL     1      -5.854   0.640   1.262  1.00  0.00     0.014 A   
ATOM     10  C7  UNL     1      -4.370   2.215   0.173  1.00  0.00     0.045 A   
ATOM     11  C4  UNL     1      -6.673   1.690   1.686  1.00  0.00     0.003 A   
ATOM     12  C6  UNL     1      -5.200   3.264   0.602  1.00  0.00     0.118 A   
ATOM     13  C5  UNL     1      -6.348   3.007   1.362  1.00  0.00     0.031 A   
BRANCH  12  14
ATOM     14  N1  UNL     1      -4.859   4.646   0.240  1.00  0.00     0.092 N   
ATOM     15  O2  UNL     1      -5.549   5.556   0.718  1.00  0.00    -0.138 OA  
ATOM     16  O3  UNL     1      -3.895   4.814  -0.521  1.00  0.00    -0.138 OA  
ENDBRANCH  12  14
ENDBRANCH   6   8
ENDBRANCH   1   6
BRANCH   3  17
ATOM     17  C10 UNL     1       0.964  -1.361  -0.758  1.00  0.00     0.117 C   
BRANCH  17  18
ATOM     18  N3  UNL     1       1.931  -0.268  -1.147  1.00  0.00     0.249 N   
ATOM     19  H7  UNL     1       2.903  -0.589  -1.088  1.00  0.00     0.199 HD  
ATOM     20  H8  UNL     1       1.835   0.487  -0.451  1.00  0.00     0.199 HD  
BRANCH  18  21
ATOM     21  C11 UNL     1       1.708   0.339  -2.489  1.00  0.00     0.164 C   
BRANCH  21  22
ATOM     22  C12 UNL     1       2.683   1.457  -2.725  1.00  0.00    -0.002 A   
ATOM     23  C13 UNL     1       3.902   1.217  -3.402  1.00  0.00     0.012 A   
ATOM     24  C17 UNL     1       2.411   2.742  -2.221  1.00  0.00     0.045 A   
ATOM     25  C14 UNL     1       4.835   2.244  -3.585  1.00  0.00     0.037 A   
ATOM     26  C16 UNL     1       3.353   3.729  -2.418  1.00  0.00     0.109 A   
ATOM     27  C15 UNL     1       4.531   3.488  -3.081  1.00  0.00     0.108 A   
ATOM     28  O4  UNL     1       3.249   5.016  -1.995  1.00  0.00    -0.316 OA  
ATOM     29  O5  UNL     1       5.316   4.594  -3.162  1.00  0.00    -0.316 OA  
ATOM     30  C18 UNL     1       4.489   5.570  -2.491  1.00  0.00     0.337 C   
ENDBRANCH  21  22
ENDBRANCH  18  21
ENDBRANCH  17  18
BRANCH  17  31
ATOM     31  C19 UNL     1       1.613  -2.199   0.377  1.00  0.00     0.043 C   
ATOM     32  C20 UNL     1       0.810  -3.480   0.674  1.00  0.00     0.010 C   
ATOM     33  C24 UNL     1       1.860  -1.412   1.680  1.00  0.00     0.010 C   
ATOM     34  C21 UNL     1       1.498  -4.343   1.731  1.00  0.00     0.001 C   
ATOM     35  C23 UNL     1       2.538  -2.280   2.741  1.00  0.00     0.001 C   
ATOM     36  C22 UNL     1       1.753  -3.559   3.014  1.00  0.00     0.000 C   
ENDBRANCH  17  31
ENDBRANCH   3  17
TORSDOF 8
