REMARK SMILES Cc1cc(F)cc(CCn2cc([C@@H]([NH2+]Cc3ccc4c(c3)OCO4)C3CCCCC3)nn2)c1
REMARK SMILES IDX 10 1 11 2 12 3 31 4 32 5 9 7 8 8 7 9 2 10 3 11 33 12 4 13
REMARK SMILES IDX 6 14 1 15 5 16 13 17 14 18 15 21 16 22 17 23 21 24 18 25
REMARK SMILES IDX 20 26 19 27 22 28 24 29 23 30 25 31 26 32 30 33 27 34 29 35
REMARK SMILES IDX 28 36
REMARK H PARENT 11 6 14 19 14 20
ROOT
ATOM     1   N1  UNL     1       1.308  -2.610   0.864  1.00  0.00    -0.212 N   
ATOM     2   C9  UNL     1       0.527  -1.765   0.126  1.00  0.00     0.045 A   
ATOM     3   C10 UNL     1      -0.419  -1.320   1.023  1.00  0.00     0.127 A   
ATOM     4   N3  UNL     1      -0.221  -1.944   2.229  1.00  0.00    -0.132 NA  
ATOM     5   N4  UNL     1       0.832  -2.737   2.115  1.00  0.00    -0.076 NA  
ATOM     6   H10 UNL     1       0.734  -1.542  -0.912  1.00  0.00     0.083 HD  
ENDROOT
BRANCH   1   7
ATOM     7   C8  UNL     1       2.497  -3.326   0.449  1.00  0.00     0.139 C   
BRANCH   7   8
ATOM     8   C7  UNL     1       3.790  -2.612   0.843  1.00  0.00     0.057 C   
BRANCH   8   9
ATOM     9   C6  UNL     1       3.984  -1.304   0.112  1.00  0.00    -0.043 A   
ATOM     10  C2  UNL     1       4.557  -0.081  -1.925  1.00  0.00    -0.048 A   
ATOM     11  C3  UNL     1       4.288   1.123  -1.266  1.00  0.00     0.042 A   
ATOM     12  C26 UNL     1       4.414  -1.289  -1.225  1.00  0.00     0.007 A   
ATOM     13  C4  UNL     1       3.867   1.108   0.059  1.00  0.00     0.123 A   
ATOM     14  C5  UNL     1       3.711  -0.088   0.751  1.00  0.00     0.043 A   
ATOM     15  C1  UNL     1       5.062  -0.072  -3.338  1.00  0.00     0.044 C   
ATOM     16  F1  UNL     1       3.592   2.264   0.677  1.00  0.00    -0.207 F   
ENDBRANCH   8   9
ENDBRANCH   7   8
ENDBRANCH   1   7
BRANCH   3  17
ATOM     17  C11 UNL     1      -1.563  -0.373   0.865  1.00  0.00     0.117 C   
BRANCH  17  18
ATOM     18  N2  UNL     1      -2.710  -0.795   1.761  1.00  0.00     0.249 N   
ATOM     19  H12 UNL     1      -3.370  -0.021   1.883  1.00  0.00     0.199 HD  
ATOM     20  H13 UNL     1      -2.295  -0.991   2.684  1.00  0.00     0.199 HD  
BRANCH  18  21
ATOM     21  C12 UNL     1      -3.455  -2.021   1.349  1.00  0.00     0.164 C   
BRANCH  21  22
ATOM     22  C13 UNL     1      -4.238  -1.832   0.080  1.00  0.00    -0.002 A   
ATOM     23  C14 UNL     1      -3.850  -2.505  -1.104  1.00  0.00     0.012 A   
ATOM     24  C18 UNL     1      -5.347  -0.969   0.051  1.00  0.00     0.045 A   
ATOM     25  C15 UNL     1      -4.550  -2.320  -2.300  1.00  0.00     0.037 A   
ATOM     26  C17 UNL     1      -6.014  -0.807  -1.146  1.00  0.00     0.109 A   
ATOM     27  C16 UNL     1      -5.627  -1.462  -2.288  1.00  0.00     0.108 A   
ATOM     28  O1  UNL     1      -7.102  -0.016  -1.343  1.00  0.00    -0.316 OA  
ATOM     29  O2  UNL     1      -6.421  -1.165  -3.350  1.00  0.00    -0.316 OA  
ATOM     30  C19 UNL     1      -7.372  -0.265  -2.742  1.00  0.00     0.337 C   
ENDBRANCH  21  22
ENDBRANCH  18  21
ENDBRANCH  17  18
BRANCH  17  31
ATOM     31  C20 UNL     1      -1.220   1.107   1.186  1.00  0.00     0.043 C   
ATOM     32  C21 UNL     1      -0.210   1.690   0.179  1.00  0.00     0.010 C   
ATOM     33  C25 UNL     1      -0.728   1.347   2.627  1.00  0.00     0.010 C   
ATOM     34  C22 UNL     1       0.063   3.170   0.444  1.00  0.00     0.001 C   
ATOM     35  C24 UNL     1      -0.457   2.828   2.888  1.00  0.00     0.001 C   
ATOM     36  C23 UNL     1       0.525   3.409   1.877  1.00  0.00     0.000 C   
ENDBRANCH  17  31
ENDBRANCH   3  17
TORSDOF 8
