REMARK SMILES COCc1ccccc1-n1cc([C@H](CC(C)C)[NH2+]Cc2ccc3c(c2)OCO3)nn1
REMARK SMILES IDX 10 1 11 2 12 3 29 4 30 5 9 6 4 7 5 8 6 9 8 10 7 11 3 12 2 13
REMARK SMILES IDX 1 14 13 15 14 16 15 17 16 18 17 19 18 20 19 23 20 24 21 25
REMARK SMILES IDX 25 26 22 27 24 28 23 29 26 30 28 31 27 32
REMARK H PARENT 18 21 18 22
ROOT
ATOM     1   N1  UNL     1      -0.886   0.970   2.104  1.00  0.00    -0.180 N   
ATOM     2   C9  UNL     1      -0.491  -0.312   2.458  1.00  0.00     0.135 A   
ATOM     3   C10 UNL     1       0.209  -0.790   1.375  1.00  0.00     0.127 A   
ATOM     4   N3  UNL     1       0.232   0.168   0.401  1.00  0.00    -0.131 NA  
ATOM     5   N4  UNL     1      -0.426   1.220   0.851  1.00  0.00    -0.071 NA  
ENDROOT
BRANCH   1   6
ATOM     6   C8  UNL     1      -1.575   1.931   2.899  1.00  0.00     0.063 A   
ATOM     7   C3  UNL     1      -2.239   3.047   2.338  1.00  0.00     0.001 A   
ATOM     8   C4  UNL     1      -2.855   3.970   3.212  1.00  0.00     0.008 A   
ATOM     9   C5  UNL     1      -2.832   3.795   4.595  1.00  0.00     0.001 A   
ATOM     10  C7  UNL     1      -1.582   1.755   4.300  1.00  0.00     0.026 A   
ATOM     11  C6  UNL     1      -2.206   2.682   5.138  1.00  0.00     0.002 A   
BRANCH   7  12
ATOM     12  C2  UNL     1      -2.428   3.278   0.853  1.00  0.00     0.197 C   
BRANCH  12  13
ATOM     13  O1  UNL     1      -3.161   2.170   0.323  1.00  0.00    -0.380 OA  
ATOM     14  C1  UNL     1      -3.409   2.331  -1.065  1.00  0.00     0.195 C   
ENDBRANCH  12  13
ENDBRANCH   7  12
ENDBRANCH   1   6
BRANCH   3  15
ATOM     15  C11 UNL     1       0.844  -2.118   1.120  1.00  0.00     0.114 C   
BRANCH  15  16
ATOM     16  C12 UNL     1       2.318  -2.163   1.566  1.00  0.00     0.064 C   
BRANCH  16  17
ATOM     17  C13 UNL     1       2.542  -2.073   3.093  1.00  0.00    -0.012 C   
ATOM     18  C14 UNL     1       1.977  -3.288   3.830  1.00  0.00     0.007 C   
ATOM     19  C15 UNL     1       4.042  -1.946   3.388  1.00  0.00     0.007 C   
ENDBRANCH  16  17
ENDBRANCH  15  16
BRANCH  15  20
ATOM     20  N2  UNL     1       0.800  -2.390  -0.364  1.00  0.00     0.249 N   
ATOM     21  H21 UNL     1      -0.024  -1.903  -0.751  1.00  0.00     0.199 HD  
ATOM     22  H22 UNL     1       1.586  -1.899  -0.814  1.00  0.00     0.199 HD  
BRANCH  20  23
ATOM     23  C16 UNL     1       0.761  -3.810  -0.790  1.00  0.00     0.164 C   
BRANCH  23  24
ATOM     24  C17 UNL     1       1.021  -3.926  -2.265  1.00  0.00    -0.002 A   
ATOM     25  C18 UNL     1       2.311  -4.284  -2.734  1.00  0.00     0.012 A   
ATOM     26  C22 UNL     1       0.009  -3.623  -3.192  1.00  0.00     0.045 A   
ATOM     27  C19 UNL     1       2.585  -4.350  -4.105  1.00  0.00     0.037 A   
ATOM     28  C21 UNL     1       0.316  -3.691  -4.537  1.00  0.00     0.109 A   
ATOM     29  C20 UNL     1       1.566  -4.046  -4.981  1.00  0.00     0.108 A   
ATOM     30  O2  UNL     1      -0.537  -3.420  -5.558  1.00  0.00    -0.316 OA  
ATOM     31  O3  UNL     1       1.656  -4.050  -6.336  1.00  0.00    -0.316 OA  
ATOM     32  C23 UNL     1       0.315  -3.662  -6.702  1.00  0.00     0.337 C   
ENDBRANCH  23  24
ENDBRANCH  20  23
ENDBRANCH  15  20
ENDBRANCH   3  15
TORSDOF 9
