REMARK SMILES CC(C)C[C@H]([NH2+]Cc1ccc2c(c1)OCO2)c1cn(-c2ccc3c(c2)C(=O)c2ccccc2C3=O)nn1
REMARK SMILES IDX 5 1 4 2 2 3 1 4 3 5 6 6 7 9 8 10 9 11 13 12 10 13 12 14
REMARK SMILES IDX 11 15 14 16 16 17 15 18 17 19 18 20 37 21 19 22 36 23 20 24
REMARK SMILES IDX 21 25 25 26 22 27 24 28 23 29 26 30 34 31 28 32 33 33 29 34
REMARK SMILES IDX 32 35 30 36 31 37 27 38 35 39
REMARK H PARENT 6 7 6 8
ROOT
ATOM     1   C5  UNL     1      -3.737   0.589   1.346  1.00  0.00     0.114 C   
ENDROOT
BRANCH   1   2
ATOM     2   C4  UNL     1      -4.999   0.793   0.482  1.00  0.00     0.064 C   
BRANCH   2   3
ATOM     3   C2  UNL     1      -4.935   0.176  -0.933  1.00  0.00    -0.012 C   
ATOM     4   C1  UNL     1      -6.217   0.510  -1.699  1.00  0.00     0.007 C   
ATOM     5   C3  UNL     1      -4.736  -1.341  -0.899  1.00  0.00     0.007 C   
ENDBRANCH   2   3
ENDBRANCH   1   2
BRANCH   1   6
ATOM     6   N1  UNL     1      -4.057   1.149   2.720  1.00  0.00     0.249 N   
ATOM     7   H11 UNL     1      -4.944   0.760   3.051  1.00  0.00     0.199 HD  
ATOM     8   H12 UNL     1      -4.191   2.163   2.603  1.00  0.00     0.199 HD  
BRANCH   6   9
ATOM     9   C6  UNL     1      -3.021   0.960   3.783  1.00  0.00     0.164 C   
BRANCH   9  10
ATOM     10  C7  UNL     1      -2.701  -0.485   4.049  1.00  0.00    -0.002 A   
ATOM     11  C8  UNL     1      -3.626  -1.315   4.728  1.00  0.00     0.012 A   
ATOM     12  C12 UNL     1      -1.490  -1.031   3.586  1.00  0.00     0.045 A   
ATOM     13  C9  UNL     1      -3.351  -2.671   4.939  1.00  0.00     0.037 A   
ATOM     14  C11 UNL     1      -1.254  -2.371   3.807  1.00  0.00     0.109 A   
ATOM     15  C10 UNL     1      -2.158  -3.169   4.463  1.00  0.00     0.108 A   
ATOM     16  O1  UNL     1      -0.146  -3.052   3.415  1.00  0.00    -0.316 OA  
ATOM     17  O2  UNL     1      -1.730  -4.453   4.573  1.00  0.00    -0.316 OA  
ATOM     18  C13 UNL     1      -0.439  -4.371   3.931  1.00  0.00     0.337 C   
ENDBRANCH   9  10
ENDBRANCH   6   9
ENDBRANCH   1   6
BRANCH   1  19
ATOM     19  C14 UNL     1      -2.535   1.254   0.764  1.00  0.00     0.127 A   
ATOM     20  C15 UNL     1      -1.493   0.745   0.021  1.00  0.00     0.135 A   
ATOM     21  N4  UNL     1      -2.315   2.583   0.989  1.00  0.00    -0.131 NA  
ATOM     22  N2  UNL     1      -0.656   1.818  -0.208  1.00  0.00    -0.181 N   
ATOM     23  N3  UNL     1      -1.171   2.911   0.412  1.00  0.00    -0.071 NA  
BRANCH  22  24
ATOM     24  C16 UNL     1       0.564   1.863  -0.928  1.00  0.00     0.058 A   
ATOM     25  C17 UNL     1       1.277   3.068  -1.017  1.00  0.00     0.027 A   
ATOM     26  C21 UNL     1       1.072   0.715  -1.551  1.00  0.00     0.039 A   
ATOM     27  C18 UNL     1       2.487   3.119  -1.718  1.00  0.00     0.015 A   
ATOM     28  C20 UNL     1       2.287   0.775  -2.255  1.00  0.00     0.036 A   
ATOM     29  C19 UNL     1       2.995   1.971  -2.336  1.00  0.00     0.034 A   
ATOM     30  C22 UNL     1       2.803  -0.445  -2.906  1.00  0.00     0.194 C   
ATOM     31  C29 UNL     1       4.279   2.033  -3.061  1.00  0.00     0.194 C   
ATOM     32  C23 UNL     1       4.071  -0.378  -3.661  1.00  0.00     0.034 A   
ATOM     33  C28 UNL     1       4.785   0.818  -3.733  1.00  0.00     0.034 A   
ATOM     34  C24 UNL     1       4.559  -1.525  -4.299  1.00  0.00     0.013 A   
ATOM     35  C27 UNL     1       5.991   0.870  -4.443  1.00  0.00     0.013 A   
ATOM     36  C25 UNL     1       5.760  -1.470  -5.007  1.00  0.00     0.001 A   
ATOM     37  C26 UNL     1       6.476  -0.275  -5.077  1.00  0.00     0.001 A   
ATOM     38  O3  UNL     1       2.176  -1.494  -2.812  1.00  0.00    -0.289 OA  
ATOM     39  O4  UNL     1       4.915   3.078  -3.092  1.00  0.00    -0.289 OA  
ENDBRANCH  22  24
ENDBRANCH   1  19
TORSDOF 7
