REMARK SMILES c1cnc2[nH]cc(CCn3cc([C@@H]([NH2+]Cc4ccc5c(c4)OCO5)C4CCCCC4)nn3)c2c1
REMARK SMILES IDX 10 1 11 2 12 3 31 4 32 5 9 7 8 8 7 9 1 10 2 11 34 12 3 13
REMARK SMILES IDX 33 14 4 15 5 16 6 17 13 19 14 20 15 23 16 24 17 25 21 26
REMARK SMILES IDX 18 27 20 28 19 29 22 30 24 31 23 32 25 33 26 34 30 35 27 36
REMARK SMILES IDX 29 37 28 38
REMARK H PARENT 11 6 5 18 14 21 14 22
ROOT
ATOM     1   N3  UNL     1      -2.037   1.226  -2.572  1.00  0.00    -0.212 N   
ATOM     2   C8  UNL     1      -1.769   1.391  -1.242  1.00  0.00     0.045 A   
ATOM     3   C9  UNL     1      -0.394   1.450  -1.185  1.00  0.00     0.127 A   
ATOM     4   N5  UNL     1       0.113   1.379  -2.456  1.00  0.00    -0.132 NA  
ATOM     5   N6  UNL     1      -0.901   1.248  -3.295  1.00  0.00    -0.076 NA  
ATOM     6   H9  UNL     1      -2.543   1.399  -0.487  1.00  0.00     0.083 HD  
ENDROOT
BRANCH   1   7
ATOM     7   C7  UNL     1      -3.308   1.030  -3.236  1.00  0.00     0.139 C   
BRANCH   7   8
ATOM     8   C6  UNL     1      -4.265   0.049  -2.558  1.00  0.00     0.059 C   
BRANCH   8   9
ATOM     9   C5  UNL     1      -3.668  -1.256  -2.120  1.00  0.00    -0.022 A   
ATOM     10  C1  UNL     1      -1.506  -3.299  -4.506  1.00  0.00     0.021 A   
ATOM     11  C2  UNL     1      -1.243  -4.265  -3.546  1.00  0.00     0.113 A   
ATOM     12  C26 UNL     1      -2.319  -2.213  -4.173  1.00  0.00     0.013 A   
ATOM     13  N1  UNL     1      -1.712  -4.259  -2.279  1.00  0.00    -0.241 NA  
ATOM     14  C25 UNL     1      -2.843  -2.159  -2.869  1.00  0.00     0.019 A   
ATOM     15  C3  UNL     1      -2.513  -3.211  -2.020  1.00  0.00     0.129 A   
ATOM     16  N2  UNL     1      -3.155  -3.015  -0.831  1.00  0.00    -0.305 N   
ATOM     17  C4  UNL     1      -3.838  -1.827  -0.867  1.00  0.00     0.077 A   
ATOM     18  H3  UNL     1      -3.097  -3.655  -0.050  1.00  0.00     0.154 HD  
ENDBRANCH   8   9
ENDBRANCH   7   8
ENDBRANCH   1   7
BRANCH   3  19
ATOM     19  C10 UNL     1       0.541   1.495  -0.021  1.00  0.00     0.117 C   
BRANCH  19  20
ATOM     20  N4  UNL     1       1.800   0.713  -0.320  1.00  0.00     0.249 N   
ATOM     21  H11 UNL     1       2.514   0.887   0.389  1.00  0.00     0.199 HD  
ATOM     22  H12 UNL     1       2.155   1.072  -1.217  1.00  0.00     0.199 HD  
BRANCH  20  23
ATOM     23  C11 UNL     1       1.641  -0.765  -0.493  1.00  0.00     0.164 C   
BRANCH  23  24
ATOM     24  C12 UNL     1       1.182  -1.459   0.758  1.00  0.00    -0.002 A   
ATOM     25  C13 UNL     1       2.078  -1.708   1.824  1.00  0.00     0.012 A   
ATOM     26  C17 UNL     1      -0.165  -1.839   0.886  1.00  0.00     0.045 A   
ATOM     27  C14 UNL     1       1.639  -2.331   2.998  1.00  0.00     0.037 A   
ATOM     28  C16 UNL     1      -0.567  -2.449   2.054  1.00  0.00     0.109 A   
ATOM     29  C15 UNL     1       0.310  -2.688   3.082  1.00  0.00     0.108 A   
ATOM     30  O1  UNL     1      -1.827  -2.874   2.334  1.00  0.00    -0.316 OA  
ATOM     31  O2  UNL     1      -0.285  -3.297   4.139  1.00  0.00    -0.316 OA  
ATOM     32  C18 UNL     1      -1.640  -3.424   3.660  1.00  0.00     0.337 C   
ENDBRANCH  23  24
ENDBRANCH  20  23
ENDBRANCH  19  20
BRANCH  19  33
ATOM     33  C19 UNL     1       0.891   2.950   0.396  1.00  0.00     0.043 C   
ATOM     34  C20 UNL     1       1.548   2.998   1.790  1.00  0.00     0.010 C   
ATOM     35  C24 UNL     1       1.762   3.712  -0.623  1.00  0.00     0.010 C   
ATOM     36  C21 UNL     1       1.806   4.436   2.239  1.00  0.00     0.001 C   
ATOM     37  C23 UNL     1       2.026   5.149  -0.172  1.00  0.00     0.001 C   
ATOM     38  C22 UNL     1       2.647   5.200   1.221  1.00  0.00     0.000 C   
ENDBRANCH  19  33
ENDBRANCH   3  19
TORSDOF 8
