REMARK SMILES CC(C)[C@H]([NH2+]Cc1ccc2c(c1)OCO2)c1cn(-c2nccc3[nH]cnc23)nn1
REMARK SMILES IDX 4 1 2 2 1 3 3 4 5 5 6 8 7 9 8 10 12 11 9 12 11 13 10 14
REMARK SMILES IDX 13 15 15 16 14 17 16 18 17 19 29 20 18 21 28 22 19 23 20 24
REMARK SMILES IDX 27 25 21 26 23 27 26 28 22 29 24 30 25 31
REMARK H PARENT 5 6 5 7 24 32
ROOT
ATOM     1   C4  UNL     1      -0.180  -0.449   0.837  1.00  0.00     0.117 C   
ENDROOT
BRANCH   1   2
ATOM     2   C2  UNL     1      -1.585  -0.107   1.399  1.00  0.00     0.037 C   
ATOM     3   C1  UNL     1      -1.659  -0.323   2.914  1.00  0.00     0.014 C   
ATOM     4   C3  UNL     1      -2.063   1.309   1.056  1.00  0.00     0.014 C   
ENDBRANCH   1   2
BRANCH   1   5
ATOM     5   N1  UNL     1       0.832   0.560   1.310  1.00  0.00     0.249 N   
ATOM     6   H9  UNL     1       0.732   1.389   0.705  1.00  0.00     0.199 HD  
ATOM     7   H10 UNL     1       0.645   0.878   2.265  1.00  0.00     0.199 HD  
BRANCH   5   8
ATOM     8   C5  UNL     1       2.254   0.125   1.218  1.00  0.00     0.164 C   
BRANCH   8   9
ATOM     9   C6  UNL     1       3.168   1.227   1.675  1.00  0.00    -0.002 A   
ATOM     10  C7  UNL     1       3.614   2.208   0.756  1.00  0.00     0.012 A   
ATOM     11  C11 UNL     1       3.538   1.325   3.027  1.00  0.00     0.045 A   
ATOM     12  C8  UNL     1       4.428   3.266   1.175  1.00  0.00     0.037 A   
ATOM     13  C10 UNL     1       4.340   2.381   3.406  1.00  0.00     0.109 A   
ATOM     14  C9  UNL     1       4.774   3.324   2.507  1.00  0.00     0.108 A   
ATOM     15  O1  UNL     1       4.786   2.621   4.667  1.00  0.00    -0.316 OA  
ATOM     16  O2  UNL     1       5.553   4.274   3.089  1.00  0.00    -0.316 OA  
ATOM     17  C12 UNL     1       5.570   3.818   4.458  1.00  0.00     0.337 C   
ENDBRANCH   8   9
ENDBRANCH   5   8
ENDBRANCH   1   5
BRANCH   1  18
ATOM     18  C13 UNL     1      -0.174  -0.530  -0.656  1.00  0.00     0.127 A   
ATOM     19  C14 UNL     1      -0.538  -1.546  -1.510  1.00  0.00     0.137 A   
ATOM     20  N7  UNL     1       0.282   0.529  -1.388  1.00  0.00    -0.131 NA  
ATOM     21  N2  UNL     1      -0.299  -1.056  -2.783  1.00  0.00    -0.160 N   
ATOM     22  N6  UNL     1       0.214   0.203  -2.668  1.00  0.00    -0.069 NA  
BRANCH  21  23
ATOM     23  C15 UNL     1      -0.497  -1.664  -4.045  1.00  0.00     0.173 A   
ATOM     24  N3  UNL     1      -0.168  -0.966  -5.181  1.00  0.00    -0.237 NA  
ATOM     25  C20 UNL     1      -1.020  -2.966  -4.168  1.00  0.00     0.128 A   
ATOM     26  C16 UNL     1      -0.358  -1.528  -6.396  1.00  0.00     0.115 A   
ATOM     27  C18 UNL     1      -1.191  -3.495  -5.449  1.00  0.00     0.062 A   
ATOM     28  N5  UNL     1      -1.433  -3.888  -3.223  1.00  0.00    -0.236 NA  
ATOM     29  C17 UNL     1      -0.870  -2.799  -6.610  1.00  0.00     0.046 A   
ATOM     30  N4  UNL     1      -1.713  -4.748  -5.246  1.00  0.00    -0.304 N   
ATOM     31  C19 UNL     1      -1.850  -4.933  -3.901  1.00  0.00     0.187 A   
ATOM     32  H21 UNL     1      -1.970  -5.410  -5.967  1.00  0.00     0.154 HD  
ENDBRANCH  21  23
ENDBRANCH   1  18
TORSDOF 6
