REMARK SMILES COc1c(C)ccnc1Cn1cc([C@@H]([NH2+]Cc2ccc3c(c2)OCO3)C2CCCCC2)nn1
REMARK SMILES IDX 11 1 12 2 13 3 32 4 33 5 10 7 9 8 3 9 4 10 6 11 8 12 7 13
REMARK SMILES IDX 5 14 2 15 1 16 14 17 15 18 16 21 17 22 18 23 22 24 19 25
REMARK SMILES IDX 21 26 20 27 23 28 25 29 24 30 26 31 27 32 31 33 28 34 30 35
REMARK SMILES IDX 29 36
REMARK H PARENT 12 6 15 19 15 20
ROOT
ATOM     1   N2  UNL     1       1.813  -1.056  -0.658  1.00  0.00    -0.206 N   
ATOM     2   C9  UNL     1       1.460   0.162  -1.182  1.00  0.00     0.046 A   
ATOM     3   C10 UNL     1       0.545   0.659  -0.283  1.00  0.00     0.127 A   
ATOM     4   N4  UNL     1       0.391  -0.234   0.744  1.00  0.00    -0.132 NA  
ATOM     5   N5  UNL     1       1.178  -1.270   0.512  1.00  0.00    -0.076 NA  
ATOM     6   H11 UNL     1       1.868   0.529  -2.112  1.00  0.00     0.083 HD  
ENDROOT
BRANCH   1   7
ATOM     7   C8  UNL     1       2.778  -2.012  -1.173  1.00  0.00     0.192 C   
BRANCH   7   8
ATOM     8   C7  UNL     1       2.094  -3.135  -1.903  1.00  0.00     0.090 A   
ATOM     9   C2  UNL     1       1.550  -2.957  -3.183  1.00  0.00     0.101 A   
ATOM     10  C3  UNL     1       0.826  -4.002  -3.772  1.00  0.00    -0.017 A   
ATOM     11  C5  UNL     1       0.762  -5.223  -3.092  1.00  0.00     0.026 A   
ATOM     12  N1  UNL     1       2.023  -4.322  -1.246  1.00  0.00    -0.257 NA  
ATOM     13  C6  UNL     1       1.371  -5.336  -1.853  1.00  0.00     0.112 A   
ATOM     14  C4  UNL     1       0.150  -3.873  -5.106  1.00  0.00     0.047 C   
BRANCH   9  15
ATOM     15  O1  UNL     1       1.678  -1.743  -3.809  1.00  0.00    -0.347 OA  
ATOM     16  C1  UNL     1       2.734  -1.790  -4.776  1.00  0.00     0.203 C   
ENDBRANCH   9  15
ENDBRANCH   7   8
ENDBRANCH   1   7
BRANCH   3  17
ATOM     17  C11 UNL     1      -0.260   1.919  -0.279  1.00  0.00     0.117 C   
BRANCH  17  18
ATOM     18  N3  UNL     1      -1.514   1.723   0.529  1.00  0.00     0.249 N   
ATOM     19  H13 UNL     1      -1.236   1.193   1.371  1.00  0.00     0.199 HD  
ATOM     20  H14 UNL     1      -1.906   2.605   0.868  1.00  0.00     0.199 HD  
BRANCH  18  21
ATOM     21  C12 UNL     1      -2.581   0.931  -0.142  1.00  0.00     0.164 C   
BRANCH  21  22
ATOM     22  C13 UNL     1      -3.693   0.626   0.821  1.00  0.00    -0.002 A   
ATOM     23  C14 UNL     1      -3.638  -0.545   1.615  1.00  0.00     0.012 A   
ATOM     24  C18 UNL     1      -4.761   1.524   0.982  1.00  0.00     0.045 A   
ATOM     25  C15 UNL     1      -4.643  -0.831   2.545  1.00  0.00     0.037 A   
ATOM     26  C17 UNL     1      -5.735   1.213   1.908  1.00  0.00     0.109 A   
ATOM     27  C16 UNL     1      -5.680   0.068   2.666  1.00  0.00     0.108 A   
ATOM     28  O2  UNL     1      -6.831   1.968   2.185  1.00  0.00    -0.316 OA  
ATOM     29  O3  UNL     1      -6.737  -0.044   3.511  1.00  0.00    -0.316 OA  
ATOM     30  C19 UNL     1      -7.490   1.140   3.172  1.00  0.00     0.337 C   
ENDBRANCH  21  22
ENDBRANCH  18  21
ENDBRANCH  17  18
BRANCH  17  31
ATOM     31  C20 UNL     1       0.554   3.126   0.262  1.00  0.00     0.043 C   
ATOM     32  C21 UNL     1       0.877   3.038   1.768  1.00  0.00     0.010 C   
ATOM     33  C25 UNL     1      -0.136   4.468  -0.052  1.00  0.00     0.010 C   
ATOM     34  C22 UNL     1       1.721   4.225   2.229  1.00  0.00     0.001 C   
ATOM     35  C24 UNL     1       0.710   5.653   0.411  1.00  0.00     0.001 C   
ATOM     36  C23 UNL     1       1.052   5.554   1.895  1.00  0.00     0.000 C   
ENDBRANCH  17  31
ENDBRANCH   3  17
TORSDOF 8
