REMARK SMILES CCc1n[nH]c(CC)c1Cn1cc([C@H](CC(C)C)[NH2+]Cc2ccc3c(c2)OCO3)nn1
REMARK SMILES IDX 11 1 12 2 13 3 30 4 31 5 10 7 9 8 3 9 4 10 5 11 6 12 2 14
REMARK SMILES IDX 1 15 7 16 8 17 14 18 15 19 16 20 17 21 18 22 19 23 20 26
REMARK SMILES IDX 21 27 22 28 26 29 23 30 25 31 24 32 27 33 29 34 28 35
REMARK H PARENT 12 6 5 13 19 24 19 25
ROOT
ATOM     1   N3  UNL     1       1.584  -1.271   0.494  1.00  0.00    -0.208 N   
ATOM     2   C9  UNL     1       0.416  -0.574   0.655  1.00  0.00     0.046 A   
ATOM     3   C10 UNL     1      -0.191  -0.647  -0.579  1.00  0.00     0.127 A   
ATOM     4   N5  UNL     1       0.596  -1.387  -1.424  1.00  0.00    -0.132 NA  
ATOM     5   N6  UNL     1       1.679  -1.756  -0.761  1.00  0.00    -0.076 NA  
ATOM     6   H14 UNL     1       0.152  -0.095   1.588  1.00  0.00     0.083 HD  
ENDROOT
BRANCH   1   7
ATOM     7   C8  UNL     1       2.632  -1.541   1.468  1.00  0.00     0.173 C   
BRANCH   7   8
ATOM     8   C7  UNL     1       3.038  -0.301   2.191  1.00  0.00     0.013 A   
ATOM     9   C3  UNL     1       3.760   0.814   1.671  1.00  0.00     0.065 A   
ATOM     10  N1  UNL     1       3.924   1.767   2.594  1.00  0.00    -0.189 NA  
ATOM     11  N2  UNL     1       3.392   1.252   3.709  1.00  0.00    -0.242 N   
ATOM     12  C4  UNL     1       2.822   0.021   3.523  1.00  0.00     0.031 A   
ATOM     13  H6  UNL     1       3.449   1.798   4.565  1.00  0.00     0.175 HD  
BRANCH   9  14
ATOM     14  C2  UNL     1       4.309   1.023   0.296  1.00  0.00     0.055 C   
ATOM     15  C1  UNL     1       5.648   0.330   0.094  1.00  0.00     0.011 C   
ENDBRANCH   9  14
BRANCH  12  16
ATOM     16  C5  UNL     1       2.157  -0.709   4.641  1.00  0.00     0.050 C   
ATOM     17  C6  UNL     1       3.092  -1.721   5.285  1.00  0.00     0.010 C   
ENDBRANCH  12  16
ENDBRANCH   7   8
ENDBRANCH   1   7
BRANCH   3  18
ATOM     18  C11 UNL     1      -1.469  -0.060  -1.087  1.00  0.00     0.114 C   
BRANCH  18  19
ATOM     19  C12 UNL     1      -2.656  -0.997  -0.782  1.00  0.00     0.064 C   
BRANCH  19  20
ATOM     20  C13 UNL     1      -4.059  -0.471  -1.154  1.00  0.00    -0.012 C   
ATOM     21  C14 UNL     1      -4.394   0.852  -0.463  1.00  0.00     0.007 C   
ATOM     22  C15 UNL     1      -5.112  -1.523  -0.788  1.00  0.00     0.007 C   
ENDBRANCH  19  20
ENDBRANCH  18  19
BRANCH  18  23
ATOM     23  N4  UNL     1      -1.381   0.153  -2.580  1.00  0.00     0.249 N   
ATOM     24  H25 UNL     1      -0.982  -0.715  -2.967  1.00  0.00     0.199 HD  
ATOM     25  H26 UNL     1      -2.307   0.271  -2.995  1.00  0.00     0.199 HD  
BRANCH  23  26
ATOM     26  C16 UNL     1      -0.509   1.280  -3.029  1.00  0.00     0.164 C   
BRANCH  26  27
ATOM     27  C17 UNL     1      -1.105   2.626  -2.724  1.00  0.00    -0.002 A   
ATOM     28  C18 UNL     1      -0.543   3.445  -1.715  1.00  0.00     0.012 A   
ATOM     29  C22 UNL     1      -2.245   3.068  -3.420  1.00  0.00     0.045 A   
ATOM     30  C19 UNL     1      -1.109   4.684  -1.395  1.00  0.00     0.037 A   
ATOM     31  C21 UNL     1      -2.780   4.293  -3.078  1.00  0.00     0.109 A   
ATOM     32  C20 UNL     1      -2.229   5.078  -2.094  1.00  0.00     0.108 A   
ATOM     33  O1  UNL     1      -3.878   4.859  -3.642  1.00  0.00    -0.316 OA  
ATOM     34  O2  UNL     1      -2.913   6.238  -1.916  1.00  0.00    -0.316 OA  
ATOM     35  C23 UNL     1      -3.942   6.112  -2.920  1.00  0.00     0.337 C   
ENDBRANCH  26  27
ENDBRANCH  23  26
ENDBRANCH  18  23
ENDBRANCH   3  18
TORSDOF 10
