REMARK SMILES CCOc1cc(Cn2cc([C@H](CC(C)C)[NH2+]Cc3ccc4c(c3)OCO4)nn2)ccc1O
REMARK SMILES IDX 8 1 9 2 10 3 27 4 28 5 7 7 6 8 4 9 5 10 31 11 30 12 29 13
REMARK SMILES IDX 3 14 2 15 1 16 32 17 11 19 12 20 13 21 14 22 15 23 16 24
REMARK SMILES IDX 17 27 18 28 19 29 23 30 20 31 22 32 21 33 24 34 26 35 25 36
REMARK H PARENT 9 6 32 18 16 25 16 26
ROOT
ATOM     1   N1  UNL     1       1.129   0.013   2.935  1.00  0.00    -0.208 N   
ATOM     2   C7  UNL     1       1.849   0.172   1.781  1.00  0.00     0.046 A   
ATOM     3   C8  UNL     1       1.096   1.056   1.040  1.00  0.00     0.127 A   
ATOM     4   N3  UNL     1      -0.018   1.411   1.757  1.00  0.00    -0.132 NA  
ATOM     5   N4  UNL     1       0.010   0.764   2.910  1.00  0.00    -0.076 NA  
ATOM     6   H9  UNL     1       2.774  -0.357   1.599  1.00  0.00     0.083 HD  
ENDROOT
BRANCH   1   7
ATOM     7   C6  UNL     1       1.420  -0.853   4.066  1.00  0.00     0.169 C   
BRANCH   7   8
ATOM     8   C5  UNL     1       1.004  -2.272   3.766  1.00  0.00    -0.026 A   
ATOM     9   C3  UNL     1      -0.750  -3.947   3.544  1.00  0.00     0.105 A   
ATOM     10  C4  UNL     1      -0.352  -2.647   3.860  1.00  0.00     0.041 A   
ATOM     11  C24 UNL     1       0.218  -4.863   3.124  1.00  0.00     0.102 A   
ATOM     12  C23 UNL     1       1.559  -4.516   3.030  1.00  0.00     0.036 A   
ATOM     13  C22 UNL     1       1.954  -3.219   3.353  1.00  0.00     0.008 A   
BRANCH   9  14
ATOM     14  O1  UNL     1      -2.029  -4.435   3.588  1.00  0.00    -0.344 OA  
BRANCH  14  15
ATOM     15  C2  UNL     1      -3.022  -3.597   4.182  1.00  0.00     0.164 C   
ATOM     16  C1  UNL     1      -4.321  -4.380   4.239  1.00  0.00     0.035 C   
ENDBRANCH  14  15
ENDBRANCH   9  14
BRANCH  11  17
ATOM     17  O4  UNL     1      -0.138  -6.141   2.793  1.00  0.00    -0.358 OA  
ATOM     18  H31 UNL     1      -1.098  -6.197   2.968  1.00  0.00     0.218 HD  
ENDBRANCH  11  17
ENDBRANCH   7   8
ENDBRANCH   1   7
BRANCH   3  19
ATOM     19  C9  UNL     1       1.281   1.594  -0.342  1.00  0.00     0.114 C   
BRANCH  19  20
ATOM     20  C10 UNL     1       2.024   2.944  -0.305  1.00  0.00     0.064 C   
BRANCH  20  21
ATOM     21  C11 UNL     1       2.344   3.592  -1.669  1.00  0.00    -0.012 C   
ATOM     22  C12 UNL     1       3.100   4.906  -1.448  1.00  0.00     0.007 C   
ATOM     23  C13 UNL     1       3.161   2.674  -2.579  1.00  0.00     0.007 C   
ENDBRANCH  20  21
ENDBRANCH  19  20
BRANCH  19  24
ATOM     24  N2  UNL     1      -0.057   1.781  -1.005  1.00  0.00     0.249 N   
ATOM     25  H20 UNL     1       0.003   2.375  -1.836  1.00  0.00     0.199 HD  
ATOM     26  H21 UNL     1      -0.655   2.282  -0.331  1.00  0.00     0.199 HD  
BRANCH  24  27
ATOM     27  C14 UNL     1      -0.764   0.522  -1.374  1.00  0.00     0.164 C   
BRANCH  27  28
ATOM     28  C15 UNL     1      -2.100   0.835  -1.987  1.00  0.00    -0.002 A   
ATOM     29  C16 UNL     1      -2.236   0.954  -3.391  1.00  0.00     0.012 A   
ATOM     30  C20 UNL     1      -3.213   1.066  -1.160  1.00  0.00     0.045 A   
ATOM     31  C17 UNL     1      -3.467   1.289  -3.966  1.00  0.00     0.037 A   
ATOM     32  C19 UNL     1      -4.411   1.394  -1.760  1.00  0.00     0.109 A   
ATOM     33  C18 UNL     1      -4.535   1.502  -3.123  1.00  0.00     0.108 A   
ATOM     34  O2  UNL     1      -5.578   1.647  -1.111  1.00  0.00    -0.316 OA  
ATOM     35  O3  UNL     1      -5.795   1.836  -3.505  1.00  0.00    -0.316 OA  
ATOM     36  C21 UNL     1      -6.462   1.905  -2.226  1.00  0.00     0.337 C   
ENDBRANCH  27  28
ENDBRANCH  24  27
ENDBRANCH  19  24
ENDBRANCH   3  19
TORSDOF 11
