REMARK SMILES CC(C)[C@H]([NH2+]Cc1ccc2c(c1)OCO2)c1cn([C@H](CO)c2ccc(F)c(F)c2)nn1
REMARK SMILES IDX 16 1 17 2 18 3 30 4 31 5 4 7 2 8 1 9 3 10 5 11 6 14 7 15
REMARK SMILES IDX 8 16 12 17 9 18 11 19 10 20 13 21 15 22 14 23 19 24 20 25
REMARK SMILES IDX 21 26 22 28 23 29 29 30 24 31 27 32 25 33 28 34 26 35
REMARK H PARENT 17 6 5 12 5 13 21 27
ROOT
ATOM     1   C13 UNL     1      -1.142  -0.503  -0.477  1.00  0.00     0.127 A   
ATOM     2   C14 UNL     1       0.026  -0.051  -1.044  1.00  0.00     0.046 A   
ATOM     3   N2  UNL     1       0.503   0.864  -0.143  1.00  0.00    -0.202 N   
ATOM     4   N3  UNL     1      -0.323   0.957   0.921  1.00  0.00    -0.075 NA  
ATOM     5   N4  UNL     1      -1.333   0.127   0.727  1.00  0.00    -0.132 NA  
ATOM     6   H18 UNL     1       0.545  -0.278  -1.965  1.00  0.00     0.083 HD  
ENDROOT
BRANCH   1   7
ATOM     7   C4  UNL     1      -2.129  -1.528  -0.935  1.00  0.00     0.117 C   
BRANCH   7   8
ATOM     8   C2  UNL     1      -3.190  -0.937  -1.901  1.00  0.00     0.037 C   
ATOM     9   C1  UNL     1      -4.026  -2.042  -2.558  1.00  0.00     0.014 C   
ATOM     10  C3  UNL     1      -4.115   0.105  -1.260  1.00  0.00     0.014 C   
ENDBRANCH   7   8
BRANCH   7  11
ATOM     11  N1  UNL     1      -2.795  -2.165   0.265  1.00  0.00     0.249 N   
ATOM     12  H9  UNL     1      -2.646  -1.510   1.049  1.00  0.00     0.199 HD  
ATOM     13  H10 UNL     1      -3.808  -2.219   0.143  1.00  0.00     0.199 HD  
BRANCH  11  14
ATOM     14  C5  UNL     1      -2.283  -3.503   0.669  1.00  0.00     0.164 C   
BRANCH  14  15
ATOM     15  C6  UNL     1      -0.838  -3.514   1.084  1.00  0.00    -0.002 A   
ATOM     16  C7  UNL     1       0.136  -4.135   0.265  1.00  0.00     0.012 A   
ATOM     17  C11 UNL     1      -0.440  -2.902   2.286  1.00  0.00     0.045 A   
ATOM     18  C8  UNL     1       1.485  -4.152   0.636  1.00  0.00     0.037 A   
ATOM     19  C10 UNL     1       0.897  -2.940   2.624  1.00  0.00     0.109 A   
ATOM     20  C9  UNL     1       1.832  -3.549   1.824  1.00  0.00     0.108 A   
ATOM     21  O1  UNL     1       1.443  -2.413   3.751  1.00  0.00    -0.316 OA  
ATOM     22  O2  UNL     1       3.082  -3.487   2.349  1.00  0.00    -0.316 OA  
ATOM     23  C12 UNL     1       2.827  -2.801   3.593  1.00  0.00     0.337 C   
ENDBRANCH  14  15
ENDBRANCH  11  14
ENDBRANCH   7  11
ENDBRANCH   1   7
BRANCH   3  24
ATOM     24  C15 UNL     1       1.724   1.667  -0.200  1.00  0.00     0.155 C   
BRANCH  24  25
ATOM     25  C16 UNL     1       1.581   2.846  -1.185  1.00  0.00     0.185 C   
BRANCH  25  26
ATOM     26  O3  UNL     1       1.254   2.433  -2.513  1.00  0.00    -0.394 OA  
ATOM     27  H22 UNL     1       1.198   3.243  -3.056  1.00  0.00     0.210 HD  
ENDBRANCH  25  26
ENDBRANCH  24  25
BRANCH  24  28
ATOM     28  C17 UNL     1       2.952   0.774  -0.355  1.00  0.00    -0.020 A   
ATOM     29  C18 UNL     1       3.574   0.528  -1.592  1.00  0.00     0.009 A   
ATOM     30  C22 UNL     1       3.482   0.148   0.792  1.00  0.00     0.048 A   
ATOM     31  C19 UNL     1       4.695  -0.306  -1.679  1.00  0.00     0.043 A   
ATOM     32  C21 UNL     1       4.602  -0.675   0.696  1.00  0.00     0.159 A   
ATOM     33  C20 UNL     1       5.203  -0.902  -0.532  1.00  0.00     0.158 A   
ATOM     34  F2  UNL     1       5.095  -1.242   1.805  1.00  0.00    -0.204 F   
ATOM     35  F1  UNL     1       6.275  -1.700  -0.623  1.00  0.00    -0.204 F   
ENDBRANCH  24  28
ENDBRANCH   3  24
TORSDOF 9
