REMARK SMILES CC(C)[C@H]([NH2+]Cc1ccc2c(c1)OCO2)c1cn([C@@H](CO)c2ccc(F)c(F)c2)nn1
REMARK SMILES IDX 16 1 17 2 18 3 30 4 31 5 4 7 2 8 1 9 3 10 5 11 6 14 7 15
REMARK SMILES IDX 8 16 12 17 9 18 11 19 10 20 13 21 15 22 14 23 19 24 20 25
REMARK SMILES IDX 21 26 22 28 23 29 29 30 24 31 27 32 25 33 28 34 26 35
REMARK H PARENT 17 6 5 12 5 13 21 27
ROOT
ATOM     1   C13 UNL     1      -0.738   0.554  -0.126  1.00  0.00     0.127 A   
ATOM     2   C14 UNL     1      -1.612   0.647  -1.185  1.00  0.00     0.046 A   
ATOM     3   N2  UNL     1      -1.451   1.928  -1.643  1.00  0.00    -0.202 N   
ATOM     4   N3  UNL     1      -0.493   2.566  -0.938  1.00  0.00    -0.075 NA  
ATOM     5   N4  UNL     1      -0.057   1.738  -0.003  1.00  0.00    -0.132 NA  
ATOM     6   H18 UNL     1      -2.313  -0.041  -1.637  1.00  0.00     0.083 HD  
ENDROOT
BRANCH   1   7
ATOM     7   C4  UNL     1      -0.423  -0.582   0.790  1.00  0.00     0.117 C   
BRANCH   7   8
ATOM     8   C2  UNL     1      -1.301  -0.631   2.067  1.00  0.00     0.037 C   
ATOM     9   C1  UNL     1      -2.777  -0.879   1.732  1.00  0.00     0.014 C   
ATOM     10  C3  UNL     1      -1.176   0.605   2.965  1.00  0.00     0.014 C   
ENDBRANCH   7   8
BRANCH   7  11
ATOM     11  N1  UNL     1       1.025  -0.524   1.210  1.00  0.00     0.249 N   
ATOM     12  H9  UNL     1       1.222   0.452   1.475  1.00  0.00     0.199 HD  
ATOM     13  H10 UNL     1       1.194  -1.093   2.046  1.00  0.00     0.199 HD  
BRANCH  11  14
ATOM     14  C5  UNL     1       2.009  -0.899   0.157  1.00  0.00     0.164 C   
BRANCH  14  15
ATOM     15  C6  UNL     1       3.407  -0.827   0.701  1.00  0.00    -0.002 A   
ATOM     16  C7  UNL     1       4.127   0.391   0.658  1.00  0.00     0.012 A   
ATOM     17  C11 UNL     1       3.986  -1.953   1.310  1.00  0.00     0.045 A   
ATOM     18  C8  UNL     1       5.411   0.485   1.206  1.00  0.00     0.037 A   
ATOM     19  C10 UNL     1       5.253  -1.827   1.838  1.00  0.00     0.109 A   
ATOM     20  C9  UNL     1       5.947  -0.643   1.788  1.00  0.00     0.108 A   
ATOM     21  O1  UNL     1       5.955  -2.815   2.452  1.00  0.00    -0.316 OA  
ATOM     22  O2  UNL     1       7.171  -0.735   2.368  1.00  0.00    -0.316 OA  
ATOM     23  C12 UNL     1       7.183  -2.121   2.770  1.00  0.00     0.337 C   
ENDBRANCH  14  15
ENDBRANCH  11  14
ENDBRANCH   7  11
ENDBRANCH   1   7
BRANCH   3  24
ATOM     24  C15 UNL     1      -2.161   2.622  -2.720  1.00  0.00     0.155 C   
BRANCH  24  25
ATOM     25  C16 UNL     1      -1.550   2.275  -4.092  1.00  0.00     0.185 C   
BRANCH  25  26
ATOM     26  O3  UNL     1      -1.559   0.872  -4.367  1.00  0.00    -0.394 OA  
ATOM     27  H22 UNL     1      -1.214   0.761  -5.273  1.00  0.00     0.210 HD  
ENDBRANCH  25  26
ENDBRANCH  24  25
BRANCH  24  28
ATOM     28  C17 UNL     1      -3.672   2.463  -2.559  1.00  0.00    -0.020 A   
ATOM     29  C18 UNL     1      -4.450   1.621  -3.374  1.00  0.00     0.009 A   
ATOM     30  C22 UNL     1      -4.322   3.175  -1.528  1.00  0.00     0.048 A   
ATOM     31  C19 UNL     1      -5.831   1.498  -3.169  1.00  0.00     0.043 A   
ATOM     32  C21 UNL     1      -5.696   3.042  -1.330  1.00  0.00     0.159 A   
ATOM     33  C20 UNL     1      -6.446   2.210  -2.147  1.00  0.00     0.158 A   
ATOM     34  F2  UNL     1      -6.280   3.721  -0.334  1.00  0.00    -0.204 F   
ATOM     35  F1  UNL     1      -7.764   2.077  -1.951  1.00  0.00    -0.204 F   
ENDBRANCH  24  28
ENDBRANCH   3  24
TORSDOF 9
