REMARK SMILES OC[C@H](c1cc(F)ccc1O)n1cc([C@@H]([NH2+]Cc2ccc3c(c2)OCO3)C2CCCC2)nn1
REMARK SMILES IDX 12 1 13 2 14 3 32 4 33 5 3 7 2 8 1 9 4 11 5 12 10 13 6 14
REMARK SMILES IDX 9 15 8 16 7 17 11 18 15 20 16 21 17 24 18 25 19 26 23 27
REMARK SMILES IDX 20 28 22 29 21 30 24 31 26 32 25 33 27 34 28 35 31 36 29 37
REMARK SMILES IDX 30 38
REMARK H PARENT 13 6 1 10 11 19 16 22 16 23
ROOT
ATOM     1   N1  UNL     1      -1.016   1.405   2.153  1.00  0.00    -0.202 N   
ATOM     2   C9  UNL     1      -0.868   1.059   0.836  1.00  0.00     0.046 A   
ATOM     3   C10 UNL     1      -1.308  -0.243   0.776  1.00  0.00     0.127 A   
ATOM     4   N3  UNL     1      -1.613  -0.669   2.043  1.00  0.00    -0.132 NA  
ATOM     5   N4  UNL     1      -1.431   0.342   2.876  1.00  0.00    -0.075 NA  
ATOM     6   H9  UNL     1      -0.530   1.763   0.092  1.00  0.00     0.083 HD  
ENDROOT
BRANCH   1   7
ATOM     7   C2  UNL     1      -0.727   2.677   2.817  1.00  0.00     0.158 C   
BRANCH   7   8
ATOM     8   C1  UNL     1      -1.632   3.820   2.308  1.00  0.00     0.186 C   
BRANCH   8   9
ATOM     9   O1  UNL     1      -1.603   4.021   0.898  1.00  0.00    -0.394 OA  
ATOM     10  H1  UNL     1      -0.710   4.364   0.702  1.00  0.00     0.210 HD  
ENDBRANCH   8   9
ENDBRANCH   7   8
BRANCH   7  11
ATOM     11  C3  UNL     1       0.785   2.890   2.901  1.00  0.00     0.010 A   
ATOM     12  C4  UNL     1       1.476   2.188   3.916  1.00  0.00     0.047 A   
ATOM     13  C8  UNL     1       1.549   3.696   2.045  1.00  0.00     0.077 A   
ATOM     14  C5  UNL     1       2.857   2.302   4.060  1.00  0.00     0.123 A   
ATOM     15  C7  UNL     1       2.938   3.811   2.198  1.00  0.00     0.036 A   
ATOM     16  C6  UNL     1       3.593   3.112   3.211  1.00  0.00     0.042 A   
ATOM     17  F1  UNL     1       3.474   1.615   5.030  1.00  0.00    -0.207 F   
BRANCH  13  18
ATOM     18  O2  UNL     1       0.948   4.385   1.028  1.00  0.00    -0.361 OA  
ATOM     19  H8  UNL     1       1.609   4.983   0.627  1.00  0.00     0.218 HD  
ENDBRANCH  13  18
ENDBRANCH   7  11
ENDBRANCH   1   7
BRANCH   3  20
ATOM     20  C11 UNL     1      -1.427  -1.192  -0.372  1.00  0.00     0.117 C   
BRANCH  20  21
ATOM     21  N2  UNL     1      -1.159  -2.605   0.105  1.00  0.00     0.249 N   
ATOM     22  H11 UNL     1      -1.511  -3.288  -0.572  1.00  0.00     0.199 HD  
ATOM     23  H12 UNL     1      -1.707  -2.717   0.972  1.00  0.00     0.199 HD  
BRANCH  21  24
ATOM     24  C12 UNL     1       0.261  -2.922   0.442  1.00  0.00     0.164 C   
BRANCH  24  25
ATOM     25  C13 UNL     1       1.141  -3.021  -0.776  1.00  0.00    -0.002 A   
ATOM     26  C14 UNL     1       2.030  -1.967  -1.108  1.00  0.00     0.012 A   
ATOM     27  C18 UNL     1       1.073  -4.155  -1.602  1.00  0.00     0.045 A   
ATOM     28  C15 UNL     1       2.838  -2.041  -2.246  1.00  0.00     0.037 A   
ATOM     29  C17 UNL     1       1.891  -4.197  -2.713  1.00  0.00     0.109 A   
ATOM     30  C16 UNL     1       2.746  -3.170  -3.026  1.00  0.00     0.108 A   
ATOM     31  O3  UNL     1       1.961  -5.220  -3.603  1.00  0.00    -0.316 OA  
ATOM     32  O4  UNL     1       3.462  -3.417  -4.152  1.00  0.00    -0.316 OA  
ATOM     33  C19 UNL     1       3.010  -4.749  -4.479  1.00  0.00     0.337 C   
ENDBRANCH  24  25
ENDBRANCH  21  24
ENDBRANCH  20  21
BRANCH  20  34
ATOM     34  C20 UNL     1      -2.800  -1.181  -1.073  1.00  0.00     0.043 C   
ATOM     35  C21 UNL     1      -3.182   0.155  -1.715  1.00  0.00     0.010 C   
ATOM     36  C24 UNL     1      -4.015  -1.549  -0.208  1.00  0.00     0.010 C   
ATOM     37  C22 UNL     1      -4.664  -0.022  -1.994  1.00  0.00     0.001 C   
ATOM     38  C23 UNL     1      -5.179  -0.705  -0.734  1.00  0.00     0.001 C   
ENDBRANCH  20  34
ENDBRANCH   3  20
TORSDOF 10
