REMARK SMILES OC[C@@H](c1cc(F)ccc1O)n1cc([C@@H]([NH2+]Cc2ccc3c(c2)OCO3)C2CCCC2)nn1
REMARK SMILES IDX 12 1 13 2 14 3 32 4 33 5 3 7 2 8 1 9 4 11 5 12 10 13 6 14
REMARK SMILES IDX 9 15 8 16 7 17 11 18 15 20 16 21 17 24 18 25 19 26 23 27
REMARK SMILES IDX 20 28 22 29 21 30 24 31 26 32 25 33 27 34 28 35 31 36 29 37
REMARK SMILES IDX 30 38
REMARK H PARENT 13 6 1 10 11 19 16 22 16 23
ROOT
ATOM     1   N1  UNL     1      -0.873   1.629   0.231  1.00  0.00    -0.202 N   
ATOM     2   C9  UNL     1      -0.390   1.106  -0.940  1.00  0.00     0.046 A   
ATOM     3   C10 UNL     1       0.150  -0.103  -0.569  1.00  0.00     0.127 A   
ATOM     4   N3  UNL     1      -0.032  -0.283   0.779  1.00  0.00    -0.132 NA  
ATOM     5   N4  UNL     1      -0.654   0.781   1.257  1.00  0.00    -0.075 NA  
ATOM     6   H9  UNL     1      -0.446   1.645  -1.875  1.00  0.00     0.083 HD  
ENDROOT
BRANCH   1   7
ATOM     7   C2  UNL     1      -1.515   2.925   0.469  1.00  0.00     0.158 C   
BRANCH   7   8
ATOM     8   C1  UNL     1      -0.459   4.048   0.482  1.00  0.00     0.186 C   
BRANCH   8   9
ATOM     9   O1  UNL     1       0.329   4.108  -0.709  1.00  0.00    -0.394 OA  
ATOM     10  H1  UNL     1      -0.266   4.484  -1.391  1.00  0.00     0.210 HD  
ENDBRANCH   8   9
ENDBRANCH   7   8
BRANCH   7  11
ATOM     11  C3  UNL     1      -2.773   3.064  -0.383  1.00  0.00     0.010 A   
ATOM     12  C4  UNL     1      -3.873   2.244  -0.043  1.00  0.00     0.047 A   
ATOM     13  C8  UNL     1      -2.937   3.936  -1.470  1.00  0.00     0.077 A   
ATOM     14  C5  UNL     1      -5.067   2.306  -0.755  1.00  0.00     0.123 A   
ATOM     15  C7  UNL     1      -4.143   3.995  -2.183  1.00  0.00     0.036 A   
ATOM     16  C6  UNL     1      -5.211   3.178  -1.821  1.00  0.00     0.042 A   
ATOM     17  F1  UNL     1      -6.085   1.512  -0.406  1.00  0.00    -0.207 F   
BRANCH  13  18
ATOM     18  O2  UNL     1      -1.911   4.748  -1.863  1.00  0.00    -0.361 OA  
ATOM     19  H8  UNL     1      -2.253   5.374  -2.532  1.00  0.00     0.218 HD  
ENDBRANCH  13  18
ENDBRANCH   7  11
ENDBRANCH   1   7
BRANCH   3  20
ATOM     20  C11 UNL     1       0.912  -1.126  -1.345  1.00  0.00     0.117 C   
BRANCH  20  21
ATOM     21  N2  UNL     1       1.950  -1.752  -0.452  1.00  0.00     0.249 N   
ATOM     22  H11 UNL     1       1.497  -1.884   0.466  1.00  0.00     0.199 HD  
ATOM     23  H12 UNL     1       2.233  -2.685  -0.765  1.00  0.00     0.199 HD  
BRANCH  21  24
ATOM     24  C12 UNL     1       3.160  -0.914  -0.223  1.00  0.00     0.164 C   
BRANCH  24  25
ATOM     25  C13 UNL     1       4.029  -1.516   0.845  1.00  0.00    -0.002 A   
ATOM     26  C14 UNL     1       5.027  -2.461   0.515  1.00  0.00     0.012 A   
ATOM     27  C18 UNL     1       3.817  -1.169   2.191  1.00  0.00     0.045 A   
ATOM     28  C15 UNL     1       5.817  -3.046   1.513  1.00  0.00     0.037 A   
ATOM     29  C17 UNL     1       4.613  -1.762   3.148  1.00  0.00     0.109 A   
ATOM     30  C16 UNL     1       5.585  -2.674   2.819  1.00  0.00     0.108 A   
ATOM     31  O3  UNL     1       4.545  -1.534   4.485  1.00  0.00    -0.316 OA  
ATOM     32  O4  UNL     1       6.250  -3.137   3.909  1.00  0.00    -0.316 OA  
ATOM     33  C19 UNL     1       5.592  -2.406   4.967  1.00  0.00     0.337 C   
ENDBRANCH  24  25
ENDBRANCH  21  24
ENDBRANCH  20  21
BRANCH  20  34
ATOM     34  C20 UNL     1      -0.014  -2.197  -1.946  1.00  0.00     0.043 C   
ATOM     35  C21 UNL     1      -0.691  -3.147  -0.956  1.00  0.00     0.010 C   
ATOM     36  C24 UNL     1       0.673  -3.147  -2.941  1.00  0.00     0.010 C   
ATOM     37  C22 UNL     1      -1.226  -4.246  -1.862  1.00  0.00     0.001 C   
ATOM     38  C23 UNL     1      -0.131  -4.449  -2.902  1.00  0.00     0.001 C   
ENDBRANCH  20  34
ENDBRANCH   3  20
TORSDOF 10
