REMARK SMILES CC(C)C[C@H]([NH2+]Cc1ccc2c(c1)OCO2)c1cn([C@H](CO)c2ccccc2F)nn1
REMARK SMILES IDX 17 1 18 2 19 3 30 4 31 5 5 7 4 8 2 9 1 10 3 11 6 12 7 15
REMARK SMILES IDX 8 16 9 17 13 18 10 19 12 20 11 21 14 22 16 23 15 24 20 25
REMARK SMILES IDX 21 26 22 27 23 29 24 30 28 31 25 32 27 33 26 34 29 35
REMARK H PARENT 18 6 6 13 6 14 22 28
ROOT
ATOM     1   C14 UNL     1       1.369   0.624  -0.438  1.00  0.00     0.127 A   
ATOM     2   C15 UNL     1       1.111   0.778  -1.781  1.00  0.00     0.046 A   
ATOM     3   N2  UNL     1       2.206   0.233  -2.398  1.00  0.00    -0.202 N   
ATOM     4   N3  UNL     1       3.077  -0.242  -1.483  1.00  0.00    -0.075 NA  
ATOM     5   N4  UNL     1       2.573  -0.011  -0.282  1.00  0.00    -0.132 NA  
ATOM     6   H20 UNL     1       0.297   1.220  -2.338  1.00  0.00     0.083 HD  
ENDROOT
BRANCH   1   7
ATOM     7   C5  UNL     1       0.559   0.975   0.767  1.00  0.00     0.114 C   
BRANCH   7   8
ATOM     8   C4  UNL     1       0.862   2.388   1.299  1.00  0.00     0.064 C   
BRANCH   8   9
ATOM     9   C2  UNL     1       0.506   3.547   0.342  1.00  0.00    -0.012 C   
ATOM     10  C1  UNL     1      -0.984   3.579  -0.005  1.00  0.00     0.007 C   
ATOM     11  C3  UNL     1       0.916   4.881   0.973  1.00  0.00     0.007 C   
ENDBRANCH   8   9
ENDBRANCH   7   8
BRANCH   7  12
ATOM     12  N1  UNL     1       0.882  -0.024   1.853  1.00  0.00     0.249 N   
ATOM     13  H11 UNL     1       1.817   0.187   2.226  1.00  0.00     0.199 HD  
ATOM     14  H12 UNL     1       1.023  -0.936   1.393  1.00  0.00     0.199 HD  
BRANCH  12  15
ATOM     15  C6  UNL     1      -0.102  -0.192   2.945  1.00  0.00     0.164 C   
BRANCH  15  16
ATOM     16  C7  UNL     1       0.355  -1.246   3.912  1.00  0.00    -0.002 A   
ATOM     17  C8  UNL     1      -0.030  -2.596   3.736  1.00  0.00     0.012 A   
ATOM     18  C12 UNL     1       1.219  -0.905   4.968  1.00  0.00     0.045 A   
ATOM     19  C9  UNL     1       0.427  -3.593   4.606  1.00  0.00     0.037 A   
ATOM     20  C11 UNL     1       1.652  -1.912   5.805  1.00  0.00     0.109 A   
ATOM     21  C10 UNL     1       1.268  -3.218   5.630  1.00  0.00     0.108 A   
ATOM     22  O1  UNL     1       2.486  -1.752   6.866  1.00  0.00    -0.316 OA  
ATOM     23  O2  UNL     1       1.808  -4.046   6.561  1.00  0.00    -0.316 OA  
ATOM     24  C13 UNL     1       2.575  -3.112   7.351  1.00  0.00     0.337 C   
ENDBRANCH  15  16
ENDBRANCH  12  15
ENDBRANCH   7  12
ENDBRANCH   1   7
BRANCH   3  25
ATOM     25  C16 UNL     1       2.520   0.147  -3.827  1.00  0.00     0.158 C   
BRANCH  25  26
ATOM     26  C17 UNL     1       3.258   1.420  -4.287  1.00  0.00     0.186 C   
BRANCH  26  27
ATOM     27  O3  UNL     1       2.498   2.611  -4.068  1.00  0.00    -0.394 OA  
ATOM     28  H24 UNL     1       3.050   3.358  -4.370  1.00  0.00     0.210 HD  
ENDBRANCH  26  27
ENDBRANCH  25  26
BRANCH  25  29
ATOM     29  C18 UNL     1       1.306  -0.285  -4.636  1.00  0.00     0.013 A   
ATOM     30  C19 UNL     1       0.582   0.572  -5.478  1.00  0.00     0.009 A   
ATOM     31  C23 UNL     1       0.872  -1.616  -4.533  1.00  0.00     0.128 A   
ATOM     32  C20 UNL     1      -0.526   0.103  -6.193  1.00  0.00     0.001 A   
ATOM     33  C22 UNL     1      -0.228  -2.090  -5.242  1.00  0.00     0.039 A   
ATOM     34  C21 UNL     1      -0.929  -1.226  -6.078  1.00  0.00     0.003 A   
ATOM     35  F1  UNL     1       1.526  -2.463  -3.725  1.00  0.00    -0.207 F   
ENDBRANCH  25  29
ENDBRANCH   3  25
TORSDOF 10
