REMARK SMILES CC(C)C[C@H]([NH2+]Cc1ccc2c(c1)OCO2)c1cn([C@@H](CO)c2ccccc2F)nn1
REMARK SMILES IDX 17 1 18 2 19 3 30 4 31 5 5 7 4 8 2 9 1 10 3 11 6 12 7 15
REMARK SMILES IDX 8 16 9 17 13 18 10 19 12 20 11 21 14 22 16 23 15 24 20 25
REMARK SMILES IDX 21 26 22 27 23 29 24 30 28 31 25 32 27 33 26 34 29 35
REMARK H PARENT 18 6 6 13 6 14 22 28
ROOT
ATOM     1   C14 UNL     1      -1.206  -0.383   0.910  1.00  0.00     0.127 A   
ATOM     2   C15 UNL     1      -0.854   0.581   1.828  1.00  0.00     0.046 A   
ATOM     3   N2  UNL     1       0.113  -0.023   2.593  1.00  0.00    -0.202 N   
ATOM     4   N3  UNL     1       0.311  -1.293   2.183  1.00  0.00    -0.075 NA  
ATOM     5   N4  UNL     1      -0.488  -1.523   1.156  1.00  0.00    -0.132 NA  
ATOM     6   H20 UNL     1      -1.157   1.608   1.986  1.00  0.00     0.083 HD  
ENDROOT
BRANCH   1   7
ATOM     7   C5  UNL     1      -2.119  -0.335  -0.269  1.00  0.00     0.114 C   
BRANCH   7   8
ATOM     8   C4  UNL     1      -3.474  -1.014   0.000  1.00  0.00     0.064 C   
BRANCH   8   9
ATOM     9   C2  UNL     1      -4.331  -0.354   1.103  1.00  0.00    -0.012 C   
ATOM     10  C1  UNL     1      -4.699   1.093   0.767  1.00  0.00     0.007 C   
ATOM     11  C3  UNL     1      -5.606  -1.174   1.324  1.00  0.00     0.007 C   
ENDBRANCH   8   9
ENDBRANCH   7   8
BRANCH   7  12
ATOM     12  N1  UNL     1      -1.481  -1.065  -1.429  1.00  0.00     0.249 N   
ATOM     13  H11 UNL     1      -2.163  -1.254  -2.171  1.00  0.00     0.199 HD  
ATOM     14  H12 UNL     1      -1.174  -1.983  -1.073  1.00  0.00     0.199 HD  
BRANCH  12  15
ATOM     15  C6  UNL     1      -0.287  -0.398  -2.022  1.00  0.00     0.164 C   
BRANCH  15  16
ATOM     16  C7  UNL     1       0.239  -1.198  -3.180  1.00  0.00    -0.002 A   
ATOM     17  C8  UNL     1       1.131  -2.275  -2.956  1.00  0.00     0.012 A   
ATOM     18  C12 UNL     1      -0.192  -0.915  -4.488  1.00  0.00     0.045 A   
ATOM     19  C9  UNL     1       1.595  -3.055  -4.020  1.00  0.00     0.037 A   
ATOM     20  C11 UNL     1       0.287  -1.704  -5.514  1.00  0.00     0.109 A   
ATOM     21  C10 UNL     1       1.154  -2.744  -5.288  1.00  0.00     0.108 A   
ATOM     22  O1  UNL     1      -0.028  -1.565  -6.829  1.00  0.00    -0.316 OA  
ATOM     23  O2  UNL     1       1.498  -3.391  -6.433  1.00  0.00    -0.316 OA  
ATOM     24  C13 UNL     1       0.759  -2.629  -7.413  1.00  0.00     0.337 C   
ENDBRANCH  15  16
ENDBRANCH  12  15
ENDBRANCH   7  12
ENDBRANCH   1   7
BRANCH   3  25
ATOM     25  C16 UNL     1       0.875   0.567   3.696  1.00  0.00     0.158 C   
BRANCH  25  26
ATOM     26  C17 UNL     1       1.766  -0.440   4.448  1.00  0.00     0.186 C   
BRANCH  26  27
ATOM     27  O3  UNL     1       2.181   0.113   5.700  1.00  0.00    -0.394 OA  
ATOM     28  H24 UNL     1       2.777  -0.535   6.118  1.00  0.00     0.210 HD  
ENDBRANCH  26  27
ENDBRANCH  25  26
BRANCH  25  29
ATOM     29  C18 UNL     1       1.667   1.775   3.214  1.00  0.00     0.013 A   
ATOM     30  C19 UNL     1       1.535   3.013   3.863  1.00  0.00     0.009 A   
ATOM     31  C23 UNL     1       2.561   1.686   2.139  1.00  0.00     0.128 A   
ATOM     32  C20 UNL     1       2.264   4.125   3.431  1.00  0.00     0.001 A   
ATOM     33  C22 UNL     1       3.291   2.790   1.705  1.00  0.00     0.039 A   
ATOM     34  C21 UNL     1       3.140   4.014   2.352  1.00  0.00     0.003 A   
ATOM     35  F1  UNL     1       2.716   0.522   1.493  1.00  0.00    -0.207 F   
ENDBRANCH  25  29
ENDBRANCH   3  25
TORSDOF 10
