REMARK SMILES c1cc(CCn2cc([C@@H]([NH2+]Cc3ccc4c(c3)OCO4)C3CCCCC3)nn2)ccn1
REMARK SMILES IDX 6 1 7 2 8 3 27 4 28 5 5 7 4 8 3 9 1 10 2 11 31 12 30 13
REMARK SMILES IDX 29 14 9 15 10 16 11 19 12 20 13 21 17 22 14 23 16 24 15 25
REMARK SMILES IDX 18 26 20 27 19 28 21 29 22 30 26 31 23 32 25 33 24 34
REMARK H PARENT 7 6 10 17 10 18
ROOT
ATOM     1   N1  UNL     1       2.990  -2.105  -0.503  1.00  0.00    -0.212 N   
ATOM     2   C6  UNL     1       1.694  -1.897  -0.124  1.00  0.00     0.045 A   
ATOM     3   C7  UNL     1       1.102  -1.370  -1.250  1.00  0.00     0.127 A   
ATOM     4   N3  UNL     1       2.032  -1.290  -2.253  1.00  0.00    -0.132 NA  
ATOM     5   N4  UNL     1       3.179  -1.758  -1.788  1.00  0.00    -0.076 NA  
ATOM     6   H7  UNL     1       1.339  -2.099   0.876  1.00  0.00     0.083 HD  
ENDROOT
BRANCH   1   7
ATOM     7   C5  UNL     1       4.101  -2.523   0.329  1.00  0.00     0.139 C   
BRANCH   7   8
ATOM     8   C4  UNL     1       5.196  -1.459   0.468  1.00  0.00     0.057 C   
BRANCH   8   9
ATOM     9   C3  UNL     1       4.670  -0.105   0.883  1.00  0.00    -0.043 A   
ATOM     10  C1  UNL     1       4.150   2.175   0.364  1.00  0.00     0.111 A   
ATOM     11  C2  UNL     1       4.706   0.965  -0.017  1.00  0.00     0.024 A   
ATOM     12  N5  UNL     1       3.544   2.376   1.552  1.00  0.00    -0.265 NA  
ATOM     13  C24 UNL     1       3.574   1.351   2.432  1.00  0.00     0.111 A   
ATOM     14  C23 UNL     1       4.112   0.106   2.146  1.00  0.00     0.024 A   
ENDBRANCH   8   9
ENDBRANCH   7   8
ENDBRANCH   1   7
BRANCH   3  15
ATOM     15  C8  UNL     1      -0.276  -0.830  -1.472  1.00  0.00     0.117 C   
BRANCH  15  16
ATOM     16  N2  UNL     1      -0.159   0.593  -1.983  1.00  0.00     0.249 N   
ATOM     17  H9  UNL     1       0.456   0.554  -2.807  1.00  0.00     0.199 HD  
ATOM     18  H10 UNL     1      -1.066   0.946  -2.293  1.00  0.00     0.199 HD  
BRANCH  16  19
ATOM     19  C9  UNL     1       0.418   1.594  -1.031  1.00  0.00     0.164 C   
BRANCH  19  20
ATOM     20  C10 UNL     1      -0.470   1.843   0.156  1.00  0.00    -0.002 A   
ATOM     21  C11 UNL     1      -1.671   2.579   0.017  1.00  0.00     0.012 A   
ATOM     22  C15 UNL     1      -0.125   1.316   1.411  1.00  0.00     0.045 A   
ATOM     23  C12 UNL     1      -2.519   2.782   1.112  1.00  0.00     0.037 A   
ATOM     24  C14 UNL     1      -0.981   1.534   2.470  1.00  0.00     0.109 A   
ATOM     25  C13 UNL     1      -2.146   2.245   2.324  1.00  0.00     0.108 A   
ATOM     26  O1  UNL     1      -0.798   1.088   3.740  1.00  0.00    -0.316 OA  
ATOM     27  O2  UNL     1      -2.842   2.342   3.486  1.00  0.00    -0.316 OA  
ATOM     28  C16 UNL     1      -1.965   1.641   4.393  1.00  0.00     0.337 C   
ENDBRANCH  19  20
ENDBRANCH  16  19
ENDBRANCH  15  16
BRANCH  15  29
ATOM     29  C17 UNL     1      -1.090  -1.685  -2.492  1.00  0.00     0.043 C   
ATOM     30  C18 UNL     1      -1.198  -3.151  -2.010  1.00  0.00     0.010 C   
ATOM     31  C22 UNL     1      -2.506  -1.120  -2.739  1.00  0.00     0.010 C   
ATOM     32  C19 UNL     1      -2.030  -4.019  -2.951  1.00  0.00     0.001 C   
ATOM     33  C21 UNL     1      -3.339  -2.003  -3.666  1.00  0.00     0.001 C   
ATOM     34  C20 UNL     1      -3.420  -3.438  -3.165  1.00  0.00     0.000 C   
ENDBRANCH  15  29
ENDBRANCH   3  15
TORSDOF 8
