REMARK SMILES Cc1cc([C@H](CO)n2cc([C@@H]([NH2+]Cc3ccc4c(c3)OCO4)C3CCCC3)nn2)ccn1
REMARK SMILES IDX 8 1 9 2 10 3 28 4 29 5 5 7 4 8 2 9 3 10 32 11 31 12 30 13
REMARK SMILES IDX 1 14 6 15 7 16 11 18 12 19 13 22 14 23 15 24 19 25 16 26
REMARK SMILES IDX 18 27 17 28 20 29 22 30 21 31 23 32 24 33 27 34 25 35 26 36
REMARK H PARENT 9 6 7 17 12 20 12 21
ROOT
ATOM     1   N1  UNL     1       1.775  -0.674  -1.804  1.00  0.00    -0.202 N   
ATOM     2   C7  UNL     1       0.490  -1.136  -1.693  1.00  0.00     0.046 A   
ATOM     3   C8  UNL     1      -0.142  -0.197  -0.913  1.00  0.00     0.127 A   
ATOM     4   N3  UNL     1       0.761   0.770  -0.552  1.00  0.00    -0.132 NA  
ATOM     5   N4  UNL     1       1.929   0.465  -1.093  1.00  0.00    -0.075 NA  
ATOM     6   H9  UNL     1       0.165  -2.052  -2.167  1.00  0.00     0.083 HD  
ENDROOT
BRANCH   1   7
ATOM     7   C5  UNL     1       2.907  -1.238  -2.543  1.00  0.00     0.155 C   
BRANCH   7   8
ATOM     8   C4  UNL     1       2.481  -1.691  -3.938  1.00  0.00    -0.020 A   
ATOM     9   C2  UNL     1       1.852  -3.362  -5.569  1.00  0.00     0.038 A   
ATOM     10  C3  UNL     1       2.268  -3.034  -4.278  1.00  0.00     0.029 A   
ATOM     11  N5  UNL     1       1.635  -2.427  -6.521  1.00  0.00    -0.262 NA  
ATOM     12  C24 UNL     1       1.849  -1.137  -6.191  1.00  0.00     0.111 A   
ATOM     13  C23 UNL     1       2.261  -0.725  -4.934  1.00  0.00     0.026 A   
ATOM     14  C1  UNL     1       1.620  -4.794  -5.943  1.00  0.00     0.067 C   
ENDBRANCH   7   8
BRANCH   7  15
ATOM     15  C6  UNL     1       3.677  -2.256  -1.673  1.00  0.00     0.185 C   
BRANCH  15  16
ATOM     16  O1  UNL     1       2.852  -3.322  -1.190  1.00  0.00    -0.394 OA  
ATOM     17  H8  UNL     1       3.439  -3.923  -0.684  1.00  0.00     0.210 HD  
ENDBRANCH  15  16
ENDBRANCH   7  15
ENDBRANCH   1   7
BRANCH   3  18
ATOM     18  C9  UNL     1      -1.548  -0.119  -0.414  1.00  0.00     0.117 C   
BRANCH  18  19
ATOM     19  N2  UNL     1      -1.575   0.535   0.941  1.00  0.00     0.249 N   
ATOM     20  H11 UNL     1      -2.499   0.910   1.172  1.00  0.00     0.199 HD  
ATOM     21  H12 UNL     1      -0.941   1.348   0.888  1.00  0.00     0.199 HD  
BRANCH  19  22
ATOM     22  C10 UNL     1      -1.098  -0.318   2.064  1.00  0.00     0.164 C   
BRANCH  22  23
ATOM     23  C11 UNL     1      -1.088   0.465   3.346  1.00  0.00    -0.002 A   
ATOM     24  C12 UNL     1      -2.195   0.414   4.222  1.00  0.00     0.012 A   
ATOM     25  C16 UNL     1       0.004   1.298   3.653  1.00  0.00     0.045 A   
ATOM     26  C13 UNL     1      -2.214   1.176   5.396  1.00  0.00     0.037 A   
ATOM     27  C15 UNL     1      -0.047   2.034   4.816  1.00  0.00     0.109 A   
ATOM     28  C14 UNL     1      -1.125   1.976   5.662  1.00  0.00     0.108 A   
ATOM     29  O2  UNL     1       0.917   2.882   5.260  1.00  0.00    -0.316 OA  
ATOM     30  O3  UNL     1      -0.977   2.785   6.745  1.00  0.00    -0.316 OA  
ATOM     31  C17 UNL     1       0.325   3.354   6.489  1.00  0.00     0.337 C   
ENDBRANCH  22  23
ENDBRANCH  19  22
ENDBRANCH  18  19
BRANCH  18  32
ATOM     32  C18 UNL     1      -2.460   0.635  -1.405  1.00  0.00     0.043 C   
ATOM     33  C19 UNL     1      -3.960   0.510  -1.116  1.00  0.00     0.010 C   
ATOM     34  C22 UNL     1      -2.270   2.152  -1.486  1.00  0.00     0.010 C   
ATOM     35  C20 UNL     1      -4.613   1.650  -1.899  1.00  0.00     0.001 C   
ATOM     36  C21 UNL     1      -3.491   2.618  -2.273  1.00  0.00     0.001 C   
ENDBRANCH  18  32
ENDBRANCH   3  18
TORSDOF 9
