REMARK SMILES Cc1cc([C@@H](CO)n2cc([C@@H]([NH2+]Cc3ccc4c(c3)OCO4)C3CCCC3)nn2)ccn1
REMARK SMILES IDX 8 1 9 2 10 3 28 4 29 5 5 7 4 8 2 9 3 10 32 11 31 12 30 13
REMARK SMILES IDX 1 14 6 15 7 16 11 18 12 19 13 22 14 23 15 24 19 25 16 26
REMARK SMILES IDX 18 27 17 28 20 29 22 30 21 31 23 32 24 33 27 34 25 35 26 36
REMARK H PARENT 9 6 7 17 12 20 12 21
ROOT
ATOM     1   N1  UNL     1       0.743  -1.538   0.821  1.00  0.00    -0.202 N   
ATOM     2   C7  UNL     1      -0.263  -1.284  -0.072  1.00  0.00     0.046 A   
ATOM     3   C8  UNL     1       0.264  -1.652  -1.288  1.00  0.00     0.127 A   
ATOM     4   N3  UNL     1       1.557  -2.074  -1.110  1.00  0.00    -0.132 NA  
ATOM     5   N4  UNL     1       1.840  -1.998   0.180  1.00  0.00    -0.075 NA  
ATOM     6   H9  UNL     1      -1.224  -0.895   0.237  1.00  0.00     0.083 HD  
ENDROOT
BRANCH   1   7
ATOM     7   C5  UNL     1       0.749  -1.383   2.275  1.00  0.00     0.155 C   
BRANCH   7   8
ATOM     8   C4  UNL     1       0.409   0.047   2.669  1.00  0.00    -0.020 A   
ATOM     9   C2  UNL     1      -1.108   1.792   3.369  1.00  0.00     0.038 A   
ATOM     10  C3  UNL     1      -0.878   0.458   3.038  1.00  0.00     0.029 A   
ATOM     11  N5  UNL     1      -0.132   2.726   3.345  1.00  0.00    -0.262 NA  
ATOM     12  C24 UNL     1       1.106   2.323   2.994  1.00  0.00     0.111 A   
ATOM     13  C23 UNL     1       1.419   1.020   2.645  1.00  0.00     0.026 A   
ATOM     14  C1  UNL     1      -2.481   2.244   3.769  1.00  0.00     0.067 C   
ENDBRANCH   7   8
BRANCH   7  15
ATOM     15  C6  UNL     1      -0.048  -2.510   2.966  1.00  0.00     0.185 C   
BRANCH  15  16
ATOM     16  O1  UNL     1      -1.410  -2.583   2.541  1.00  0.00    -0.394 OA  
ATOM     17  H8  UNL     1      -1.826  -3.304   3.050  1.00  0.00     0.210 HD  
ENDBRANCH  15  16
ENDBRANCH   7  15
ENDBRANCH   1   7
BRANCH   3  18
ATOM     18  C9  UNL     1      -0.305  -1.596  -2.669  1.00  0.00     0.117 C   
BRANCH  18  19
ATOM     19  N2  UNL     1       0.805  -1.164  -3.614  1.00  0.00     0.249 N   
ATOM     20  H11 UNL     1       1.688  -1.331  -3.103  1.00  0.00     0.199 HD  
ATOM     21  H12 UNL     1       0.855  -1.780  -4.430  1.00  0.00     0.199 HD  
BRANCH  19  22
ATOM     22  C10 UNL     1       0.778   0.256  -4.057  1.00  0.00     0.164 C   
BRANCH  22  23
ATOM     23  C11 UNL     1       0.950   1.244  -2.938  1.00  0.00    -0.002 A   
ATOM     24  C12 UNL     1       2.204   1.391  -2.297  1.00  0.00     0.012 A   
ATOM     25  C16 UNL     1      -0.141   2.017  -2.505  1.00  0.00     0.045 A   
ATOM     26  C13 UNL     1       2.371   2.297  -1.244  1.00  0.00     0.037 A   
ATOM     27  C15 UNL     1       0.058   2.898  -1.462  1.00  0.00     0.109 A   
ATOM     28  C14 UNL     1       1.279   3.037  -0.851  1.00  0.00     0.108 A   
ATOM     29  O2  UNL     1      -0.888   3.714  -0.929  1.00  0.00    -0.316 OA  
ATOM     30  O3  UNL     1       1.261   3.966   0.139  1.00  0.00    -0.316 OA  
ATOM     31  C17 UNL     1      -0.117   4.399   0.086  1.00  0.00     0.337 C   
ENDBRANCH  22  23
ENDBRANCH  19  22
ENDBRANCH  18  19
BRANCH  18  32
ATOM     32  C18 UNL     1      -0.849  -2.965  -3.151  1.00  0.00     0.043 C   
ATOM     33  C19 UNL     1      -1.557  -2.882  -4.512  1.00  0.00     0.010 C   
ATOM     34  C22 UNL     1      -1.981  -3.525  -2.279  1.00  0.00     0.010 C   
ATOM     35  C20 UNL     1      -2.977  -2.414  -4.198  1.00  0.00     0.001 C   
ATOM     36  C21 UNL     1      -3.231  -2.785  -2.739  1.00  0.00     0.001 C   
ENDBRANCH  18  32
ENDBRANCH   3  18
TORSDOF 9
