REMARK SMILES Cc1cnccc1[C@H](CO)n1cc([C@H](CC(C)C)[NH2+]Cc2ccc3c(c2)OCO3)nn1
REMARK SMILES IDX 11 1 12 2 13 3 30 4 31 5 8 7 7 8 2 9 3 10 4 11 6 12 5 13
REMARK SMILES IDX 1 14 9 15 10 16 14 18 15 19 16 20 17 21 18 22 19 23 20 26
REMARK SMILES IDX 21 27 22 28 26 29 23 30 25 31 24 32 27 33 29 34 28 35
REMARK H PARENT 12 6 10 17 19 24 19 25
ROOT
ATOM     1   N2  UNL     1       0.509   1.025   2.645  1.00  0.00    -0.202 N   
ATOM     2   C9  UNL     1       0.315   0.777   1.313  1.00  0.00     0.046 A   
ATOM     3   C10 UNL     1      -0.721  -0.128   1.286  1.00  0.00     0.127 A   
ATOM     4   N4  UNL     1      -1.081  -0.439   2.571  1.00  0.00    -0.132 NA  
ATOM     5   N5  UNL     1      -0.317   0.262   3.393  1.00  0.00    -0.075 NA  
ATOM     6   H11 UNL     1       0.904   1.256   0.543  1.00  0.00     0.083 HD  
ENDROOT
BRANCH   1   7
ATOM     7   C7  UNL     1       1.454   1.940   3.287  1.00  0.00     0.155 C   
BRANCH   7   8
ATOM     8   C6  UNL     1       1.462   3.298   2.583  1.00  0.00    -0.017 A   
ATOM     9   C2  UNL     1       0.417   4.231   2.780  1.00  0.00    -0.028 A   
ATOM     10  C3  UNL     1       0.471   5.434   2.075  1.00  0.00     0.114 A   
ATOM     11  N1  UNL     1       1.451   5.768   1.211  1.00  0.00    -0.264 NA  
ATOM     12  C5  UNL     1       2.487   3.650   1.690  1.00  0.00     0.026 A   
ATOM     13  C4  UNL     1       2.440   4.875   1.042  1.00  0.00     0.111 A   
ATOM     14  C1  UNL     1      -0.742   3.990   3.707  1.00  0.00     0.046 C   
ENDBRANCH   7   8
BRANCH   7  15
ATOM     15  C8  UNL     1       2.816   1.243   3.504  1.00  0.00     0.185 C   
BRANCH  15  16
ATOM     16  O1  UNL     1       3.372   0.703   2.301  1.00  0.00    -0.394 OA  
ATOM     17  H10 UNL     1       4.258   0.365   2.532  1.00  0.00     0.210 HD  
ENDBRANCH  15  16
ENDBRANCH   7  15
ENDBRANCH   1   7
BRANCH   3  18
ATOM     18  C11 UNL     1      -1.368  -0.826   0.143  1.00  0.00     0.114 C   
BRANCH  18  19
ATOM     19  C12 UNL     1      -2.834  -0.406  -0.088  1.00  0.00     0.064 C   
BRANCH  19  20
ATOM     20  C13 UNL     1      -3.103   1.025  -0.608  1.00  0.00    -0.012 C   
ATOM     21  C14 UNL     1      -2.984   2.102   0.470  1.00  0.00     0.007 C   
ATOM     22  C15 UNL     1      -2.256   1.385  -1.828  1.00  0.00     0.007 C   
ENDBRANCH  19  20
ENDBRANCH  18  19
BRANCH  18  23
ATOM     23  N3  UNL     1      -1.388  -2.323   0.411  1.00  0.00     0.249 N   
ATOM     24  H22 UNL     1      -1.883  -2.450   1.304  1.00  0.00     0.199 HD  
ATOM     25  H23 UNL     1      -1.935  -2.796  -0.313  1.00  0.00     0.199 HD  
BRANCH  23  26
ATOM     26  C16 UNL     1      -0.060  -2.996   0.538  1.00  0.00     0.164 C   
BRANCH  26  27
ATOM     27  C17 UNL     1       0.772  -2.909  -0.711  1.00  0.00    -0.002 A   
ATOM     28  C18 UNL     1       1.917  -2.076  -0.747  1.00  0.00     0.012 A   
ATOM     29  C22 UNL     1       0.404  -3.628  -1.861  1.00  0.00     0.045 A   
ATOM     30  C19 UNL     1       2.682  -1.954  -1.912  1.00  0.00     0.037 A   
ATOM     31  C21 UNL     1       1.180  -3.484  -2.993  1.00  0.00     0.109 A   
ATOM     32  C20 UNL     1       2.285  -2.670  -3.019  1.00  0.00     0.108 A   
ATOM     33  O2  UNL     1       0.959  -4.100  -4.184  1.00  0.00    -0.316 OA  
ATOM     34  O3  UNL     1       2.901  -2.672  -4.229  1.00  0.00    -0.316 OA  
ATOM     35  C23 UNL     1       2.073  -3.602  -4.960  1.00  0.00     0.337 C   
ENDBRANCH  26  27
ENDBRANCH  23  26
ENDBRANCH  18  23
ENDBRANCH   3  18
TORSDOF 10
