REMARK SMILES Cc1cnccc1[C@@H](CO)n1cc([C@H](CC(C)C)[NH2+]Cc2ccc3c(c2)OCO3)nn1
REMARK SMILES IDX 11 1 12 2 13 3 30 4 31 5 8 7 7 8 2 9 3 10 4 11 6 12 5 13
REMARK SMILES IDX 1 14 9 15 10 16 14 18 15 19 16 20 17 21 18 22 19 23 20 26
REMARK SMILES IDX 21 27 22 28 26 29 23 30 25 31 24 32 27 33 29 34 28 35
REMARK H PARENT 12 6 10 17 19 24 19 25
ROOT
ATOM     1   N2  UNL     1       1.469   0.735   1.280  1.00  0.00    -0.202 N   
ATOM     2   C9  UNL     1       0.832  -0.271   0.606  1.00  0.00     0.046 A   
ATOM     3   C10 UNL     1       1.027   0.031  -0.722  1.00  0.00     0.127 A   
ATOM     4   N4  UNL     1       1.779   1.172  -0.818  1.00  0.00    -0.132 NA  
ATOM     5   N5  UNL     1       2.033   1.602   0.409  1.00  0.00    -0.075 NA  
ATOM     6   H11 UNL     1       0.308  -1.068   1.117  1.00  0.00     0.083 HD  
ENDROOT
BRANCH   1   7
ATOM     7   C7  UNL     1       1.556   0.970   2.723  1.00  0.00     0.155 C   
BRANCH   7   8
ATOM     8   C6  UNL     1       0.180   0.832   3.379  1.00  0.00    -0.017 A   
ATOM     9   C2  UNL     1      -0.770   1.878   3.320  1.00  0.00    -0.028 A   
ATOM     10  C3  UNL     1      -2.022   1.660   3.898  1.00  0.00     0.114 A   
ATOM     11  N1  UNL     1      -2.395   0.517   4.508  1.00  0.00    -0.264 NA  
ATOM     12  C5  UNL     1      -0.204  -0.355   4.026  1.00  0.00     0.026 A   
ATOM     13  C4  UNL     1      -1.476  -0.462   4.567  1.00  0.00     0.111 A   
ATOM     14  C1  UNL     1      -0.493   3.208   2.680  1.00  0.00     0.046 C   
ENDBRANCH   7   8
BRANCH   7  15
ATOM     15  C8  UNL     1       2.720   0.161   3.337  1.00  0.00     0.185 C   
BRANCH  15  16
ATOM     16  O1  UNL     1       2.622  -1.243   3.090  1.00  0.00    -0.394 OA  
ATOM     17  H10 UNL     1       3.408  -1.657   3.495  1.00  0.00     0.210 HD  
ENDBRANCH  15  16
ENDBRANCH   7  15
ENDBRANCH   1   7
BRANCH   3  18
ATOM     18  C11 UNL     1       0.513  -0.651  -1.945  1.00  0.00     0.114 C   
BRANCH  18  19
ATOM     19  C12 UNL     1       1.534  -1.679  -2.481  1.00  0.00     0.064 C   
BRANCH  19  20
ATOM     20  C13 UNL     1       0.910  -2.961  -3.077  1.00  0.00    -0.012 C   
ATOM     21  C14 UNL     1       2.022  -3.938  -3.472  1.00  0.00     0.007 C   
ATOM     22  C15 UNL     1       0.007  -2.704  -4.281  1.00  0.00     0.007 C   
ENDBRANCH  19  20
ENDBRANCH  18  19
BRANCH  18  23
ATOM     23  N3  UNL     1       0.212   0.342  -3.050  1.00  0.00     0.249 N   
ATOM     24  H22 UNL     1      -0.087  -0.151  -3.893  1.00  0.00     0.199 HD  
ATOM     25  H23 UNL     1       1.101   0.808  -3.272  1.00  0.00     0.199 HD  
BRANCH  23  26
ATOM     26  C16 UNL     1      -0.773   1.428  -2.750  1.00  0.00     0.164 C   
BRANCH  26  27
ATOM     27  C17 UNL     1      -2.046   0.958  -2.107  1.00  0.00    -0.002 A   
ATOM     28  C18 UNL     1      -2.978   0.166  -2.819  1.00  0.00     0.012 A   
ATOM     29  C22 UNL     1      -2.302   1.284  -0.764  1.00  0.00     0.045 A   
ATOM     30  C19 UNL     1      -4.136  -0.312  -2.195  1.00  0.00     0.037 A   
ATOM     31  C21 UNL     1      -3.452   0.800  -0.181  1.00  0.00     0.109 A   
ATOM     32  C20 UNL     1      -4.341   0.018  -0.873  1.00  0.00     0.108 A   
ATOM     33  O2  UNL     1      -3.837   1.019   1.102  1.00  0.00    -0.316 OA  
ATOM     34  O3  UNL     1      -5.396  -0.364  -0.107  1.00  0.00    -0.316 OA  
ATOM     35  C23 UNL     1      -5.070   0.270   1.151  1.00  0.00     0.337 C   
ENDBRANCH  26  27
ENDBRANCH  23  26
ENDBRANCH  18  23
ENDBRANCH   3  18
TORSDOF 10
