REMARK SMILES c1cc2c(cc1CCn1cc([C@@H]([NH2+]Cc3ccc4c(c3)OCO4)C3CCCC3)nn1)OCO2
REMARK SMILES IDX 9 1 10 2 11 3 29 4 30 5 8 7 7 8 6 9 1 10 2 11 3 12 5 13 4 14
REMARK SMILES IDX 33 15 31 16 32 17 12 18 13 19 14 22 15 23 16 24 20 25 17 26
REMARK SMILES IDX 19 27 18 28 21 29 23 30 22 31 24 32 25 33 28 34 26 35 27 36
REMARK H PARENT 10 6 13 20 13 21
ROOT
ATOM     1   N1  UNL     1       2.432   0.702  -2.456  1.00  0.00    -0.212 N   
ATOM     2   C9  UNL     1       1.922   0.912  -1.205  1.00  0.00     0.045 A   
ATOM     3   C10 UNL     1       2.027  -0.319  -0.597  1.00  0.00     0.127 A   
ATOM     4   N3  UNL     1       2.603  -1.206  -1.468  1.00  0.00    -0.132 NA  
ATOM     5   N4  UNL     1       2.855  -0.567  -2.599  1.00  0.00    -0.076 NA  
ATOM     6   H8  UNL     1       1.507   1.862  -0.899  1.00  0.00     0.083 HD  
ENDROOT
BRANCH   1   7
ATOM     7   C8  UNL     1       2.447   1.618  -3.578  1.00  0.00     0.139 C   
BRANCH   7   8
ATOM     8   C7  UNL     1       1.455   1.230  -4.678  1.00  0.00     0.057 C   
BRANCH   8   9
ATOM     9   C6  UNL     1       0.022   1.185  -4.195  1.00  0.00    -0.044 A   
ATOM     10  C1  UNL     1      -0.725   2.376  -4.058  1.00  0.00     0.006 A   
ATOM     11  C2  UNL     1      -2.041   2.346  -3.583  1.00  0.00     0.036 A   
ATOM     12  C3  UNL     1      -2.579   1.122  -3.255  1.00  0.00     0.108 A   
ATOM     13  C5  UNL     1      -0.562  -0.046  -3.846  1.00  0.00     0.040 A   
ATOM     14  C4  UNL     1      -1.859  -0.042  -3.378  1.00  0.00     0.109 A   
ATOM     15  O4  UNL     1      -3.832   0.905  -2.776  1.00  0.00    -0.316 OA  
ATOM     16  O3  UNL     1      -2.563  -1.133  -2.970  1.00  0.00    -0.316 OA  
ATOM     17  C25 UNL     1      -3.857  -0.535  -2.720  1.00  0.00     0.337 C   
ENDBRANCH   8   9
ENDBRANCH   7   8
ENDBRANCH   1   7
BRANCH   3  18
ATOM     18  C11 UNL     1       1.540  -0.803   0.728  1.00  0.00     0.117 C   
BRANCH  18  19
ATOM     19  N2  UNL     1       0.897  -2.160   0.565  1.00  0.00     0.249 N   
ATOM     20  H10 UNL     1       1.546  -2.712  -0.013  1.00  0.00     0.199 HD  
ATOM     21  H11 UNL     1       0.809  -2.639   1.464  1.00  0.00     0.199 HD  
BRANCH  19  22
ATOM     22  C12 UNL     1      -0.424  -2.176  -0.134  1.00  0.00     0.164 C   
BRANCH  22  23
ATOM     23  C13 UNL     1      -1.533  -1.617   0.714  1.00  0.00    -0.002 A   
ATOM     24  C14 UNL     1      -2.115  -2.401   1.739  1.00  0.00     0.012 A   
ATOM     25  C18 UNL     1      -1.977  -0.298   0.517  1.00  0.00     0.045 A   
ATOM     26  C15 UNL     1      -3.127  -1.881   2.554  1.00  0.00     0.037 A   
ATOM     27  C17 UNL     1      -2.974   0.183   1.338  1.00  0.00     0.109 A   
ATOM     28  C16 UNL     1      -3.534  -0.585   2.328  1.00  0.00     0.108 A   
ATOM     29  O1  UNL     1      -3.511   1.430   1.282  1.00  0.00    -0.316 OA  
ATOM     30  O2  UNL     1      -4.497   0.079   3.017  1.00  0.00    -0.316 OA  
ATOM     31  C19 UNL     1      -4.500   1.351   2.333  1.00  0.00     0.337 C   
ENDBRANCH  22  23
ENDBRANCH  19  22
ENDBRANCH  18  19
BRANCH  18  32
ATOM     32  C20 UNL     1       2.669  -0.860   1.776  1.00  0.00     0.043 C   
ATOM     33  C21 UNL     1       2.178  -1.089   3.219  1.00  0.00     0.010 C   
ATOM     34  C24 UNL     1       3.749  -1.927   1.565  1.00  0.00     0.010 C   
ATOM     35  C22 UNL     1       3.225  -1.977   3.892  1.00  0.00     0.001 C   
ATOM     36  C23 UNL     1       4.405  -2.018   2.934  1.00  0.00     0.001 C   
ENDBRANCH  18  32
ENDBRANCH   3  18
TORSDOF 8
