REMARK SMILES CC(C)C[C@H]([NH2+]Cc1ccc2c(c1)OCO2)c1cn(Cc2ccn(C)n2)nn1
REMARK SMILES IDX 17 1 18 2 19 3 27 4 28 5 5 7 4 8 2 9 1 10 3 11 6 12 7 15
REMARK SMILES IDX 8 16 9 17 13 18 10 19 12 20 11 21 14 22 16 23 15 24 20 25
REMARK SMILES IDX 21 26 22 27 26 28 23 29 24 30 25 31
REMARK H PARENT 18 6 6 13 6 14
ROOT
ATOM     1   C14 UNL     1      -1.025   0.774  -1.345  1.00  0.00     0.127 A   
ATOM     2   C15 UNL     1      -1.049  -0.418  -2.031  1.00  0.00     0.046 A   
ATOM     3   N2  UNL     1      -1.196  -0.045  -3.340  1.00  0.00    -0.206 N   
ATOM     4   N5  UNL     1      -1.270   1.297  -3.450  1.00  0.00    -0.076 NA  
ATOM     5   N6  UNL     1      -1.169   1.809  -2.234  1.00  0.00    -0.132 NA  
ATOM     6   H20 UNL     1      -0.954  -1.456  -1.739  1.00  0.00     0.083 HD  
ENDROOT
BRANCH   1   7
ATOM     7   C5  UNL     1      -0.825   1.073   0.104  1.00  0.00     0.114 C   
BRANCH   7   8
ATOM     8   C4  UNL     1      -2.182   1.232   0.820  1.00  0.00     0.064 C   
BRANCH   8   9
ATOM     9   C2  UNL     1      -2.132   1.474   2.344  1.00  0.00    -0.012 C   
ATOM     10  C1  UNL     1      -1.371   0.378   3.089  1.00  0.00     0.007 C   
ATOM     11  C3  UNL     1      -3.558   1.578   2.893  1.00  0.00     0.007 C   
ENDBRANCH   8   9
ENDBRANCH   7   8
BRANCH   7  12
ATOM     12  N1  UNL     1      -0.030   2.347   0.260  1.00  0.00     0.249 N   
ATOM     13  H11 UNL     1      -0.079   2.696   1.220  1.00  0.00     0.199 HD  
ATOM     14  H12 UNL     1      -0.489   3.044  -0.344  1.00  0.00     0.199 HD  
BRANCH  12  15
ATOM     15  C6  UNL     1       1.404   2.277  -0.150  1.00  0.00     0.164 C   
BRANCH  15  16
ATOM     16  C7  UNL     1       2.233   1.456   0.797  1.00  0.00    -0.002 A   
ATOM     17  C8  UNL     1       2.655   0.154   0.434  1.00  0.00     0.012 A   
ATOM     18  C12 UNL     1       2.562   1.960   2.068  1.00  0.00     0.045 A   
ATOM     19  C9  UNL     1       3.387  -0.639   1.325  1.00  0.00     0.037 A   
ATOM     20  C11 UNL     1       3.285   1.153   2.920  1.00  0.00     0.109 A   
ATOM     21  C10 UNL     1       3.685  -0.111   2.561  1.00  0.00     0.108 A   
ATOM     22  O1  UNL     1       3.677   1.484   4.178  1.00  0.00    -0.316 OA  
ATOM     23  O2  UNL     1       4.381  -0.734   3.547  1.00  0.00    -0.316 OA  
ATOM     24  C13 UNL     1       4.394   0.289   4.566  1.00  0.00     0.337 C   
ENDBRANCH  15  16
ENDBRANCH  12  15
ENDBRANCH   7  12
ENDBRANCH   1   7
BRANCH   3  25
ATOM     25  C16 UNL     1      -1.298  -0.898  -4.511  1.00  0.00     0.191 C   
BRANCH  25  26
ATOM     26  C17 UNL     1       0.056  -1.351  -4.936  1.00  0.00     0.079 A   
ATOM     27  C18 UNL     1       0.862  -0.820  -5.971  1.00  0.00     0.044 A   
ATOM     28  N4  UNL     1       0.654  -2.390  -4.333  1.00  0.00    -0.185 NA  
ATOM     29  C19 UNL     1       1.984  -1.611  -5.992  1.00  0.00     0.097 A   
ATOM     30  N3  UNL     1       1.805  -2.546  -5.017  1.00  0.00    -0.236 N   
ATOM     31  C20 UNL     1       2.696  -3.632  -4.681  1.00  0.00     0.159 C   
ENDBRANCH  25  26
ENDBRANCH   3  25
TORSDOF 8
