REMARK SMILES Cc1n[nH]c(C2CCC2)c1Cn1cc([C@@H]([NH2+]Cc2ccc3c(c2)OCO3)C(C)C)nn1
REMARK SMILES IDX 12 1 13 2 14 3 30 4 31 5 11 7 10 8 2 9 3 10 4 11 5 12 1 13
REMARK SMILES IDX 6 15 7 16 9 17 8 18 15 19 16 20 17 23 18 24 19 25 23 26
REMARK SMILES IDX 20 27 22 28 21 29 24 30 26 31 25 32 27 33 28 34 29 35
REMARK H PARENT 13 6 4 14 16 21 16 22
ROOT
ATOM     1   N3  UNL     1      -0.637   0.145   2.274  1.00  0.00    -0.208 N   
ATOM     2   C10 UNL     1       0.481  -0.367   1.672  1.00  0.00     0.046 A   
ATOM     3   C11 UNL     1       1.418   0.633   1.811  1.00  0.00     0.127 A   
ATOM     4   N5  UNL     1       0.878   1.659   2.541  1.00  0.00    -0.132 NA  
ATOM     5   N6  UNL     1      -0.374   1.344   2.829  1.00  0.00    -0.076 NA  
ATOM     6   H14 UNL     1       0.473  -1.308   1.141  1.00  0.00     0.083 HD  
ENDROOT
BRANCH   1   7
ATOM     7   C9  UNL     1      -2.001  -0.357   2.184  1.00  0.00     0.173 C   
BRANCH   7   8
ATOM     8   C8  UNL     1      -2.535  -0.063   0.821  1.00  0.00     0.013 A   
ATOM     9   C2  UNL     1      -2.973   1.201   0.325  1.00  0.00     0.062 A   
ATOM     10  N1  UNL     1      -3.279   1.145  -0.975  1.00  0.00    -0.189 NA  
ATOM     11  N2  UNL     1      -3.137  -0.147  -1.297  1.00  0.00    -0.242 N   
ATOM     12  C3  UNL     1      -2.681  -0.909  -0.263  1.00  0.00     0.035 A   
ATOM     13  C1  UNL     1      -3.066   2.499   1.043  1.00  0.00     0.069 C   
ATOM     14  H4  UNL     1      -3.348  -0.431  -2.249  1.00  0.00     0.175 HD  
BRANCH  12  15
ATOM     15  C4  UNL     1      -2.357  -2.426  -0.325  1.00  0.00     0.036 C   
ATOM     16  C5  UNL     1      -2.869  -3.194  -1.571  1.00  0.00     0.010 C   
ATOM     17  C7  UNL     1      -3.303  -3.332   0.505  1.00  0.00     0.010 C   
ATOM     18  C6  UNL     1      -3.170  -4.374  -0.625  1.00  0.00     0.001 C   
ENDBRANCH  12  15
ENDBRANCH   7   8
ENDBRANCH   1   7
BRANCH   3  19
ATOM     19  C12 UNL     1       2.762   0.787   1.184  1.00  0.00     0.117 C   
BRANCH  19  20
ATOM     20  N4  UNL     1       2.906   2.162   0.562  1.00  0.00     0.249 N   
ATOM     21  H16 UNL     1       2.765   2.845   1.318  1.00  0.00     0.199 HD  
ATOM     22  H17 UNL     1       3.858   2.285   0.208  1.00  0.00     0.199 HD  
BRANCH  20  23
ATOM     23  C13 UNL     1       1.925   2.521  -0.514  1.00  0.00     0.164 C   
BRANCH  23  24
ATOM     24  C14 UNL     1       1.874   1.539  -1.652  1.00  0.00    -0.002 A   
ATOM     25  C15 UNL     1       2.987   1.361  -2.508  1.00  0.00     0.012 A   
ATOM     26  C19 UNL     1       0.714   0.770  -1.859  1.00  0.00     0.045 A   
ATOM     27  C16 UNL     1       2.953   0.419  -3.542  1.00  0.00     0.037 A   
ATOM     28  C18 UNL     1       0.713  -0.152  -2.884  1.00  0.00     0.109 A   
ATOM     29  C17 UNL     1       1.803  -0.324  -3.700  1.00  0.00     0.108 A   
ATOM     30  O1  UNL     1      -0.315  -0.981  -3.206  1.00  0.00    -0.316 OA  
ATOM     31  O2  UNL     1       1.599  -1.280  -4.642  1.00  0.00    -0.316 OA  
ATOM     32  C20 UNL     1       0.239  -1.667  -4.353  1.00  0.00     0.337 C   
ENDBRANCH  23  24
ENDBRANCH  20  23
ENDBRANCH  19  20
BRANCH  19  33
ATOM     33  C21 UNL     1       3.954   0.545   2.145  1.00  0.00     0.037 C   
ATOM     34  C22 UNL     1       3.983  -0.906   2.641  1.00  0.00     0.014 C   
ATOM     35  C23 UNL     1       4.018   1.499   3.343  1.00  0.00     0.014 C   
ENDBRANCH  19  33
ENDBRANCH   3  19
TORSDOF 8
