REMARK SMILES CC(C)(C)[C@H]([NH2+]Cc1ccc2c(c1)OCO2)c1cn(C[C@@H]2NCCc3nc[nH]c32)nn1
REMARK SMILES IDX 17 1 18 2 19 3 30 4 31 5 5 7 2 8 1 9 3 10 4 11 6 12 7 15
REMARK SMILES IDX 8 16 9 17 13 18 10 19 12 20 11 21 14 22 16 23 15 24 20 25
REMARK SMILES IDX 21 26 22 27 29 28 23 29 25 30 28 31 24 32 26 33 27 34
REMARK H PARENT 18 6 6 13 6 14 22 35 28 36
ROOT
ATOM     1   C14 UNL     1      -0.181   0.826  -1.949  1.00  0.00     0.127 A   
ATOM     2   C15 UNL     1      -0.695  -0.120  -2.811  1.00  0.00     0.045 A   
ATOM     3   N2  UNL     1       0.408  -0.803  -3.235  1.00  0.00    -0.210 N   
ATOM     4   N6  UNL     1       1.536  -0.235  -2.764  1.00  0.00    -0.076 NA  
ATOM     5   N7  UNL     1       1.185   0.739  -1.941  1.00  0.00    -0.132 NA  
ATOM     6   H20 UNL     1      -1.705  -0.423  -3.079  1.00  0.00     0.083 HD  
ENDROOT
BRANCH   1   7
ATOM     7   C5  UNL     1      -0.881   1.755  -1.010  1.00  0.00     0.120 C   
BRANCH   7   8
ATOM     8   C2  UNL     1      -0.813   3.269  -1.421  1.00  0.00     0.010 C   
ATOM     9   C1  UNL     1      -1.779   4.102  -0.545  1.00  0.00     0.017 C   
ATOM     10  C3  UNL     1      -1.275   3.445  -2.886  1.00  0.00     0.017 C   
ATOM     11  C4  UNL     1       0.598   3.870  -1.278  1.00  0.00     0.017 C   
ENDBRANCH   7   8
BRANCH   7  12
ATOM     12  N1  UNL     1      -0.344   1.555   0.388  1.00  0.00     0.250 N   
ATOM     13  H11 UNL     1      -0.638   2.312   1.009  1.00  0.00     0.199 HD  
ATOM     14  H12 UNL     1       0.684   1.604   0.344  1.00  0.00     0.199 HD  
BRANCH  12  15
ATOM     15  C6  UNL     1      -0.701   0.248   1.028  1.00  0.00     0.164 C   
BRANCH  15  16
ATOM     16  C7  UNL     1      -0.342   0.256   2.490  1.00  0.00    -0.002 A   
ATOM     17  C8  UNL     1      -1.063   1.070   3.400  1.00  0.00     0.012 A   
ATOM     18  C12 UNL     1       0.725  -0.529   2.959  1.00  0.00     0.045 A   
ATOM     19  C9  UNL     1      -0.713   1.116   4.753  1.00  0.00     0.037 A   
ATOM     20  C11 UNL     1       1.036  -0.468   4.302  1.00  0.00     0.109 A   
ATOM     21  C10 UNL     1       0.343   0.336   5.172  1.00  0.00     0.108 A   
ATOM     22  O1  UNL     1       2.030  -1.163   4.918  1.00  0.00    -0.316 OA  
ATOM     23  O2  UNL     1       0.819   0.254   6.442  1.00  0.00    -0.316 OA  
ATOM     24  C13 UNL     1       1.839  -0.755   6.290  1.00  0.00     0.337 C   
ENDBRANCH  15  16
ENDBRANCH  12  15
ENDBRANCH   7  12
ENDBRANCH   1   7
BRANCH   3  25
ATOM     25  C16 UNL     1       0.469  -2.079  -3.921  1.00  0.00     0.159 C   
BRANCH  25  26
ATOM     26  C17 UNL     1       0.060  -3.276  -3.028  1.00  0.00     0.120 C   
ATOM     27  N3  UNL     1      -1.425  -3.318  -2.860  1.00  0.00    -0.307 NA  
ATOM     28  C22 UNL     1       0.704  -3.249  -1.679  1.00  0.00     0.049 A   
ATOM     29  C18 UNL     1      -1.851  -4.257  -1.788  1.00  0.00     0.088 C   
ATOM     30  C20 UNL     1       0.080  -3.484  -0.476  1.00  0.00     0.062 A   
ATOM     31  N5  UNL     1       2.014  -3.009  -1.358  1.00  0.00    -0.306 N   
ATOM     32  C19 UNL     1      -1.348  -3.853  -0.381  1.00  0.00     0.073 C   
ATOM     33  N4  UNL     1       0.930  -3.289   0.572  1.00  0.00    -0.244 NA  
ATOM     34  C21 UNL     1       2.099  -3.041   0.010  1.00  0.00     0.186 A   
ATOM     35  H24 UNL     1      -1.839  -3.642  -3.737  1.00  0.00     0.123 HD  
ATOM     36  H30 UNL     1       2.780  -2.796  -1.987  1.00  0.00     0.154 HD  
ENDBRANCH  25  26
ENDBRANCH   3  25
TORSDOF 7
