REMARK SMILES CC(C)(C)[C@H]([NH2+]Cc1ccc2c(c1)OCO2)c1cn(C[C@H]2NCCc3nc[nH]c32)nn1
REMARK SMILES IDX 17 1 18 2 19 3 30 4 31 5 5 7 2 8 1 9 3 10 4 11 6 12 7 15
REMARK SMILES IDX 8 16 9 17 13 18 10 19 12 20 11 21 14 22 16 23 15 24 20 25
REMARK SMILES IDX 21 26 22 27 29 28 23 29 25 30 28 31 24 32 26 33 27 34
REMARK H PARENT 18 6 6 13 6 14 22 35 28 36
ROOT
ATOM     1   C14 UNL     1       1.054  -1.210   0.215  1.00  0.00     0.127 A   
ATOM     2   C15 UNL     1       1.173  -2.146  -0.786  1.00  0.00     0.045 A   
ATOM     3   N2  UNL     1       2.467  -2.571  -0.687  1.00  0.00    -0.210 N   
ATOM     4   N6  UNL     1       3.064  -2.039   0.399  1.00  0.00    -0.076 NA  
ATOM     5   N7  UNL     1       2.213  -1.190   0.951  1.00  0.00    -0.132 NA  
ATOM     6   H20 UNL     1       0.516  -2.472  -1.581  1.00  0.00     0.083 HD  
ENDROOT
BRANCH   1   7
ATOM     7   C5  UNL     1      -0.086  -0.317   0.603  1.00  0.00     0.120 C   
BRANCH   7   8
ATOM     8   C2  UNL     1      -0.088   1.078  -0.119  1.00  0.00     0.010 C   
ATOM     9   C1  UNL     1       1.133   1.943   0.255  1.00  0.00     0.017 C   
ATOM     10  C3  UNL     1      -1.373   1.864   0.236  1.00  0.00     0.017 C   
ATOM     11  C4  UNL     1      -0.094   0.889  -1.653  1.00  0.00     0.017 C   
ENDBRANCH   7   8
BRANCH   7  12
ATOM     12  N1  UNL     1      -0.053  -0.125   2.108  1.00  0.00     0.250 N   
ATOM     13  H11 UNL     1      -0.562   0.714   2.390  1.00  0.00     0.199 HD  
ATOM     14  H12 UNL     1       0.937   0.032   2.346  1.00  0.00     0.199 HD  
BRANCH  12  15
ATOM     15  C6  UNL     1      -0.532  -1.278   2.925  1.00  0.00     0.164 C   
BRANCH  15  16
ATOM     16  C7  UNL     1      -2.019  -1.475   2.829  1.00  0.00    -0.002 A   
ATOM     17  C8  UNL     1      -2.548  -2.596   2.144  1.00  0.00     0.012 A   
ATOM     18  C12 UNL     1      -2.897  -0.533   3.393  1.00  0.00     0.045 A   
ATOM     19  C9  UNL     1      -3.930  -2.773   2.014  1.00  0.00     0.037 A   
ATOM     20  C11 UNL     1      -4.253  -0.737   3.245  1.00  0.00     0.109 A   
ATOM     21  C10 UNL     1      -4.756  -1.825   2.574  1.00  0.00     0.108 A   
ATOM     22  O1  UNL     1      -5.231   0.077   3.723  1.00  0.00    -0.316 OA  
ATOM     23  O2  UNL     1      -6.114  -1.832   2.545  1.00  0.00    -0.316 OA  
ATOM     24  C13 UNL     1      -6.415  -0.638   3.299  1.00  0.00     0.337 C   
ENDBRANCH  15  16
ENDBRANCH  12  15
ENDBRANCH   7  12
ENDBRANCH   1   7
BRANCH   3  25
ATOM     25  C16 UNL     1       3.224  -3.409  -1.595  1.00  0.00     0.159 C   
BRANCH  25  26
ATOM     26  C17 UNL     1       3.377  -2.834  -3.021  1.00  0.00     0.120 C   
ATOM     27  N3  UNL     1       2.129  -3.070  -3.806  1.00  0.00    -0.307 NA  
ATOM     28  C22 UNL     1       3.713  -1.380  -3.039  1.00  0.00     0.049 A   
ATOM     29  C18 UNL     1       2.092  -2.290  -5.070  1.00  0.00     0.088 C   
ATOM     30  C20 UNL     1       3.142  -0.430  -3.852  1.00  0.00     0.062 A   
ATOM     31  N5  UNL     1       4.633  -0.697  -2.291  1.00  0.00    -0.306 N   
ATOM     32  C19 UNL     1       2.101  -0.758  -4.850  1.00  0.00     0.073 C   
ATOM     33  N4  UNL     1       3.633   0.814  -3.588  1.00  0.00    -0.244 NA  
ATOM     34  C21 UNL     1       4.539   0.623  -2.653  1.00  0.00     0.186 A   
ATOM     35  H24 UNL     1       2.083  -4.061  -4.052  1.00  0.00     0.123 HD  
ATOM     36  H30 UNL     1       5.248  -1.066  -1.577  1.00  0.00     0.154 HD  
ENDBRANCH  25  26
ENDBRANCH   3  25
TORSDOF 7
