REMARK SMILES c1cnc2cc(-n3cc([C@@H]([NH2+]Cc4ccc5c(c4)OCO5)C4CCCC4)nn3)cnc2c1
REMARK SMILES IDX 10 1 9 2 7 3 8 4 28 5 27 6 6 7 1 8 2 9 32 10 3 11 31 12 4 13
REMARK SMILES IDX 30 14 5 15 29 16 11 17 12 20 13 21 14 22 18 23 15 24 17 25
REMARK SMILES IDX 16 26 19 27 21 28 20 29 22 30 23 31 26 32 24 33 25 34
REMARK H PARENT 11 18 11 19
ROOT
ATOM     1   C8  UNL     1       2.394   1.212   0.422  1.00  0.00     0.117 C   
ENDROOT
BRANCH   1   2
ATOM     2   C7  UNL     1       1.203   1.203  -0.483  1.00  0.00     0.127 A   
ATOM     3   N2  UNL     1      -0.789   1.173  -1.382  1.00  0.00    -0.179 N   
ATOM     4   C6  UNL     1      -0.090   1.633  -0.284  1.00  0.00     0.135 A   
ATOM     5   N5  UNL     1       0.082   0.588  -2.243  1.00  0.00    -0.071 NA  
ATOM     6   N4  UNL     1       1.284   0.574  -1.693  1.00  0.00    -0.131 NA  
BRANCH   3   7
ATOM     7   C5  UNL     1      -2.177   1.195  -1.621  1.00  0.00     0.078 A   
ATOM     8   C1  UNL     1      -7.123   1.575  -1.429  1.00  0.00     0.022 A   
ATOM     9   C2  UNL     1      -6.606   2.074  -0.249  1.00  0.00     0.112 A   
ATOM     10  C24 UNL     1      -6.230   1.093  -2.382  1.00  0.00     0.032 A   
ATOM     11  N1  UNL     1      -5.285   2.118   0.026  1.00  0.00    -0.255 NA  
ATOM     12  C23 UNL     1      -4.863   1.118  -2.153  1.00  0.00     0.089 A   
ATOM     13  C3  UNL     1      -4.443   1.654  -0.917  1.00  0.00     0.091 A   
ATOM     14  N6  UNL     1      -4.009   0.644  -3.084  1.00  0.00    -0.253 NA  
ATOM     15  C4  UNL     1      -3.079   1.689  -0.676  1.00  0.00     0.058 A   
ATOM     16  C22 UNL     1      -2.687   0.684  -2.804  1.00  0.00     0.137 A   
ENDBRANCH   3   7
ENDBRANCH   1   2
BRANCH   1  17
ATOM     17  N3  UNL     1       3.010  -0.170   0.454  1.00  0.00     0.249 N   
ATOM     18  H6  UNL     1       4.027  -0.116   0.555  1.00  0.00     0.199 HD  
ATOM     19  H7  UNL     1       2.844  -0.579  -0.478  1.00  0.00     0.199 HD  
BRANCH  17  20
ATOM     20  C9  UNL     1       2.482  -1.116   1.485  1.00  0.00     0.164 C   
BRANCH  20  21
ATOM     21  C10 UNL     1       1.012  -1.407   1.359  1.00  0.00    -0.002 A   
ATOM     22  C11 UNL     1       0.528  -2.214   0.300  1.00  0.00     0.012 A   
ATOM     23  C15 UNL     1       0.097  -0.825   2.255  1.00  0.00     0.045 A   
ATOM     24  C12 UNL     1      -0.845  -2.418   0.119  1.00  0.00     0.037 A   
ATOM     25  C14 UNL     1      -1.250  -1.040   2.042  1.00  0.00     0.109 A   
ATOM     26  C13 UNL     1      -1.708  -1.811   1.003  1.00  0.00     0.108 A   
ATOM     27  O1  UNL     1      -2.260  -0.514   2.783  1.00  0.00    -0.316 OA  
ATOM     28  O2  UNL     1      -3.064  -1.871   0.961  1.00  0.00    -0.316 OA  
ATOM     29  C16 UNL     1      -3.414  -1.087   2.122  1.00  0.00     0.337 C   
ENDBRANCH  20  21
ENDBRANCH  17  20
ENDBRANCH   1  17
BRANCH   1  30
ATOM     30  C17 UNL     1       3.427   2.274  -0.003  1.00  0.00     0.043 C   
ATOM     31  C18 UNL     1       4.550   2.504   1.013  1.00  0.00     0.010 C   
ATOM     32  C21 UNL     1       4.206   2.001  -1.292  1.00  0.00     0.010 C   
ATOM     33  C19 UNL     1       5.623   3.264   0.237  1.00  0.00     0.001 C   
ATOM     34  C20 UNL     1       5.341   3.016  -1.245  1.00  0.00     0.001 C   
ENDBRANCH   1  30
TORSDOF 6
