REMARK SMILES CC(C)[C@H]([NH2+]Cc1ccc2c(c1)OCO2)c1cn(CCc2cccn2C)nn1
REMARK SMILES IDX 16 1 17 2 18 3 27 4 28 5 4 7 2 8 1 9 3 10 5 11 6 14 7 15
REMARK SMILES IDX 8 16 12 17 9 18 11 19 10 20 13 21 15 22 14 23 19 24 20 25
REMARK SMILES IDX 21 26 22 27 25 28 23 29 24 30 26 31
REMARK H PARENT 17 6 5 12 5 13
ROOT
ATOM     1   C13 UNL     1       0.045   2.102  -0.265  1.00  0.00     0.127 A   
ATOM     2   C14 UNL     1      -0.956   2.318   0.653  1.00  0.00     0.045 A   
ATOM     3   N2  UNL     1      -2.086   1.898   0.009  1.00  0.00    -0.212 N   
ATOM     4   N4  UNL     1      -1.813   1.523  -1.255  1.00  0.00    -0.076 NA  
ATOM     5   N5  UNL     1      -0.505   1.621  -1.427  1.00  0.00    -0.132 NA  
ATOM     6   H18 UNL     1      -0.961   2.630   1.689  1.00  0.00     0.083 HD  
ENDROOT
BRANCH   1   7
ATOM     7   C4  UNL     1       1.528   2.172  -0.123  1.00  0.00     0.117 C   
BRANCH   7   8
ATOM     8   C2  UNL     1       2.175   3.435  -0.743  1.00  0.00     0.037 C   
ATOM     9   C1  UNL     1       1.719   4.707  -0.020  1.00  0.00     0.014 C   
ATOM     10  C3  UNL     1       1.950   3.589  -2.251  1.00  0.00     0.014 C   
ENDBRANCH   7   8
BRANCH   7  11
ATOM     11  N1  UNL     1       2.146   0.948  -0.750  1.00  0.00     0.249 N   
ATOM     12  H9  UNL     1       3.147   1.075  -0.922  1.00  0.00     0.199 HD  
ATOM     13  H10 UNL     1       1.699   0.836  -1.672  1.00  0.00     0.199 HD  
BRANCH  11  14
ATOM     14  C5  UNL     1       1.927  -0.323  -0.000  1.00  0.00     0.164 C   
BRANCH  14  15
ATOM     15  C6  UNL     1       2.414  -1.494  -0.805  1.00  0.00    -0.002 A   
ATOM     16  C7  UNL     1       3.741  -1.963  -0.665  1.00  0.00     0.012 A   
ATOM     17  C11 UNL     1       1.561  -2.091  -1.751  1.00  0.00     0.045 A   
ATOM     18  C8  UNL     1       4.213  -3.019  -1.451  1.00  0.00     0.037 A   
ATOM     19  C10 UNL     1       2.057  -3.132  -2.506  1.00  0.00     0.109 A   
ATOM     20  C9  UNL     1       3.346  -3.580  -2.363  1.00  0.00     0.108 A   
ATOM     21  O1  UNL     1       1.370  -3.817  -3.458  1.00  0.00    -0.316 OA  
ATOM     22  O2  UNL     1       3.635  -4.603  -3.210  1.00  0.00    -0.316 OA  
ATOM     23  C12 UNL     1       2.371  -4.769  -3.885  1.00  0.00     0.337 C   
ENDBRANCH  14  15
ENDBRANCH  11  14
ENDBRANCH   7  11
ENDBRANCH   1   7
BRANCH   3  24
ATOM     24  C15 UNL     1      -3.400   1.693   0.581  1.00  0.00     0.140 C   
BRANCH  24  25
ATOM     25  C16 UNL     1      -3.782   0.213   0.689  1.00  0.00     0.073 C   
BRANCH  25  26
ATOM     26  C17 UNL     1      -2.743  -0.619   1.389  1.00  0.00     0.011 A   
ATOM     27  C18 UNL     1      -2.216  -0.480   2.663  1.00  0.00     0.020 A   
ATOM     28  N3  UNL     1      -2.147  -1.731   0.829  1.00  0.00    -0.314 N   
ATOM     29  C19 UNL     1      -1.244  -1.488   2.847  1.00  0.00     0.017 A   
ATOM     30  C20 UNL     1      -1.213  -2.239   1.694  1.00  0.00     0.074 A   
ATOM     31  C21 UNL     1      -2.470  -2.323  -0.453  1.00  0.00     0.135 C   
ENDBRANCH  25  26
ENDBRANCH  24  25
ENDBRANCH   3  24
TORSDOF 8
