REMARK SMILES CC(C)(C)[C@H]([NH2+]Cc1ccc2c(c1)OCO2)c1cn(Cc2ncoc2C2CCC2)nn1
REMARK SMILES IDX 17 1 18 2 19 3 30 4 31 5 5 7 2 8 1 9 3 10 4 11 6 12 7 15
REMARK SMILES IDX 8 16 9 17 13 18 10 19 12 20 11 21 14 22 16 23 15 24 20 25
REMARK SMILES IDX 21 26 22 27 25 28 23 29 24 30 26 31 27 32 29 33 28 34
REMARK H PARENT 18 6 6 13 6 14
ROOT
ATOM     1   C14 UNL     1      -0.441   0.962   0.315  1.00  0.00     0.127 A   
ATOM     2   C15 UNL     1       0.535   1.703   0.943  1.00  0.00     0.046 A   
ATOM     3   N2  UNL     1       0.503   1.265   2.239  1.00  0.00    -0.206 N   
ATOM     4   N4  UNL     1      -0.430   0.306   2.397  1.00  0.00    -0.076 NA  
ATOM     5   N5  UNL     1      -1.019   0.117   1.228  1.00  0.00    -0.132 NA  
ATOM     6   H20 UNL     1       1.240   2.452   0.605  1.00  0.00     0.083 HD  
ENDROOT
BRANCH   1   7
ATOM     7   C5  UNL     1      -0.848   0.892  -1.126  1.00  0.00     0.120 C   
BRANCH   7   8
ATOM     8   C2  UNL     1      -2.062   1.815  -1.498  1.00  0.00     0.010 C   
ATOM     9   C1  UNL     1      -3.369   1.402  -0.791  1.00  0.00     0.017 C   
ATOM     10  C3  UNL     1      -1.750   3.281  -1.118  1.00  0.00     0.017 C   
ATOM     11  C4  UNL     1      -2.308   1.788  -3.025  1.00  0.00     0.017 C   
ENDBRANCH   7   8
BRANCH   7  12
ATOM     12  N1  UNL     1      -1.154  -0.550  -1.487  1.00  0.00     0.250 N   
ATOM     13  H11 UNL     1      -1.590  -0.611  -2.409  1.00  0.00     0.199 HD  
ATOM     14  H12 UNL     1      -1.842  -0.882  -0.797  1.00  0.00     0.199 HD  
BRANCH  12  15
ATOM     15  C6  UNL     1      -0.003  -1.506  -1.442  1.00  0.00     0.164 C   
BRANCH  15  16
ATOM     16  C7  UNL     1       1.084  -1.170  -2.425  1.00  0.00    -0.002 A   
ATOM     17  C8  UNL     1       2.340  -0.703  -1.964  1.00  0.00     0.012 A   
ATOM     18  C12 UNL     1       0.856  -1.291  -3.807  1.00  0.00     0.045 A   
ATOM     19  C9  UNL     1       3.352  -0.356  -2.865  1.00  0.00     0.037 A   
ATOM     20  C11 UNL     1       1.874  -0.935  -4.667  1.00  0.00     0.109 A   
ATOM     21  C10 UNL     1       3.087  -0.481  -4.210  1.00  0.00     0.108 A   
ATOM     22  O1  UNL     1       1.813  -0.981  -6.023  1.00  0.00    -0.316 OA  
ATOM     23  O2  UNL     1       3.943  -0.186  -5.222  1.00  0.00    -0.316 OA  
ATOM     24  C13 UNL     1       3.138  -0.519  -6.373  1.00  0.00     0.337 C   
ENDBRANCH  15  16
ENDBRANCH  12  15
ENDBRANCH   7  12
ENDBRANCH   1   7
BRANCH   3  25
ATOM     25  C16 UNL     1       1.334   1.688   3.352  1.00  0.00     0.192 C   
BRANCH  25  26
ATOM     26  C17 UNL     1       2.711   1.162   3.179  1.00  0.00     0.089 A   
ATOM     27  N3  UNL     1       3.663   1.896   2.501  1.00  0.00    -0.232 NA  
ATOM     28  C19 UNL     1       3.267  -0.035   3.594  1.00  0.00     0.087 A   
ATOM     29  C18 UNL     1       4.743   1.149   2.567  1.00  0.00     0.247 A   
ATOM     30  O3  UNL     1       4.573  -0.048   3.189  1.00  0.00    -0.301 OA  
BRANCH  28  31
ATOM     31  C20 UNL     1       2.559  -1.185   4.356  1.00  0.00     0.045 C   
ATOM     32  C21 UNL     1       3.496  -2.300   4.886  1.00  0.00     0.010 C   
ATOM     33  C23 UNL     1       2.225  -0.883   5.839  1.00  0.00     0.010 C   
ATOM     34  C22 UNL     1       2.610  -2.345   6.147  1.00  0.00     0.001 C   
ENDBRANCH  28  31
ENDBRANCH  25  26
ENDBRANCH   3  25
TORSDOF 8
