REMARK SMILES CC(C)[C@H]([NH2+]Cc1ccc2c(c1)OCO2)c1cn(C[C@@H]2NCCc3ccsc32)nn1
REMARK SMILES IDX 16 1 17 2 18 3 29 4 30 5 4 7 2 8 1 9 3 10 5 11 6 14 7 15
REMARK SMILES IDX 8 16 12 17 9 18 11 19 10 20 13 21 15 22 14 23 19 24 20 25
REMARK SMILES IDX 21 26 28 27 22 28 24 29 27 30 23 31 25 32 26 33
REMARK H PARENT 17 6 5 12 5 13 21 34
ROOT
ATOM     1   C13 UNL     1      -0.953  -0.560  -1.596  1.00  0.00     0.127 A   
ATOM     2   C14 UNL     1      -1.221   0.449  -2.492  1.00  0.00     0.045 A   
ATOM     3   N2  UNL     1      -2.203   1.177  -1.883  1.00  0.00    -0.210 N   
ATOM     4   N4  UNL     1      -2.561   0.618  -0.713  1.00  0.00    -0.076 NA  
ATOM     5   N5  UNL     1      -1.792  -0.441  -0.519  1.00  0.00    -0.132 NA  
ATOM     6   H18 UNL     1      -0.802   0.728  -3.449  1.00  0.00     0.083 HD  
ENDROOT
BRANCH   1   7
ATOM     7   C4  UNL     1       0.077  -1.642  -1.617  1.00  0.00     0.117 C   
BRANCH   7   8
ATOM     8   C2  UNL     1      -0.408  -2.899  -2.387  1.00  0.00     0.037 C   
ATOM     9   C1  UNL     1       0.751  -3.855  -2.698  1.00  0.00     0.014 C   
ATOM     10  C3  UNL     1      -1.533  -3.667  -1.682  1.00  0.00     0.014 C   
ENDBRANCH   7   8
BRANCH   7  11
ATOM     11  N1  UNL     1       0.491  -2.011  -0.219  1.00  0.00     0.249 N   
ATOM     12  H9  UNL     1      -0.373  -2.149   0.326  1.00  0.00     0.199 HD  
ATOM     13  H10 UNL     1       0.995  -2.902  -0.196  1.00  0.00     0.199 HD  
BRANCH  11  14
ATOM     14  C5  UNL     1       1.297  -0.984   0.501  1.00  0.00     0.164 C   
BRANCH  14  15
ATOM     15  C6  UNL     1       1.755  -1.526   1.826  1.00  0.00    -0.002 A   
ATOM     16  C7  UNL     1       3.039  -2.103   1.958  1.00  0.00     0.012 A   
ATOM     17  C11 UNL     1       0.881  -1.523   2.928  1.00  0.00     0.045 A   
ATOM     18  C8  UNL     1       3.453  -2.665   3.170  1.00  0.00     0.037 A   
ATOM     19  C10 UNL     1       1.319  -2.091   4.106  1.00  0.00     0.109 A   
ATOM     20  C9  UNL     1       2.570  -2.647   4.224  1.00  0.00     0.108 A   
ATOM     21  O1  UNL     1       0.602  -2.180   5.257  1.00  0.00    -0.316 OA  
ATOM     22  O2  UNL     1       2.798  -3.153   5.464  1.00  0.00    -0.316 OA  
ATOM     23  C12 UNL     1       1.545  -2.858   6.119  1.00  0.00     0.337 C   
ENDBRANCH  14  15
ENDBRANCH  11  14
ENDBRANCH   7  11
ENDBRANCH   1   7
BRANCH   3  24
ATOM     24  C15 UNL     1      -2.859   2.371  -2.366  1.00  0.00     0.158 C   
BRANCH  24  25
ATOM     25  C16 UNL     1      -2.740   3.598  -1.435  1.00  0.00     0.111 C   
ATOM     26  N3  UNL     1      -3.766   4.575  -1.909  1.00  0.00    -0.308 NA  
ATOM     27  C22 UNL     1      -1.350   4.223  -1.440  1.00  0.00     0.011 A   
ATOM     28  C17 UNL     1      -3.526   5.951  -1.446  1.00  0.00     0.086 C   
ATOM     29  C19 UNL     1      -1.088   5.560  -1.690  1.00  0.00    -0.035 A   
ATOM     30  S1  UNL     1       0.071   3.390  -0.989  1.00  0.00    -0.101 S   
ATOM     31  C18 UNL     1      -2.201   6.510  -1.994  1.00  0.00     0.051 C   
ATOM     32  C20 UNL     1       0.299   5.867  -1.603  1.00  0.00     0.012 A   
ATOM     33  C21 UNL     1       1.044   4.771  -1.233  1.00  0.00     0.046 A   
ATOM     34  H22 UNL     1      -4.684   4.276  -1.577  1.00  0.00     0.123 HD  
ENDBRANCH  24  25
ENDBRANCH   3  24
TORSDOF 7
