REMARK SMILES CC(C)[C@H]([NH2+]Cc1ccc2c(c1)OCO2)c1cn(C[C@H]2NCCc3ccsc32)nn1
REMARK SMILES IDX 16 1 17 2 18 3 29 4 30 5 4 7 2 8 1 9 3 10 5 11 6 14 7 15
REMARK SMILES IDX 8 16 12 17 9 18 11 19 10 20 13 21 15 22 14 23 19 24 20 25
REMARK SMILES IDX 21 26 28 27 22 28 24 29 27 30 23 31 25 32 26 33
REMARK H PARENT 17 6 5 12 5 13 21 34
ROOT
ATOM     1   C13 UNL     1       1.724  -0.561   0.124  1.00  0.00     0.127 A   
ATOM     2   C14 UNL     1       2.031  -1.900   0.028  1.00  0.00     0.045 A   
ATOM     3   N2  UNL     1       0.926  -2.450  -0.563  1.00  0.00    -0.210 N   
ATOM     4   N4  UNL     1       0.041  -1.494  -0.903  1.00  0.00    -0.076 NA  
ATOM     5   N5  UNL     1       0.501  -0.338  -0.457  1.00  0.00    -0.132 NA  
ATOM     6   H18 UNL     1       2.874  -2.497   0.348  1.00  0.00     0.083 HD  
ENDROOT
BRANCH   1   7
ATOM     7   C4  UNL     1       2.475   0.585   0.724  1.00  0.00     0.117 C   
BRANCH   7   8
ATOM     8   C2  UNL     1       2.440   0.552   2.275  1.00  0.00     0.037 C   
ATOM     9   C1  UNL     1       3.457   1.523   2.887  1.00  0.00     0.014 C   
ATOM     10  C3  UNL     1       1.051   0.814   2.869  1.00  0.00     0.014 C   
ENDBRANCH   7   8
BRANCH   7  11
ATOM     11  N1  UNL     1       1.931   1.895   0.221  1.00  0.00     0.249 N   
ATOM     12  H9  UNL     1       2.144   2.672   0.852  1.00  0.00     0.199 HD  
ATOM     13  H10 UNL     1       0.903   1.802   0.215  1.00  0.00     0.199 HD  
BRANCH  11  14
ATOM     14  C5  UNL     1       2.337   2.268  -1.162  1.00  0.00     0.164 C   
BRANCH  14  15
ATOM     15  C6  UNL     1       1.704   3.573  -1.553  1.00  0.00    -0.002 A   
ATOM     16  C7  UNL     1       2.389   4.794  -1.346  1.00  0.00     0.012 A   
ATOM     17  C11 UNL     1       0.396   3.591  -2.067  1.00  0.00     0.045 A   
ATOM     18  C8  UNL     1       1.784   6.018  -1.653  1.00  0.00     0.037 A   
ATOM     19  C10 UNL     1      -0.171   4.814  -2.358  1.00  0.00     0.109 A   
ATOM     20  C9  UNL     1       0.502   5.993  -2.156  1.00  0.00     0.108 A   
ATOM     21  O1  UNL     1      -1.421   5.008  -2.853  1.00  0.00    -0.316 OA  
ATOM     22  O2  UNL     1      -0.239   7.079  -2.499  1.00  0.00    -0.316 OA  
ATOM     23  C12 UNL     1      -1.454   6.449  -2.959  1.00  0.00     0.337 C   
ENDBRANCH  14  15
ENDBRANCH  11  14
ENDBRANCH   7  11
ENDBRANCH   1   7
BRANCH   3  24
ATOM     24  C15 UNL     1       0.679  -3.842  -0.881  1.00  0.00     0.158 C   
BRANCH  24  25
ATOM     25  C16 UNL     1      -0.630  -4.410  -0.295  1.00  0.00     0.111 C   
ATOM     26  N3  UNL     1      -0.969  -5.648  -1.064  1.00  0.00    -0.308 NA  
ATOM     27  C22 UNL     1      -0.574  -4.744   1.191  1.00  0.00     0.011 A   
ATOM     28  C17 UNL     1      -2.159  -6.315  -0.495  1.00  0.00     0.086 C   
ATOM     29  C19 UNL     1      -1.169  -5.862   1.759  1.00  0.00    -0.035 A   
ATOM     30  S1  UNL     1       0.118  -3.736   2.382  1.00  0.00    -0.101 S   
ATOM     31  C18 UNL     1      -1.894  -6.870   0.918  1.00  0.00     0.051 C   
ATOM     32  C20 UNL     1      -0.993  -5.907   3.173  1.00  0.00     0.012 A   
ATOM     33  C21 UNL     1      -0.301  -4.812   3.640  1.00  0.00     0.046 A   
ATOM     34  H22 UNL     1      -0.187  -6.301  -0.996  1.00  0.00     0.123 HD  
ENDBRANCH  24  25
ENDBRANCH   3  24
TORSDOF 7
