REMARK SMILES Cc1nc(Cn2cc([C@@H]([NH2+]Cc3ccc4c(c3)OCO4)C(C)C)nn2)ccc1F
REMARK SMILES IDX 6 1 7 2 8 3 24 4 25 5 5 7 4 8 2 9 3 10 28 11 27 12 26 13
REMARK SMILES IDX 1 14 29 15 9 16 10 17 11 20 12 21 13 22 17 23 14 24 16 25
REMARK SMILES IDX 15 26 18 27 20 28 19 29 21 30 22 31 23 32
REMARK H PARENT 7 6 10 18 10 19
ROOT
ATOM     1   N2  UNL     1      -2.663   2.922  -0.496  1.00  0.00    -0.206 N   
ATOM     2   C5  UNL     1      -2.175   2.585   0.737  1.00  0.00     0.046 A   
ATOM     3   C6  UNL     1      -0.832   2.377   0.519  1.00  0.00     0.127 A   
ATOM     4   N4  UNL     1      -0.552   2.600  -0.806  1.00  0.00    -0.132 NA  
ATOM     5   N5  UNL     1      -1.678   2.930  -1.417  1.00  0.00    -0.076 NA  
ATOM     6   H6  UNL     1      -2.815   2.508   1.607  1.00  0.00     0.083 HD  
ENDROOT
BRANCH   1   7
ATOM     7   C4  UNL     1      -4.027   3.249  -0.862  1.00  0.00     0.190 C   
BRANCH   7   8
ATOM     8   C3  UNL     1      -4.811   1.989  -1.109  1.00  0.00     0.060 A   
ATOM     9   C2  UNL     1      -6.054   0.229  -0.220  1.00  0.00     0.073 A   
ATOM     10  N1  UNL     1      -5.338   1.369  -0.018  1.00  0.00    -0.253 NA  
ATOM     11  C21 UNL     1      -6.237  -0.322  -1.482  1.00  0.00     0.144 A   
ATOM     12  C20 UNL     1      -5.681   0.308  -2.586  1.00  0.00     0.043 A   
ATOM     13  C19 UNL     1      -4.955   1.482  -2.401  1.00  0.00     0.028 A   
ATOM     14  C1  UNL     1      -6.654  -0.437   0.981  1.00  0.00     0.070 C   
ATOM     15  F1  UNL     1      -6.936  -1.452  -1.645  1.00  0.00    -0.205 F   
ENDBRANCH   7   8
ENDBRANCH   1   7
BRANCH   3  16
ATOM     16  C7  UNL     1       0.259   1.933   1.442  1.00  0.00     0.117 C   
BRANCH  16  17
ATOM     17  N3  UNL     1       1.349   1.243   0.667  1.00  0.00     0.249 N   
ATOM     18  H8  UNL     1       2.232   1.212   1.183  1.00  0.00     0.199 HD  
ATOM     19  H9  UNL     1       1.522   1.815  -0.173  1.00  0.00     0.199 HD  
BRANCH  17  20
ATOM     20  C8  UNL     1       1.016  -0.131   0.196  1.00  0.00     0.164 C   
BRANCH  20  21
ATOM     21  C9  UNL     1       2.136  -0.680  -0.643  1.00  0.00    -0.002 A   
ATOM     22  C10 UNL     1       2.194  -0.388  -2.027  1.00  0.00     0.012 A   
ATOM     23  C14 UNL     1       3.159  -1.438  -0.050  1.00  0.00     0.045 A   
ATOM     24  C11 UNL     1       3.252  -0.854  -2.815  1.00  0.00     0.037 A   
ATOM     25  C13 UNL     1       4.187  -1.882  -0.856  1.00  0.00     0.109 A   
ATOM     26  C12 UNL     1       4.233  -1.599  -2.199  1.00  0.00     0.108 A   
ATOM     27  O1  UNL     1       5.249  -2.623  -0.445  1.00  0.00    -0.316 OA  
ATOM     28  O2  UNL     1       5.329  -2.127  -2.803  1.00  0.00    -0.316 OA  
ATOM     29  C15 UNL     1       5.959  -2.801  -1.693  1.00  0.00     0.337 C   
ENDBRANCH  20  21
ENDBRANCH  17  20
ENDBRANCH  16  17
BRANCH  16  30
ATOM     30  C16 UNL     1       0.845   3.110   2.266  1.00  0.00     0.037 C   
ATOM     31  C17 UNL     1       1.714   2.610   3.427  1.00  0.00     0.014 C   
ATOM     32  C18 UNL     1       1.634   4.124   1.430  1.00  0.00     0.014 C   
ENDBRANCH  16  30
ENDBRANCH   3  16
TORSDOF 7
