REMARK SMILES CC(C)(C)[C@H]([NH2+]Cc1ccc2c(c1)OCO2)c1cn(Cc2c(F)cncc2F)nn1
REMARK SMILES IDX 17 1 18 2 19 3 29 4 30 5 5 7 2 8 1 9 3 10 4 11 6 12 7 15
REMARK SMILES IDX 8 16 9 17 13 18 10 19 12 20 11 21 14 22 16 23 15 24 20 25
REMARK SMILES IDX 21 26 22 27 27 28 24 29 26 30 25 31 23 32 28 33
REMARK H PARENT 18 6 6 13 6 14
ROOT
ATOM     1   C14 UNL     1      -0.788   0.108   0.053  1.00  0.00     0.127 A   
ATOM     2   C15 UNL     1      -0.326   1.027  -0.862  1.00  0.00     0.046 A   
ATOM     3   N2  UNL     1       0.020   2.108  -0.099  1.00  0.00    -0.208 N   
ATOM     4   N4  UNL     1      -0.201   1.864   1.207  1.00  0.00    -0.076 NA  
ATOM     5   N5  UNL     1      -0.688   0.640   1.314  1.00  0.00    -0.132 NA  
ATOM     6   H20 UNL     1      -0.208   1.016  -1.937  1.00  0.00     0.083 HD  
ENDROOT
BRANCH   1   7
ATOM     7   C5  UNL     1      -1.272  -1.301  -0.105  1.00  0.00     0.120 C   
BRANCH   7   8
ATOM     8   C2  UNL     1      -2.824  -1.436  -0.280  1.00  0.00     0.010 C   
ATOM     9   C1  UNL     1      -3.290  -0.633  -1.517  1.00  0.00     0.017 C   
ATOM     10  C3  UNL     1      -3.204  -2.913  -0.536  1.00  0.00     0.017 C   
ATOM     11  C4  UNL     1      -3.612  -0.931   0.945  1.00  0.00     0.017 C   
ENDBRANCH   7   8
BRANCH   7  12
ATOM     12  N1  UNL     1      -0.799  -2.101   1.096  1.00  0.00     0.250 N   
ATOM     13  H11 UNL     1      -1.554  -2.662   1.496  1.00  0.00     0.199 HD  
ATOM     14  H12 UNL     1      -0.572  -1.404   1.826  1.00  0.00     0.199 HD  
BRANCH  12  15
ATOM     15  C6  UNL     1       0.395  -2.964   0.887  1.00  0.00     0.164 C   
BRANCH  15  16
ATOM     16  C7  UNL     1       1.658  -2.199   0.608  1.00  0.00    -0.002 A   
ATOM     17  C8  UNL     1       2.201  -2.157  -0.699  1.00  0.00     0.012 A   
ATOM     18  C12 UNL     1       2.307  -1.508   1.646  1.00  0.00     0.045 A   
ATOM     19  C9  UNL     1       3.374  -1.443  -0.969  1.00  0.00     0.037 A   
ATOM     20  C11 UNL     1       3.467  -0.823   1.348  1.00  0.00     0.109 A   
ATOM     21  C10 UNL     1       3.986  -0.792   0.078  1.00  0.00     0.108 A   
ATOM     22  O1  UNL     1       4.225  -0.128   2.236  1.00  0.00    -0.316 OA  
ATOM     23  O2  UNL     1       5.135  -0.072   0.005  1.00  0.00    -0.316 OA  
ATOM     24  C13 UNL     1       5.317   0.299   1.390  1.00  0.00     0.337 C   
ENDBRANCH  15  16
ENDBRANCH  12  15
ENDBRANCH   7  12
ENDBRANCH   1   7
BRANCH   3  25
ATOM     25  C16 UNL     1       0.527   3.396  -0.540  1.00  0.00     0.175 C   
BRANCH  25  26
ATOM     26  C17 UNL     1       2.013   3.481  -0.387  1.00  0.00     0.046 A   
ATOM     27  C18 UNL     1       2.590   4.196   0.659  1.00  0.00     0.149 A   
ATOM     28  C21 UNL     1       2.870   2.839  -1.278  1.00  0.00     0.149 A   
ATOM     29  C19 UNL     1       3.971   4.248   0.773  1.00  0.00     0.150 A   
ATOM     30  C20 UNL     1       4.242   2.939  -1.101  1.00  0.00     0.150 A   
ATOM     31  N3  UNL     1       4.816   3.629  -0.087  1.00  0.00    -0.259 NA  
ATOM     32  F1  UNL     1       1.821   4.837   1.548  1.00  0.00    -0.205 F   
ATOM     33  F2  UNL     1       2.372   2.126  -2.297  1.00  0.00    -0.205 F   
ENDBRANCH  25  26
ENDBRANCH   3  25
TORSDOF 7
