REMARK SMILES CC(C)(C)[C@H]([NH2+]Cc1ccc2c(c1)OCO2)c1cn([C@@H](CO)c2ccc(Cl)cn2)nn1
REMARK SMILES IDX 17 1 18 2 19 3 30 4 31 5 5 7 2 8 1 9 3 10 4 11 6 12 7 15
REMARK SMILES IDX 8 16 9 17 13 18 10 19 12 20 11 21 14 22 16 23 15 24 20 25
REMARK SMILES IDX 21 26 22 27 23 29 24 30 29 31 25 32 28 33 26 34 27 35
REMARK H PARENT 18 6 6 13 6 14 22 28
ROOT
ATOM     1   C14 UNL     1       0.746  -0.451  -1.089  1.00  0.00     0.127 A   
ATOM     2   C15 UNL     1       0.172  -1.204  -0.089  1.00  0.00     0.046 A   
ATOM     3   N2  UNL     1       1.184  -2.022   0.337  1.00  0.00    -0.201 N   
ATOM     4   N4  UNL     1       2.319  -1.773  -0.353  1.00  0.00    -0.075 NA  
ATOM     5   N5  UNL     1       2.060  -0.817  -1.231  1.00  0.00    -0.132 NA  
ATOM     6   H20 UNL     1      -0.813  -1.224   0.357  1.00  0.00     0.083 HD  
ENDROOT
BRANCH   1   7
ATOM     7   C5  UNL     1       0.195   0.689  -1.886  1.00  0.00     0.120 C   
BRANCH   7   8
ATOM     8   C2  UNL     1      -0.312   0.288  -3.317  1.00  0.00     0.010 C   
ATOM     9   C1  UNL     1      -1.379  -0.825  -3.206  1.00  0.00     0.017 C   
ATOM     10  C3  UNL     1       0.818  -0.216  -4.237  1.00  0.00     0.017 C   
ATOM     11  C4  UNL     1      -0.990   1.496  -4.005  1.00  0.00     0.017 C   
ENDBRANCH   7   8
BRANCH   7  12
ATOM     12  N1  UNL     1       1.238   1.788  -1.982  1.00  0.00     0.250 N   
ATOM     13  H11 UNL     1       0.924   2.531  -2.609  1.00  0.00     0.199 HD  
ATOM     14  H12 UNL     1       2.075   1.360  -2.400  1.00  0.00     0.199 HD  
BRANCH  12  15
ATOM     15  C6  UNL     1       1.675   2.411  -0.693  1.00  0.00     0.164 C   
BRANCH  15  16
ATOM     16  C7  UNL     1       0.553   3.061   0.068  1.00  0.00    -0.002 A   
ATOM     17  C8  UNL     1       0.083   2.481   1.272  1.00  0.00     0.012 A   
ATOM     18  C12 UNL     1      -0.059   4.226  -0.423  1.00  0.00     0.045 A   
ATOM     19  C9  UNL     1      -0.987   3.047   1.974  1.00  0.00     0.037 A   
ATOM     20  C11 UNL     1      -1.112   4.757   0.292  1.00  0.00     0.109 A   
ATOM     21  C10 UNL     1      -1.564   4.185   1.456  1.00  0.00     0.108 A   
ATOM     22  O1  UNL     1      -1.816   5.869  -0.047  1.00  0.00    -0.316 OA  
ATOM     23  O2  UNL     1      -2.608   4.865   1.996  1.00  0.00    -0.316 OA  
ATOM     24  C13 UNL     1      -2.748   5.951   1.056  1.00  0.00     0.337 C   
ENDBRANCH  15  16
ENDBRANCH  12  15
ENDBRANCH   7  12
ENDBRANCH   1   7
BRANCH   3  25
ATOM     25  C16 UNL     1       1.147  -2.988   1.431  1.00  0.00     0.174 C   
BRANCH  25  26
ATOM     26  C17 UNL     1       1.527  -4.400   0.965  1.00  0.00     0.187 C   
BRANCH  26  27
ATOM     27  O3  UNL     1       0.491  -4.940   0.140  1.00  0.00    -0.394 OA  
ATOM     28  H24 UNL     1       0.748  -5.851  -0.094  1.00  0.00     0.210 HD  
ENDBRANCH  26  27
ENDBRANCH  25  26
BRANCH  25  29
ATOM     29  C18 UNL     1       1.958  -2.446   2.594  1.00  0.00     0.065 A   
ATOM     30  C19 UNL     1       3.327  -2.694   2.735  1.00  0.00     0.027 A   
ATOM     31  N3  UNL     1       1.279  -1.670   3.483  1.00  0.00    -0.258 NA  
ATOM     32  C20 UNL     1       4.010  -2.156   3.828  1.00  0.00     0.024 A   
ATOM     33  C22 UNL     1       1.968  -1.170   4.541  1.00  0.00     0.131 A   
ATOM     34  C21 UNL     1       3.319  -1.384   4.751  1.00  0.00     0.059 A   
ATOM     35  CL1 UNL     1       4.120  -0.703   6.105  1.00  0.00    -0.083 Cl  
ENDBRANCH  25  29
ENDBRANCH   3  25
TORSDOF 9
