REMARK SMILES CC(C)(C)[C@H]([NH2+]Cc1ccc2c(c1)OCO2)c1cn([C@H](CO)c2ccc(Cl)cn2)nn1
REMARK SMILES IDX 17 1 18 2 19 3 30 4 31 5 5 7 2 8 1 9 3 10 4 11 6 12 7 15
REMARK SMILES IDX 8 16 9 17 13 18 10 19 12 20 11 21 14 22 16 23 15 24 20 25
REMARK SMILES IDX 21 26 22 27 23 29 24 30 29 31 25 32 28 33 26 34 27 35
REMARK H PARENT 18 6 6 13 6 14 22 28
ROOT
ATOM     1   C14 UNL     1       1.391   0.282   0.453  1.00  0.00     0.127 A   
ATOM     2   C15 UNL     1       0.671   0.558   1.593  1.00  0.00     0.046 A   
ATOM     3   N2  UNL     1       0.324   1.877   1.462  1.00  0.00    -0.201 N   
ATOM     4   N4  UNL     1       0.740   2.356   0.268  1.00  0.00    -0.075 NA  
ATOM     5   N5  UNL     1       1.410   1.396  -0.347  1.00  0.00    -0.132 NA  
ATOM     6   H20 UNL     1       0.386  -0.032   2.453  1.00  0.00     0.083 HD  
ENDROOT
BRANCH   1   7
ATOM     7   C5  UNL     1       2.028  -0.983  -0.036  1.00  0.00     0.120 C   
BRANCH   7   8
ATOM     8   C2  UNL     1       3.532  -1.148   0.378  1.00  0.00     0.010 C   
ATOM     9   C1  UNL     1       4.056  -2.540  -0.045  1.00  0.00     0.017 C   
ATOM     10  C3  UNL     1       3.676  -1.064   1.915  1.00  0.00     0.017 C   
ATOM     11  C4  UNL     1       4.444  -0.076  -0.253  1.00  0.00     0.017 C   
ENDBRANCH   7   8
BRANCH   7  12
ATOM     12  N1  UNL     1       1.888  -1.040  -1.540  1.00  0.00     0.250 N   
ATOM     13  H11 UNL     1       2.547  -1.689  -1.976  1.00  0.00     0.199 HD  
ATOM     14  H12 UNL     1       2.136  -0.101  -1.890  1.00  0.00     0.199 HD  
BRANCH  12  15
ATOM     15  C6  UNL     1       0.517  -1.341  -2.040  1.00  0.00     0.164 C   
BRANCH  15  16
ATOM     16  C7  UNL     1       0.481  -1.283  -3.541  1.00  0.00    -0.002 A   
ATOM     17  C8  UNL     1       0.638  -2.460  -4.310  1.00  0.00     0.012 A   
ATOM     18  C12 UNL     1       0.344  -0.043  -4.190  1.00  0.00     0.045 A   
ATOM     19  C9  UNL     1       0.646  -2.408  -5.708  1.00  0.00     0.037 A   
ATOM     20  C11 UNL     1       0.357  -0.028  -5.569  1.00  0.00     0.109 A   
ATOM     21  C10 UNL     1       0.503  -1.176  -6.307  1.00  0.00     0.108 A   
ATOM     22  O1  UNL     1       0.237   1.079  -6.348  1.00  0.00    -0.316 OA  
ATOM     23  O2  UNL     1       0.491  -0.938  -7.644  1.00  0.00    -0.316 OA  
ATOM     24  C13 UNL     1       0.309   0.494  -7.668  1.00  0.00     0.337 C   
ENDBRANCH  15  16
ENDBRANCH  12  15
ENDBRANCH   7  12
ENDBRANCH   1   7
BRANCH   3  25
ATOM     25  C16 UNL     1      -0.450   2.729   2.360  1.00  0.00     0.174 C   
BRANCH  25  26
ATOM     26  C17 UNL     1      -0.042   2.585   3.835  1.00  0.00     0.187 C   
BRANCH  26  27
ATOM     27  O3  UNL     1       1.300   3.033   4.034  1.00  0.00    -0.394 OA  
ATOM     28  H24 UNL     1       1.459   3.057   4.996  1.00  0.00     0.210 HD  
ENDBRANCH  26  27
ENDBRANCH  25  26
BRANCH  25  29
ATOM     29  C18 UNL     1      -1.925   2.440   2.160  1.00  0.00     0.065 A   
ATOM     30  C19 UNL     1      -2.703   3.276   1.355  1.00  0.00     0.027 A   
ATOM     31  N3  UNL     1      -2.441   1.334   2.762  1.00  0.00    -0.258 NA  
ATOM     32  C20 UNL     1      -4.056   2.983   1.176  1.00  0.00     0.024 A   
ATOM     33  C22 UNL     1      -3.763   1.081   2.575  1.00  0.00     0.131 A   
ATOM     34  C21 UNL     1      -4.597   1.867   1.799  1.00  0.00     0.059 A   
ATOM     35  CL1 UNL     1      -6.253   1.468   1.601  1.00  0.00    -0.083 Cl  
ENDBRANCH  25  29
ENDBRANCH   3  25
TORSDOF 9
