REMARK SMILES c1ccn2c(Cn3cc([C@@H]([NH2+]Cc4ccc5c(c4)OCO5)C4CCCCC4)nn3)cnc2c1
REMARK SMILES IDX 10 1 9 2 7 3 8 4 29 5 28 6 6 8 5 9 1 10 2 11 33 12 3 13
REMARK SMILES IDX 32 14 4 15 31 16 30 17 11 18 12 21 13 22 14 23 18 24 15 25
REMARK SMILES IDX 17 26 16 27 19 28 21 29 20 30 22 31 23 32 27 33 24 34 26 35
REMARK SMILES IDX 25 36
REMARK H PARENT 8 7 11 19 11 20
ROOT
ATOM     1   C8  UNL     1      -1.258   0.250  -1.582  1.00  0.00     0.117 C   
ENDROOT
BRANCH   1   2
ATOM     2   C7  UNL     1       0.152   0.416  -1.109  1.00  0.00     0.127 A   
ATOM     3   N2  UNL     1       2.087   0.392  -0.146  1.00  0.00    -0.206 N   
ATOM     4   C6  UNL     1       0.916  -0.312  -0.225  1.00  0.00     0.046 A   
ATOM     5   N5  UNL     1       2.044   1.485  -0.930  1.00  0.00    -0.076 NA  
ATOM     6   N4  UNL     1       0.863   1.513  -1.523  1.00  0.00    -0.132 NA  
ATOM     7   H6  UNL     1       0.740  -1.210   0.348  1.00  0.00     0.083 HD  
BRANCH   3   8
ATOM     8   C5  UNL     1       3.271   0.094   0.649  1.00  0.00     0.187 C   
BRANCH   8   9
ATOM     9   C4  UNL     1       3.028   0.403   2.081  1.00  0.00     0.054 A   
ATOM     10  C1  UNL     1       3.054  -1.854   5.500  1.00  0.00     0.005 A   
ATOM     11  C2  UNL     1       3.391  -2.554   4.274  1.00  0.00     0.016 A   
ATOM     12  C25 UNL     1       2.757  -0.541   5.501  1.00  0.00     0.045 A   
ATOM     13  C3  UNL     1       3.402  -1.873   3.115  1.00  0.00     0.082 A   
ATOM     14  C24 UNL     1       2.777   0.190   4.280  1.00  0.00     0.128 A   
ATOM     15  N1  UNL     1       3.095  -0.510   3.116  1.00  0.00    -0.262 N   
ATOM     16  N6  UNL     1       2.551   1.461   4.032  1.00  0.00    -0.239 NA  
ATOM     17  C23 UNL     1       2.717   1.606   2.685  1.00  0.00     0.134 A   
ENDBRANCH   8   9
ENDBRANCH   3   8
ENDBRANCH   1   2
BRANCH   1  18
ATOM     18  N3  UNL     1      -1.903   1.627  -1.589  1.00  0.00     0.249 N   
ATOM     19  H8  UNL     1      -2.207   1.884  -2.533  1.00  0.00     0.199 HD  
ATOM     20  H9  UNL     1      -1.142   2.299  -1.389  1.00  0.00     0.199 HD  
BRANCH  18  21
ATOM     21  C9  UNL     1      -2.994   1.853  -0.603  1.00  0.00     0.164 C   
BRANCH  21  22
ATOM     22  C10 UNL     1      -2.529   1.787   0.824  1.00  0.00    -0.002 A   
ATOM     23  C11 UNL     1      -2.904   0.703   1.651  1.00  0.00     0.012 A   
ATOM     24  C15 UNL     1      -1.706   2.800   1.347  1.00  0.00     0.045 A   
ATOM     25  C12 UNL     1      -2.468   0.624   2.978  1.00  0.00     0.037 A   
ATOM     26  C14 UNL     1      -1.296   2.692   2.659  1.00  0.00     0.109 A   
ATOM     27  C13 UNL     1      -1.667   1.636   3.453  1.00  0.00     0.108 A   
ATOM     28  O1  UNL     1      -0.512   3.584   3.315  1.00  0.00    -0.316 OA  
ATOM     29  O2  UNL     1      -1.169   1.730   4.711  1.00  0.00    -0.316 OA  
ATOM     30  C16 UNL     1      -0.456   2.984   4.630  1.00  0.00     0.337 C   
ENDBRANCH  21  22
ENDBRANCH  18  21
ENDBRANCH   1  18
BRANCH   1  31
ATOM     31  C17 UNL     1      -1.361  -0.369  -3.004  1.00  0.00     0.043 C   
ATOM     32  C18 UNL     1      -2.830  -0.527  -3.453  1.00  0.00     0.010 C   
ATOM     33  C22 UNL     1      -0.659  -1.743  -3.067  1.00  0.00     0.010 C   
ATOM     34  C19 UNL     1      -2.950  -1.184  -4.826  1.00  0.00     0.001 C   
ATOM     35  C21 UNL     1      -0.788  -2.399  -4.440  1.00  0.00     0.001 C   
ATOM     36  C20 UNL     1      -2.241  -2.529  -4.871  1.00  0.00     0.000 C   
ENDBRANCH   1  31
TORSDOF 7
