REMARK SMILES Oc1cc(Cl)ccc1Cn1cc([C@@H]([NH2+]Cc2ccc3c(c2)OCO3)C2CCCC2)nn1
REMARK SMILES IDX 10 1 11 2 12 3 30 4 31 5 9 7 8 8 2 9 3 10 4 11 7 12 6 13
REMARK SMILES IDX 5 14 1 15 13 17 14 18 15 21 16 22 17 23 21 24 18 25 20 26
REMARK SMILES IDX 19 27 22 28 24 29 23 30 25 31 26 32 29 33 27 34 28 35
REMARK H PARENT 11 6 1 16 14 19 14 20
ROOT
ATOM     1   N1  UNL     1      -2.793   0.018  -0.083  1.00  0.00    -0.208 N   
ATOM     2   C8  UNL     1      -1.804   0.780  -0.645  1.00  0.00     0.046 A   
ATOM     3   C9  UNL     1      -0.665   0.028  -0.472  1.00  0.00     0.127 A   
ATOM     4   N3  UNL     1      -0.993  -1.150   0.150  1.00  0.00    -0.132 NA  
ATOM     5   N4  UNL     1      -2.294  -1.142   0.387  1.00  0.00    -0.076 NA  
ATOM     6   H7  UNL     1      -2.003   1.752  -1.077  1.00  0.00     0.083 HD  
ENDROOT
BRANCH   1   7
ATOM     7   C7  UNL     1      -4.208   0.324   0.040  1.00  0.00     0.172 C   
BRANCH   7   8
ATOM     8   C6  UNL     1      -4.457   1.249   1.206  1.00  0.00     0.002 A   
ATOM     9   C1  UNL     1      -4.505   2.640   1.040  1.00  0.00     0.078 A   
ATOM     10  C2  UNL     1      -4.722   3.491   2.123  1.00  0.00     0.054 A   
ATOM     11  C3  UNL     1      -4.883   2.946   3.396  1.00  0.00     0.043 A   
ATOM     12  C5  UNL     1      -4.620   0.720   2.498  1.00  0.00     0.010 A   
ATOM     13  C4  UNL     1      -4.834   1.566   3.589  1.00  0.00     0.021 A   
ATOM     14  CL1 UNL     1      -5.134   3.986   4.744  1.00  0.00    -0.084 Cl  
BRANCH   9  15
ATOM     15  O1  UNL     1      -4.325   3.158  -0.213  1.00  0.00    -0.361 OA  
ATOM     16  H1  UNL     1      -4.574   4.099  -0.201  1.00  0.00     0.218 HD  
ENDBRANCH   9  15
ENDBRANCH   7   8
ENDBRANCH   1   7
BRANCH   3  17
ATOM     17  C10 UNL     1       0.766   0.309  -0.803  1.00  0.00     0.117 C   
BRANCH  17  18
ATOM     18  N2  UNL     1       1.668  -0.492   0.098  1.00  0.00     0.249 N   
ATOM     19  H9  UNL     1       2.610  -0.608  -0.286  1.00  0.00     0.199 HD  
ATOM     20  H10 UNL     1       1.261  -1.438   0.154  1.00  0.00     0.199 HD  
BRANCH  18  21
ATOM     21  C11 UNL     1       1.775   0.010   1.497  1.00  0.00     0.164 C   
BRANCH  21  22
ATOM     22  C12 UNL     1       2.620  -0.919   2.321  1.00  0.00    -0.002 A   
ATOM     23  C13 UNL     1       2.048  -2.086   2.885  1.00  0.00     0.012 A   
ATOM     24  C17 UNL     1       3.992  -0.669   2.490  1.00  0.00     0.045 A   
ATOM     25  C14 UNL     1       2.829  -2.987   3.616  1.00  0.00     0.037 A   
ATOM     26  C16 UNL     1       4.732  -1.579   3.215  1.00  0.00     0.109 A   
ATOM     27  C15 UNL     1       4.168  -2.705   3.763  1.00  0.00     0.108 A   
ATOM     28  O2  UNL     1       6.063  -1.490   3.468  1.00  0.00    -0.316 OA  
ATOM     29  O3  UNL     1       5.074  -3.467   4.430  1.00  0.00    -0.316 OA  
ATOM     30  C18 UNL     1       6.271  -2.679   4.265  1.00  0.00     0.337 C   
ENDBRANCH  21  22
ENDBRANCH  18  21
ENDBRANCH  17  18
BRANCH  17  31
ATOM     31  C19 UNL     1       1.075   0.023  -2.286  1.00  0.00     0.043 C   
ATOM     32  C20 UNL     1       2.462   0.473  -2.751  1.00  0.00     0.010 C   
ATOM     33  C23 UNL     1       1.017  -1.447  -2.727  1.00  0.00     0.010 C   
ATOM     34  C21 UNL     1       2.582  -0.179  -4.120  1.00  0.00     0.001 C   
ATOM     35  C22 UNL     1       1.918  -1.543  -3.961  1.00  0.00     0.001 C   
ENDBRANCH  17  31
ENDBRANCH   3  17
TORSDOF 8
