REMARK SMILES Cc1csc(C[C@H](C)n2cc([C@@H]([NH2+]Cc3ccc4c(c3)OCO4)C(C)(C)C)nn2)n1
REMARK SMILES IDX 9 1 10 2 11 3 28 4 29 5 7 7 8 8 6 9 5 10 2 11 3 12 30 13
REMARK SMILES IDX 4 14 1 15 12 16 13 17 14 20 15 21 16 22 20 23 17 24 19 25
REMARK SMILES IDX 18 26 21 27 23 28 22 29 24 30 25 31 26 32 27 33
REMARK H PARENT 10 6 13 18 13 19
ROOT
ATOM     1   N1  UNL     1      -0.641   0.439  -3.585  1.00  0.00    -0.209 N   
ATOM     2   C8  UNL     1       0.267   1.183  -2.885  1.00  0.00     0.046 A   
ATOM     3   C9  UNL     1       0.816   0.284  -1.999  1.00  0.00     0.127 A   
ATOM     4   N3  UNL     1       0.275  -0.956  -2.219  1.00  0.00    -0.132 NA  
ATOM     5   N4  UNL     1      -0.608  -0.851  -3.198  1.00  0.00    -0.076 NA  
ATOM     6   H11 UNL     1       0.365   2.251  -3.022  1.00  0.00     0.083 HD  
ENDROOT
BRANCH   1   7
ATOM     7   C6  UNL     1      -1.635   0.913  -4.539  1.00  0.00     0.103 C   
ATOM     8   C7  UNL     1      -1.366   0.330  -5.928  1.00  0.00     0.031 C   
BRANCH   7   9
ATOM     9   C5  UNL     1      -3.068   0.598  -4.079  1.00  0.00     0.088 C   
BRANCH   9  10
ATOM     10  C4  UNL     1      -3.435   1.267  -2.782  1.00  0.00     0.080 A   
ATOM     11  C2  UNL     1      -3.380   2.619  -1.025  1.00  0.00     0.045 A   
ATOM     12  C3  UNL     1      -4.606   2.023  -0.805  1.00  0.00     0.070 A   
ATOM     13  N5  UNL     1      -2.702   2.159  -2.144  1.00  0.00    -0.250 NA  
ATOM     14  S1  UNL     1      -4.934   0.879  -2.033  1.00  0.00    -0.081 S   
ATOM     15  C1  UNL     1      -2.764   3.686  -0.196  1.00  0.00     0.067 C   
ENDBRANCH   9  10
ENDBRANCH   7   9
ENDBRANCH   1   7
BRANCH   3  16
ATOM     16  C10 UNL     1       1.709   0.500  -0.819  1.00  0.00     0.120 C   
BRANCH  16  17
ATOM     17  N2  UNL     1       1.104  -0.221   0.363  1.00  0.00     0.250 N   
ATOM     18  H13 UNL     1       1.759  -0.316   1.142  1.00  0.00     0.199 HD  
ATOM     19  H14 UNL     1       0.886  -1.177   0.045  1.00  0.00     0.199 HD  
BRANCH  17  20
ATOM     20  C11 UNL     1      -0.171   0.368   0.870  1.00  0.00     0.164 C   
BRANCH  20  21
ATOM     21  C12 UNL     1      -0.708  -0.444   2.014  1.00  0.00    -0.002 A   
ATOM     22  C13 UNL     1      -1.530  -1.568   1.759  1.00  0.00     0.012 A   
ATOM     23  C17 UNL     1      -0.361  -0.124   3.337  1.00  0.00     0.045 A   
ATOM     24  C14 UNL     1      -2.012  -2.357   2.809  1.00  0.00     0.037 A   
ATOM     25  C16 UNL     1      -0.854  -0.922   4.348  1.00  0.00     0.109 A   
ATOM     26  C15 UNL     1      -1.656  -2.007   4.093  1.00  0.00     0.108 A   
ATOM     27  O1  UNL     1      -0.617  -0.751   5.675  1.00  0.00    -0.316 OA  
ATOM     28  O2  UNL     1      -2.029  -2.654   5.227  1.00  0.00    -0.316 OA  
ATOM     29  C18 UNL     1      -1.386  -1.841   6.233  1.00  0.00     0.337 C   
ENDBRANCH  20  21
ENDBRANCH  17  20
ENDBRANCH  16  17
BRANCH  16  30
ATOM     30  C19 UNL     1       3.196   0.060  -1.040  1.00  0.00     0.010 C   
ATOM     31  C20 UNL     1       4.060   0.466   0.177  1.00  0.00     0.017 C   
ATOM     32  C21 UNL     1       3.352  -1.458  -1.254  1.00  0.00     0.017 C   
ATOM     33  C22 UNL     1       3.782   0.787  -2.273  1.00  0.00     0.017 C   
ENDBRANCH  16  30
ENDBRANCH   3  16
TORSDOF 8
