REMARK SMILES Cc1csc(C[C@@H](C)n2cc([C@@H]([NH2+]Cc3ccc4c(c3)OCO4)C(C)(C)C)nn2)n1
REMARK SMILES IDX 9 1 10 2 11 3 28 4 29 5 7 7 8 8 6 9 5 10 2 11 3 12 30 13
REMARK SMILES IDX 4 14 1 15 12 16 13 17 14 20 15 21 16 22 20 23 17 24 19 25
REMARK SMILES IDX 18 26 21 27 23 28 22 29 24 30 25 31 26 32 27 33
REMARK H PARENT 10 6 13 18 13 19
ROOT
ATOM     1   N1  UNL     1       0.679  -2.936   1.150  1.00  0.00    -0.209 N   
ATOM     2   C8  UNL     1      -0.281  -2.012   0.842  1.00  0.00     0.046 A   
ATOM     3   C9  UNL     1       0.436  -0.905   0.451  1.00  0.00     0.127 A   
ATOM     4   N3  UNL     1       1.775  -1.159   0.607  1.00  0.00    -0.132 NA  
ATOM     5   N4  UNL     1       1.911  -2.400   1.042  1.00  0.00    -0.076 NA  
ATOM     6   H11 UNL     1      -1.337  -2.245   0.875  1.00  0.00     0.083 HD  
ENDROOT
BRANCH   1   7
ATOM     7   C6  UNL     1       0.491  -4.331   1.529  1.00  0.00     0.103 C   
ATOM     8   C7  UNL     1       1.153  -4.629   2.877  1.00  0.00     0.031 C   
BRANCH   7   9
ATOM     9   C5  UNL     1       1.007  -5.285   0.440  1.00  0.00     0.088 C   
BRANCH   9  10
ATOM     10  C4  UNL     1       0.225  -5.177  -0.838  1.00  0.00     0.080 A   
ATOM     11  C2  UNL     1      -1.423  -4.730  -2.252  1.00  0.00     0.045 A   
ATOM     12  C3  UNL     1      -0.545  -5.345  -3.123  1.00  0.00     0.070 A   
ATOM     13  N5  UNL     1      -0.969  -4.629  -0.946  1.00  0.00    -0.250 NA  
ATOM     14  S1  UNL     1       0.877  -5.814  -2.294  1.00  0.00    -0.081 S   
ATOM     15  C1  UNL     1      -2.768  -4.198  -2.591  1.00  0.00     0.067 C   
ENDBRANCH   9  10
ENDBRANCH   7   9
ENDBRANCH   1   7
BRANCH   3  16
ATOM     16  C10 UNL     1      -0.011   0.441  -0.028  1.00  0.00     0.120 C   
BRANCH  16  17
ATOM     17  N2  UNL     1       0.962   1.486   0.486  1.00  0.00     0.250 N   
ATOM     18  H13 UNL     1       1.902   1.114   0.288  1.00  0.00     0.199 HD  
ATOM     19  H14 UNL     1       0.871   2.366  -0.025  1.00  0.00     0.199 HD  
BRANCH  17  20
ATOM     20  C11 UNL     1       0.906   1.774   1.950  1.00  0.00     0.164 C   
BRANCH  20  21
ATOM     21  C12 UNL     1      -0.348   2.499   2.351  1.00  0.00    -0.002 A   
ATOM     22  C13 UNL     1      -0.523   3.866   2.025  1.00  0.00     0.012 A   
ATOM     23  C17 UNL     1      -1.374   1.813   3.025  1.00  0.00     0.045 A   
ATOM     24  C14 UNL     1      -1.703   4.539   2.359  1.00  0.00     0.037 A   
ATOM     25  C16 UNL     1      -2.525   2.506   3.337  1.00  0.00     0.109 A   
ATOM     26  C15 UNL     1      -2.686   3.830   3.013  1.00  0.00     0.108 A   
ATOM     27  O1  UNL     1      -3.609   1.991   3.973  1.00  0.00    -0.316 OA  
ATOM     28  O2  UNL     1      -3.890   4.317   3.407  1.00  0.00    -0.316 OA  
ATOM     29  C18 UNL     1      -4.464   3.155   4.045  1.00  0.00     0.337 C   
ENDBRANCH  20  21
ENDBRANCH  17  20
ENDBRANCH  16  17
BRANCH  16  30
ATOM     30  C19 UNL     1      -0.152   0.553  -1.589  1.00  0.00     0.010 C   
ATOM     31  C20 UNL     1       1.195   0.406  -2.323  1.00  0.00     0.017 C   
ATOM     32  C21 UNL     1      -0.770   1.918  -1.973  1.00  0.00     0.017 C   
ATOM     33  C22 UNL     1      -1.112  -0.538  -2.119  1.00  0.00     0.017 C   
ENDBRANCH  16  30
ENDBRANCH   3  16
TORSDOF 8
