REMARK SMILES CC(C)C[C@H]([NH2+]Cc1ccc2c(c1)OCO2)c1cn(Cc2c(F)ccc(F)c2F)nn1
REMARK SMILES IDX 17 1 18 2 19 3 30 4 31 5 5 7 4 8 2 9 1 10 3 11 6 12 7 15
REMARK SMILES IDX 8 16 9 17 13 18 10 19 12 20 11 21 14 22 16 23 15 24 20 25
REMARK SMILES IDX 21 26 22 27 28 28 24 29 26 30 25 31 23 32 29 33 27 34
REMARK H PARENT 18 6 6 13 6 14
ROOT
ATOM     1   C14 UNL     1      -1.413   0.832   0.477  1.00  0.00     0.127 A   
ATOM     2   C15 UNL     1      -0.901   2.107   0.567  1.00  0.00     0.046 A   
ATOM     3   N2  UNL     1      -1.433   2.595   1.730  1.00  0.00    -0.208 N   
ATOM     4   N3  UNL     1      -2.224   1.677   2.318  1.00  0.00    -0.076 NA  
ATOM     5   N4  UNL     1      -2.226   0.596   1.557  1.00  0.00    -0.132 NA  
ATOM     6   H20 UNL     1      -0.220   2.681  -0.046  1.00  0.00     0.083 HD  
ENDROOT
BRANCH   1   7
ATOM     7   C5  UNL     1      -1.167  -0.259  -0.509  1.00  0.00     0.114 C   
BRANCH   7   8
ATOM     8   C4  UNL     1      -2.296  -0.383  -1.552  1.00  0.00     0.064 C   
BRANCH   8   9
ATOM     9   C2  UNL     1      -2.478   0.843  -2.473  1.00  0.00    -0.012 C   
ATOM     10  C1  UNL     1      -3.665   0.609  -3.414  1.00  0.00     0.007 C   
ATOM     11  C3  UNL     1      -1.224   1.150  -3.293  1.00  0.00     0.007 C   
ENDBRANCH   8   9
ENDBRANCH   7   8
BRANCH   7  12
ATOM     12  N1  UNL     1      -1.084  -1.593   0.208  1.00  0.00     0.249 N   
ATOM     13  H11 UNL     1      -1.114  -2.360  -0.469  1.00  0.00     0.199 HD  
ATOM     14  H12 UNL     1      -1.932  -1.662   0.789  1.00  0.00     0.199 HD  
BRANCH  12  15
ATOM     15  C6  UNL     1       0.090  -1.780   1.113  1.00  0.00     0.164 C   
BRANCH  15  16
ATOM     16  C7  UNL     1       1.400  -1.793   0.376  1.00  0.00    -0.002 A   
ATOM     17  C8  UNL     1       2.293  -0.701   0.491  1.00  0.00     0.012 A   
ATOM     18  C12 UNL     1       1.733  -2.874  -0.458  1.00  0.00     0.045 A   
ATOM     19  C9  UNL     1       3.498  -0.681  -0.220  1.00  0.00     0.037 A   
ATOM     20  C11 UNL     1       2.927  -2.820  -1.147  1.00  0.00     0.109 A   
ATOM     21  C10 UNL     1       3.785  -1.756  -1.031  1.00  0.00     0.108 A   
ATOM     22  O1  UNL     1       3.391  -3.771  -1.998  1.00  0.00    -0.316 OA  
ATOM     23  O2  UNL     1       4.903  -1.905  -1.789  1.00  0.00    -0.316 OA  
ATOM     24  C13 UNL     1       4.660  -3.197  -2.388  1.00  0.00     0.337 C   
ENDBRANCH  15  16
ENDBRANCH  12  15
ENDBRANCH   7  12
ENDBRANCH   1   7
BRANCH   3  25
ATOM     25  C16 UNL     1      -1.222   3.899   2.336  1.00  0.00     0.175 C   
BRANCH  25  26
ATOM     26  C17 UNL     1      -0.279   3.824   3.501  1.00  0.00     0.046 A   
ATOM     27  C18 UNL     1      -0.711   4.127   4.793  1.00  0.00     0.131 A   
ATOM     28  C22 UNL     1       1.058   3.462   3.332  1.00  0.00     0.166 A   
ATOM     29  C19 UNL     1       0.157   4.075   5.886  1.00  0.00     0.043 A   
ATOM     30  C21 UNL     1       1.932   3.404   4.416  1.00  0.00     0.159 A   
ATOM     31  C20 UNL     1       1.489   3.712   5.697  1.00  0.00     0.045 A   
ATOM     32  F1  UNL     1      -1.987   4.477   5.002  1.00  0.00    -0.207 F   
ATOM     33  F3  UNL     1       1.511   3.152   2.108  1.00  0.00    -0.203 F   
ATOM     34  F2  UNL     1       3.210   3.049   4.224  1.00  0.00    -0.204 F   
ENDBRANCH  25  26
ENDBRANCH   3  25
TORSDOF 8
