REMARK SMILES COc1cccc(OC)c1Cn1cc([C@H](CC(C)C)[NH2+]Cc2ccc3c(c2)OCO3)nn1
REMARK SMILES IDX 12 1 13 2 14 3 31 4 32 5 11 7 10 8 3 9 4 10 5 11 7 12 6 13
REMARK SMILES IDX 2 14 1 15 8 16 9 17 15 18 16 19 17 20 18 21 19 22 20 23
REMARK SMILES IDX 21 26 22 27 23 28 27 29 24 30 26 31 25 32 28 33 30 34 29 35
REMARK H PARENT 13 6 20 24 20 25
ROOT
ATOM     1   N1  UNL     1      -1.246  -2.306   1.544  1.00  0.00    -0.208 N   
ATOM     2   C10 UNL     1      -1.686  -1.327   0.696  1.00  0.00     0.046 A   
ATOM     3   C11 UNL     1      -1.595  -1.900  -0.551  1.00  0.00     0.127 A   
ATOM     4   N3  UNL     1      -1.175  -3.196  -0.424  1.00  0.00    -0.132 NA  
ATOM     5   N4  UNL     1      -0.967  -3.435   0.861  1.00  0.00    -0.076 NA  
ATOM     6   H12 UNL     1      -1.956  -0.339   1.044  1.00  0.00     0.083 HD  
ENDROOT
BRANCH   1   7
ATOM     7   C9  UNL     1      -1.046  -2.222   2.982  1.00  0.00     0.175 C   
BRANCH   7   8
ATOM     8   C8  UNL     1       0.157  -1.362   3.314  1.00  0.00     0.032 A   
ATOM     9   C2  UNL     1       1.445  -1.936   3.354  1.00  0.00     0.082 A   
ATOM     10  C3  UNL     1       2.554  -1.137   3.639  1.00  0.00     0.034 A   
ATOM     11  C4  UNL     1       2.393   0.225   3.887  1.00  0.00     0.005 A   
ATOM     12  C6  UNL     1       0.004   0.019   3.565  1.00  0.00     0.082 A   
ATOM     13  C5  UNL     1       1.125   0.802   3.849  1.00  0.00     0.034 A   
BRANCH   9  14
ATOM     14  O1  UNL     1       1.511  -3.276   3.083  1.00  0.00    -0.349 OA  
ATOM     15  C1  UNL     1       2.739  -3.943   3.354  1.00  0.00     0.203 C   
ENDBRANCH   9  14
BRANCH  12  16
ATOM     16  O2  UNL     1      -1.275   0.507   3.484  1.00  0.00    -0.349 OA  
ATOM     17  C7  UNL     1      -1.501   1.827   3.970  1.00  0.00     0.203 C   
ENDBRANCH  12  16
ENDBRANCH   7   8
ENDBRANCH   1   7
BRANCH   3  18
ATOM     18  C12 UNL     1      -1.776  -1.305  -1.902  1.00  0.00     0.114 C   
BRANCH  18  19
ATOM     19  C13 UNL     1      -3.083  -1.756  -2.583  1.00  0.00     0.064 C   
BRANCH  19  20
ATOM     20  C14 UNL     1      -4.379  -1.336  -1.856  1.00  0.00    -0.012 C   
ATOM     21  C15 UNL     1      -5.592  -1.907  -2.596  1.00  0.00     0.007 C   
ATOM     22  C16 UNL     1      -4.517   0.183  -1.738  1.00  0.00     0.007 C   
ENDBRANCH  19  20
ENDBRANCH  18  19
BRANCH  18  23
ATOM     23  N2  UNL     1      -0.640  -1.711  -2.825  1.00  0.00     0.249 N   
ATOM     24  H23 UNL     1      -0.795  -1.315  -3.755  1.00  0.00     0.199 HD  
ATOM     25  H24 UNL     1      -0.688  -2.735  -2.911  1.00  0.00     0.199 HD  
BRANCH  23  26
ATOM     26  C17 UNL     1       0.750  -1.386  -2.370  1.00  0.00     0.164 C   
BRANCH  26  27
ATOM     27  C18 UNL     1       0.956   0.055  -1.997  1.00  0.00    -0.002 A   
ATOM     28  C19 UNL     1       1.232   0.403  -0.652  1.00  0.00     0.012 A   
ATOM     29  C23 UNL     1       0.857   1.068  -2.966  1.00  0.00     0.045 A   
ATOM     30  C20 UNL     1       1.392   1.738  -0.270  1.00  0.00     0.037 A   
ATOM     31  C22 UNL     1       1.019   2.375  -2.555  1.00  0.00     0.109 A   
ATOM     32  C21 UNL     1       1.277   2.701  -1.246  1.00  0.00     0.108 A   
ATOM     33  O3  UNL     1       0.942   3.469  -3.357  1.00  0.00    -0.316 OA  
ATOM     34  O4  UNL     1       1.396   4.041  -1.059  1.00  0.00    -0.316 OA  
ATOM     35  C24 UNL     1       1.214   4.525  -2.407  1.00  0.00     0.337 C   
ENDBRANCH  26  27
ENDBRANCH  23  26
ENDBRANCH  18  23
ENDBRANCH   3  18
TORSDOF 10
