REMARK SMILES CC(C)(C)[C@H]([NH2+]Cc1ccc2c(c1)OCO2)c1cn(Cc2nc3ccccc3[nH]2)nn1
REMARK SMILES IDX 17 1 18 2 19 3 30 4 31 5 5 7 2 8 1 9 3 10 4 11 6 12 7 15
REMARK SMILES IDX 8 16 9 17 13 18 10 19 12 20 11 21 14 22 16 23 15 24 20 25
REMARK SMILES IDX 21 26 22 27 29 28 23 29 28 30 24 31 27 32 25 33 26 34
REMARK H PARENT 18 6 6 13 6 14 29 35
ROOT
ATOM     1   C14 UNL     1      -1.448   0.190  -0.869  1.00  0.00     0.127 A   
ATOM     2   C15 UNL     1      -0.944  -1.062  -1.144  1.00  0.00     0.046 A   
ATOM     3   N2  UNL     1      -0.618  -1.000  -2.471  1.00  0.00    -0.205 N   
ATOM     4   N5  UNL     1      -0.966   0.191  -2.998  1.00  0.00    -0.076 NA  
ATOM     5   N6  UNL     1      -1.468   0.931  -2.023  1.00  0.00    -0.132 NA  
ATOM     6   H20 UNL     1      -0.706  -1.921  -0.531  1.00  0.00     0.083 HD  
ENDROOT
BRANCH   1   7
ATOM     7   C5  UNL     1      -1.784   0.829   0.441  1.00  0.00     0.120 C   
BRANCH   7   8
ATOM     8   C2  UNL     1      -3.322   0.951   0.727  1.00  0.00     0.010 C   
ATOM     9   C1  UNL     1      -3.559   1.483   2.160  1.00  0.00     0.017 C   
ATOM     10  C3  UNL     1      -4.050   1.886  -0.258  1.00  0.00     0.017 C   
ATOM     11  C4  UNL     1      -3.981  -0.445   0.649  1.00  0.00     0.017 C   
ENDBRANCH   7   8
BRANCH   7  12
ATOM     12  N1  UNL     1      -1.118   2.191   0.512  1.00  0.00     0.250 N   
ATOM     13  H11 UNL     1      -1.420   2.701   1.344  1.00  0.00     0.199 HD  
ATOM     14  H12 UNL     1      -1.439   2.717  -0.311  1.00  0.00     0.199 HD  
BRANCH  12  15
ATOM     15  C6  UNL     1       0.380   2.200   0.468  1.00  0.00     0.164 C   
BRANCH  15  16
ATOM     16  C7  UNL     1       1.015   1.470   1.617  1.00  0.00    -0.002 A   
ATOM     17  C8  UNL     1       1.692   0.246   1.392  1.00  0.00     0.012 A   
ATOM     18  C12 UNL     1       0.920   1.976   2.925  1.00  0.00     0.045 A   
ATOM     19  C9  UNL     1       2.258  -0.469   2.453  1.00  0.00     0.037 A   
ATOM     20  C11 UNL     1       1.489   1.246   3.947  1.00  0.00     0.109 A   
ATOM     21  C10 UNL     1       2.138   0.057   3.719  1.00  0.00     0.108 A   
ATOM     22  O1  UNL     1       1.480   1.589   5.262  1.00  0.00    -0.316 OA  
ATOM     23  O2  UNL     1       2.620  -0.497   4.861  1.00  0.00    -0.316 OA  
ATOM     24  C13 UNL     1       2.227   0.491   5.836  1.00  0.00     0.337 C   
ENDBRANCH  15  16
ENDBRANCH  12  15
ENDBRANCH   7  12
ENDBRANCH   1   7
BRANCH   3  25
ATOM     25  C16 UNL     1       0.142  -1.965  -3.245  1.00  0.00     0.206 C   
BRANCH  25  26
ATOM     26  C17 UNL     1       1.593  -1.754  -2.985  1.00  0.00     0.118 A   
ATOM     27  N3  UNL     1       2.205  -1.860  -1.819  1.00  0.00    -0.234 NA  
ATOM     28  N4  UNL     1       2.478  -1.385  -3.971  1.00  0.00    -0.300 N   
ATOM     29  C18 UNL     1       3.525  -1.563  -2.063  1.00  0.00     0.086 A   
ATOM     30  C23 UNL     1       3.720  -1.251  -3.403  1.00  0.00     0.057 A   
ATOM     31  C19 UNL     1       4.616  -1.532  -1.184  1.00  0.00     0.030 A   
ATOM     32  C22 UNL     1       4.962  -0.898  -3.934  1.00  0.00     0.026 A   
ATOM     33  C20 UNL     1       5.874  -1.183  -1.690  1.00  0.00     0.002 A   
ATOM     34  C21 UNL     1       6.040  -0.870  -3.042  1.00  0.00     0.002 A   
ATOM     35  H27 UNL     1       2.262  -1.231  -4.946  1.00  0.00     0.154 HD  
ENDBRANCH  25  26
ENDBRANCH   3  25
TORSDOF 7
