REMARK SMILES Cc1cc(-n2cc([C@@H]([NH2+]Cc3ccc4c(c3)OCO4)C3CCCC3)nn2)cnc1Cl
REMARK SMILES IDX 8 1 7 2 5 3 6 4 26 5 25 6 4 7 2 8 3 9 29 10 28 11 27 12 1 13
REMARK SMILES IDX 30 14 9 15 10 18 11 19 12 20 16 21 13 22 15 23 14 24 17 25
REMARK SMILES IDX 19 26 18 27 20 28 21 29 24 30 22 31 23 32
REMARK H PARENT 9 16 9 17
ROOT
ATOM     1   C7  UNL     1       0.564   0.085  -0.854  1.00  0.00     0.117 C   
ENDROOT
BRANCH   1   2
ATOM     2   C6  UNL     1      -0.309   0.337   0.337  1.00  0.00     0.127 A   
ATOM     3   N1  UNL     1      -1.269   0.553   2.295  1.00  0.00    -0.179 N   
ATOM     4   C5  UNL     1      -0.089   0.166   1.687  1.00  0.00     0.135 A   
ATOM     5   N4  UNL     1      -2.161   0.897   1.333  1.00  0.00    -0.071 NA  
ATOM     6   N3  UNL     1      -1.586   0.785   0.148  1.00  0.00    -0.131 NA  
BRANCH   3   7
ATOM     7   C4  UNL     1      -1.593   0.600   3.667  1.00  0.00     0.076 A   
ATOM     8   C2  UNL     1      -1.054   0.309   6.013  1.00  0.00    -0.012 A   
ATOM     9   C3  UNL     1      -0.676   0.245   4.662  1.00  0.00     0.034 A   
ATOM     10  C22 UNL     1      -2.352   0.732   6.293  1.00  0.00     0.132 A   
ATOM     11  N5  UNL     1      -3.255   1.081   5.352  1.00  0.00    -0.242 NA  
ATOM     12  C21 UNL     1      -2.860   1.011   4.061  1.00  0.00     0.138 A   
ATOM     13  C1  UNL     1      -0.086  -0.066   7.095  1.00  0.00     0.048 C   
ATOM     14  CL1 UNL     1      -2.960   0.859   7.895  1.00  0.00    -0.062 Cl  
ENDBRANCH   3   7
ENDBRANCH   1   2
BRANCH   1  15
ATOM     15  N2  UNL     1      -0.286  -0.322  -2.032  1.00  0.00     0.249 N   
ATOM     16  H7  UNL     1       0.220  -0.239  -2.919  1.00  0.00     0.199 HD  
ATOM     17  H8  UNL     1      -1.068   0.348  -2.087  1.00  0.00     0.199 HD  
BRANCH  15  18
ATOM     18  C8  UNL     1      -0.877  -1.688  -1.958  1.00  0.00     0.164 C   
BRANCH  18  19
ATOM     19  C9  UNL     1      -1.743  -1.948  -3.157  1.00  0.00    -0.002 A   
ATOM     20  C10 UNL     1      -3.105  -1.561  -3.146  1.00  0.00     0.012 A   
ATOM     21  C14 UNL     1      -1.195  -2.523  -4.316  1.00  0.00     0.045 A   
ATOM     22  C11 UNL     1      -3.915  -1.754  -4.271  1.00  0.00     0.037 A   
ATOM     23  C13 UNL     1      -2.022  -2.698  -5.407  1.00  0.00     0.109 A   
ATOM     24  C12 UNL     1      -3.343  -2.325  -5.385  1.00  0.00     0.108 A   
ATOM     25  O1  UNL     1      -1.652  -3.235  -6.599  1.00  0.00    -0.316 OA  
ATOM     26  O2  UNL     1      -3.973  -2.583  -6.561  1.00  0.00    -0.316 OA  
ATOM     27  C15 UNL     1      -2.903  -3.183  -7.323  1.00  0.00     0.337 C   
ENDBRANCH  18  19
ENDBRANCH  15  18
ENDBRANCH   1  15
BRANCH   1  28
ATOM     28  C16 UNL     1       1.374   1.337  -1.250  1.00  0.00     0.043 C   
ATOM     29  C17 UNL     1       2.300   1.132  -2.458  1.00  0.00     0.010 C   
ATOM     30  C20 UNL     1       2.355   1.802  -0.168  1.00  0.00     0.010 C   
ATOM     31  C18 UNL     1       3.429   2.152  -2.303  1.00  0.00     0.001 C   
ATOM     32  C19 UNL     1       3.270   2.759  -0.914  1.00  0.00     0.001 C   
ENDBRANCH   1  28
TORSDOF 6
