REMARK SMILES Clc1ccc(CCn2cc([C@@H]([NH2+]Cc3ccc4c(c3)OCO4)C3CCCC3)nn2)cn1
REMARK SMILES IDX 8 1 9 2 10 3 28 4 29 5 7 7 6 8 5 9 2 10 3 11 31 12 4 13
REMARK SMILES IDX 30 14 1 15 11 16 12 17 13 20 14 21 15 22 19 23 16 24 18 25
REMARK SMILES IDX 17 26 20 27 22 28 21 29 23 30 24 31 27 32 25 33 26 34
REMARK H PARENT 9 6 12 18 12 19
ROOT
ATOM     1   N1  UNL     1      -3.340  -0.626  -0.667  1.00  0.00    -0.212 N   
ATOM     2   C7  UNL     1      -2.488  -0.589   0.406  1.00  0.00     0.045 A   
ATOM     3   C8  UNL     1      -1.250  -0.873  -0.138  1.00  0.00     0.127 A   
ATOM     4   N3  UNL     1      -1.414  -1.183  -1.463  1.00  0.00    -0.132 NA  
ATOM     5   N4  UNL     1      -2.693  -1.031  -1.774  1.00  0.00    -0.076 NA  
ATOM     6   H7  UNL     1      -2.811  -0.254   1.382  1.00  0.00     0.083 HD  
ENDROOT
BRANCH   1   7
ATOM     7   C6  UNL     1      -4.635   0.025  -0.769  1.00  0.00     0.139 C   
BRANCH   7   8
ATOM     8   C5  UNL     1      -4.551   1.430  -1.403  1.00  0.00     0.058 C   
BRANCH   8   9
ATOM     9   C4  UNL     1      -3.510   2.302  -0.737  1.00  0.00    -0.028 A   
ATOM     10  C1  UNL     1      -1.453   3.471   0.620  1.00  0.00     0.129 A   
ATOM     11  C2  UNL     1      -2.736   3.639   1.111  1.00  0.00     0.041 A   
ATOM     12  N5  UNL     1      -1.136   2.762  -0.490  1.00  0.00    -0.244 NA  
ATOM     13  C3  UNL     1      -3.782   3.022   0.427  1.00  0.00     0.008 A   
ATOM     14  C23 UNL     1      -2.189   2.271  -1.187  1.00  0.00     0.116 A   
ATOM     15  CL1 UNL     1      -0.084   4.040   1.480  1.00  0.00    -0.062 Cl  
ENDBRANCH   8   9
ENDBRANCH   7   8
ENDBRANCH   1   7
BRANCH   3  16
ATOM     16  C9  UNL     1       0.136  -0.728   0.422  1.00  0.00     0.117 C   
BRANCH  16  17
ATOM     17  N2  UNL     1       0.721   0.595  -0.032  1.00  0.00     0.249 N   
ATOM     18  H9  UNL     1       1.356   0.990   0.665  1.00  0.00     0.199 HD  
ATOM     19  H10 UNL     1      -0.040   1.293  -0.118  1.00  0.00     0.199 HD  
BRANCH  17  20
ATOM     20  C10 UNL     1       1.427   0.581  -1.346  1.00  0.00     0.164 C   
BRANCH  20  21
ATOM     21  C11 UNL     1       2.827   0.040  -1.224  1.00  0.00    -0.002 A   
ATOM     22  C12 UNL     1       3.127  -1.282  -1.629  1.00  0.00     0.012 A   
ATOM     23  C16 UNL     1       3.840   0.839  -0.662  1.00  0.00     0.045 A   
ATOM     24  C13 UNL     1       4.414  -1.808  -1.470  1.00  0.00     0.037 A   
ATOM     25  C15 UNL     1       5.099   0.290  -0.522  1.00  0.00     0.109 A   
ATOM     26  C14 UNL     1       5.378  -0.996  -0.912  1.00  0.00     0.108 A   
ATOM     27  O1  UNL     1       6.180   0.921   0.005  1.00  0.00    -0.316 OA  
ATOM     28  O2  UNL     1       6.672  -1.339  -0.678  1.00  0.00    -0.316 OA  
ATOM     29  C17 UNL     1       7.189  -0.106  -0.131  1.00  0.00     0.337 C   
ENDBRANCH  20  21
ENDBRANCH  17  20
ENDBRANCH  16  17
BRANCH  16  30
ATOM     30  C18 UNL     1       0.210  -0.802   1.961  1.00  0.00     0.043 C   
ATOM     31  C19 UNL     1       1.639  -0.703   2.523  1.00  0.00     0.010 C   
ATOM     32  C22 UNL     1      -0.268  -2.143   2.531  1.00  0.00     0.010 C   
ATOM     33  C20 UNL     1       1.636  -1.476   3.843  1.00  0.00     0.001 C   
ATOM     34  C21 UNL     1       0.259  -2.118   3.956  1.00  0.00     0.001 C   
ENDBRANCH  16  30
ENDBRANCH   3  16
TORSDOF 8
