REMARK SMILES Cc1cc([C@H](CO)n2cc([C@H](CC(C)C)[NH2+]Cc3ccc4c(c3)OCO4)nn2)c(C)[nH]1
REMARK SMILES IDX 8 1 9 2 10 3 27 4 28 5 5 7 4 8 2 9 3 10 31 11 29 12 1 13
REMARK SMILES IDX 30 15 6 16 7 17 11 19 12 20 13 21 14 22 15 23 16 24 17 27
REMARK SMILES IDX 18 28 19 29 23 30 20 31 22 32 21 33 24 34 26 35 25 36
REMARK H PARENT 9 6 31 14 7 18 16 25 16 26
ROOT
ATOM     1   N1  UNL     1       1.196  -2.203  -0.498  1.00  0.00    -0.202 N   
ATOM     2   C7  UNL     1       1.355  -0.860  -0.740  1.00  0.00     0.046 A   
ATOM     3   C8  UNL     1       1.127  -0.271   0.482  1.00  0.00     0.127 A   
ATOM     4   N3  UNL     1       0.871  -1.242   1.414  1.00  0.00    -0.132 NA  
ATOM     5   N4  UNL     1       0.894  -2.416   0.802  1.00  0.00    -0.075 NA  
ATOM     6   H9  UNL     1       1.551  -0.472  -1.731  1.00  0.00     0.083 HD  
ENDROOT
BRANCH   1   7
ATOM     7   C5  UNL     1       1.149  -3.270  -1.498  1.00  0.00     0.157 C   
BRANCH   7   8
ATOM     8   C4  UNL     1      -0.265  -3.387  -2.033  1.00  0.00    -0.005 A   
ATOM     9   C2  UNL     1      -2.046  -3.106  -3.417  1.00  0.00     0.004 A   
ATOM     10  C3  UNL     1      -0.712  -2.802  -3.259  1.00  0.00     0.026 A   
ATOM     11  N5  UNL     1      -2.429  -3.863  -2.342  1.00  0.00    -0.322 N   
ATOM     12  C22 UNL     1      -1.367  -4.035  -1.485  1.00  0.00     0.009 A   
ATOM     13  C1  UNL     1      -2.996  -2.773  -4.507  1.00  0.00     0.061 C   
ATOM     14  H32 UNL     1      -3.356  -4.255  -2.207  1.00  0.00     0.152 HD  
ATOM     15  C23 UNL     1      -1.529  -4.824  -0.232  1.00  0.00     0.062 C   
ENDBRANCH   7   8
BRANCH   7  16
ATOM     16  C6  UNL     1       1.763  -4.596  -1.028  1.00  0.00     0.186 C   
BRANCH  16  17
ATOM     17  O1  UNL     1       3.192  -4.497  -1.005  1.00  0.00    -0.394 OA  
ATOM     18  H8  UNL     1       3.547  -5.399  -0.929  1.00  0.00     0.210 HD  
ENDBRANCH  16  17
ENDBRANCH   7  16
ENDBRANCH   1   7
BRANCH   3  19
ATOM     19  C9  UNL     1       1.013   1.168   0.856  1.00  0.00     0.114 C   
BRANCH  19  20
ATOM     20  C10 UNL     1       2.291   1.654   1.567  1.00  0.00     0.064 C   
BRANCH  20  21
ATOM     21  C11 UNL     1       2.340   3.157   1.915  1.00  0.00    -0.012 C   
ATOM     22  C12 UNL     1       2.191   4.049   0.683  1.00  0.00     0.007 C   
ATOM     23  C13 UNL     1       3.659   3.477   2.625  1.00  0.00     0.007 C   
ENDBRANCH  20  21
ENDBRANCH  19  20
BRANCH  19  24
ATOM     24  N2  UNL     1      -0.173   1.393   1.766  1.00  0.00     0.249 N   
ATOM     25  H20 UNL     1      -0.211   2.369   2.065  1.00  0.00     0.199 HD  
ATOM     26  H21 UNL     1      -0.009   0.819   2.604  1.00  0.00     0.199 HD  
BRANCH  24  27
ATOM     27  C14 UNL     1      -1.514   1.002   1.223  1.00  0.00     0.164 C   
BRANCH  27  28
ATOM     28  C15 UNL     1      -1.877   1.714  -0.050  1.00  0.00    -0.002 A   
ATOM     29  C16 UNL     1      -1.942   0.999  -1.272  1.00  0.00     0.012 A   
ATOM     30  C20 UNL     1      -2.133   3.096  -0.040  1.00  0.00     0.045 A   
ATOM     31  C17 UNL     1      -2.225   1.656  -2.474  1.00  0.00     0.037 A   
ATOM     32  C19 UNL     1      -2.414   3.712  -1.242  1.00  0.00     0.109 A   
ATOM     33  C18 UNL     1      -2.448   3.016  -2.427  1.00  0.00     0.108 A   
ATOM     34  O2  UNL     1      -2.679   5.036  -1.406  1.00  0.00    -0.316 OA  
ATOM     35  O3  UNL     1      -2.729   3.818  -3.487  1.00  0.00    -0.316 OA  
ATOM     36  C21 UNL     1      -2.920   5.091  -2.830  1.00  0.00     0.337 C   
ENDBRANCH  27  28
ENDBRANCH  24  27
ENDBRANCH  19  24
ENDBRANCH   3  19
TORSDOF 10
