REMARK SMILES Cc1cc([C@@H](CO)n2cc([C@H](CC(C)C)[NH2+]Cc3ccc4c(c3)OCO4)nn2)c(C)[nH]1
REMARK SMILES IDX 8 1 9 2 10 3 27 4 28 5 5 7 4 8 2 9 3 10 31 11 29 12 1 13
REMARK SMILES IDX 30 15 6 16 7 17 11 19 12 20 13 21 14 22 15 23 16 24 17 27
REMARK SMILES IDX 18 28 19 29 23 30 20 31 22 32 21 33 24 34 26 35 25 36
REMARK H PARENT 9 6 31 14 7 18 16 25 16 26
ROOT
ATOM     1   N1  UNL     1      -1.845  -0.402  -2.545  1.00  0.00    -0.202 N   
ATOM     2   C7  UNL     1      -1.458  -0.648  -1.254  1.00  0.00     0.046 A   
ATOM     3   C8  UNL     1      -1.767   0.513  -0.581  1.00  0.00     0.127 A   
ATOM     4   N3  UNL     1      -2.320   1.411  -1.460  1.00  0.00    -0.132 NA  
ATOM     5   N4  UNL     1      -2.349   0.849  -2.658  1.00  0.00    -0.075 NA  
ATOM     6   H9  UNL     1      -1.025  -1.594  -0.955  1.00  0.00     0.083 HD  
ENDROOT
BRANCH   1   7
ATOM     7   C5  UNL     1      -1.797  -1.279  -3.716  1.00  0.00     0.157 C   
BRANCH   7   8
ATOM     8   C4  UNL     1      -0.476  -2.020  -3.794  1.00  0.00    -0.005 A   
ATOM     9   C2  UNL     1       1.728  -2.374  -4.271  1.00  0.00     0.004 A   
ATOM     10  C3  UNL     1       0.718  -1.443  -4.341  1.00  0.00     0.026 A   
ATOM     11  N5  UNL     1       1.201  -3.503  -3.704  1.00  0.00    -0.322 N   
ATOM     12  C22 UNL     1      -0.128  -3.308  -3.400  1.00  0.00     0.009 A   
ATOM     13  C1  UNL     1       3.149  -2.307  -4.704  1.00  0.00     0.061 C   
ATOM     14  H32 UNL     1       1.713  -4.363  -3.539  1.00  0.00     0.152 HD  
ATOM     15  C23 UNL     1      -0.904  -4.407  -2.766  1.00  0.00     0.062 C   
ENDBRANCH   7   8
BRANCH   7  16
ATOM     16  C6  UNL     1      -3.083  -2.111  -3.852  1.00  0.00     0.186 C   
BRANCH  16  17
ATOM     17  O1  UNL     1      -3.436  -2.819  -2.661  1.00  0.00    -0.394 OA  
ATOM     18  H8  UNL     1      -4.253  -3.318  -2.860  1.00  0.00     0.210 HD  
ENDBRANCH  16  17
ENDBRANCH   7  16
ENDBRANCH   1   7
BRANCH   3  19
ATOM     19  C9  UNL     1      -1.570   0.907   0.847  1.00  0.00     0.114 C   
BRANCH  19  20
ATOM     20  C10 UNL     1      -2.688   0.334   1.742  1.00  0.00     0.064 C   
BRANCH  20  21
ATOM     21  C11 UNL     1      -2.545   0.585   3.259  1.00  0.00    -0.012 C   
ATOM     22  C12 UNL     1      -3.719  -0.062   4.000  1.00  0.00     0.007 C   
ATOM     23  C13 UNL     1      -1.225   0.054   3.822  1.00  0.00     0.007 C   
ENDBRANCH  20  21
ENDBRANCH  19  20
BRANCH  19  24
ATOM     24  N2  UNL     1      -1.574   2.414   0.953  1.00  0.00     0.249 N   
ATOM     25  H20 UNL     1      -1.796   2.728   1.898  1.00  0.00     0.199 HD  
ATOM     26  H21 UNL     1      -2.337   2.732   0.338  1.00  0.00     0.199 HD  
BRANCH  24  27
ATOM     27  C14 UNL     1      -0.328   3.098   0.491  1.00  0.00     0.164 C   
BRANCH  27  28
ATOM     28  C15 UNL     1       0.778   3.006   1.507  1.00  0.00    -0.002 A   
ATOM     29  C16 UNL     1       0.723   3.783   2.691  1.00  0.00     0.012 A   
ATOM     30  C20 UNL     1       1.855   2.122   1.308  1.00  0.00     0.045 A   
ATOM     31  C17 UNL     1       1.715   3.672   3.669  1.00  0.00     0.037 A   
ATOM     32  C19 UNL     1       2.815   2.034   2.294  1.00  0.00     0.109 A   
ATOM     33  C18 UNL     1       2.746   2.783   3.443  1.00  0.00     0.108 A   
ATOM     34  O2  UNL     1       3.909   1.225   2.266  1.00  0.00    -0.316 OA  
ATOM     35  O3  UNL     1       3.783   2.537   4.285  1.00  0.00    -0.316 OA  
ATOM     36  C21 UNL     1       4.543   1.577   3.516  1.00  0.00     0.337 C   
ENDBRANCH  27  28
ENDBRANCH  24  27
ENDBRANCH  19  24
ENDBRANCH   3  19
TORSDOF 10
