REMARK SMILES Cc1ccc([C@H](CO)n2cc([C@@H]([NH2+]Cc3ccc4c(c3)OCO4)C3CCCC3)nn2)cc1
REMARK SMILES IDX 9 1 10 2 11 3 29 4 30 5 6 7 5 8 2 9 3 10 32 11 4 12 31 13
REMARK SMILES IDX 1 14 7 15 8 16 12 18 13 19 14 22 15 23 16 24 20 25 17 26
REMARK SMILES IDX 19 27 18 28 21 29 23 30 22 31 24 32 25 33 28 34 26 35 27 36
REMARK H PARENT 10 6 8 17 13 20 13 21
ROOT
ATOM     1   N1  UNL     1      -0.434   0.413  -2.185  1.00  0.00    -0.202 N   
ATOM     2   C8  UNL     1      -0.163  -0.059  -0.928  1.00  0.00     0.046 A   
ATOM     3   C9  UNL     1      -0.111   1.073  -0.149  1.00  0.00     0.127 A   
ATOM     4   N3  UNL     1      -0.321   2.176  -0.938  1.00  0.00    -0.132 NA  
ATOM     5   N4  UNL     1      -0.510   1.762  -2.180  1.00  0.00    -0.075 NA  
ATOM     6   H10 UNL     1      -0.027  -1.113  -0.726  1.00  0.00     0.083 HD  
ENDROOT
BRANCH   1   7
ATOM     7   C6  UNL     1      -0.615  -0.330  -3.433  1.00  0.00     0.155 C   
BRANCH   7   8
ATOM     8   C5  UNL     1      -1.593  -1.484  -3.240  1.00  0.00    -0.023 A   
ATOM     9   C2  UNL     1      -3.492  -3.548  -2.860  1.00  0.00    -0.051 A   
ATOM     10  C3  UNL     1      -3.903  -2.216  -2.941  1.00  0.00     0.004 A   
ATOM     11  C25 UNL     1      -2.128  -3.841  -2.946  1.00  0.00     0.004 A   
ATOM     12  C4  UNL     1      -2.966  -1.197  -3.133  1.00  0.00     0.006 A   
ATOM     13  C24 UNL     1      -1.189  -2.822  -3.138  1.00  0.00     0.006 A   
ATOM     14  C1  UNL     1      -4.492  -4.641  -2.626  1.00  0.00     0.044 C   
ENDBRANCH   7   8
BRANCH   7  15
ATOM     15  C7  UNL     1       0.748  -0.644  -4.083  1.00  0.00     0.185 C   
BRANCH  15  16
ATOM     16  O1  UNL     1       1.610  -1.408  -3.240  1.00  0.00    -0.394 OA  
ATOM     17  H9  UNL     1       2.494  -1.392  -3.653  1.00  0.00     0.210 HD  
ENDBRANCH  15  16
ENDBRANCH   7  15
ENDBRANCH   1   7
BRANCH   3  18
ATOM     18  C10 UNL     1       0.192   1.262   1.301  1.00  0.00     0.117 C   
BRANCH  18  19
ATOM     19  N2  UNL     1       1.065   2.495   1.449  1.00  0.00     0.249 N   
ATOM     20  H12 UNL     1       0.900   3.053   0.596  1.00  0.00     0.199 HD  
ATOM     21  H13 UNL     1       0.744   3.085   2.221  1.00  0.00     0.199 HD  
BRANCH  19  22
ATOM     22  C11 UNL     1       2.530   2.259   1.583  1.00  0.00     0.164 C   
BRANCH  22  23
ATOM     23  C12 UNL     1       3.139   1.498   0.438  1.00  0.00    -0.002 A   
ATOM     24  C13 UNL     1       3.244   2.087  -0.846  1.00  0.00     0.012 A   
ATOM     25  C17 UNL     1       3.578   0.176   0.627  1.00  0.00     0.045 A   
ATOM     26  C14 UNL     1       3.757   1.365  -1.930  1.00  0.00     0.037 A   
ATOM     27  C16 UNL     1       4.079  -0.506  -0.461  1.00  0.00     0.109 A   
ATOM     28  C15 UNL     1       4.162   0.068  -1.705  1.00  0.00     0.108 A   
ATOM     29  O2  UNL     1       4.527  -1.789  -0.448  1.00  0.00    -0.316 OA  
ATOM     30  O3  UNL     1       4.655  -0.788  -2.639  1.00  0.00    -0.316 OA  
ATOM     31  C18 UNL     1       4.931  -1.951  -1.825  1.00  0.00     0.337 C   
ENDBRANCH  22  23
ENDBRANCH  19  22
ENDBRANCH  18  19
BRANCH  18  32
ATOM     32  C19 UNL     1      -1.085   1.455   2.141  1.00  0.00     0.043 C   
ATOM     33  C20 UNL     1      -0.829   1.583   3.646  1.00  0.00     0.010 C   
ATOM     34  C23 UNL     1      -2.030   0.249   2.095  1.00  0.00     0.010 C   
ATOM     35  C21 UNL     1      -2.182   1.296   4.290  1.00  0.00     0.001 C   
ATOM     36  C22 UNL     1      -2.959   0.447   3.287  1.00  0.00     0.001 C   
ENDBRANCH  18  32
ENDBRANCH   3  18
TORSDOF 9
