REMARK SMILES Cc1ccc([C@@H](CO)n2cc([C@@H]([NH2+]Cc3ccc4c(c3)OCO4)C3CCCC3)nn2)cc1
REMARK SMILES IDX 9 1 10 2 11 3 29 4 30 5 6 7 5 8 2 9 3 10 32 11 4 12 31 13
REMARK SMILES IDX 1 14 7 15 8 16 12 18 13 19 14 22 15 23 16 24 20 25 17 26
REMARK SMILES IDX 19 27 18 28 21 29 23 30 22 31 24 32 25 33 28 34 26 35 27 36
REMARK H PARENT 10 6 8 17 13 20 13 21
ROOT
ATOM     1   N1  UNL     1       0.891   2.631  -0.527  1.00  0.00    -0.202 N   
ATOM     2   C8  UNL     1      -0.017   1.829   0.112  1.00  0.00     0.046 A   
ATOM     3   C9  UNL     1       0.596   1.502   1.298  1.00  0.00     0.127 A   
ATOM     4   N3  UNL     1       1.823   2.110   1.355  1.00  0.00    -0.132 NA  
ATOM     5   N4  UNL     1       1.996   2.792   0.234  1.00  0.00    -0.075 NA  
ATOM     6   H10 UNL     1      -0.963   1.558  -0.339  1.00  0.00     0.083 HD  
ENDROOT
BRANCH   1   7
ATOM     7   C6  UNL     1       0.836   3.178  -1.882  1.00  0.00     0.155 C   
BRANCH   7   8
ATOM     8   C5  UNL     1       0.746   2.041  -2.894  1.00  0.00    -0.023 A   
ATOM     9   C2  UNL     1       0.675  -0.143  -4.693  1.00  0.00    -0.051 A   
ATOM     10  C3  UNL     1       1.890   0.297  -4.163  1.00  0.00     0.004 A   
ATOM     11  C25 UNL     1      -0.500   0.524  -4.334  1.00  0.00     0.004 A   
ATOM     12  C4  UNL     1       1.925   1.369  -3.268  1.00  0.00     0.006 A   
ATOM     13  C24 UNL     1      -0.466   1.599  -3.441  1.00  0.00     0.006 A   
ATOM     14  C1  UNL     1       0.638  -1.270  -5.683  1.00  0.00     0.044 C   
ENDBRANCH   7   8
BRANCH   7  15
ATOM     15  C7  UNL     1      -0.195   4.319  -2.002  1.00  0.00     0.185 C   
BRANCH  15  16
ATOM     16  O1  UNL     1      -1.518   3.935  -1.624  1.00  0.00    -0.394 OA  
ATOM     17  H9  UNL     1      -2.092   4.707  -1.781  1.00  0.00     0.210 HD  
ENDBRANCH  15  16
ENDBRANCH   7  15
ENDBRANCH   1   7
BRANCH   3  18
ATOM     18  C10 UNL     1       0.173   0.575   2.387  1.00  0.00     0.117 C   
BRANCH  18  19
ATOM     19  N2  UNL     1       1.355  -0.234   2.867  1.00  0.00     0.249 N   
ATOM     20  H12 UNL     1       2.095   0.445   3.091  1.00  0.00     0.199 HD  
ATOM     21  H13 UNL     1       1.128  -0.738   3.727  1.00  0.00     0.199 HD  
BRANCH  19  22
ATOM     22  C11 UNL     1       1.942  -1.193   1.880  1.00  0.00     0.164 C   
BRANCH  22  23
ATOM     23  C12 UNL     1       0.988  -2.281   1.472  1.00  0.00    -0.002 A   
ATOM     24  C13 UNL     1       0.650  -3.316   2.377  1.00  0.00     0.012 A   
ATOM     25  C17 UNL     1       0.398  -2.256   0.195  1.00  0.00     0.045 A   
ATOM     26  C14 UNL     1      -0.269  -4.309   2.020  1.00  0.00     0.037 A   
ATOM     27  C16 UNL     1      -0.504  -3.250  -0.123  1.00  0.00     0.109 A   
ATOM     28  C15 UNL     1      -0.829  -4.246   0.763  1.00  0.00     0.108 A   
ATOM     29  O2  UNL     1      -1.167  -3.367  -1.303  1.00  0.00    -0.316 OA  
ATOM     30  O3  UNL     1      -1.738  -5.117   0.253  1.00  0.00    -0.316 OA  
ATOM     31  C18 UNL     1      -1.927  -4.574  -1.071  1.00  0.00     0.337 C   
ENDBRANCH  22  23
ENDBRANCH  19  22
ENDBRANCH  18  19
BRANCH  18  32
ATOM     32  C19 UNL     1      -0.492   1.331   3.554  1.00  0.00     0.043 C   
ATOM     33  C20 UNL     1      -1.187   0.432   4.582  1.00  0.00     0.010 C   
ATOM     34  C23 UNL     1       0.423   2.181   4.438  1.00  0.00     0.010 C   
ATOM     35  C21 UNL     1      -1.414   1.335   5.795  1.00  0.00     0.001 C   
ATOM     36  C22 UNL     1      -0.460   2.519   5.634  1.00  0.00     0.001 C   
ENDBRANCH  18  32
ENDBRANCH   3  18
TORSDOF 9
