REMARK SMILES CC(C)(C)[C@H]([NH2+]Cc1ccc2c(c1)OCO2)c1cn(-c2ccccc2N)nn1
REMARK SMILES IDX 17 1 18 2 19 3 27 4 28 5 5 6 2 7 1 8 3 9 4 10 6 11 7 14 8 15
REMARK SMILES IDX 9 16 13 17 10 18 12 19 11 20 14 21 16 22 15 23 20 24 21 25
REMARK SMILES IDX 25 26 22 27 24 28 23 29 26 30
REMARK H PARENT 6 12 6 13 26 31 26 32
ROOT
ATOM     1   C14 UNL     1       0.714  -0.555   0.366  1.00  0.00     0.128 A   
ATOM     2   C15 UNL     1       1.000  -0.778   1.693  1.00  0.00     0.135 A   
ATOM     3   N2  UNL     1       2.230  -0.185   1.914  1.00  0.00    -0.179 N   
ATOM     4   N4  UNL     1       2.611   0.431   0.756  1.00  0.00    -0.071 NA  
ATOM     5   N5  UNL     1       1.715   0.190  -0.185  1.00  0.00    -0.131 NA  
ENDROOT
BRANCH   1   6
ATOM     6   C5  UNL     1      -0.489  -0.906  -0.458  1.00  0.00     0.120 C   
BRANCH   6   7
ATOM     7   C2  UNL     1      -0.373  -2.277  -1.212  1.00  0.00     0.010 C   
ATOM     8   C1  UNL     1      -0.090  -3.418  -0.208  1.00  0.00     0.017 C   
ATOM     9   C3  UNL     1      -1.708  -2.619  -1.913  1.00  0.00     0.017 C   
ATOM     10  C4  UNL     1       0.745  -2.278  -2.274  1.00  0.00     0.017 C   
ENDBRANCH   6   7
BRANCH   6  11
ATOM     11  N1  UNL     1      -0.743   0.214  -1.440  1.00  0.00     0.250 N   
ATOM     12  H11 UNL     1       0.170   0.460  -1.851  1.00  0.00     0.199 HD  
ATOM     13  H12 UNL     1      -1.337  -0.074  -2.221  1.00  0.00     0.199 HD  
BRANCH  11  14
ATOM     14  C6  UNL     1      -1.306   1.463  -0.852  1.00  0.00     0.164 C   
BRANCH  14  15
ATOM     15  C7  UNL     1      -1.427   2.526  -1.907  1.00  0.00    -0.002 A   
ATOM     16  C8  UNL     1      -0.323   3.363  -2.199  1.00  0.00     0.012 A   
ATOM     17  C12 UNL     1      -2.613   2.659  -2.648  1.00  0.00     0.045 A   
ATOM     18  C9  UNL     1      -0.401   4.328  -3.208  1.00  0.00     0.037 A   
ATOM     19  C11 UNL     1      -2.655   3.620  -3.637  1.00  0.00     0.109 A   
ATOM     20  C10 UNL     1      -1.582   4.431  -3.909  1.00  0.00     0.108 A   
ATOM     21  O1  UNL     1      -3.719   3.878  -4.442  1.00  0.00    -0.316 OA  
ATOM     22  O2  UNL     1      -1.835   5.304  -4.919  1.00  0.00    -0.316 OA  
ATOM     23  C13 UNL     1      -3.201   4.966  -5.241  1.00  0.00     0.337 C   
ENDBRANCH  14  15
ENDBRANCH  11  14
ENDBRANCH   6  11
ENDBRANCH   1   6
BRANCH   3  24
ATOM     24  C16 UNL     1       3.020  -0.105   3.093  1.00  0.00     0.078 A   
ATOM     25  C17 UNL     1       4.126   0.772   3.080  1.00  0.00     0.028 A   
ATOM     26  C21 UNL     1       2.723  -0.825   4.267  1.00  0.00     0.047 A   
ATOM     27  C18 UNL     1       4.927   0.934   4.210  1.00  0.00     0.002 A   
ATOM     28  C20 UNL     1       3.568  -0.672   5.382  1.00  0.00     0.025 A   
ATOM     29  C19 UNL     1       4.646   0.213   5.362  1.00  0.00     0.002 A   
BRANCH  26  30
ATOM     30  N3  UNL     1       1.794  -1.893   4.308  1.00  0.00    -0.357 N   
ATOM     31  H25 UNL     1       1.475  -2.058   5.264  1.00  0.00     0.143 HD  
ATOM     32  H26 UNL     1       2.257  -2.750   3.997  1.00  0.00     0.143 HD  
ENDBRANCH  26  30
ENDBRANCH   3  24
TORSDOF 7
