REMARK SMILES FC(F)(F)c1ocnc1Cn1cc([C@@H]([NH2+]Cc2ccc3c(c2)OCO3)C2CCCC2)nn1
REMARK SMILES IDX 11 1 12 2 13 3 31 4 32 5 10 7 9 8 5 9 6 10 7 11 8 12 2 13
REMARK SMILES IDX 1 14 3 15 4 16 14 17 15 18 16 21 17 22 18 23 22 24 19 25
REMARK SMILES IDX 21 26 20 27 23 28 25 29 24 30 26 31 27 32 30 33 28 34 29 35
REMARK H PARENT 12 6 15 19 15 20
ROOT
ATOM     1   N2  UNL     1       2.168   0.367  -0.009  1.00  0.00    -0.206 N   
ATOM     2   C6  UNL     1       1.047  -0.053  -0.672  1.00  0.00     0.046 A   
ATOM     3   C7  UNL     1       0.211   1.041  -0.637  1.00  0.00     0.127 A   
ATOM     4   N4  UNL     1       0.841   2.068   0.018  1.00  0.00    -0.132 NA  
ATOM     5   N5  UNL     1       2.028   1.639   0.412  1.00  0.00    -0.076 NA  
ATOM     6   H4  UNL     1       0.947  -1.059  -1.057  1.00  0.00     0.083 HD  
ENDROOT
BRANCH   1   7
ATOM     7   C5  UNL     1       3.350  -0.401   0.336  1.00  0.00     0.193 C   
BRANCH   7   8
ATOM     8   C4  UNL     1       3.052  -1.260   1.511  1.00  0.00     0.098 A   
ATOM     9   C2  UNL     1       3.055  -0.946   2.857  1.00  0.00     0.187 A   
ATOM     10  O1  UNL     1       2.682  -2.074   3.545  1.00  0.00    -0.291 OA  
ATOM     11  C3  UNL     1       2.483  -3.007   2.575  1.00  0.00     0.247 A   
ATOM     12  N1  UNL     1       2.668  -2.575   1.348  1.00  0.00    -0.232 NA  
BRANCH   9  13
ATOM     13  C1  UNL     1       3.329   0.288   3.622  1.00  0.00     0.440 C   
ATOM     14  F1  UNL     1       2.192   1.004   3.821  1.00  0.00    -0.164 F   
ATOM     15  F2  UNL     1       4.194   1.098   2.962  1.00  0.00    -0.164 F   
ATOM     16  F3  UNL     1       3.867   0.043   4.841  1.00  0.00    -0.164 F   
ENDBRANCH   9  13
ENDBRANCH   7   8
ENDBRANCH   1   7
BRANCH   3  17
ATOM     17  C8  UNL     1      -1.197   1.216  -1.104  1.00  0.00     0.117 C   
BRANCH  17  18
ATOM     18  N3  UNL     1      -1.987   2.020  -0.089  1.00  0.00     0.249 N   
ATOM     19  H6  UNL     1      -1.488   2.914   0.025  1.00  0.00     0.199 HD  
ATOM     20  H7  UNL     1      -2.919   2.232  -0.453  1.00  0.00     0.199 HD  
BRANCH  18  21
ATOM     21  C9  UNL     1      -2.132   1.424   1.275  1.00  0.00     0.164 C   
BRANCH  21  22
ATOM     22  C10 UNL     1      -2.856   0.107   1.272  1.00  0.00    -0.002 A   
ATOM     23  C11 UNL     1      -4.252   0.054   1.042  1.00  0.00     0.012 A   
ATOM     24  C15 UNL     1      -2.141  -1.089   1.467  1.00  0.00     0.045 A   
ATOM     25  C12 UNL     1      -4.927  -1.171   1.003  1.00  0.00     0.037 A   
ATOM     26  C14 UNL     1      -2.837  -2.278   1.420  1.00  0.00     0.109 A   
ATOM     27  C13 UNL     1      -4.190  -2.319   1.194  1.00  0.00     0.108 A   
ATOM     28  O2  UNL     1      -2.299  -3.516   1.580  1.00  0.00    -0.316 OA  
ATOM     29  O3  UNL     1      -4.676  -3.587   1.186  1.00  0.00    -0.316 OA  
ATOM     30  C16 UNL     1      -3.478  -4.344   1.461  1.00  0.00     0.337 C   
ENDBRANCH  21  22
ENDBRANCH  18  21
ENDBRANCH  17  18
BRANCH  17  31
ATOM     31  C17 UNL     1      -1.265   1.950  -2.458  1.00  0.00     0.043 C   
ATOM     32  C18 UNL     1      -2.685   2.141  -3.003  1.00  0.00     0.010 C   
ATOM     33  C21 UNL     1      -0.595   1.180  -3.601  1.00  0.00     0.010 C   
ATOM     34  C19 UNL     1      -2.516   2.358  -4.505  1.00  0.00     0.001 C   
ATOM     35  C20 UNL     1      -1.112   1.871  -4.854  1.00  0.00     0.001 C   
ENDBRANCH  17  31
ENDBRANCH   3  17
TORSDOF 8
