REMARK SMILES Cc1ccc(-n2cc([C@@H]([NH2+]Cc3ccc4c(c3)OCO4)C(C)C)nn2)c(N([O-])[O-])c1
REMARK SMILES IDX 6 1 7 2 8 3 24 4 25 5 5 6 2 7 3 8 30 9 4 10 26 11 1 12 27 13
REMARK SMILES IDX 28 14 29 15 9 16 10 17 11 20 12 21 13 22 17 23 14 24 16 25
REMARK SMILES IDX 15 26 18 27 20 28 19 29 21 30 22 31 23 32
REMARK H PARENT 10 18 10 19
ROOT
ATOM     1   N1  UNL     1       2.521  -0.917  -1.917  1.00  0.00    -0.178 N   
ATOM     2   C6  UNL     1       2.483   0.453  -1.737  1.00  0.00     0.135 A   
ATOM     3   C7  UNL     1       1.703   0.652  -0.620  1.00  0.00     0.127 A   
ATOM     4   N3  UNL     1       1.351  -0.560  -0.103  1.00  0.00    -0.131 NA  
ATOM     5   N4  UNL     1       1.887  -1.500  -0.864  1.00  0.00    -0.071 NA  
ENDROOT
BRANCH   1   6
ATOM     6   C5  UNL     1       3.098  -1.702  -2.951  1.00  0.00     0.086 A   
ATOM     7   C2  UNL     1       4.354  -3.357  -4.888  1.00  0.00    -0.049 A   
ATOM     8   C3  UNL     1       3.992  -3.868  -3.636  1.00  0.00     0.005 A   
ATOM     9   C21 UNL     1       4.046  -2.028  -5.192  1.00  0.00     0.036 A   
ATOM     10  C4  UNL     1       3.371  -3.054  -2.679  1.00  0.00     0.028 A   
ATOM     11  C20 UNL     1       3.420  -1.218  -4.229  1.00  0.00     0.141 A   
ATOM     12  C1  UNL     1       4.989  -4.246  -5.919  1.00  0.00     0.044 C   
BRANCH  11  13
ATOM     13  N5  UNL     1       2.996   0.089  -4.684  1.00  0.00     0.094 N   
ATOM     14  O3  UNL     1       3.881   0.887  -5.012  1.00  0.00    -0.138 OA  
ATOM     15  O4  UNL     1       1.781   0.330  -4.655  1.00  0.00    -0.138 OA  
ENDBRANCH  11  13
ENDBRANCH   1   6
BRANCH   3  16
ATOM     16  C8  UNL     1       1.212   1.913   0.021  1.00  0.00     0.117 C   
BRANCH  16  17
ATOM     17  N2  UNL     1      -0.090   1.669   0.735  1.00  0.00     0.249 N   
ATOM     18  H8  UNL     1      -0.308   2.417   1.400  1.00  0.00     0.199 HD  
ATOM     19  H9  UNL     1       0.026   0.810   1.293  1.00  0.00     0.199 HD  
BRANCH  17  20
ATOM     20  C9  UNL     1      -1.273   1.463  -0.149  1.00  0.00     0.164 C   
BRANCH  20  21
ATOM     21  C10 UNL     1      -2.480   1.105   0.669  1.00  0.00    -0.002 A   
ATOM     22  C11 UNL     1      -2.681  -0.234   1.085  1.00  0.00     0.012 A   
ATOM     23  C15 UNL     1      -3.387   2.099   1.074  1.00  0.00     0.045 A   
ATOM     24  C12 UNL     1      -3.775  -0.583   1.885  1.00  0.00     0.037 A   
ATOM     25  C14 UNL     1      -4.456   1.719   1.859  1.00  0.00     0.109 A   
ATOM     26  C13 UNL     1      -4.645   0.418   2.256  1.00  0.00     0.108 A   
ATOM     27  O1  UNL     1      -5.425   2.551   2.328  1.00  0.00    -0.316 OA  
ATOM     28  O2  UNL     1      -5.753   0.266   3.027  1.00  0.00    -0.316 OA  
ATOM     29  C16 UNL     1      -6.265   1.617   3.043  1.00  0.00     0.337 C   
ENDBRANCH  20  21
ENDBRANCH  17  20
ENDBRANCH  16  17
BRANCH  16  30
ATOM     30  C17 UNL     1       2.257   2.523   0.993  1.00  0.00     0.037 C   
ATOM     31  C18 UNL     1       1.897   3.963   1.379  1.00  0.00     0.014 C   
ATOM     32  C19 UNL     1       2.489   1.692   2.260  1.00  0.00     0.014 C   
ENDBRANCH  16  30
ENDBRANCH   3  16
TORSDOF 7
