REMARK SMILES COc1cc(CCn2cc([C@H](CC(C)C)[NH2+]Cc3ccc4c(c3)OCO4)nn2)ccc1F
REMARK SMILES IDX 8 1 9 2 10 3 27 4 28 5 7 7 6 8 5 9 3 10 4 11 31 12 30 13
REMARK SMILES IDX 29 14 32 15 2 16 1 17 11 18 12 19 13 20 14 21 15 22 16 23
REMARK SMILES IDX 17 26 18 27 19 28 23 29 20 30 22 31 21 32 24 33 26 34 25 35
REMARK H PARENT 9 6 16 24 16 25
ROOT
ATOM     1   N1  UNL     1       0.559   2.947   1.964  1.00  0.00    -0.212 N   
ATOM     2   C7  UNL     1       1.220   1.750   2.034  1.00  0.00     0.045 A   
ATOM     3   C8  UNL     1       0.240   0.846   2.387  1.00  0.00     0.127 A   
ATOM     4   N3  UNL     1      -0.919   1.535   2.641  1.00  0.00    -0.132 NA  
ATOM     5   N4  UNL     1      -0.718   2.811   2.356  1.00  0.00    -0.076 NA  
ATOM     6   H9  UNL     1       2.252   1.649   1.726  1.00  0.00     0.083 HD  
ENDROOT
BRANCH   1   7
ATOM     7   C6  UNL     1       1.015   4.173   1.335  1.00  0.00     0.139 C   
BRANCH   7   8
ATOM     8   C5  UNL     1       0.657   4.241  -0.160  1.00  0.00     0.057 C   
BRANCH   8   9
ATOM     9   C4  UNL     1       1.290   3.115  -0.955  1.00  0.00    -0.044 A   
ATOM     10  C2  UNL     1       1.234   0.793  -1.677  1.00  0.00     0.110 A   
ATOM     11  C3  UNL     1       0.596   1.905  -1.128  1.00  0.00     0.040 A   
ATOM     12  C24 UNL     1       2.559   0.907  -2.100  1.00  0.00     0.153 A   
ATOM     13  C23 UNL     1       3.238   2.117  -1.994  1.00  0.00     0.042 A   
ATOM     14  C22 UNL     1       2.609   3.219  -1.412  1.00  0.00     0.007 A   
ATOM     15  F1  UNL     1       3.225  -0.162  -2.557  1.00  0.00    -0.204 F   
BRANCH  10  16
ATOM     16  O1  UNL     1       0.544  -0.395  -1.637  1.00  0.00    -0.346 OA  
ATOM     17  C1  UNL     1       0.488  -1.018  -2.930  1.00  0.00     0.203 C   
ENDBRANCH  10  16
ENDBRANCH   8   9
ENDBRANCH   7   8
ENDBRANCH   1   7
BRANCH   3  18
ATOM     18  C9  UNL     1       0.217  -0.651   2.398  1.00  0.00     0.114 C   
BRANCH  18  19
ATOM     19  C10 UNL     1       1.602  -1.324   2.502  1.00  0.00     0.064 C   
BRANCH  19  20
ATOM     20  C11 UNL     1       2.120  -1.506   3.948  1.00  0.00    -0.012 C   
ATOM     21  C12 UNL     1       3.438  -2.292   3.926  1.00  0.00     0.007 C   
ATOM     22  C13 UNL     1       2.321  -0.196   4.709  1.00  0.00     0.007 C   
ENDBRANCH  19  20
ENDBRANCH  18  19
BRANCH  18  23
ATOM     23  N2  UNL     1      -0.444  -1.171   1.132  1.00  0.00     0.249 N   
ATOM     24  H20 UNL     1      -0.320  -2.185   1.065  1.00  0.00     0.199 HD  
ATOM     25  H21 UNL     1       0.026  -0.780   0.297  1.00  0.00     0.199 HD  
BRANCH  23  26
ATOM     26  C14 UNL     1      -1.908  -0.887   1.022  1.00  0.00     0.164 C   
BRANCH  26  27
ATOM     27  C15 UNL     1      -2.518  -1.637  -0.131  1.00  0.00    -0.002 A   
ATOM     28  C16 UNL     1      -2.842  -3.009  -0.007  1.00  0.00     0.012 A   
ATOM     29  C20 UNL     1      -2.734  -0.984  -1.357  1.00  0.00     0.045 A   
ATOM     30  C17 UNL     1      -3.365  -3.724  -1.090  1.00  0.00     0.037 A   
ATOM     31  C19 UNL     1      -3.248  -1.719  -2.404  1.00  0.00     0.109 A   
ATOM     32  C18 UNL     1      -3.553  -3.050  -2.276  1.00  0.00     0.108 A   
ATOM     33  O2  UNL     1      -3.494  -1.247  -3.653  1.00  0.00    -0.316 OA  
ATOM     34  O3  UNL     1      -4.036  -3.583  -3.429  1.00  0.00    -0.316 OA  
ATOM     35  C21 UNL     1      -4.030  -2.427  -4.293  1.00  0.00     0.337 C   
ENDBRANCH  26  27
ENDBRANCH  23  26
ENDBRANCH  18  23
ENDBRANCH   3  18
TORSDOF 10
