REMARK SMILES Oc1c(F)cc(F)cc1Cn1cc([C@@H]([NH2+]Cc2ccc3c(c2)OCO3)C2CCCC2)nn1
REMARK SMILES IDX 11 1 12 2 13 3 31 4 32 5 10 7 9 8 2 9 3 10 5 11 8 12 6 13
REMARK SMILES IDX 4 14 7 15 1 16 14 18 15 19 16 22 17 23 18 24 22 25 19 26
REMARK SMILES IDX 21 27 20 28 23 29 25 30 24 31 26 32 27 33 30 34 28 35 29 36
REMARK H PARENT 12 6 1 17 15 20 15 21
ROOT
ATOM     1   N1  UNL     1      -1.206   1.654  -1.307  1.00  0.00    -0.208 N   
ATOM     2   C8  UNL     1      -1.067   1.547   0.050  1.00  0.00     0.046 A   
ATOM     3   C9  UNL     1      -0.226   0.470   0.215  1.00  0.00     0.127 A   
ATOM     4   N3  UNL     1       0.117  -0.026  -1.017  1.00  0.00    -0.132 NA  
ATOM     5   N4  UNL     1      -0.492   0.701  -1.939  1.00  0.00    -0.076 NA  
ATOM     6   H6  UNL     1      -1.568   2.218   0.734  1.00  0.00     0.083 HD  
ENDROOT
BRANCH   1   7
ATOM     7   C7  UNL     1      -1.966   2.635  -2.062  1.00  0.00     0.172 C   
BRANCH   7   8
ATOM     8   C6  UNL     1      -3.374   2.160  -2.305  1.00  0.00     0.007 A   
ATOM     9   C1  UNL     1      -4.397   2.398  -1.383  1.00  0.00     0.112 A   
ATOM     10  C2  UNL     1      -5.698   1.948  -1.624  1.00  0.00     0.156 A   
ATOM     11  C3  UNL     1      -6.009   1.245  -2.777  1.00  0.00     0.081 A   
ATOM     12  C5  UNL     1      -3.690   1.438  -3.468  1.00  0.00     0.047 A   
ATOM     13  C4  UNL     1      -4.995   0.994  -3.690  1.00  0.00     0.126 A   
ATOM     14  F1  UNL     1      -6.651   2.197  -0.715  1.00  0.00    -0.204 F   
ATOM     15  F2  UNL     1      -5.270   0.308  -4.806  1.00  0.00    -0.207 F   
BRANCH   9  16
ATOM     16  O1  UNL     1      -4.118   3.076  -0.228  1.00  0.00    -0.358 OA  
ATOM     17  H1  UNL     1      -4.974   3.231   0.222  1.00  0.00     0.218 HD  
ENDBRANCH   9  16
ENDBRANCH   7   8
ENDBRANCH   1   7
BRANCH   3  18
ATOM     18  C10 UNL     1       0.300  -0.196   1.447  1.00  0.00     0.117 C   
BRANCH  18  19
ATOM     19  N2  UNL     1       0.647  -1.629   1.147  1.00  0.00     0.249 N   
ATOM     20  H8  UNL     1       1.123  -1.630   0.231  1.00  0.00     0.199 HD  
ATOM     21  H9  UNL     1       1.316  -2.020   1.816  1.00  0.00     0.199 HD  
BRANCH  19  22
ATOM     22  C11 UNL     1      -0.516  -2.552   1.028  1.00  0.00     0.164 C   
BRANCH  22  23
ATOM     23  C12 UNL     1      -0.050  -3.935   0.671  1.00  0.00    -0.002 A   
ATOM     24  C13 UNL     1       0.188  -4.897   1.681  1.00  0.00     0.012 A   
ATOM     25  C17 UNL     1       0.209  -4.262  -0.672  1.00  0.00     0.045 A   
ATOM     26  C14 UNL     1       0.666  -6.172   1.360  1.00  0.00     0.037 A   
ATOM     27  C16 UNL     1       0.680  -5.527  -0.954  1.00  0.00     0.109 A   
ATOM     28  C15 UNL     1       0.903  -6.455   0.033  1.00  0.00     0.108 A   
ATOM     29  O2  UNL     1       0.981  -6.002  -2.190  1.00  0.00    -0.316 OA  
ATOM     30  O3  UNL     1       1.369  -7.632  -0.458  1.00  0.00    -0.316 OA  
ATOM     31  C18 UNL     1       1.398  -7.349  -1.874  1.00  0.00     0.337 C   
ENDBRANCH  22  23
ENDBRANCH  19  22
ENDBRANCH  18  19
BRANCH  18  32
ATOM     32  C19 UNL     1       1.518   0.556   2.019  1.00  0.00     0.043 C   
ATOM     33  C20 UNL     1       2.812   0.474   1.205  1.00  0.00     0.010 C   
ATOM     34  C23 UNL     1       1.976   0.080   3.400  1.00  0.00     0.010 C   
ATOM     35  C21 UNL     1       3.875   1.000   2.165  1.00  0.00     0.001 C   
ATOM     36  C22 UNL     1       3.361   0.699   3.573  1.00  0.00     0.001 C   
ENDBRANCH  18  32
ENDBRANCH   3  18
TORSDOF 8
