REMARK SMILES CC(C)[C@H]([NH2+]Cc1ccc2c(c1)OCO2)c1cn(C[C@H](O)c2cccnc2)nn1
REMARK SMILES IDX 16 1 17 2 18 3 28 4 29 5 4 7 2 8 1 9 3 10 5 11 6 14 7 15
REMARK SMILES IDX 8 16 12 17 9 18 11 19 10 20 13 21 15 22 14 23 19 24 20 25
REMARK SMILES IDX 21 26 22 28 23 29 27 30 24 31 26 32 25 33
REMARK H PARENT 17 6 5 12 5 13 21 27
ROOT
ATOM     1   C13 UNL     1       0.493  -2.207  -0.226  1.00  0.00     0.127 A   
ATOM     2   C14 UNL     1       1.267  -2.843  -1.171  1.00  0.00     0.045 A   
ATOM     3   N2  UNL     1       0.357  -3.337  -2.064  1.00  0.00    -0.209 N   
ATOM     4   N4  UNL     1      -0.901  -3.081  -1.660  1.00  0.00    -0.076 NA  
ATOM     5   N5  UNL     1      -0.831  -2.385  -0.536  1.00  0.00    -0.132 NA  
ATOM     6   H18 UNL     1       2.335  -2.920  -1.328  1.00  0.00     0.083 HD  
ENDROOT
BRANCH   1   7
ATOM     7   C4  UNL     1       0.884  -1.340   0.927  1.00  0.00     0.117 C   
BRANCH   7   8
ATOM     8   C2  UNL     1       1.022  -2.142   2.248  1.00  0.00     0.037 C   
ATOM     9   C1  UNL     1      -0.307  -2.665   2.805  1.00  0.00     0.014 C   
ATOM     10  C3  UNL     1       1.747  -1.333   3.330  1.00  0.00     0.014 C   
ENDBRANCH   7   8
BRANCH   7  11
ATOM     11  N1  UNL     1      -0.080  -0.199   1.103  1.00  0.00     0.249 N   
ATOM     12  H9  UNL     1      -1.028  -0.596   1.149  1.00  0.00     0.199 HD  
ATOM     13  H10 UNL     1       0.079   0.291   1.988  1.00  0.00     0.199 HD  
BRANCH  11  14
ATOM     14  C5  UNL     1      -0.087   0.808  -0.002  1.00  0.00     0.164 C   
BRANCH  14  15
ATOM     15  C6  UNL     1      -0.889   2.014   0.404  1.00  0.00    -0.002 A   
ATOM     16  C7  UNL     1      -2.287   2.049   0.182  1.00  0.00     0.012 A   
ATOM     17  C11 UNL     1      -0.265   3.087   1.061  1.00  0.00     0.045 A   
ATOM     18  C8  UNL     1      -3.053   3.144   0.599  1.00  0.00     0.037 A   
ATOM     19  C10 UNL     1      -1.048   4.149   1.460  1.00  0.00     0.109 A   
ATOM     20  C9  UNL     1      -2.403   4.178   1.237  1.00  0.00     0.108 A   
ATOM     21  O1  UNL     1      -0.603   5.260   2.104  1.00  0.00    -0.316 OA  
ATOM     22  O2  UNL     1      -2.982   5.311   1.710  1.00  0.00    -0.316 OA  
ATOM     23  C12 UNL     1      -1.834   6.008   2.241  1.00  0.00     0.337 C   
ENDBRANCH  14  15
ENDBRANCH  11  14
ENDBRANCH   7  11
ENDBRANCH   1   7
BRANCH   3  24
ATOM     24  C15 UNL     1       0.614  -3.846  -3.393  1.00  0.00     0.170 C   
BRANCH  24  25
ATOM     25  C16 UNL     1       0.230  -2.847  -4.498  1.00  0.00     0.165 C   
BRANCH  25  26
ATOM     26  O3  UNL     1       0.609  -3.397  -5.761  1.00  0.00    -0.387 OA  
ATOM     27  H22 UNL     1       0.373  -2.747  -6.447  1.00  0.00     0.211 HD  
ENDBRANCH  25  26
BRANCH  25  28
ATOM     28  C17 UNL     1       0.888  -1.498  -4.312  1.00  0.00     0.000 A   
ATOM     29  C18 UNL     1       2.202  -1.236  -4.712  1.00  0.00     0.009 A   
ATOM     30  C21 UNL     1       0.217  -0.482  -3.633  1.00  0.00     0.117 A   
ATOM     31  C19 UNL     1       2.776   0.001  -4.431  1.00  0.00     0.020 A   
ATOM     32  N3  UNL     1       0.768   0.706  -3.289  1.00  0.00    -0.264 NA  
ATOM     33  C20 UNL     1       2.028   0.930  -3.726  1.00  0.00     0.111 A   
ENDBRANCH  25  28
ENDBRANCH  24  25
ENDBRANCH   3  24
TORSDOF 9
