REMARK SMILES CC(C)[C@H]([NH2+]Cc1ccc2c(c1)OCO2)c1cn(C[C@@H](O)c2cccnc2)nn1
REMARK SMILES IDX 16 1 17 2 18 3 28 4 29 5 4 7 2 8 1 9 3 10 5 11 6 14 7 15
REMARK SMILES IDX 8 16 12 17 9 18 11 19 10 20 13 21 15 22 14 23 19 24 20 25
REMARK SMILES IDX 21 26 22 28 23 29 27 30 24 31 26 32 25 33
REMARK H PARENT 17 6 5 12 5 13 21 27
ROOT
ATOM     1   C13 UNL     1       2.000  -1.466   1.232  1.00  0.00     0.127 A   
ATOM     2   C14 UNL     1       1.942  -1.957   2.520  1.00  0.00     0.045 A   
ATOM     3   N2  UNL     1       1.479  -3.238   2.363  1.00  0.00    -0.209 N   
ATOM     4   N4  UNL     1       1.435  -3.573   1.062  1.00  0.00    -0.076 NA  
ATOM     5   N5  UNL     1       1.751  -2.497   0.360  1.00  0.00    -0.132 NA  
ATOM     6   H18 UNL     1       2.036  -1.503   3.496  1.00  0.00     0.083 HD  
ENDROOT
BRANCH   1   7
ATOM     7   C4  UNL     1       2.151  -0.076   0.690  1.00  0.00     0.117 C   
BRANCH   7   8
ATOM     8   C2  UNL     1       2.721   0.959   1.700  1.00  0.00     0.037 C   
ATOM     9   C1  UNL     1       1.704   1.483   2.722  1.00  0.00     0.014 C   
ATOM     10  C3  UNL     1       3.350   2.152   0.967  1.00  0.00     0.014 C   
ENDBRANCH   7   8
BRANCH   7  11
ATOM     11  N1  UNL     1       0.849   0.430   0.115  1.00  0.00     0.249 N   
ATOM     12  H9  UNL     1       0.068   0.214   0.765  1.00  0.00     0.199 HD  
ATOM     13  H10 UNL     1       0.862   1.450   0.027  1.00  0.00     0.199 HD  
BRANCH  11  14
ATOM     14  C5  UNL     1       0.465  -0.134  -1.212  1.00  0.00     0.164 C   
BRANCH  14  15
ATOM     15  C6  UNL     1      -0.550   0.750  -1.885  1.00  0.00    -0.002 A   
ATOM     16  C7  UNL     1      -1.931   0.586  -1.624  1.00  0.00     0.012 A   
ATOM     17  C11 UNL     1      -0.126   1.787  -2.735  1.00  0.00     0.045 A   
ATOM     18  C8  UNL     1      -2.880   1.432  -2.208  1.00  0.00     0.037 A   
ATOM     19  C10 UNL     1      -1.087   2.603  -3.294  1.00  0.00     0.109 A   
ATOM     20  C9  UNL     1      -2.425   2.432  -3.039  1.00  0.00     0.108 A   
ATOM     21  O1  UNL     1      -0.847   3.646  -4.131  1.00  0.00    -0.316 OA  
ATOM     22  O2  UNL     1      -3.197   3.343  -3.685  1.00  0.00    -0.316 OA  
ATOM     23  C12 UNL     1      -2.195   4.095  -4.402  1.00  0.00     0.337 C   
ENDBRANCH  14  15
ENDBRANCH  11  14
ENDBRANCH   7  11
ENDBRANCH   1   7
BRANCH   3  24
ATOM     24  C15 UNL     1       0.743  -4.013   3.341  1.00  0.00     0.170 C   
BRANCH  24  25
ATOM     25  C16 UNL     1      -0.785  -3.910   3.144  1.00  0.00     0.165 C   
BRANCH  25  26
ATOM     26  O3  UNL     1      -1.430  -4.582   4.226  1.00  0.00    -0.387 OA  
ATOM     27  H22 UNL     1      -2.392  -4.528   4.078  1.00  0.00     0.211 HD  
ENDBRANCH  25  26
BRANCH  25  28
ATOM     28  C17 UNL     1      -1.269  -2.474   3.072  1.00  0.00     0.000 A   
ATOM     29  C18 UNL     1      -1.543  -1.708   4.207  1.00  0.00     0.009 A   
ATOM     30  C21 UNL     1      -1.333  -1.822   1.839  1.00  0.00     0.117 A   
ATOM     31  C19 UNL     1      -1.867  -0.361   4.069  1.00  0.00     0.020 A   
ATOM     32  N3  UNL     1      -1.534  -0.488   1.676  1.00  0.00    -0.264 NA  
ATOM     33  C20 UNL     1      -1.852   0.198   2.801  1.00  0.00     0.111 A   
ENDBRANCH  25  28
ENDBRANCH  24  25
ENDBRANCH   3  24
TORSDOF 9
