REMARK SMILES CC(C)(C)[C@H]([NH2+]Cc1ccc2c(c1)OCO2)c1cn(C[C@@H](O)c2cccc(F)c2F)nn1
REMARK SMILES IDX 17 1 18 2 19 3 31 4 32 5 5 7 2 8 1 9 3 10 4 11 6 12 7 15
REMARK SMILES IDX 8 16 9 17 13 18 10 19 12 20 11 21 14 22 16 23 15 24 20 25
REMARK SMILES IDX 21 26 22 27 23 29 24 30 29 31 25 32 27 33 26 34 30 35 28 36
REMARK H PARENT 18 6 6 13 6 14 22 28
ROOT
ATOM     1   C14 UNL     1       1.550   1.218   0.671  1.00  0.00     0.127 A   
ATOM     2   C15 UNL     1       1.143   1.849   1.827  1.00  0.00     0.046 A   
ATOM     3   N2  UNL     1       0.377   2.890   1.379  1.00  0.00    -0.209 N   
ATOM     4   N3  UNL     1       0.347   2.923   0.035  1.00  0.00    -0.076 NA  
ATOM     5   N4  UNL     1       1.060   1.903  -0.411  1.00  0.00    -0.132 NA  
ATOM     6   H20 UNL     1       1.275   1.636   2.880  1.00  0.00     0.083 HD  
ENDROOT
BRANCH   1   7
ATOM     7   C5  UNL     1       2.287  -0.069   0.447  1.00  0.00     0.120 C   
BRANCH   7   8
ATOM     8   C2  UNL     1       3.836   0.097   0.272  1.00  0.00     0.010 C   
ATOM     9   C1  UNL     1       4.210   0.896  -0.993  1.00  0.00     0.017 C   
ATOM     10  C3  UNL     1       4.519  -1.288   0.189  1.00  0.00     0.017 C   
ATOM     11  C4  UNL     1       4.436   0.820   1.499  1.00  0.00     0.017 C   
ENDBRANCH   7   8
BRANCH   7  12
ATOM     12  N1  UNL     1       1.689  -0.754  -0.760  1.00  0.00     0.250 N   
ATOM     13  H11 UNL     1       2.311  -1.457  -1.167  1.00  0.00     0.199 HD  
ATOM     14  H12 UNL     1       1.570  -0.025  -1.481  1.00  0.00     0.199 HD  
BRANCH  12  15
ATOM     15  C6  UNL     1       0.347  -1.369  -0.549  1.00  0.00     0.164 C   
BRANCH  15  16
ATOM     16  C7  UNL     1      -0.180  -1.923  -1.843  1.00  0.00    -0.002 A   
ATOM     17  C8  UNL     1       0.113  -3.252  -2.231  1.00  0.00     0.012 A   
ATOM     18  C12 UNL     1      -0.922  -1.096  -2.705  1.00  0.00     0.045 A   
ATOM     19  C9  UNL     1      -0.335  -3.756  -3.457  1.00  0.00     0.037 A   
ATOM     20  C11 UNL     1      -1.350  -1.625  -3.904  1.00  0.00     0.109 A   
ATOM     21  C10 UNL     1      -1.063  -2.916  -4.271  1.00  0.00     0.108 A   
ATOM     22  O1  UNL     1      -2.075  -0.966  -4.845  1.00  0.00    -0.316 OA  
ATOM     23  O2  UNL     1      -1.574  -3.234  -5.489  1.00  0.00    -0.316 OA  
ATOM     24  C13 UNL     1      -2.239  -2.002  -5.839  1.00  0.00     0.337 C   
ENDBRANCH  15  16
ENDBRANCH  12  15
ENDBRANCH   7  12
ENDBRANCH   1   7
BRANCH   3  25
ATOM     25  C16 UNL     1      -0.439   3.800   2.152  1.00  0.00     0.170 C   
BRANCH  25  26
ATOM     26  C17 UNL     1      -1.713   3.140   2.698  1.00  0.00     0.167 C   
BRANCH  26  27
ATOM     27  O3  UNL     1      -2.373   4.070   3.563  1.00  0.00    -0.387 OA  
ATOM     28  H24 UNL     1      -3.243   3.700   3.793  1.00  0.00     0.211 HD  
ENDBRANCH  26  27
BRANCH  26  29
ATOM     29  C18 UNL     1      -2.658   2.672   1.614  1.00  0.00     0.021 A   
ATOM     30  C19 UNL     1      -3.568   3.542   0.993  1.00  0.00     0.010 A   
ATOM     31  C23 UNL     1      -2.594   1.349   1.160  1.00  0.00     0.164 A   
ATOM     32  C20 UNL     1      -4.396   3.088  -0.041  1.00  0.00     0.004 A   
ATOM     33  C22 UNL     1      -3.407   0.904   0.123  1.00  0.00     0.159 A   
ATOM     34  C21 UNL     1      -4.314   1.766  -0.479  1.00  0.00     0.042 A   
ATOM     35  F2  UNL     1      -1.712   0.496   1.708  1.00  0.00    -0.203 F   
ATOM     36  F1  UNL     1      -3.298  -0.360  -0.310  1.00  0.00    -0.204 F   
ENDBRANCH  26  29
ENDBRANCH  25  26
ENDBRANCH   3  25
TORSDOF 9
