REMARK SMILES CC(C)(C)[C@H]([NH2+]Cc1ccc2c(c1)OCO2)c1cn(C[C@H](O)c2cccc(F)c2F)nn1
REMARK SMILES IDX 17 1 18 2 19 3 31 4 32 5 5 7 2 8 1 9 3 10 4 11 6 12 7 15
REMARK SMILES IDX 8 16 9 17 13 18 10 19 12 20 11 21 14 22 16 23 15 24 20 25
REMARK SMILES IDX 21 26 22 27 23 29 24 30 29 31 25 32 27 33 26 34 30 35 28 36
REMARK H PARENT 18 6 6 13 6 14 22 28
ROOT
ATOM     1   C14 UNL     1      -0.673  -1.514  -0.691  1.00  0.00     0.127 A   
ATOM     2   C15 UNL     1      -1.492  -1.998   0.306  1.00  0.00     0.046 A   
ATOM     3   N2  UNL     1      -0.660  -2.770   1.068  1.00  0.00    -0.209 N   
ATOM     4   N3  UNL     1       0.582  -2.793   0.554  1.00  0.00    -0.076 NA  
ATOM     5   N4  UNL     1       0.588  -2.028  -0.525  1.00  0.00    -0.132 NA  
ATOM     6   H20 UNL     1      -2.530  -1.833   0.563  1.00  0.00     0.083 HD  
ENDROOT
BRANCH   1   7
ATOM     7   C5  UNL     1      -0.922  -0.503  -1.770  1.00  0.00     0.120 C   
BRANCH   7   8
ATOM     8   C2  UNL     1      -1.306  -1.123  -3.159  1.00  0.00     0.010 C   
ATOM     9   C1  UNL     1      -2.535  -2.049  -3.009  1.00  0.00     0.017 C   
ATOM     10  C3  UNL     1      -1.703  -0.006  -4.152  1.00  0.00     0.017 C   
ATOM     11  C4  UNL     1      -0.157  -1.940  -3.785  1.00  0.00     0.017 C   
ENDBRANCH   7   8
BRANCH   7  12
ATOM     12  N1  UNL     1       0.300   0.376  -1.905  1.00  0.00     0.250 N   
ATOM     13  H11 UNL     1       0.299   0.913  -2.776  1.00  0.00     0.199 HD  
ATOM     14  H12 UNL     1       1.114  -0.254  -1.952  1.00  0.00     0.199 HD  
BRANCH  12  15
ATOM     15  C6  UNL     1       0.548   1.315  -0.771  1.00  0.00     0.164 C   
BRANCH  15  16
ATOM     16  C7  UNL     1       1.771   2.144  -1.046  1.00  0.00    -0.002 A   
ATOM     17  C8  UNL     1       3.056   1.639  -0.733  1.00  0.00     0.012 A   
ATOM     18  C12 UNL     1       1.651   3.397  -1.672  1.00  0.00     0.045 A   
ATOM     19  C9  UNL     1       4.209   2.374  -1.031  1.00  0.00     0.037 A   
ATOM     20  C11 UNL     1       2.807   4.096  -1.950  1.00  0.00     0.109 A   
ATOM     21  C10 UNL     1       4.050   3.598  -1.641  1.00  0.00     0.108 A   
ATOM     22  O1  UNL     1       2.869   5.315  -2.547  1.00  0.00    -0.316 OA  
ATOM     23  O2  UNL     1       5.051   4.442  -2.005  1.00  0.00    -0.316 OA  
ATOM     24  C13 UNL     1       4.297   5.543  -2.559  1.00  0.00     0.337 C   
ENDBRANCH  15  16
ENDBRANCH  12  15
ENDBRANCH   7  12
ENDBRANCH   1   7
BRANCH   3  25
ATOM     25  C16 UNL     1      -0.942  -3.404   2.337  1.00  0.00     0.170 C   
BRANCH  25  26
ATOM     26  C17 UNL     1      -0.439  -2.587   3.537  1.00  0.00     0.167 C   
BRANCH  26  27
ATOM     27  O3  UNL     1      -0.605  -3.378   4.718  1.00  0.00    -0.387 OA  
ATOM     28  H24 UNL     1      -0.214  -2.881   5.459  1.00  0.00     0.211 HD  
ENDBRANCH  26  27
BRANCH  26  29
ATOM     29  C18 UNL     1      -1.183  -1.279   3.705  1.00  0.00     0.021 A   
ATOM     30  C19 UNL     1      -2.406  -1.201   4.393  1.00  0.00     0.010 A   
ATOM     31  C23 UNL     1      -0.691  -0.113   3.106  1.00  0.00     0.164 A   
ATOM     32  C20 UNL     1      -3.103   0.010   4.477  1.00  0.00     0.004 A   
ATOM     33  C22 UNL     1      -1.399   1.083   3.169  1.00  0.00     0.159 A   
ATOM     34  C21 UNL     1      -2.603   1.155   3.857  1.00  0.00     0.042 A   
ATOM     35  F2  UNL     1       0.453  -0.155   2.408  1.00  0.00    -0.203 F   
ATOM     36  F1  UNL     1      -0.934   2.161   2.522  1.00  0.00    -0.204 F   
ENDBRANCH  26  29
ENDBRANCH  25  26
ENDBRANCH   3  25
TORSDOF 9
