REMARK SMILES Cc1ccc(C)c([C@H](CO)n2cc([C@@H]([NH2+]Cc3ccc4c(c3)OCO4)C(C)C)nn2)c1
REMARK SMILES IDX 11 1 12 2 13 3 29 4 30 5 8 7 7 8 2 9 3 10 31 11 4 12 5 13
REMARK SMILES IDX 1 14 6 15 9 16 10 17 14 19 15 20 16 23 17 24 18 25 22 26
REMARK SMILES IDX 19 27 21 28 20 29 23 30 25 31 24 32 26 33 27 34 28 35
REMARK H PARENT 12 6 10 18 15 21 15 22
ROOT
ATOM     1   N1  UNL     1      -1.425  -0.701  -3.223  1.00  0.00    -0.202 N   
ATOM     2   C10 UNL     1      -1.260  -1.198  -1.957  1.00  0.00     0.046 A   
ATOM     3   C11 UNL     1      -0.117  -1.964  -2.040  1.00  0.00     0.127 A   
ATOM     4   N3  UNL     1       0.347  -1.934  -3.325  1.00  0.00    -0.132 NA  
ATOM     5   N4  UNL     1      -0.465  -1.173  -4.043  1.00  0.00    -0.075 NA  
ATOM     6   H13 UNL     1      -1.932  -0.934  -1.153  1.00  0.00     0.083 HD  
ENDROOT
BRANCH   1   7
ATOM     7   C8  UNL     1      -2.385   0.298  -3.694  1.00  0.00     0.155 C   
BRANCH   7   8
ATOM     8   C7  UNL     1      -2.279   1.569  -2.839  1.00  0.00    -0.020 A   
ATOM     9   C2  UNL     1      -3.062   2.920  -0.939  1.00  0.00    -0.051 A   
ATOM     10  C3  UNL     1      -2.055   3.850  -1.185  1.00  0.00     0.004 A   
ATOM     11  C24 UNL     1      -3.157   1.785  -1.756  1.00  0.00     0.009 A   
ATOM     12  C4  UNL     1      -1.173   3.662  -2.247  1.00  0.00     0.004 A   
ATOM     13  C5  UNL     1      -1.270   2.535  -3.081  1.00  0.00    -0.046 A   
ATOM     14  C1  UNL     1      -4.002   3.109   0.217  1.00  0.00     0.044 C   
ATOM     15  C6  UNL     1      -0.279   2.411  -4.212  1.00  0.00     0.045 C   
ENDBRANCH   7   8
BRANCH   7  16
ATOM     16  C9  UNL     1      -3.786  -0.324  -3.884  1.00  0.00     0.185 C   
BRANCH  16  17
ATOM     17  O1  UNL     1      -4.291  -0.963  -2.709  1.00  0.00    -0.394 OA  
ATOM     18  H12 UNL     1      -5.165  -1.328  -2.944  1.00  0.00     0.210 HD  
ENDBRANCH  16  17
ENDBRANCH   7  16
ENDBRANCH   1   7
BRANCH   3  19
ATOM     19  C12 UNL     1       0.677  -2.643  -0.972  1.00  0.00     0.117 C   
BRANCH  19  20
ATOM     20  N2  UNL     1       0.948  -1.698   0.174  1.00  0.00     0.249 N   
ATOM     21  H15 UNL     1       1.338  -2.204   0.975  1.00  0.00     0.199 HD  
ATOM     22  H16 UNL     1       0.056  -1.302   0.491  1.00  0.00     0.199 HD  
BRANCH  20  23
ATOM     23  C13 UNL     1       1.859  -0.560  -0.157  1.00  0.00     0.164 C   
BRANCH  23  24
ATOM     24  C14 UNL     1       1.768   0.499   0.904  1.00  0.00    -0.002 A   
ATOM     25  C15 UNL     1       0.792   1.520   0.799  1.00  0.00     0.012 A   
ATOM     26  C19 UNL     1       2.603   0.452   2.033  1.00  0.00     0.045 A   
ATOM     27  C16 UNL     1       0.654   2.489   1.798  1.00  0.00     0.037 A   
ATOM     28  C18 UNL     1       2.440   1.423   2.999  1.00  0.00     0.109 A   
ATOM     29  C17 UNL     1       1.494   2.412   2.887  1.00  0.00     0.108 A   
ATOM     30  O2  UNL     1       3.160   1.522   4.147  1.00  0.00    -0.316 OA  
ATOM     31  O3  UNL     1       1.501   3.259   3.948  1.00  0.00    -0.316 OA  
ATOM     32  C20 UNL     1       2.581   2.710   4.733  1.00  0.00     0.337 C   
ENDBRANCH  23  24
ENDBRANCH  20  23
ENDBRANCH  19  20
BRANCH  19  33
ATOM     33  C21 UNL     1       0.052  -3.947  -0.417  1.00  0.00     0.037 C   
ATOM     34  C22 UNL     1      -1.291  -3.767   0.299  1.00  0.00     0.014 C   
ATOM     35  C23 UNL     1      -0.087  -5.008  -1.516  1.00  0.00     0.014 C   
ENDBRANCH  19  33
ENDBRANCH   3  19
TORSDOF 9
