REMARK SMILES Cc1ccc(C)c([C@@H](CO)n2cc([C@@H]([NH2+]Cc3ccc4c(c3)OCO4)C(C)C)nn2)c1
REMARK SMILES IDX 11 1 12 2 13 3 29 4 30 5 8 7 7 8 2 9 3 10 31 11 4 12 5 13
REMARK SMILES IDX 1 14 6 15 9 16 10 17 14 19 15 20 16 23 17 24 18 25 22 26
REMARK SMILES IDX 19 27 21 28 20 29 23 30 25 31 24 32 26 33 27 34 28 35
REMARK H PARENT 12 6 10 18 15 21 15 22
ROOT
ATOM     1   N1  UNL     1      -1.565   1.144   1.919  1.00  0.00    -0.202 N   
ATOM     2   C10 UNL     1      -0.635   1.742   1.114  1.00  0.00     0.046 A   
ATOM     3   C11 UNL     1      -1.302   1.984  -0.063  1.00  0.00     0.127 A   
ATOM     4   N3  UNL     1      -2.595   1.552   0.060  1.00  0.00    -0.132 NA  
ATOM     5   N4  UNL     1      -2.749   1.053   1.275  1.00  0.00    -0.075 NA  
ATOM     6   H13 UNL     1       0.387   1.894   1.429  1.00  0.00     0.083 HD  
ENDROOT
BRANCH   1   7
ATOM     7   C8  UNL     1      -1.397   0.543   3.242  1.00  0.00     0.155 C   
BRANCH   7   8
ATOM     8   C7  UNL     1      -0.623  -0.775   3.129  1.00  0.00    -0.020 A   
ATOM     9   C2  UNL     1       1.525  -1.952   2.888  1.00  0.00    -0.051 A   
ATOM     10  C3  UNL     1       0.850  -3.173   2.876  1.00  0.00     0.004 A   
ATOM     11  C24 UNL     1       0.784  -0.767   3.010  1.00  0.00     0.009 A   
ATOM     12  C4  UNL     1      -0.540  -3.210   2.987  1.00  0.00     0.004 A   
ATOM     13  C5  UNL     1      -1.290  -2.026   3.109  1.00  0.00    -0.046 A   
ATOM     14  C1  UNL     1       3.024  -1.924   2.774  1.00  0.00     0.044 C   
ATOM     15  C6  UNL     1      -2.788  -2.152   3.239  1.00  0.00     0.045 C   
ENDBRANCH   7   8
BRANCH   7  16
ATOM     16  C9  UNL     1      -0.890   1.542   4.307  1.00  0.00     0.185 C   
BRANCH  16  17
ATOM     17  O1  UNL     1       0.361   2.156   3.987  1.00  0.00    -0.394 OA  
ATOM     18  H12 UNL     1       0.625   2.680   4.766  1.00  0.00     0.210 HD  
ENDBRANCH  16  17
ENDBRANCH   7  16
ENDBRANCH   1   7
BRANCH   3  19
ATOM     19  C12 UNL     1      -0.799   2.486  -1.372  1.00  0.00     0.117 C   
BRANCH  19  20
ATOM     20  N2  UNL     1      -1.300   1.605  -2.497  1.00  0.00     0.249 N   
ATOM     21  H15 UNL     1      -1.076   2.035  -3.399  1.00  0.00     0.199 HD  
ATOM     22  H16 UNL     1      -2.325   1.570  -2.411  1.00  0.00     0.199 HD  
BRANCH  20  23
ATOM     23  C13 UNL     1      -0.818   0.187  -2.492  1.00  0.00     0.164 C   
BRANCH  23  24
ATOM     24  C14 UNL     1       0.675   0.069  -2.628  1.00  0.00    -0.002 A   
ATOM     25  C15 UNL     1       1.470  -0.288  -1.512  1.00  0.00     0.012 A   
ATOM     26  C19 UNL     1       1.295   0.356  -3.857  1.00  0.00     0.045 A   
ATOM     27  C16 UNL     1       2.863  -0.345  -1.611  1.00  0.00     0.037 A   
ATOM     28  C18 UNL     1       2.670   0.290  -3.921  1.00  0.00     0.109 A   
ATOM     29  C17 UNL     1       3.432  -0.050  -2.830  1.00  0.00     0.108 A   
ATOM     30  O2  UNL     1       3.424   0.554  -5.021  1.00  0.00    -0.316 OA  
ATOM     31  O3  UNL     1       4.761  -0.047  -3.106  1.00  0.00    -0.316 OA  
ATOM     32  C20 UNL     1       4.754   0.320  -4.504  1.00  0.00     0.337 C   
ENDBRANCH  23  24
ENDBRANCH  20  23
ENDBRANCH  19  20
BRANCH  19  33
ATOM     33  C21 UNL     1      -1.170   3.959  -1.687  1.00  0.00     0.037 C   
ATOM     34  C22 UNL     1      -0.538   4.922  -0.674  1.00  0.00     0.014 C   
ATOM     35  C23 UNL     1      -2.674   4.235  -1.790  1.00  0.00     0.014 C   
ENDBRANCH  19  33
ENDBRANCH   3  19
TORSDOF 9
