REMARK SMILES CC(C)C[C@H]([NH2+]Cc1ccc2c(c1)OCO2)c1cn(CCc2cncnc2)nn1
REMARK SMILES IDX 17 1 18 2 19 3 28 4 29 5 5 7 4 8 2 9 1 10 3 11 6 12 7 15
REMARK SMILES IDX 8 16 9 17 13 18 10 19 12 20 11 21 14 22 16 23 15 24 20 25
REMARK SMILES IDX 21 26 22 27 23 28 27 29 24 30 26 31 25 32
REMARK H PARENT 18 6 6 13 6 14
ROOT
ATOM     1   C14 UNL     1       0.932  -1.984  -1.423  1.00  0.00     0.127 A   
ATOM     2   C15 UNL     1      -0.195  -1.762  -2.188  1.00  0.00     0.045 A   
ATOM     3   N2  UNL     1       0.304  -1.528  -3.442  1.00  0.00    -0.212 N   
ATOM     4   N5  UNL     1       1.634  -1.714  -3.471  1.00  0.00    -0.076 NA  
ATOM     5   N6  UNL     1       2.032  -1.978  -2.236  1.00  0.00    -0.132 NA  
ATOM     6   H20 UNL     1      -1.243  -1.638  -1.951  1.00  0.00     0.083 HD  
ENDROOT
BRANCH   1   7
ATOM     7   C5  UNL     1       1.108  -2.064   0.058  1.00  0.00     0.114 C   
BRANCH   7   8
ATOM     8   C4  UNL     1       0.138  -3.047   0.740  1.00  0.00     0.064 C   
BRANCH   8   9
ATOM     9   C2  UNL     1       0.281  -4.517   0.286  1.00  0.00    -0.012 C   
ATOM     10  C1  UNL     1      -0.788  -5.374   0.970  1.00  0.00     0.007 C   
ATOM     11  C3  UNL     1       1.668  -5.087   0.586  1.00  0.00     0.007 C   
ENDBRANCH   8   9
ENDBRANCH   7   8
BRANCH   7  12
ATOM     12  N1  UNL     1       0.903  -0.690   0.653  1.00  0.00     0.249 N   
ATOM     13  H11 UNL     1      -0.098  -0.494   0.759  1.00  0.00     0.199 HD  
ATOM     14  H12 UNL     1       1.217   0.026  -0.028  1.00  0.00     0.199 HD  
BRANCH  12  15
ATOM     15  C6  UNL     1       1.621  -0.420   1.925  1.00  0.00     0.164 C   
BRANCH  15  16
ATOM     16  C7  UNL     1       1.234   0.920   2.485  1.00  0.00    -0.002 A   
ATOM     17  C8  UNL     1       1.985   2.075   2.166  1.00  0.00     0.012 A   
ATOM     18  C12 UNL     1       0.087   1.042   3.289  1.00  0.00     0.045 A   
ATOM     19  C9  UNL     1       1.609   3.334   2.646  1.00  0.00     0.037 A   
ATOM     20  C11 UNL     1      -0.256   2.297   3.746  1.00  0.00     0.109 A   
ATOM     21  C10 UNL     1       0.482   3.411   3.434  1.00  0.00     0.108 A   
ATOM     22  O1  UNL     1      -1.330   2.587   4.525  1.00  0.00    -0.316 OA  
ATOM     23  O2  UNL     1      -0.034   4.543   3.977  1.00  0.00    -0.316 OA  
ATOM     24  C13 UNL     1      -1.167   4.013   4.697  1.00  0.00     0.337 C   
ENDBRANCH  15  16
ENDBRANCH  12  15
ENDBRANCH   7  12
ENDBRANCH   1   7
BRANCH   3  25
ATOM     25  C16 UNL     1      -0.353  -0.811  -4.520  1.00  0.00     0.139 C   
BRANCH  25  26
ATOM     26  C17 UNL     1       0.065   0.671  -4.578  1.00  0.00     0.060 C   
BRANCH  26  27
ATOM     27  C18 UNL     1      -0.093   1.373  -3.256  1.00  0.00    -0.010 A   
ATOM     28  C19 UNL     1      -1.293   1.892  -2.821  1.00  0.00     0.118 A   
ATOM     29  C21 UNL     1       0.936   1.424  -2.330  1.00  0.00     0.118 A   
ATOM     30  N3  UNL     1      -1.473   2.408  -1.590  1.00  0.00    -0.245 NA  
ATOM     31  N4  UNL     1       0.792   1.861  -1.060  1.00  0.00    -0.245 NA  
ATOM     32  C20 UNL     1      -0.406   2.404  -0.780  1.00  0.00     0.221 A   
ENDBRANCH  26  27
ENDBRANCH  25  26
ENDBRANCH   3  25
TORSDOF 9
