REMARK SMILES CC(C)C[C@H]([NH2+]Cc1ccc2c(c1)OCO2)c1cn([C@@H](CO)c2ccoc2)nn1
REMARK SMILES IDX 17 1 18 2 19 3 28 4 29 5 5 7 4 8 2 9 1 10 3 11 6 12 7 15
REMARK SMILES IDX 8 16 9 17 13 18 10 19 12 20 11 21 14 22 16 23 15 24 20 25
REMARK SMILES IDX 21 26 22 27 23 29 24 30 27 31 25 32 26 33
REMARK H PARENT 18 6 6 13 6 14 22 28
ROOT
ATOM     1   C14 UNL     1       1.368  -0.183   1.074  1.00  0.00     0.127 A   
ATOM     2   C15 UNL     1       1.014  -1.509   1.176  1.00  0.00     0.046 A   
ATOM     3   N2  UNL     1       0.467  -1.612   2.429  1.00  0.00    -0.202 N   
ATOM     4   N3  UNL     1       0.503  -0.417   3.062  1.00  0.00    -0.075 NA  
ATOM     5   N4  UNL     1       1.042   0.465   2.238  1.00  0.00    -0.132 NA  
ATOM     6   H20 UNL     1       1.070  -2.350   0.499  1.00  0.00     0.083 HD  
ENDROOT
BRANCH   1   7
ATOM     7   C5  UNL     1       1.915   0.614  -0.065  1.00  0.00     0.114 C   
BRANCH   7   8
ATOM     8   C4  UNL     1       3.409   0.928   0.141  1.00  0.00     0.064 C   
BRANCH   8   9
ATOM     9   C2  UNL     1       4.114   1.636  -1.037  1.00  0.00    -0.012 C   
ATOM     10  C1  UNL     1       4.081   0.807  -2.322  1.00  0.00     0.007 C   
ATOM     11  C3  UNL     1       5.567   1.938  -0.657  1.00  0.00     0.007 C   
ENDBRANCH   8   9
ENDBRANCH   7   8
BRANCH   7  12
ATOM     12  N1  UNL     1       1.138   1.911  -0.159  1.00  0.00     0.249 N   
ATOM     13  H11 UNL     1       1.763   2.710  -0.288  1.00  0.00     0.199 HD  
ATOM     14  H12 UNL     1       0.719   2.050   0.775  1.00  0.00     0.199 HD  
BRANCH  12  15
ATOM     15  C6  UNL     1       0.048   1.961  -1.174  1.00  0.00     0.164 C   
BRANCH  15  16
ATOM     16  C7  UNL     1      -0.970   0.861  -1.046  1.00  0.00    -0.002 A   
ATOM     17  C8  UNL     1      -1.846   0.812   0.065  1.00  0.00     0.012 A   
ATOM     18  C12 UNL     1      -1.032  -0.154  -2.017  1.00  0.00     0.045 A   
ATOM     19  C9  UNL     1      -2.758  -0.239   0.217  1.00  0.00     0.037 A   
ATOM     20  C11 UNL     1      -1.943  -1.173  -1.838  1.00  0.00     0.109 A   
ATOM     21  C10 UNL     1      -2.780  -1.218  -0.751  1.00  0.00     0.108 A   
ATOM     22  O1  UNL     1      -2.117  -2.232  -2.672  1.00  0.00    -0.316 OA  
ATOM     23  O2  UNL     1      -3.585  -2.312  -0.764  1.00  0.00    -0.316 OA  
ATOM     24  C13 UNL     1      -3.205  -2.921  -2.015  1.00  0.00     0.337 C   
ENDBRANCH  15  16
ENDBRANCH  12  15
ENDBRANCH   7  12
ENDBRANCH   1   7
BRANCH   3  25
ATOM     25  C16 UNL     1      -0.116  -2.799   3.058  1.00  0.00     0.157 C   
BRANCH  25  26
ATOM     26  C17 UNL     1       0.690  -3.228   4.293  1.00  0.00     0.186 C   
BRANCH  26  27
ATOM     27  O3  UNL     1       1.946  -3.783   3.894  1.00  0.00    -0.394 OA  
ATOM     28  H24 UNL     1       2.406  -4.061   4.708  1.00  0.00     0.210 HD  
ENDBRANCH  26  27
ENDBRANCH  25  26
BRANCH  25  29
ATOM     29  C18 UNL     1      -1.575  -2.578   3.341  1.00  0.00     0.002 A   
ATOM     30  C19 UNL     1      -2.169  -1.776   4.364  1.00  0.00     0.033 A   
ATOM     31  C21 UNL     1      -2.641  -3.126   2.653  1.00  0.00     0.141 A   
ATOM     32  C20 UNL     1      -3.530  -1.894   4.216  1.00  0.00     0.136 A   
ATOM     33  O4  UNL     1      -3.821  -2.711   3.175  1.00  0.00    -0.326 OA  
ENDBRANCH  25  29
ENDBRANCH   3  25
TORSDOF 10
