REMARK SMILES CC(C)C[C@H]([NH2+]Cc1ccc2c(c1)OCO2)c1cn([C@H](CO)c2ccoc2)nn1
REMARK SMILES IDX 17 1 18 2 19 3 28 4 29 5 5 7 4 8 2 9 1 10 3 11 6 12 7 15
REMARK SMILES IDX 8 16 9 17 13 18 10 19 12 20 11 21 14 22 16 23 15 24 20 25
REMARK SMILES IDX 21 26 22 27 23 29 24 30 27 31 25 32 26 33
REMARK H PARENT 18 6 6 13 6 14 22 28
ROOT
ATOM     1   C14 UNL     1       1.403  -1.151  -1.209  1.00  0.00     0.127 A   
ATOM     2   C15 UNL     1       2.617  -1.666  -0.819  1.00  0.00     0.046 A   
ATOM     3   N2  UNL     1       3.539  -0.903  -1.487  1.00  0.00    -0.202 N   
ATOM     4   N3  UNL     1       2.919   0.043  -2.226  1.00  0.00    -0.075 NA  
ATOM     5   N4  UNL     1       1.614  -0.105  -2.069  1.00  0.00    -0.132 NA  
ATOM     6   H20 UNL     1       2.908  -2.473  -0.161  1.00  0.00     0.083 HD  
ENDROOT
BRANCH   1   7
ATOM     7   C5  UNL     1       0.012  -1.506  -0.806  1.00  0.00     0.114 C   
BRANCH   7   8
ATOM     8   C4  UNL     1      -0.699  -2.395  -1.843  1.00  0.00     0.064 C   
BRANCH   8   9
ATOM     9   C2  UNL     1      -0.062  -3.784  -2.067  1.00  0.00    -0.012 C   
ATOM     10  C1  UNL     1      -0.036  -4.627  -0.792  1.00  0.00     0.007 C   
ATOM     11  C3  UNL     1      -0.827  -4.531  -3.163  1.00  0.00     0.007 C   
ENDBRANCH   8   9
ENDBRANCH   7   8
BRANCH   7  12
ATOM     12  N1  UNL     1      -0.812  -0.246  -0.668  1.00  0.00     0.249 N   
ATOM     13  H11 UNL     1      -1.815  -0.457  -0.650  1.00  0.00     0.199 HD  
ATOM     14  H12 UNL     1      -0.646   0.311  -1.519  1.00  0.00     0.199 HD  
BRANCH  12  15
ATOM     15  C6  UNL     1      -0.472   0.611   0.501  1.00  0.00     0.164 C   
BRANCH  15  16
ATOM     16  C7  UNL     1      -1.313   1.855   0.500  1.00  0.00    -0.002 A   
ATOM     17  C8  UNL     1      -0.912   2.982  -0.258  1.00  0.00     0.012 A   
ATOM     18  C12 UNL     1      -2.529   1.891   1.204  1.00  0.00     0.045 A   
ATOM     19  C9  UNL     1      -1.704   4.135  -0.305  1.00  0.00     0.037 A   
ATOM     20  C11 UNL     1      -3.284   3.044   1.137  1.00  0.00     0.109 A   
ATOM     21  C10 UNL     1      -2.884   4.134   0.405  1.00  0.00     0.108 A   
ATOM     22  O1  UNL     1      -4.476   3.244   1.758  1.00  0.00    -0.316 OA  
ATOM     23  O2  UNL     1      -3.774   5.158   0.472  1.00  0.00    -0.316 OA  
ATOM     24  C13 UNL     1      -4.769   4.602   1.357  1.00  0.00     0.337 C   
ENDBRANCH  15  16
ENDBRANCH  12  15
ENDBRANCH   7  12
ENDBRANCH   1   7
BRANCH   3  25
ATOM     25  C16 UNL     1       4.999  -0.972  -1.453  1.00  0.00     0.157 C   
BRANCH  25  26
ATOM     26  C17 UNL     1       5.536  -2.264  -2.097  1.00  0.00     0.186 C   
BRANCH  26  27
ATOM     27  O3  UNL     1       5.098  -3.447  -1.425  1.00  0.00    -0.394 OA  
ATOM     28  H24 UNL     1       5.562  -4.198  -1.841  1.00  0.00     0.210 HD  
ENDBRANCH  26  27
ENDBRANCH  25  26
BRANCH  25  29
ATOM     29  C18 UNL     1       5.499  -0.694  -0.061  1.00  0.00     0.002 A   
ATOM     30  C19 UNL     1       5.879   0.578   0.468  1.00  0.00     0.033 A   
ATOM     31  C21 UNL     1       5.689  -1.584   0.979  1.00  0.00     0.141 A   
ATOM     32  C20 UNL     1       6.259   0.365   1.772  1.00  0.00     0.136 A   
ATOM     33  O4  UNL     1       6.137  -0.947   2.088  1.00  0.00    -0.326 OA  
ENDBRANCH  25  29
ENDBRANCH   3  25
TORSDOF 10
