REMARK SMILES CC(C)(C)[C@H]([NH2+]Cc1ccc2c(c1)OCO2)c1cn([C@@H](CO)c2cc[nH]n2)nn1
REMARK SMILES IDX 17 1 18 2 19 3 28 4 29 5 5 7 2 8 1 9 3 10 4 11 6 12 7 15
REMARK SMILES IDX 8 16 9 17 13 18 10 19 12 20 11 21 14 22 16 23 15 24 20 25
REMARK SMILES IDX 21 26 22 27 23 29 24 30 27 31 25 32 26 33
REMARK H PARENT 18 6 6 13 6 14 22 28 26 34
ROOT
ATOM     1   C14 UNL     1      -0.005  -0.306   1.197  1.00  0.00     0.127 A   
ATOM     2   C15 UNL     1       1.011   0.438   0.644  1.00  0.00     0.046 A   
ATOM     3   N2  UNL     1       2.082   0.216   1.468  1.00  0.00    -0.201 N   
ATOM     4   N5  UNL     1       1.733  -0.610   2.480  1.00  0.00    -0.075 NA  
ATOM     5   N6  UNL     1       0.459  -0.933   2.323  1.00  0.00    -0.132 NA  
ATOM     6   H20 UNL     1       1.089   1.037  -0.254  1.00  0.00     0.083 HD  
ENDROOT
BRANCH   1   7
ATOM     7   C5  UNL     1      -1.379  -0.601   0.683  1.00  0.00     0.120 C   
BRANCH   7   8
ATOM     8   C2  UNL     1      -2.521   0.205   1.396  1.00  0.00     0.010 C   
ATOM     9   C1  UNL     1      -2.240   1.722   1.289  1.00  0.00     0.017 C   
ATOM     10  C3  UNL     1      -2.676  -0.154   2.887  1.00  0.00     0.017 C   
ATOM     11  C4  UNL     1      -3.876  -0.053   0.697  1.00  0.00     0.017 C   
ENDBRANCH   7   8
BRANCH   7  12
ATOM     12  N1  UNL     1      -1.637  -2.092   0.783  1.00  0.00     0.250 N   
ATOM     13  H11 UNL     1      -2.610  -2.309   0.560  1.00  0.00     0.199 HD  
ATOM     14  H12 UNL     1      -1.476  -2.351   1.765  1.00  0.00     0.199 HD  
BRANCH  12  15
ATOM     15  C6  UNL     1      -0.752  -2.974  -0.045  1.00  0.00     0.164 C   
BRANCH  15  16
ATOM     16  C7  UNL     1      -0.874  -2.722  -1.521  1.00  0.00    -0.002 A   
ATOM     17  C8  UNL     1       0.195  -2.123  -2.231  1.00  0.00     0.012 A   
ATOM     18  C12 UNL     1      -2.058  -3.052  -2.204  1.00  0.00     0.045 A   
ATOM     19  C9  UNL     1       0.086  -1.847  -3.598  1.00  0.00     0.037 A   
ATOM     20  C11 UNL     1      -2.132  -2.765  -3.551  1.00  0.00     0.109 A   
ATOM     21  C10 UNL     1      -1.092  -2.179  -4.229  1.00  0.00     0.108 A   
ATOM     22  O1  UNL     1      -3.202  -3.011  -4.352  1.00  0.00    -0.316 OA  
ATOM     23  O2  UNL     1      -1.375  -1.984  -5.543  1.00  0.00    -0.316 OA  
ATOM     24  C13 UNL     1      -2.704  -2.542  -5.626  1.00  0.00     0.337 C   
ENDBRANCH  15  16
ENDBRANCH  12  15
ENDBRANCH   7  12
ENDBRANCH   1   7
BRANCH   3  25
ATOM     25  C16 UNL     1       3.478   0.610   1.294  1.00  0.00     0.175 C   
BRANCH  25  26
ATOM     26  C17 UNL     1       4.179  -0.317   0.284  1.00  0.00     0.187 C   
BRANCH  26  27
ATOM     27  O3  UNL     1       3.600  -0.258  -1.027  1.00  0.00    -0.394 OA  
ATOM     28  H24 UNL     1       3.684   0.684  -1.302  1.00  0.00     0.210 HD  
ENDBRANCH  26  27
ENDBRANCH  25  26
BRANCH  25  29
ATOM     29  C18 UNL     1       3.582   2.072   0.950  1.00  0.00     0.085 A   
ATOM     30  C19 UNL     1       3.684   3.160   1.852  1.00  0.00     0.044 A   
ATOM     31  N4  UNL     1       3.596   2.494  -0.328  1.00  0.00    -0.187 NA  
ATOM     32  C20 UNL     1       3.774   4.275   1.057  1.00  0.00     0.094 A   
ATOM     33  N3  UNL     1       3.731   3.832  -0.231  1.00  0.00    -0.246 N   
ATOM     34  H27 UNL     1       3.788   4.382  -1.084  1.00  0.00     0.175 HD  
ENDBRANCH  25  29
ENDBRANCH   3  25
TORSDOF 9
