REMARK SMILES CC(C)(C)[C@H]([NH2+]Cc1ccc2c(c1)OCO2)c1cn([C@H](CO)c2cc[nH]n2)nn1
REMARK SMILES IDX 17 1 18 2 19 3 28 4 29 5 5 7 2 8 1 9 3 10 4 11 6 12 7 15
REMARK SMILES IDX 8 16 9 17 13 18 10 19 12 20 11 21 14 22 16 23 15 24 20 25
REMARK SMILES IDX 21 26 22 27 23 29 24 30 27 31 25 32 26 33
REMARK H PARENT 18 6 6 13 6 14 22 28 26 34
ROOT
ATOM     1   C14 UNL     1       0.256   1.639   0.634  1.00  0.00     0.127 A   
ATOM     2   C15 UNL     1       1.609   1.870   0.542  1.00  0.00     0.046 A   
ATOM     3   N2  UNL     1       1.843   2.872   1.447  1.00  0.00    -0.201 N   
ATOM     4   N5  UNL     1       0.711   3.173   2.119  1.00  0.00    -0.075 NA  
ATOM     5   N6  UNL     1      -0.268   2.436   1.621  1.00  0.00    -0.132 NA  
ATOM     6   H20 UNL     1       2.391   1.474  -0.093  1.00  0.00     0.083 HD  
ENDROOT
BRANCH   1   7
ATOM     7   C5  UNL     1      -0.634   0.678  -0.094  1.00  0.00     0.120 C   
BRANCH   7   8
ATOM     8   C2  UNL     1      -1.239   1.245  -1.427  1.00  0.00     0.010 C   
ATOM     9   C1  UNL     1      -0.109   1.705  -2.377  1.00  0.00     0.017 C   
ATOM     10  C3  UNL     1      -2.186   2.438  -1.190  1.00  0.00     0.017 C   
ATOM     11  C4  UNL     1      -2.024   0.141  -2.174  1.00  0.00     0.017 C   
ENDBRANCH   7   8
BRANCH   7  12
ATOM     12  N1  UNL     1      -1.746   0.244   0.843  1.00  0.00     0.250 N   
ATOM     13  H11 UNL     1      -2.103   1.107   1.277  1.00  0.00     0.199 HD  
ATOM     14  H12 UNL     1      -2.523  -0.177   0.331  1.00  0.00     0.199 HD  
BRANCH  12  15
ATOM     15  C6  UNL     1      -1.351  -0.674   1.952  1.00  0.00     0.164 C   
BRANCH  15  16
ATOM     16  C7  UNL     1      -1.014  -2.057   1.470  1.00  0.00    -0.002 A   
ATOM     17  C8  UNL     1       0.327  -2.511   1.484  1.00  0.00     0.012 A   
ATOM     18  C12 UNL     1      -2.024  -2.901   0.974  1.00  0.00     0.045 A   
ATOM     19  C9  UNL     1       0.660  -3.783   1.005  1.00  0.00     0.037 A   
ATOM     20  C11 UNL     1      -1.659  -4.146   0.505  1.00  0.00     0.109 A   
ATOM     21  C10 UNL     1      -0.356  -4.575   0.519  1.00  0.00     0.108 A   
ATOM     22  O1  UNL     1      -2.506  -5.072  -0.016  1.00  0.00    -0.316 OA  
ATOM     23  O2  UNL     1      -0.218  -5.827   0.012  1.00  0.00    -0.316 OA  
ATOM     24  C13 UNL     1      -1.588  -6.149  -0.312  1.00  0.00     0.337 C   
ENDBRANCH  15  16
ENDBRANCH  12  15
ENDBRANCH   7  12
ENDBRANCH   1   7
BRANCH   3  25
ATOM     25  C16 UNL     1       3.076   3.608   1.713  1.00  0.00     0.175 C   
BRANCH  25  26
ATOM     26  C17 UNL     1       3.488   4.473   0.506  1.00  0.00     0.187 C   
BRANCH  26  27
ATOM     27  O3  UNL     1       3.845   3.707  -0.650  1.00  0.00    -0.394 OA  
ATOM     28  H24 UNL     1       4.584   3.124  -0.361  1.00  0.00     0.210 HD  
ENDBRANCH  26  27
ENDBRANCH  25  26
BRANCH  25  29
ATOM     29  C18 UNL     1       4.149   2.664   2.191  1.00  0.00     0.085 A   
ATOM     30  C19 UNL     1       4.355   2.199   3.513  1.00  0.00     0.044 A   
ATOM     31  N4  UNL     1       5.061   2.151   1.348  1.00  0.00    -0.187 NA  
ATOM     32  C20 UNL     1       5.456   1.384   3.440  1.00  0.00     0.094 A   
ATOM     33  N3  UNL     1       5.858   1.406   2.139  1.00  0.00    -0.246 N   
ATOM     34  H27 UNL     1       6.660   0.933   1.725  1.00  0.00     0.175 HD  
ENDBRANCH  25  29
ENDBRANCH   3  25
TORSDOF 9
