REMARK SMILES Cn1cc(Cn2cc([C@@H]([NH2+]Cc3ccc4c(c3)OCO4)C3CCCCC3)nn2)c2cccnc21
REMARK SMILES IDX 6 1 7 2 8 3 27 4 28 5 5 7 4 8 2 9 3 10 34 11 29 12 33 13
REMARK SMILES IDX 30 14 32 15 31 16 1 17 9 18 10 19 11 22 12 23 13 24 17 25
REMARK SMILES IDX 14 26 16 27 15 28 18 29 20 30 19 31 21 32 22 33 26 34 23 35
REMARK SMILES IDX 25 36 24 37
REMARK H PARENT 7 6 10 20 10 21
ROOT
ATOM     1   N2  UNL     1       2.875   0.434   0.387  1.00  0.00    -0.208 N   
ATOM     2   C5  UNL     1       1.640  -0.159   0.428  1.00  0.00     0.046 A   
ATOM     3   C6  UNL     1       1.048   0.215  -0.757  1.00  0.00     0.127 A   
ATOM     4   N4  UNL     1       1.887   1.069  -1.427  1.00  0.00    -0.132 NA  
ATOM     5   N5  UNL     1       2.988   1.213  -0.709  1.00  0.00    -0.076 NA  
ATOM     6   H7  UNL     1       1.332  -0.798   1.244  1.00  0.00     0.083 HD  
ENDROOT
BRANCH   1   7
ATOM     7   C4  UNL     1       3.964   0.368   1.353  1.00  0.00     0.171 C   
BRANCH   7   8
ATOM     8   C3  UNL     1       4.170  -1.023   1.856  1.00  0.00    -0.004 A   
ATOM     9   N1  UNL     1       4.787  -3.171   1.989  1.00  0.00    -0.295 N   
ATOM     10  C2  UNL     1       4.814  -2.055   1.189  1.00  0.00     0.082 A   
ATOM     11  C26 UNL     1       4.140  -2.887   3.162  1.00  0.00     0.131 A   
ATOM     12  C22 UNL     1       3.751  -1.550   3.119  1.00  0.00     0.021 A   
ATOM     13  N6  UNL     1       3.931  -3.760   4.166  1.00  0.00    -0.240 NA  
ATOM     14  C23 UNL     1       3.076  -1.042   4.245  1.00  0.00     0.014 A   
ATOM     15  C25 UNL     1       3.285  -3.222   5.222  1.00  0.00     0.113 A   
ATOM     16  C24 UNL     1       2.846  -1.909   5.313  1.00  0.00     0.021 A   
ATOM     17  C1  UNL     1       5.368  -4.449   1.648  1.00  0.00     0.137 C   
ENDBRANCH   7   8
ENDBRANCH   1   7
BRANCH   3  18
ATOM     18  C7  UNL     1      -0.285  -0.114  -1.347  1.00  0.00     0.117 C   
BRANCH  18  19
ATOM     19  N3  UNL     1      -0.758   1.038  -2.210  1.00  0.00     0.249 N   
ATOM     20  H9  UNL     1      -1.472   0.722  -2.873  1.00  0.00     0.199 HD  
ATOM     21  H10 UNL     1       0.061   1.333  -2.762  1.00  0.00     0.199 HD  
BRANCH  19  22
ATOM     22  C8  UNL     1      -1.256   2.241  -1.482  1.00  0.00     0.164 C   
BRANCH  22  23
ATOM     23  C9  UNL     1      -2.600   2.015  -0.848  1.00  0.00    -0.002 A   
ATOM     24  C10 UNL     1      -2.717   1.875   0.556  1.00  0.00     0.012 A   
ATOM     25  C14 UNL     1      -3.751   1.918  -1.650  1.00  0.00     0.045 A   
ATOM     26  C11 UNL     1      -3.959   1.630   1.153  1.00  0.00     0.037 A   
ATOM     27  C13 UNL     1      -4.959   1.678  -1.029  1.00  0.00     0.109 A   
ATOM     28  C12 UNL     1      -5.061   1.535   0.333  1.00  0.00     0.108 A   
ATOM     29  O1  UNL     1      -6.158   1.559  -1.655  1.00  0.00    -0.316 OA  
ATOM     30  O2  UNL     1      -6.337   1.303   0.734  1.00  0.00    -0.316 OA  
ATOM     31  C15 UNL     1      -7.038   1.361  -0.525  1.00  0.00     0.337 C   
ENDBRANCH  22  23
ENDBRANCH  19  22
ENDBRANCH  18  19
BRANCH  18  32
ATOM     32  C16 UNL     1      -0.299  -1.404  -2.211  1.00  0.00     0.043 C   
ATOM     33  C17 UNL     1      -0.064  -2.666  -1.356  1.00  0.00     0.010 C   
ATOM     34  C21 UNL     1       0.680  -1.379  -3.402  1.00  0.00     0.010 C   
ATOM     35  C18 UNL     1      -0.161  -3.940  -2.194  1.00  0.00     0.001 C   
ATOM     36  C20 UNL     1       0.589  -2.659  -4.233  1.00  0.00     0.001 C   
ATOM     37  C19 UNL     1       0.798  -3.905  -3.379  1.00  0.00     0.000 C   
ENDBRANCH  18  32
ENDBRANCH   3  18
TORSDOF 7
