REMARK SMILES OC[C@H](c1ccccc1)n1cc([C@@H]([NH2+]Cc2ccc3c(c2)OCO3)C2CCCCC2)nn1
REMARK SMILES IDX 10 1 11 2 12 3 31 4 32 5 3 7 2 8 1 9 4 11 5 12 9 13 6 14
REMARK SMILES IDX 8 15 7 16 13 17 14 18 15 21 16 22 17 23 21 24 18 25 20 26
REMARK SMILES IDX 19 27 22 28 24 29 23 30 25 31 26 32 30 33 27 34 29 35 28 36
REMARK H PARENT 11 6 1 10 14 19 14 20
ROOT
ATOM     1   N1  UNL     1      -2.168  -0.321   1.075  1.00  0.00    -0.202 N   
ATOM     2   C9  UNL     1      -1.521   0.063  -0.070  1.00  0.00     0.046 A   
ATOM     3   C10 UNL     1      -0.408  -0.744  -0.116  1.00  0.00     0.127 A   
ATOM     4   N3  UNL     1      -0.394  -1.555   0.990  1.00  0.00    -0.132 NA  
ATOM     5   N4  UNL     1      -1.467  -1.282   1.714  1.00  0.00    -0.075 NA  
ATOM     6   H10 UNL     1      -1.912   0.835  -0.718  1.00  0.00     0.083 HD  
ENDROOT
BRANCH   1   7
ATOM     7   C2  UNL     1      -3.412   0.194   1.647  1.00  0.00     0.155 C   
BRANCH   7   8
ATOM     8   C1  UNL     1      -4.644  -0.312   0.868  1.00  0.00     0.185 C   
BRANCH   8   9
ATOM     9   O1  UNL     1      -4.611   0.019  -0.521  1.00  0.00    -0.394 OA  
ATOM     10  H1  UNL     1      -5.450  -0.294  -0.905  1.00  0.00     0.210 HD  
ENDBRANCH   8   9
ENDBRANCH   7   8
BRANCH   7  11
ATOM     11  C3  UNL     1      -3.301   1.695   1.887  1.00  0.00    -0.023 A   
ATOM     12  C4  UNL     1      -3.841   2.651   1.014  1.00  0.00     0.006 A   
ATOM     13  C8  UNL     1      -2.602   2.151   3.021  1.00  0.00     0.006 A   
ATOM     14  C5  UNL     1      -3.695   4.016   1.271  1.00  0.00     0.000 A   
ATOM     15  C7  UNL     1      -2.458   3.516   3.276  1.00  0.00     0.000 A   
ATOM     16  C6  UNL     1      -3.006   4.448   2.401  1.00  0.00     0.000 A   
ENDBRANCH   7  11
ENDBRANCH   1   7
BRANCH   3  17
ATOM     17  C11 UNL     1       0.728  -0.796  -1.087  1.00  0.00     0.117 C   
BRANCH  17  18
ATOM     18  N2  UNL     1       2.014  -0.925  -0.304  1.00  0.00     0.249 N   
ATOM     19  H12 UNL     1       1.882  -1.705   0.356  1.00  0.00     0.199 HD  
ATOM     20  H13 UNL     1       2.807  -1.178  -0.896  1.00  0.00     0.199 HD  
BRANCH  18  21
ATOM     21  C12 UNL     1       2.398   0.273   0.494  1.00  0.00     0.164 C   
BRANCH  21  22
ATOM     22  C13 UNL     1       3.682   0.018   1.232  1.00  0.00    -0.002 A   
ATOM     23  C14 UNL     1       3.658  -0.590   2.510  1.00  0.00     0.012 A   
ATOM     24  C18 UNL     1       4.916   0.326   0.634  1.00  0.00     0.045 A   
ATOM     25  C15 UNL     1       4.846  -0.876   3.191  1.00  0.00     0.037 A   
ATOM     26  C17 UNL     1       6.067   0.030   1.333  1.00  0.00     0.109 A   
ATOM     27  C16 UNL     1       6.034  -0.553   2.575  1.00  0.00     0.108 A   
ATOM     28  O2  UNL     1       7.335   0.261   0.900  1.00  0.00    -0.316 OA  
ATOM     29  O3  UNL     1       7.277  -0.759   3.083  1.00  0.00    -0.316 OA  
ATOM     30  C19 UNL     1       8.100  -0.213   2.031  1.00  0.00     0.337 C   
ENDBRANCH  21  22
ENDBRANCH  18  21
ENDBRANCH  17  18
BRANCH  17  31
ATOM     31  C20 UNL     1       0.608  -1.995  -2.078  1.00  0.00     0.043 C   
ATOM     32  C21 UNL     1       1.766  -2.092  -3.095  1.00  0.00     0.010 C   
ATOM     33  C25 UNL     1      -0.715  -1.974  -2.880  1.00  0.00     0.010 C   
ATOM     34  C22 UNL     1       1.753  -0.956  -4.117  1.00  0.00     0.001 C   
ATOM     35  C24 UNL     1      -0.769  -0.835  -3.897  1.00  0.00     0.001 C   
ATOM     36  C23 UNL     1       0.419  -0.881  -4.854  1.00  0.00     0.000 C   
ENDBRANCH  17  31
ENDBRANCH   3  17
TORSDOF 9
