REMARK SMILES OC[C@@H](c1ccccc1)n1cc([C@@H]([NH2+]Cc2ccc3c(c2)OCO3)C2CCCCC2)nn1
REMARK SMILES IDX 10 1 11 2 12 3 31 4 32 5 3 7 2 8 1 9 4 11 5 12 9 13 6 14
REMARK SMILES IDX 8 15 7 16 13 17 14 18 15 21 16 22 17 23 21 24 18 25 20 26
REMARK SMILES IDX 19 27 22 28 24 29 23 30 25 31 26 32 30 33 27 34 29 35 28 36
REMARK H PARENT 11 6 1 10 14 19 14 20
ROOT
ATOM     1   N1  UNL     1      -0.406   2.215   1.696  1.00  0.00    -0.202 N   
ATOM     2   C9  UNL     1       0.067   0.935   1.567  1.00  0.00     0.046 A   
ATOM     3   C10 UNL     1       0.042   0.699   0.211  1.00  0.00     0.127 A   
ATOM     4   N3  UNL     1      -0.453   1.807  -0.428  1.00  0.00    -0.132 NA  
ATOM     5   N4  UNL     1      -0.737   2.719   0.487  1.00  0.00    -0.075 NA  
ATOM     6   H10 UNL     1       0.355   0.340   2.422  1.00  0.00     0.083 HD  
ENDROOT
BRANCH   1   7
ATOM     7   C2  UNL     1      -0.627   2.958   2.937  1.00  0.00     0.155 C   
BRANCH   7   8
ATOM     8   C1  UNL     1      -0.239   4.445   2.827  1.00  0.00     0.185 C   
BRANCH   8   9
ATOM     9   O1  UNL     1       1.184   4.581   2.747  1.00  0.00    -0.394 OA  
ATOM     10  H1  UNL     1       1.372   5.537   2.685  1.00  0.00     0.210 HD  
ENDBRANCH   8   9
ENDBRANCH   7   8
BRANCH   7  11
ATOM     11  C3  UNL     1      -2.052   2.737   3.421  1.00  0.00    -0.023 A   
ATOM     12  C4  UNL     1      -3.150   3.339   2.782  1.00  0.00     0.006 A   
ATOM     13  C8  UNL     1      -2.293   1.901   4.525  1.00  0.00     0.006 A   
ATOM     14  C5  UNL     1      -4.450   3.114   3.241  1.00  0.00     0.000 A   
ATOM     15  C7  UNL     1      -3.594   1.676   4.979  1.00  0.00     0.000 A   
ATOM     16  C6  UNL     1      -4.671   2.284   4.338  1.00  0.00     0.000 A   
ENDBRANCH   7  11
ENDBRANCH   1   7
BRANCH   3  17
ATOM     17  C11 UNL     1       0.369  -0.526  -0.587  1.00  0.00     0.117 C   
BRANCH  17  18
ATOM     18  N2  UNL     1      -0.484  -0.497  -1.836  1.00  0.00     0.249 N   
ATOM     19  H12 UNL     1      -0.227   0.343  -2.372  1.00  0.00     0.199 HD  
ATOM     20  H13 UNL     1      -1.440  -0.285  -1.520  1.00  0.00     0.199 HD  
BRANCH  18  21
ATOM     21  C12 UNL     1      -0.534  -1.693  -2.712  1.00  0.00     0.164 C   
BRANCH  21  22
ATOM     22  C13 UNL     1      -1.117  -2.899  -2.030  1.00  0.00    -0.002 A   
ATOM     23  C14 UNL     1      -0.280  -3.961  -1.611  1.00  0.00     0.012 A   
ATOM     24  C18 UNL     1      -2.497  -2.965  -1.776  1.00  0.00     0.045 A   
ATOM     25  C15 UNL     1      -0.809  -5.073  -0.946  1.00  0.00     0.037 A   
ATOM     26  C17 UNL     1      -2.986  -4.076  -1.120  1.00  0.00     0.109 A   
ATOM     27  C16 UNL     1      -2.166  -5.100  -0.717  1.00  0.00     0.108 A   
ATOM     28  O2  UNL     1      -4.288  -4.291  -0.795  1.00  0.00    -0.316 OA  
ATOM     29  O3  UNL     1      -2.849  -6.093  -0.089  1.00  0.00    -0.316 OA  
ATOM     30  C19 UNL     1      -4.204  -5.601  -0.187  1.00  0.00     0.337 C   
ENDBRANCH  21  22
ENDBRANCH  18  21
ENDBRANCH  17  18
BRANCH  17  31
ATOM     31  C20 UNL     1       1.871  -0.680  -0.943  1.00  0.00     0.043 C   
ATOM     32  C21 UNL     1       2.442   0.454  -1.818  1.00  0.00     0.010 C   
ATOM     33  C25 UNL     1       2.744  -0.860   0.316  1.00  0.00     0.010 C   
ATOM     34  C22 UNL     1       3.907   0.201  -2.174  1.00  0.00     0.001 C   
ATOM     35  C24 UNL     1       4.204  -1.126  -0.046  1.00  0.00     0.001 C   
ATOM     36  C23 UNL     1       4.767  -0.022  -0.935  1.00  0.00     0.000 C   
ENDBRANCH  17  31
ENDBRANCH   3  17
TORSDOF 9
