REMARK SMILES CC(C)C[C@H]([NH2+]Cc1ccc2c(c1)OCO2)c1cn(Cc2cc3ccccc3n2C)nn1
REMARK SMILES IDX 17 1 18 2 19 3 31 4 32 5 5 7 4 8 2 9 1 10 3 11 6 12 7 15
REMARK SMILES IDX 8 16 9 17 13 18 10 19 12 20 11 21 14 22 16 23 15 24 20 25
REMARK SMILES IDX 21 26 22 27 29 28 23 29 28 30 24 31 27 32 25 33 26 34 30 35
REMARK H PARENT 18 6 6 13 6 14
ROOT
ATOM     1   C14 UNL     1       0.219  -0.317   0.088  1.00  0.00     0.127 A   
ATOM     2   C15 UNL     1       0.000  -0.967  -1.105  1.00  0.00     0.046 A   
ATOM     3   N2  UNL     1       0.972  -0.474  -1.933  1.00  0.00    -0.206 N   
ATOM     4   N4  UNL     1       1.775   0.383  -1.272  1.00  0.00    -0.076 NA  
ATOM     5   N5  UNL     1       1.314   0.499  -0.037  1.00  0.00    -0.132 NA  
ATOM     6   H20 UNL     1      -0.741  -1.677  -1.445  1.00  0.00     0.083 HD  
ENDROOT
BRANCH   1   7
ATOM     7   C5  UNL     1      -0.507  -0.387   1.393  1.00  0.00     0.114 C   
BRANCH   7   8
ATOM     8   C4  UNL     1      -1.637   0.662   1.439  1.00  0.00     0.064 C   
BRANCH   8   9
ATOM     9   C2  UNL     1      -2.526   0.663   2.701  1.00  0.00    -0.012 C   
ATOM     10  C1  UNL     1      -3.181  -0.693   2.958  1.00  0.00     0.007 C   
ATOM     11  C3  UNL     1      -3.604   1.743   2.566  1.00  0.00     0.007 C   
ENDBRANCH   8   9
ENDBRANCH   7   8
BRANCH   7  12
ATOM     12  N1  UNL     1       0.441  -0.141   2.535  1.00  0.00     0.249 N   
ATOM     13  H11 UNL     1      -0.054   0.058   3.408  1.00  0.00     0.199 HD  
ATOM     14  H12 UNL     1       0.977   0.708   2.304  1.00  0.00     0.199 HD  
BRANCH  12  15
ATOM     15  C6  UNL     1       1.424  -1.232   2.791  1.00  0.00     0.164 C   
BRANCH  15  16
ATOM     16  C7  UNL     1       2.301  -0.879   3.958  1.00  0.00    -0.002 A   
ATOM     17  C8  UNL     1       1.960  -1.303   5.265  1.00  0.00     0.012 A   
ATOM     18  C12 UNL     1       3.438  -0.076   3.764  1.00  0.00     0.045 A   
ATOM     19  C9  UNL     1       2.746  -0.940   6.364  1.00  0.00     0.037 A   
ATOM     20  C11 UNL     1       4.190   0.264   4.869  1.00  0.00     0.109 A   
ATOM     21  C10 UNL     1       3.854  -0.155   6.133  1.00  0.00     0.108 A   
ATOM     22  O1  UNL     1       5.312   1.029   4.857  1.00  0.00    -0.316 OA  
ATOM     23  O2  UNL     1       4.722   0.293   7.076  1.00  0.00    -0.316 OA  
ATOM     24  C13 UNL     1       5.659   1.030   6.261  1.00  0.00     0.337 C   
ENDBRANCH  15  16
ENDBRANCH  12  15
ENDBRANCH   7  12
ENDBRANCH   1   7
BRANCH   3  25
ATOM     25  C16 UNL     1       1.198  -0.774  -3.341  1.00  0.00     0.185 C   
BRANCH  25  26
ATOM     26  C17 UNL     1       0.029  -0.348  -4.171  1.00  0.00     0.030 A   
ATOM     27  C18 UNL     1      -0.927  -1.137  -4.783  1.00  0.00     0.031 A   
ATOM     28  N3  UNL     1      -0.281   0.966  -4.465  1.00  0.00    -0.305 N   
ATOM     29  C19 UNL     1      -1.871  -0.287  -5.414  1.00  0.00    -0.002 A   
ATOM     30  C24 UNL     1      -1.459   1.027  -5.188  1.00  0.00     0.040 A   
ATOM     31  C20 UNL     1      -3.043  -0.522  -6.158  1.00  0.00     0.010 A   
ATOM     32  C23 UNL     1      -2.193   2.123  -5.672  1.00  0.00     0.024 A   
ATOM     33  C21 UNL     1      -3.777   0.564  -6.647  1.00  0.00     0.001 A   
ATOM     34  C22 UNL     1      -3.356   1.867  -6.404  1.00  0.00     0.002 A   
ATOM     35  C25 UNL     1       0.488   2.131  -4.072  1.00  0.00     0.136 C   
ENDBRANCH  25  26
ENDBRANCH   3  25
TORSDOF 8
