REMARK SMILES Cc1cccc(CCn2cc([C@H](CC(C)C)[NH2+]Cc3ccc4c(c3)OCO4)nn2)c1
REMARK SMILES IDX 9 1 10 2 11 3 28 4 29 5 8 7 7 8 6 9 2 10 3 11 30 12 4 13
REMARK SMILES IDX 5 14 1 15 12 16 13 17 14 18 15 19 16 20 17 21 18 24 19 25
REMARK SMILES IDX 20 26 24 27 21 28 23 29 22 30 25 31 27 32 26 33
REMARK H PARENT 10 6 17 22 17 23
ROOT
ATOM     1   N1  UNL     1       0.247   2.243  -1.228  1.00  0.00    -0.212 N   
ATOM     2   C9  UNL     1       0.298   0.970  -1.719  1.00  0.00     0.045 A   
ATOM     3   C10 UNL     1       0.526   0.193  -0.606  1.00  0.00     0.127 A   
ATOM     4   N3  UNL     1       0.651   1.007   0.495  1.00  0.00    -0.132 NA  
ATOM     5   N4  UNL     1       0.512   2.261   0.096  1.00  0.00    -0.076 NA  
ATOM     6   H11 UNL     1       0.124   0.745  -2.769  1.00  0.00     0.083 HD  
ENDROOT
BRANCH   1   7
ATOM     7   C8  UNL     1      -0.082   3.460  -1.942  1.00  0.00     0.139 C   
BRANCH   7   8
ATOM     8   C7  UNL     1      -1.444   4.040  -1.542  1.00  0.00     0.057 C   
BRANCH   8   9
ATOM     9   C6  UNL     1      -2.591   3.088  -1.804  1.00  0.00    -0.046 A   
ATOM     10  C2  UNL     1      -4.200   2.074  -3.330  1.00  0.00    -0.051 A   
ATOM     11  C3  UNL     1      -4.681   1.282  -2.280  1.00  0.00     0.003 A   
ATOM     12  C24 UNL     1      -3.158   2.980  -3.084  1.00  0.00     0.007 A   
ATOM     13  C4  UNL     1      -4.122   1.382  -1.006  1.00  0.00     0.001 A   
ATOM     14  C5  UNL     1      -3.083   2.281  -0.768  1.00  0.00     0.004 A   
ATOM     15  C1  UNL     1      -4.855   2.010  -4.676  1.00  0.00     0.044 C   
ENDBRANCH   8   9
ENDBRANCH   7   8
ENDBRANCH   1   7
BRANCH   3  16
ATOM     16  C11 UNL     1       0.618  -1.293  -0.453  1.00  0.00     0.114 C   
BRANCH  16  17
ATOM     17  C12 UNL     1      -0.757  -1.951  -0.681  1.00  0.00     0.064 C   
BRANCH  17  18
ATOM     18  C13 UNL     1      -0.785  -3.495  -0.710  1.00  0.00    -0.012 C   
ATOM     19  C14 UNL     1       0.181  -4.084  -1.738  1.00  0.00     0.007 C   
ATOM     20  C15 UNL     1      -2.212  -3.973  -1.010  1.00  0.00     0.007 C   
ENDBRANCH  17  18
ENDBRANCH  16  17
BRANCH  16  21
ATOM     21  N2  UNL     1       1.115  -1.651   0.924  1.00  0.00     0.249 N   
ATOM     22  H22 UNL     1       0.821  -2.586   1.224  1.00  0.00     0.199 HD  
ATOM     23  H23 UNL     1       0.669  -0.985   1.577  1.00  0.00     0.199 HD  
BRANCH  21  24
ATOM     24  C16 UNL     1       2.588  -1.524   1.112  1.00  0.00     0.164 C   
BRANCH  24  25
ATOM     25  C17 UNL     1       2.961  -1.757   2.547  1.00  0.00    -0.002 A   
ATOM     26  C18 UNL     1       3.258  -3.063   3.012  1.00  0.00     0.012 A   
ATOM     27  C22 UNL     1       2.975  -0.680   3.449  1.00  0.00     0.045 A   
ATOM     28  C19 UNL     1       3.587  -3.292   4.354  1.00  0.00     0.037 A   
ATOM     29  C21 UNL     1       3.313  -0.939   4.764  1.00  0.00     0.109 A   
ATOM     30  C20 UNL     1       3.611  -2.208   5.204  1.00  0.00     0.108 A   
ATOM     31  O1  UNL     1       3.397  -0.016   5.760  1.00  0.00    -0.316 OA  
ATOM     32  O2  UNL     1       3.925  -2.244   6.531  1.00  0.00    -0.316 OA  
ATOM     33  C23 UNL     1       3.830  -0.842   6.868  1.00  0.00     0.337 C   
ENDBRANCH  24  25
ENDBRANCH  21  24
ENDBRANCH  16  21
ENDBRANCH   3  16
TORSDOF 9
