REMARK SMILES COCc1ccc(Cn2cc([C@H](CC(C)C)[NH2+]Cc3ccc4c(c3)OCO4)nn2)cc1
REMARK SMILES IDX 9 1 10 2 11 3 28 4 29 5 8 7 7 8 4 9 5 10 31 11 6 12 30 13
REMARK SMILES IDX 3 14 2 15 1 16 12 17 13 18 14 19 15 20 16 21 17 22 18 25
REMARK SMILES IDX 19 26 20 27 24 28 21 29 23 30 22 31 25 32 27 33 26 34
REMARK H PARENT 10 6 17 23 17 24
ROOT
ATOM     1   N1  UNL     1      -0.084   3.276   1.869  1.00  0.00    -0.208 N   
ATOM     2   C8  UNL     1      -0.776   3.004   0.719  1.00  0.00     0.046 A   
ATOM     3   C9  UNL     1      -1.346   1.774   0.960  1.00  0.00     0.127 A   
ATOM     4   N3  UNL     1      -1.031   1.371   2.232  1.00  0.00    -0.132 NA  
ATOM     5   N4  UNL     1      -0.260   2.297   2.778  1.00  0.00    -0.076 NA  
ATOM     6   H10 UNL     1      -0.745   3.657  -0.142  1.00  0.00     0.083 HD  
ENDROOT
BRANCH   1   7
ATOM     7   C7  UNL     1       0.837   4.373   2.123  1.00  0.00     0.169 C   
BRANCH   7   8
ATOM     8   C6  UNL     1       2.110   4.168   1.340  1.00  0.00    -0.029 A   
ATOM     9   C3  UNL     1       4.419   3.664  -0.196  1.00  0.00    -0.022 A   
ATOM     10  C4  UNL     1       4.191   2.962   0.993  1.00  0.00     0.006 A   
ATOM     11  C24 UNL     1       3.484   4.621  -0.610  1.00  0.00     0.006 A   
ATOM     12  C5  UNL     1       3.050   3.214   1.757  1.00  0.00     0.006 A   
ATOM     13  C23 UNL     1       2.342   4.876   0.153  1.00  0.00     0.006 A   
BRANCH   9  14
ATOM     14  C2  UNL     1       5.628   3.357  -1.042  1.00  0.00     0.195 C   
BRANCH  14  15
ATOM     15  O1  UNL     1       5.291   2.279  -1.913  1.00  0.00    -0.380 OA  
ATOM     16  C1  UNL     1       6.391   1.921  -2.740  1.00  0.00     0.195 C   
ENDBRANCH  14  15
ENDBRANCH   9  14
ENDBRANCH   7   8
ENDBRANCH   1   7
BRANCH   3  17
ATOM     17  C10 UNL     1      -2.108   0.852   0.066  1.00  0.00     0.114 C   
BRANCH  17  18
ATOM     18  C11 UNL     1      -3.617   0.913   0.375  1.00  0.00     0.064 C   
BRANCH  18  19
ATOM     19  C12 UNL     1      -4.536   0.046  -0.511  1.00  0.00    -0.012 C   
ATOM     20  C13 UNL     1      -5.994   0.239  -0.080  1.00  0.00     0.007 C   
ATOM     21  C14 UNL     1      -4.392   0.368  -1.999  1.00  0.00     0.007 C   
ENDBRANCH  18  19
ENDBRANCH  17  18
BRANCH  17  22
ATOM     22  N2  UNL     1      -1.616  -0.558   0.255  1.00  0.00     0.249 N   
ATOM     23  H21 UNL     1      -2.241  -1.244  -0.177  1.00  0.00     0.199 HD  
ATOM     24  H22 UNL     1      -1.629  -0.745   1.268  1.00  0.00     0.199 HD  
BRANCH  22  25
ATOM     25  C15 UNL     1      -0.227  -0.815  -0.226  1.00  0.00     0.164 C   
BRANCH  25  26
ATOM     26  C16 UNL     1       0.159  -2.244   0.032  1.00  0.00    -0.002 A   
ATOM     27  C17 UNL     1      -0.004  -3.225  -0.975  1.00  0.00     0.012 A   
ATOM     28  C21 UNL     1       0.638  -2.622   1.298  1.00  0.00     0.045 A   
ATOM     29  C18 UNL     1       0.317  -4.565  -0.729  1.00  0.00     0.037 A   
ATOM     30  C20 UNL     1       0.943  -3.951   1.507  1.00  0.00     0.109 A   
ATOM     31  C19 UNL     1       0.788  -4.895   0.522  1.00  0.00     0.108 A   
ATOM     32  O2  UNL     1       1.413  -4.482   2.666  1.00  0.00    -0.316 OA  
ATOM     33  O3  UNL     1       1.145  -6.139   0.936  1.00  0.00    -0.316 OA  
ATOM     34  C22 UNL     1       1.560  -5.871   2.292  1.00  0.00     0.337 C   
ENDBRANCH  25  26
ENDBRANCH  22  25
ENDBRANCH  17  22
ENDBRANCH   3  17
TORSDOF 10
