REMARK SMILES COc1cc(CCn2cc([C@H](CC(C)C)[NH2+]Cc3ccc4c(c3)OCO4)nn2)ccc1C
REMARK SMILES IDX 8 1 9 2 10 3 27 4 28 5 7 7 6 8 5 9 3 10 4 11 31 12 30 13
REMARK SMILES IDX 29 14 32 15 2 16 1 17 11 18 12 19 13 20 14 21 15 22 16 23
REMARK SMILES IDX 17 26 18 27 19 28 23 29 20 30 22 31 21 32 24 33 26 34 25 35
REMARK H PARENT 9 6 16 24 16 25
ROOT
ATOM     1   N1  UNL     1      -0.482  -1.500  -3.504  1.00  0.00    -0.212 N   
ATOM     2   C7  UNL     1      -0.906  -0.313  -2.971  1.00  0.00     0.045 A   
ATOM     3   C8  UNL     1       0.244   0.250  -2.466  1.00  0.00     0.127 A   
ATOM     4   N3  UNL     1       1.313  -0.546  -2.784  1.00  0.00    -0.132 NA  
ATOM     5   N4  UNL     1       0.858  -1.605  -3.438  1.00  0.00    -0.076 NA  
ATOM     6   H9  UNL     1      -1.952  -0.047  -2.910  1.00  0.00     0.083 HD  
ENDROOT
BRANCH   1   7
ATOM     7   C6  UNL     1      -1.300  -2.650  -3.840  1.00  0.00     0.139 C   
BRANCH   7   8
ATOM     8   C5  UNL     1      -1.308  -3.718  -2.734  1.00  0.00     0.057 C   
BRANCH   8   9
ATOM     9   C4  UNL     1      -1.644  -3.140  -1.375  1.00  0.00    -0.044 A   
ATOM     10  C2  UNL     1      -0.899  -1.996   0.631  1.00  0.00     0.078 A   
ATOM     11  C3  UNL     1      -0.610  -2.697  -0.538  1.00  0.00     0.037 A   
ATOM     12  C24 UNL     1      -2.221  -1.738   1.008  1.00  0.00    -0.021 A   
ATOM     13  C23 UNL     1      -3.253  -2.234   0.198  1.00  0.00     0.006 A   
ATOM     14  C22 UNL     1      -2.969  -2.921  -0.988  1.00  0.00     0.004 A   
ATOM     15  C25 UNL     1      -2.541  -0.985   2.266  1.00  0.00     0.047 C   
BRANCH  10  16
ATOM     16  O1  UNL     1       0.138  -1.456   1.350  1.00  0.00    -0.349 OA  
ATOM     17  C1  UNL     1       0.750  -2.485   2.142  1.00  0.00     0.203 C   
ENDBRANCH  10  16
ENDBRANCH   8   9
ENDBRANCH   7   8
ENDBRANCH   1   7
BRANCH   3  18
ATOM     18  C9  UNL     1       0.438   1.456  -1.610  1.00  0.00     0.114 C   
BRANCH  18  19
ATOM     19  C10 UNL     1       1.270   2.543  -2.319  1.00  0.00     0.064 C   
BRANCH  19  20
ATOM     20  C11 UNL     1       0.674   3.060  -3.648  1.00  0.00    -0.012 C   
ATOM     21  C12 UNL     1      -0.703   3.700  -3.456  1.00  0.00     0.007 C   
ATOM     22  C13 UNL     1       1.630   4.073  -4.284  1.00  0.00     0.007 C   
ENDBRANCH  19  20
ENDBRANCH  18  19
BRANCH  18  23
ATOM     23  N2  UNL     1       1.132   1.027  -0.338  1.00  0.00     0.249 N   
ATOM     24  H20 UNL     1       2.024   0.585  -0.593  1.00  0.00     0.199 HD  
ATOM     25  H21 UNL     1       0.591   0.249   0.079  1.00  0.00     0.199 HD  
BRANCH  23  26
ATOM     26  C14 UNL     1       1.329   2.059   0.709  1.00  0.00     0.164 C   
BRANCH  26  27
ATOM     27  C15 UNL     1       1.847   1.473   1.992  1.00  0.00    -0.002 A   
ATOM     28  C16 UNL     1       3.205   1.087   2.106  1.00  0.00     0.012 A   
ATOM     29  C20 UNL     1       0.981   1.287   3.083  1.00  0.00     0.045 A   
ATOM     30  C17 UNL     1       3.695   0.528   3.292  1.00  0.00     0.037 A   
ATOM     31  C19 UNL     1       1.497   0.733   4.236  1.00  0.00     0.109 A   
ATOM     32  C18 UNL     1       2.815   0.365   4.339  1.00  0.00     0.108 A   
ATOM     33  O2  UNL     1       0.795   0.475   5.371  1.00  0.00    -0.316 OA  
ATOM     34  O3  UNL     1       3.112  -0.167   5.552  1.00  0.00    -0.316 OA  
ATOM     35  C21 UNL     1       1.833  -0.076   6.214  1.00  0.00     0.337 C   
ENDBRANCH  26  27
ENDBRANCH  23  26
ENDBRANCH  18  23
ENDBRANCH   3  18
TORSDOF 10
