REMARK SMILES CC(C)(C)[C@H]([NH2+]Cc1ccc2c(c1)OCO2)c1cn(Cc2ccc(N([O-])[O-])cc2F)nn1
REMARK SMILES IDX 17 1 18 2 19 3 31 4 32 5 5 7 2 8 1 9 3 10 4 11 6 12 7 15
REMARK SMILES IDX 8 16 9 17 13 18 10 19 12 20 11 21 14 22 16 23 15 24 20 25
REMARK SMILES IDX 21 26 22 27 29 28 23 29 28 30 24 31 30 32 25 33 26 34 27 35
REMARK H PARENT 18 6 6 13 6 14
ROOT
ATOM     1   C14 UNL     1       1.444  -0.113  -1.237  1.00  0.00     0.127 A   
ATOM     2   C15 UNL     1       1.322  -1.365  -0.676  1.00  0.00     0.046 A   
ATOM     3   N2  UNL     1       2.383  -1.450   0.182  1.00  0.00    -0.208 N   
ATOM     4   N4  UNL     1       3.121  -0.325   0.145  1.00  0.00    -0.076 NA  
ATOM     5   N5  UNL     1       2.564   0.496  -0.731  1.00  0.00    -0.132 NA  
ATOM     6   H20 UNL     1       0.593  -2.158  -0.779  1.00  0.00     0.083 HD  
ENDROOT
BRANCH   1   7
ATOM     7   C5  UNL     1       0.541   0.632  -2.172  1.00  0.00     0.120 C   
BRANCH   7   8
ATOM     8   C2  UNL     1       0.930   0.469  -3.688  1.00  0.00     0.010 C   
ATOM     9   C1  UNL     1       0.813  -1.019  -4.100  1.00  0.00     0.017 C   
ATOM     10  C3  UNL     1      -0.038   1.265  -4.595  1.00  0.00     0.017 C   
ATOM     11  C4  UNL     1       2.368   0.939  -3.993  1.00  0.00     0.017 C   
ENDBRANCH   7   8
BRANCH   7  12
ATOM     12  N1  UNL     1       0.483   2.103  -1.797  1.00  0.00     0.250 N   
ATOM     13  H11 UNL     1      -0.139   2.604  -2.434  1.00  0.00     0.199 HD  
ATOM     14  H12 UNL     1       1.429   2.483  -1.921  1.00  0.00     0.199 HD  
BRANCH  12  15
ATOM     15  C6  UNL     1       0.076   2.442  -0.395  1.00  0.00     0.164 C   
BRANCH  15  16
ATOM     16  C7  UNL     1      -1.215   1.810   0.051  1.00  0.00    -0.002 A   
ATOM     17  C8  UNL     1      -2.447   2.207  -0.522  1.00  0.00     0.012 A   
ATOM     18  C12 UNL     1      -1.198   0.801   1.035  1.00  0.00     0.045 A   
ATOM     19  C9  UNL     1      -3.647   1.601  -0.127  1.00  0.00     0.037 A   
ATOM     20  C11 UNL     1      -2.397   0.223   1.400  1.00  0.00     0.109 A   
ATOM     21  C10 UNL     1      -3.587   0.613   0.834  1.00  0.00     0.108 A   
ATOM     22  O1  UNL     1      -2.555  -0.765   2.322  1.00  0.00    -0.316 OA  
ATOM     23  O2  UNL     1      -4.646  -0.077   1.334  1.00  0.00    -0.316 OA  
ATOM     24  C13 UNL     1      -3.994  -0.926   2.307  1.00  0.00     0.337 C   
ENDBRANCH  15  16
ENDBRANCH  12  15
ENDBRANCH   7  12
ENDBRANCH   1   7
BRANCH   3  25
ATOM     25  C16 UNL     1       2.717  -2.531   1.094  1.00  0.00     0.172 C   
BRANCH  25  26
ATOM     26  C17 UNL     1       1.950  -2.393   2.383  1.00  0.00     0.007 A   
ATOM     27  C18 UNL     1       2.503  -1.727   3.489  1.00  0.00     0.010 A   
ATOM     28  C22 UNL     1       0.647  -2.895   2.479  1.00  0.00     0.130 A   
ATOM     29  C19 UNL     1       1.762  -1.579   4.667  1.00  0.00     0.032 A   
ATOM     30  C21 UNL     1      -0.107  -2.757   3.640  1.00  0.00     0.070 A   
ATOM     31  C20 UNL     1       0.458  -2.094   4.737  1.00  0.00     0.121 A   
ATOM     32  F1  UNL     1       0.099  -3.507   1.419  1.00  0.00    -0.207 F   
BRANCH  31  33
ATOM     33  N3  UNL     1      -0.328  -1.924   5.966  1.00  0.00     0.092 N   
ATOM     34  O3  UNL     1       0.189  -1.290   6.899  1.00  0.00    -0.138 OA  
ATOM     35  O4  UNL     1      -1.462  -2.420   5.989  1.00  0.00    -0.138 OA  
ENDBRANCH  31  33
ENDBRANCH  25  26
ENDBRANCH   3  25
TORSDOF 8
