REMARK SMILES CC(C)[C@H]([NH2+]Cc1ccc2c(c1)OCO2)c1cn(Cc2cccc(N)c2)nn1
REMARK SMILES IDX 16 1 17 2 18 3 27 4 28 5 4 7 2 8 1 9 3 10 5 11 6 14 7 15
REMARK SMILES IDX 8 16 12 17 9 18 11 19 10 20 13 21 15 22 14 23 19 24 20 25
REMARK SMILES IDX 21 26 26 27 22 28 24 29 23 30 25 31
REMARK H PARENT 17 6 5 12 5 13 25 32 25 33
ROOT
ATOM     1   C13 UNL     1       0.593   0.030  -1.657  1.00  0.00     0.127 A   
ATOM     2   C14 UNL     1      -0.137  -1.050  -1.213  1.00  0.00     0.046 A   
ATOM     3   N2  UNL     1       0.659  -2.125  -1.501  1.00  0.00    -0.208 N   
ATOM     4   N4  UNL     1       1.773  -1.736  -2.151  1.00  0.00    -0.076 NA  
ATOM     5   N5  UNL     1       1.744  -0.417  -2.251  1.00  0.00    -0.132 NA  
ATOM     6   H18 UNL     1      -1.065  -1.144  -0.666  1.00  0.00     0.083 HD  
ENDROOT
BRANCH   1   7
ATOM     7   C4  UNL     1       0.368   1.493  -1.466  1.00  0.00     0.117 C   
BRANCH   7   8
ATOM     8   C2  UNL     1      -0.294   2.163  -2.700  1.00  0.00     0.037 C   
ATOM     9   C1  UNL     1      -0.823   3.563  -2.364  1.00  0.00     0.014 C   
ATOM     10  C3  UNL     1       0.606   2.241  -3.938  1.00  0.00     0.014 C   
ENDBRANCH   7   8
BRANCH   7  11
ATOM     11  N1  UNL     1       1.657   2.198  -1.107  1.00  0.00     0.249 N   
ATOM     12  H9  UNL     1       2.314   2.022  -1.878  1.00  0.00     0.199 HD  
ATOM     13  H10 UNL     1       1.506   3.207  -1.052  1.00  0.00     0.199 HD  
BRANCH  11  14
ATOM     14  C5  UNL     1       2.343   1.740   0.144  1.00  0.00     0.164 C   
BRANCH  14  15
ATOM     15  C6  UNL     1       1.481   1.814   1.373  1.00  0.00    -0.002 A   
ATOM     16  C7  UNL     1       1.063   0.624   2.018  1.00  0.00     0.012 A   
ATOM     17  C11 UNL     1       1.062   3.056   1.878  1.00  0.00     0.045 A   
ATOM     18  C8  UNL     1       0.230   0.665   3.140  1.00  0.00     0.037 A   
ATOM     19  C10 UNL     1       0.240   3.062   2.987  1.00  0.00     0.109 A   
ATOM     20  C9  UNL     1      -0.166   1.901   3.599  1.00  0.00     0.108 A   
ATOM     21  O1  UNL     1      -0.259   4.171   3.592  1.00  0.00    -0.316 OA  
ATOM     22  O2  UNL     1      -0.972   2.135   4.668  1.00  0.00    -0.316 OA  
ATOM     23  C12 UNL     1      -1.002   3.578   4.681  1.00  0.00     0.337 C   
ENDBRANCH  14  15
ENDBRANCH  11  14
ENDBRANCH   7  11
ENDBRANCH   1   7
BRANCH   3  24
ATOM     24  C15 UNL     1       0.492  -3.499  -1.058  1.00  0.00     0.169 C   
BRANCH  24  25
ATOM     25  C16 UNL     1       0.896  -3.620   0.392  1.00  0.00    -0.027 A   
ATOM     26  C17 UNL     1       2.241  -3.798   0.739  1.00  0.00     0.005 A   
ATOM     27  C21 UNL     1      -0.057  -3.467   1.415  1.00  0.00     0.028 A   
ATOM     28  C18 UNL     1       2.625  -3.799   2.078  1.00  0.00     0.002 A   
ATOM     29  C20 UNL     1       0.315  -3.514   2.762  1.00  0.00     0.024 A   
ATOM     30  C19 UNL     1       1.668  -3.631   3.080  1.00  0.00     0.023 A   
BRANCH  29  31
ATOM     31  N3  UNL     1      -0.621  -3.209   3.758  1.00  0.00    -0.358 N   
ATOM     32  H24 UNL     1      -1.571  -3.490   3.530  1.00  0.00     0.143 HD  
ATOM     33  H25 UNL     1      -0.353  -3.550   4.679  1.00  0.00     0.143 HD  
ENDBRANCH  29  31
ENDBRANCH  24  25
ENDBRANCH   3  24
TORSDOF 8
