REMARK SMILES CCn1ccc(CCn2cc([C@@H]([NH2+]Cc3ccc4c(c3)OCO4)C(C)C)nn2)n1
REMARK SMILES IDX 9 1 10 2 11 3 27 4 28 5 8 7 7 8 6 9 3 10 4 11 29 12 5 13
REMARK SMILES IDX 2 14 1 15 12 16 13 17 14 20 15 21 16 22 20 23 17 24 19 25
REMARK SMILES IDX 18 26 21 27 23 28 22 29 24 30 25 31 26 32
REMARK H PARENT 10 6 13 18 13 19
ROOT
ATOM     1   N2  UNL     1       0.370  -0.020   2.322  1.00  0.00    -0.212 N   
ATOM     2   C8  UNL     1       0.867  -0.611   1.195  1.00  0.00     0.045 A   
ATOM     3   C9  UNL     1       0.086  -0.102   0.183  1.00  0.00     0.127 A   
ATOM     4   N4  UNL     1      -0.871   0.722   0.723  1.00  0.00    -0.132 NA  
ATOM     5   N5  UNL     1      -0.700   0.748   2.034  1.00  0.00    -0.076 NA  
ATOM     6   H12 UNL     1       1.726  -1.270   1.223  1.00  0.00     0.083 HD  
ENDROOT
BRANCH   1   7
ATOM     7   C7  UNL     1       0.850  -0.145   3.682  1.00  0.00     0.140 C   
BRANCH   7   8
ATOM     8   C6  UNL     1       1.647   1.074   4.141  1.00  0.00     0.079 C   
BRANCH   8   9
ATOM     9   C5  UNL     1       2.890   1.325   3.349  1.00  0.00     0.062 A   
ATOM     10  N1  UNL     1       4.682   0.917   2.293  1.00  0.00    -0.233 N   
ATOM     11  C3  UNL     1       4.588   2.278   2.295  1.00  0.00     0.097 A   
ATOM     12  N6  UNL     1       3.637   0.309   2.893  1.00  0.00    -0.187 NA  
ATOM     13  C4  UNL     1       3.436   2.579   2.982  1.00  0.00     0.042 A   
BRANCH  10  14
ATOM     14  C2  UNL     1       5.750   0.120   1.719  1.00  0.00     0.128 C   
ATOM     15  C1  UNL     1       5.384  -0.420   0.348  1.00  0.00     0.027 C   
ENDBRANCH  10  14
ENDBRANCH   8   9
ENDBRANCH   7   8
ENDBRANCH   1   7
BRANCH   3  16
ATOM     16  C10 UNL     1       0.142  -0.308  -1.296  1.00  0.00     0.117 C   
BRANCH  16  17
ATOM     17  N3  UNL     1      -1.161   0.094  -1.934  1.00  0.00     0.249 N   
ATOM     18  H14 UNL     1      -1.451   0.974  -1.478  1.00  0.00     0.199 HD  
ATOM     19  H15 UNL     1      -1.059   0.305  -2.930  1.00  0.00     0.199 HD  
BRANCH  17  20
ATOM     20  C11 UNL     1      -2.279  -0.875  -1.754  1.00  0.00     0.164 C   
BRANCH  20  21
ATOM     21  C12 UNL     1      -3.532  -0.353  -2.401  1.00  0.00    -0.002 A   
ATOM     22  C13 UNL     1      -3.883  -0.754  -3.711  1.00  0.00     0.012 A   
ATOM     23  C17 UNL     1      -4.336   0.579  -1.721  1.00  0.00     0.045 A   
ATOM     24  C14 UNL     1      -5.026  -0.243  -4.335  1.00  0.00     0.037 A   
ATOM     25  C16 UNL     1      -5.455   1.064  -2.366  1.00  0.00     0.109 A   
ATOM     26  C15 UNL     1      -5.791   0.665  -3.636  1.00  0.00     0.108 A   
ATOM     27  O1  UNL     1      -6.335   1.966  -1.856  1.00  0.00    -0.316 OA  
ATOM     28  O2  UNL     1      -6.926   1.261  -4.084  1.00  0.00    -0.316 OA  
ATOM     29  C18 UNL     1      -7.280   2.075  -2.945  1.00  0.00     0.337 C   
ENDBRANCH  20  21
ENDBRANCH  17  20
ENDBRANCH  16  17
BRANCH  16  30
ATOM     30  C19 UNL     1       1.321   0.465  -1.947  1.00  0.00     0.037 C   
ATOM     31  C20 UNL     1       1.570   0.011  -3.390  1.00  0.00     0.014 C   
ATOM     32  C21 UNL     1       1.161   1.990  -1.904  1.00  0.00     0.014 C   
ENDBRANCH  16  30
ENDBRANCH   3  16
TORSDOF 9
