REMARK SMILES Cc1cc([C@@H](CO)n2cc([C@@H]([NH2+]Cc3ccc4c(c3)OCO4)C(C)C)nn2)ccn1
REMARK SMILES IDX 8 1 9 2 10 3 26 4 27 5 5 7 4 8 2 9 3 10 30 11 29 12 28 13
REMARK SMILES IDX 1 14 6 15 7 16 11 18 12 19 13 22 14 23 15 24 19 25 16 26
REMARK SMILES IDX 18 27 17 28 20 29 22 30 21 31 23 32 24 33 25 34
REMARK H PARENT 9 6 7 17 12 20 12 21
ROOT
ATOM     1   N1  UNL     1       1.794  -0.005   1.508  1.00  0.00    -0.202 N   
ATOM     2   C7  UNL     1       0.618   0.575   1.901  1.00  0.00     0.046 A   
ATOM     3   C8  UNL     1       0.099  -0.298   2.828  1.00  0.00     0.127 A   
ATOM     4   N3  UNL     1       0.966  -1.346   2.992  1.00  0.00    -0.132 NA  
ATOM     5   N4  UNL     1       1.994  -1.161   2.178  1.00  0.00    -0.075 NA  
ATOM     6   H9  UNL     1       0.253   1.494   1.462  1.00  0.00     0.083 HD  
ENDROOT
BRANCH   1   7
ATOM     7   C5  UNL     1       2.672   0.370   0.400  1.00  0.00     0.155 C   
BRANCH   7   8
ATOM     8   C4  UNL     1       1.910   0.230  -0.913  1.00  0.00    -0.020 A   
ATOM     9   C2  UNL     1       0.472   1.057  -2.668  1.00  0.00     0.038 A   
ATOM     10  C3  UNL     1       1.218   1.290  -1.514  1.00  0.00     0.029 A   
ATOM     11  N5  UNL     1       0.376  -0.165  -3.237  1.00  0.00    -0.262 NA  
ATOM     12  C22 UNL     1       1.066  -1.174  -2.671  1.00  0.00     0.111 A   
ATOM     13  C21 UNL     1       1.827  -1.030  -1.524  1.00  0.00     0.026 A   
ATOM     14  C1  UNL     1      -0.280   2.180  -3.319  1.00  0.00     0.067 C   
ENDBRANCH   7   8
BRANCH   7  15
ATOM     15  C6  UNL     1       3.403   1.704   0.657  1.00  0.00     0.185 C   
BRANCH  15  16
ATOM     16  O1  UNL     1       2.521   2.803   0.882  1.00  0.00    -0.394 OA  
ATOM     17  H8  UNL     1       3.080   3.594   1.010  1.00  0.00     0.210 HD  
ENDBRANCH  15  16
ENDBRANCH   7  15
ENDBRANCH   1   7
BRANCH   3  18
ATOM     18  C9  UNL     1      -1.227  -0.298   3.510  1.00  0.00     0.117 C   
BRANCH  18  19
ATOM     19  N2  UNL     1      -1.831  -1.688   3.521  1.00  0.00     0.249 N   
ATOM     20  H11 UNL     1      -1.169  -2.297   4.019  1.00  0.00     0.199 HD  
ATOM     21  H12 UNL     1      -2.705  -1.679   4.054  1.00  0.00     0.199 HD  
BRANCH  19  22
ATOM     22  C10 UNL     1      -2.070  -2.328   2.188  1.00  0.00     0.164 C   
BRANCH  22  23
ATOM     23  C11 UNL     1      -2.912  -1.508   1.253  1.00  0.00    -0.002 A   
ATOM     24  C12 UNL     1      -2.342  -0.977   0.069  1.00  0.00     0.012 A   
ATOM     25  C16 UNL     1      -4.262  -1.247   1.546  1.00  0.00     0.045 A   
ATOM     26  C13 UNL     1      -3.098  -0.190  -0.806  1.00  0.00     0.037 A   
ATOM     27  C15 UNL     1      -4.977  -0.464   0.663  1.00  0.00     0.109 A   
ATOM     28  C14 UNL     1      -4.413   0.051  -0.479  1.00  0.00     0.108 A   
ATOM     29  O2  UNL     1      -6.282  -0.111   0.802  1.00  0.00    -0.316 OA  
ATOM     30  O3  UNL     1      -5.291   0.792  -1.202  1.00  0.00    -0.316 OA  
ATOM     31  C17 UNL     1      -6.488   0.659  -0.405  1.00  0.00     0.337 C   
ENDBRANCH  22  23
ENDBRANCH  19  22
ENDBRANCH  18  19
BRANCH  18  32
ATOM     32  C18 UNL     1      -1.199   0.242   4.965  1.00  0.00     0.037 C   
ATOM     33  C19 UNL     1      -0.817   1.727   5.001  1.00  0.00     0.014 C   
ATOM     34  C20 UNL     1      -0.296  -0.544   5.922  1.00  0.00     0.014 C   
ENDBRANCH  18  32
ENDBRANCH   3  18
TORSDOF 9
