REMARK SMILES Cc1cc([C@H](CO)n2cc([C@@H]([NH2+]Cc3ccc4c(c3)OCO4)C(C)C)nn2)ccn1
REMARK SMILES IDX 8 1 9 2 10 3 26 4 27 5 5 7 4 8 2 9 3 10 30 11 29 12 28 13
REMARK SMILES IDX 1 14 6 15 7 16 11 18 12 19 13 22 14 23 15 24 19 25 16 26
REMARK SMILES IDX 18 27 17 28 20 29 22 30 21 31 23 32 24 33 25 34
REMARK H PARENT 9 6 7 17 12 20 12 21
ROOT
ATOM     1   N1  UNL     1      -0.427  -0.389  -0.349  1.00  0.00    -0.202 N   
ATOM     2   C7  UNL     1       0.905  -0.451  -0.040  1.00  0.00     0.046 A   
ATOM     3   C8  UNL     1       0.930  -0.479   1.334  1.00  0.00     0.127 A   
ATOM     4   N3  UNL     1      -0.355  -0.432   1.810  1.00  0.00    -0.132 NA  
ATOM     5   N4  UNL     1      -1.176  -0.382   0.774  1.00  0.00    -0.075 NA  
ATOM     6   H9  UNL     1       1.673  -0.442  -0.802  1.00  0.00     0.083 HD  
ENDROOT
BRANCH   1   7
ATOM     7   C5  UNL     1      -1.069  -0.310  -1.663  1.00  0.00     0.155 C   
BRANCH   7   8
ATOM     8   C4  UNL     1      -0.545  -1.402  -2.586  1.00  0.00    -0.020 A   
ATOM     9   C2  UNL     1       0.810  -2.227  -4.407  1.00  0.00     0.038 A   
ATOM     10  C3  UNL     1       0.361  -1.162  -3.626  1.00  0.00     0.029 A   
ATOM     11  N5  UNL     1       0.409  -3.500  -4.199  1.00  0.00    -0.262 NA  
ATOM     12  C22 UNL     1      -0.469  -3.723  -3.203  1.00  0.00     0.111 A   
ATOM     13  C21 UNL     1      -0.964  -2.725  -2.381  1.00  0.00     0.026 A   
ATOM     14  C1  UNL     1       1.779  -1.985  -5.526  1.00  0.00     0.067 C   
ENDBRANCH   7   8
BRANCH   7  15
ATOM     15  C6  UNL     1      -1.055   1.141  -2.187  1.00  0.00     0.185 C   
BRANCH  15  16
ATOM     16  O1  UNL     1       0.263   1.677  -2.318  1.00  0.00    -0.394 OA  
ATOM     17  H8  UNL     1       0.163   2.630  -2.504  1.00  0.00     0.210 HD  
ENDBRANCH  15  16
ENDBRANCH   7  15
ENDBRANCH   1   7
BRANCH   3  18
ATOM     18  C9  UNL     1       2.071  -0.472   2.298  1.00  0.00     0.117 C   
BRANCH  18  19
ATOM     19  N2  UNL     1       1.715   0.369   3.504  1.00  0.00     0.249 N   
ATOM     20  H11 UNL     1       0.684   0.343   3.567  1.00  0.00     0.199 HD  
ATOM     21  H12 UNL     1       2.057  -0.060   4.368  1.00  0.00     0.199 HD  
BRANCH  19  22
ATOM     22  C10 UNL     1       2.147   1.795   3.467  1.00  0.00     0.164 C   
BRANCH  22  23
ATOM     23  C11 UNL     1       1.536   2.596   2.350  1.00  0.00    -0.002 A   
ATOM     24  C12 UNL     1       2.308   2.950   1.218  1.00  0.00     0.012 A   
ATOM     25  C16 UNL     1       0.181   2.966   2.404  1.00  0.00     0.045 A   
ATOM     26  C13 UNL     1       1.738   3.645   0.146  1.00  0.00     0.037 A   
ATOM     27  C15 UNL     1      -0.349   3.655   1.332  1.00  0.00     0.109 A   
ATOM     28  C14 UNL     1       0.405   3.979   0.232  1.00  0.00     0.108 A   
ATOM     29  O2  UNL     1      -1.635   4.077   1.222  1.00  0.00    -0.316 OA  
ATOM     30  O3  UNL     1      -0.317   4.630  -0.719  1.00  0.00    -0.316 OA  
ATOM     31  C17 UNL     1      -1.592   4.759  -0.050  1.00  0.00     0.337 C   
ENDBRANCH  22  23
ENDBRANCH  19  22
ENDBRANCH  18  19
BRANCH  18  32
ATOM     32  C18 UNL     1       2.487  -1.903   2.730  1.00  0.00     0.037 C   
ATOM     33  C19 UNL     1       1.435  -2.642   3.565  1.00  0.00     0.014 C   
ATOM     34  C20 UNL     1       3.828  -1.895   3.476  1.00  0.00     0.014 C   
ENDBRANCH  18  32
ENDBRANCH   3  18
TORSDOF 9
