REMARK SMILES Cc1cc(Cn2cc([C@@H]([NH2+]Cc3ccc4c(c3)OCO4)C3CCCCC3)nn2)c(C)o1
REMARK SMILES IDX 6 1 7 2 8 3 27 4 28 5 5 7 4 8 2 9 3 10 31 11 29 12 1 13
REMARK SMILES IDX 30 14 9 15 10 16 11 19 12 20 13 21 17 22 14 23 16 24 15 25
REMARK SMILES IDX 18 26 20 27 19 28 21 29 22 30 26 31 23 32 25 33 24 34
REMARK H PARENT 7 6 10 17 10 18
ROOT
ATOM     1   N1  UNL     1       3.279   0.771   0.223  1.00  0.00    -0.208 N   
ATOM     2   C6  UNL     1       2.074   0.213  -0.113  1.00  0.00     0.046 A   
ATOM     3   C7  UNL     1       1.139   1.113   0.347  1.00  0.00     0.127 A   
ATOM     4   N3  UNL     1       1.785   2.148   0.971  1.00  0.00    -0.132 NA  
ATOM     5   N4  UNL     1       3.087   1.933   0.884  1.00  0.00    -0.076 NA  
ATOM     6   H7  UNL     1       1.994  -0.730  -0.638  1.00  0.00     0.083 HD  
ENDROOT
BRANCH   1   7
ATOM     7   C5  UNL     1       4.640   0.326  -0.056  1.00  0.00     0.172 C   
BRANCH   7   8
ATOM     8   C4  UNL     1       4.709  -1.099  -0.485  1.00  0.00     0.000 A   
ATOM     9   C2  UNL     1       4.808  -2.961  -1.744  1.00  0.00     0.056 A   
ATOM     10  C3  UNL     1       4.771  -1.586  -1.824  1.00  0.00     0.037 A   
ATOM     11  O3  UNL     1       4.774  -3.351  -0.443  1.00  0.00    -0.319 OA  
ATOM     12  C23 UNL     1       4.736  -2.226   0.320  1.00  0.00     0.061 A   
ATOM     13  C1  UNL     1       4.876  -4.038  -2.752  1.00  0.00     0.073 C   
ATOM     14  C24 UNL     1       4.727  -2.449   1.782  1.00  0.00     0.073 C   
ENDBRANCH   7   8
ENDBRANCH   1   7
BRANCH   3  15
ATOM     15  C8  UNL     1      -0.360   1.083   0.328  1.00  0.00     0.117 C   
BRANCH  15  16
ATOM     16  N2  UNL     1      -0.846   1.793   1.573  1.00  0.00     0.249 N   
ATOM     17  H9  UNL     1      -0.514   2.766   1.530  1.00  0.00     0.199 HD  
ATOM     18  H10 UNL     1      -0.307   1.396   2.354  1.00  0.00     0.199 HD  
BRANCH  16  19
ATOM     19  C9  UNL     1      -2.287   1.741   1.925  1.00  0.00     0.164 C   
BRANCH  19  20
ATOM     20  C10 UNL     1      -2.792   0.344   2.155  1.00  0.00    -0.002 A   
ATOM     21  C11 UNL     1      -3.613  -0.289   1.190  1.00  0.00     0.012 A   
ATOM     22  C15 UNL     1      -2.431  -0.355   3.320  1.00  0.00     0.045 A   
ATOM     23  C12 UNL     1      -4.067  -1.599   1.380  1.00  0.00     0.037 A   
ATOM     24  C14 UNL     1      -2.901  -1.643   3.478  1.00  0.00     0.109 A   
ATOM     25  C13 UNL     1      -3.696  -2.247   2.537  1.00  0.00     0.108 A   
ATOM     26  O1  UNL     1      -2.655  -2.448   4.544  1.00  0.00    -0.316 OA  
ATOM     27  O2  UNL     1      -4.053  -3.508   2.891  1.00  0.00    -0.316 OA  
ATOM     28  C16 UNL     1      -3.412  -3.625   4.180  1.00  0.00     0.337 C   
ENDBRANCH  19  20
ENDBRANCH  16  19
ENDBRANCH  15  16
BRANCH  15  29
ATOM     29  C17 UNL     1      -0.990   1.705  -0.948  1.00  0.00     0.043 C   
ATOM     30  C18 UNL     1      -0.610   3.178  -1.191  1.00  0.00     0.010 C   
ATOM     31  C22 UNL     1      -0.677   0.861  -2.200  1.00  0.00     0.010 C   
ATOM     32  C19 UNL     1      -1.284   3.736  -2.445  1.00  0.00     0.001 C   
ATOM     33  C21 UNL     1      -1.361   1.423  -3.445  1.00  0.00     0.001 C   
ATOM     34  C20 UNL     1      -0.990   2.883  -3.675  1.00  0.00     0.000 C   
ENDBRANCH  15  29
ENDBRANCH   3  15
TORSDOF 7
