REMARK SMILES CC(C)[C@H]([NH2+]Cc1ccc2c(c1)OCO2)c1cn(-c2nnc(C(F)(F)F)[nH]2)nn1
REMARK SMILES IDX 16 1 17 2 18 3 28 4 29 5 4 6 2 7 1 8 3 9 5 10 6 13 7 14 8 15
REMARK SMILES IDX 12 16 9 17 11 18 10 19 13 20 15 21 14 22 19 23 20 24 27 25
REMARK SMILES IDX 21 26 22 27 23 29 24 30 25 31 26 32
REMARK H PARENT 5 11 5 12 27 28
ROOT
ATOM     1   C13 UNL     1      -0.127   0.953   0.364  1.00  0.00     0.128 A   
ATOM     2   C14 UNL     1      -1.395   0.427   0.473  1.00  0.00     0.138 A   
ATOM     3   N2  UNL     1      -1.466  -0.503  -0.535  1.00  0.00    -0.148 N   
ATOM     4   N6  UNL     1      -0.341  -0.464  -1.286  1.00  0.00    -0.068 NA  
ATOM     5   N7  UNL     1       0.492   0.406  -0.732  1.00  0.00    -0.131 NA  
ENDROOT
BRANCH   1   6
ATOM     6   C4  UNL     1       0.636   1.857   1.284  1.00  0.00     0.117 C   
BRANCH   6   7
ATOM     7   C2  UNL     1       0.672   3.322   0.777  1.00  0.00     0.037 C   
ATOM     8   C1  UNL     1       1.519   3.536  -0.483  1.00  0.00     0.014 C   
ATOM     9   C3  UNL     1       1.138   4.284   1.878  1.00  0.00     0.014 C   
ENDBRANCH   6   7
BRANCH   6  10
ATOM     10  N1  UNL     1       2.040   1.328   1.494  1.00  0.00     0.249 N   
ATOM     11  H9  UNL     1       2.325   0.900   0.600  1.00  0.00     0.199 HD  
ATOM     12  H10 UNL     1       2.694   2.098   1.662  1.00  0.00     0.199 HD  
BRANCH  10  13
ATOM     13  C5  UNL     1       2.221   0.314   2.581  1.00  0.00     0.164 C   
BRANCH  13  14
ATOM     14  C6  UNL     1       1.471  -0.968   2.347  1.00  0.00    -0.002 A   
ATOM     15  C7  UNL     1       1.915  -1.889   1.367  1.00  0.00     0.012 A   
ATOM     16  C11 UNL     1       0.277  -1.224   3.043  1.00  0.00     0.045 A   
ATOM     17  C8  UNL     1       1.158  -3.024   1.051  1.00  0.00     0.037 A   
ATOM     18  C10 UNL     1      -0.452  -2.343   2.696  1.00  0.00     0.109 A   
ATOM     19  C9  UNL     1      -0.029  -3.213   1.722  1.00  0.00     0.108 A   
ATOM     20  O1  UNL     1      -1.654  -2.694   3.221  1.00  0.00    -0.316 OA  
ATOM     21  O2  UNL     1      -0.916  -4.218   1.505  1.00  0.00    -0.316 OA  
ATOM     22  C12 UNL     1      -1.945  -3.894   2.468  1.00  0.00     0.337 C   
ENDBRANCH  13  14
ENDBRANCH  10  13
ENDBRANCH   6  10
ENDBRANCH   1   6
BRANCH   3  23
ATOM     23  C15 UNL     1      -2.429  -1.448  -0.799  1.00  0.00     0.233 A   
ATOM     24  N3  UNL     1      -3.518  -1.629  -0.090  1.00  0.00    -0.114 NA  
ATOM     25  N5  UNL     1      -2.368  -2.364  -1.808  1.00  0.00    -0.263 N   
ATOM     26  N4  UNL     1      -4.187  -2.700  -0.638  1.00  0.00    -0.126 NA  
ATOM     27  C16 UNL     1      -3.492  -3.141  -1.672  1.00  0.00     0.229 A   
ATOM     28  H19 UNL     1      -1.632  -2.461  -2.497  1.00  0.00     0.157 HD  
BRANCH  27  29
ATOM     29  C17 UNL     1      -3.776  -4.270  -2.591  1.00  0.00     0.449 C   
ATOM     30  F1  UNL     1      -2.768  -5.180  -2.565  1.00  0.00    -0.163 F   
ATOM     31  F2  UNL     1      -4.922  -4.928  -2.303  1.00  0.00    -0.163 F   
ATOM     32  F3  UNL     1      -3.866  -3.839  -3.876  1.00  0.00    -0.163 F   
ENDBRANCH  27  29
ENDBRANCH   3  23
TORSDOF 7
