REMARK SMILES Cc1ccc(CCn2cc([C@@H]([NH2+]Cc3ccc4c(c3)OCO4)C(C)C)nn2)c(F)c1
REMARK SMILES IDX 8 1 9 2 10 3 26 4 27 5 7 7 6 8 5 9 2 10 3 11 30 12 4 13
REMARK SMILES IDX 28 14 1 15 29 16 11 17 12 18 13 21 14 22 15 23 19 24 16 25
REMARK SMILES IDX 18 26 17 27 20 28 22 29 21 30 23 31 24 32 25 33
REMARK H PARENT 9 6 12 19 12 20
ROOT
ATOM     1   N1  UNL     1       0.123   0.844   3.448  1.00  0.00    -0.212 N   
ATOM     2   C8  UNL     1      -0.931   0.504   2.649  1.00  0.00     0.045 A   
ATOM     3   C9  UNL     1      -0.748  -0.841   2.416  1.00  0.00     0.127 A   
ATOM     4   N3  UNL     1       0.383  -1.261   3.067  1.00  0.00    -0.132 NA  
ATOM     5   N4  UNL     1       0.905  -0.221   3.697  1.00  0.00    -0.076 NA  
ATOM     6   H10 UNL     1      -1.663   1.226   2.314  1.00  0.00     0.083 HD  
ENDROOT
BRANCH   1   7
ATOM     7   C7  UNL     1       0.473   2.156   3.949  1.00  0.00     0.139 C   
BRANCH   7   8
ATOM     8   C6  UNL     1       1.727   2.736   3.288  1.00  0.00     0.060 C   
BRANCH   8   9
ATOM     9   C5  UNL     1       1.661   2.835   1.782  1.00  0.00    -0.011 A   
ATOM     10  C2  UNL     1       1.563   3.046  -1.033  1.00  0.00    -0.048 A   
ATOM     11  C3  UNL     1       2.570   2.300  -0.408  1.00  0.00     0.004 A   
ATOM     12  C23 UNL     1       0.613   3.698  -0.240  1.00  0.00     0.043 A   
ATOM     13  C4  UNL     1       2.617   2.192   0.986  1.00  0.00     0.007 A   
ATOM     14  C22 UNL     1       0.670   3.589   1.147  1.00  0.00     0.126 A   
ATOM     15  C1  UNL     1       1.546   3.192  -2.526  1.00  0.00     0.044 C   
ATOM     16  F1  UNL     1      -0.260   4.216   1.881  1.00  0.00    -0.207 F   
ENDBRANCH   8   9
ENDBRANCH   7   8
ENDBRANCH   1   7
BRANCH   3  17
ATOM     17  C10 UNL     1      -1.494  -1.793   1.542  1.00  0.00     0.117 C   
BRANCH  17  18
ATOM     18  N2  UNL     1      -0.523  -2.711   0.828  1.00  0.00     0.249 N   
ATOM     19  H12 UNL     1      -1.028  -3.483   0.384  1.00  0.00     0.199 HD  
ATOM     20  H13 UNL     1       0.082  -3.112   1.558  1.00  0.00     0.199 HD  
BRANCH  18  21
ATOM     21  C11 UNL     1       0.382  -2.068  -0.172  1.00  0.00     0.164 C   
BRANCH  21  22
ATOM     22  C12 UNL     1      -0.350  -1.529  -1.369  1.00  0.00    -0.002 A   
ATOM     23  C13 UNL     1      -0.829  -2.403  -2.373  1.00  0.00     0.012 A   
ATOM     24  C17 UNL     1      -0.596  -0.148  -1.479  1.00  0.00     0.045 A   
ATOM     25  C14 UNL     1      -1.544  -1.912  -3.471  1.00  0.00     0.037 A   
ATOM     26  C16 UNL     1      -1.306   0.302  -2.572  1.00  0.00     0.109 A   
ATOM     27  C15 UNL     1      -1.766  -0.554  -3.540  1.00  0.00     0.108 A   
ATOM     28  O1  UNL     1      -1.635   1.596  -2.823  1.00  0.00    -0.316 OA  
ATOM     29  O2  UNL     1      -2.441   0.092  -4.526  1.00  0.00    -0.316 OA  
ATOM     30  C18 UNL     1      -2.336   1.462  -4.080  1.00  0.00     0.337 C   
ENDBRANCH  21  22
ENDBRANCH  18  21
ENDBRANCH  17  18
BRANCH  17  31
ATOM     31  C19 UNL     1      -2.537  -2.664   2.290  1.00  0.00     0.037 C   
ATOM     32  C20 UNL     1      -1.952  -3.556   3.391  1.00  0.00     0.014 C   
ATOM     33  C21 UNL     1      -3.670  -1.807   2.868  1.00  0.00     0.014 C   
ENDBRANCH  17  31
ENDBRANCH   3  17
TORSDOF 8
