REMARK SMILES CC(C)C[C@H]([NH2+]Cc1ccc2c(c1)OCO2)c1cn(-c2cc(N([O-])[O-])ccc2F)nn1
REMARK SMILES IDX 17 1 18 2 19 3 30 4 31 5 5 6 4 7 2 8 1 9 3 10 6 11 7 14 8 15
REMARK SMILES IDX 9 16 13 17 10 18 12 19 11 20 14 21 16 22 15 23 20 24 21 25
REMARK SMILES IDX 28 26 22 27 27 28 26 29 29 30 23 31 24 32 25 33
REMARK H PARENT 6 12 6 13
ROOT
ATOM     1   C14 UNL     1       0.218   0.189  -0.377  1.00  0.00     0.127 A   
ATOM     2   C15 UNL     1       0.861  -0.655   0.502  1.00  0.00     0.135 A   
ATOM     3   N2  UNL     1       1.998  -1.075  -0.161  1.00  0.00    -0.178 N   
ATOM     4   N4  UNL     1       2.042  -0.455  -1.370  1.00  0.00    -0.071 NA  
ATOM     5   N5  UNL     1       0.964   0.297  -1.514  1.00  0.00    -0.131 NA  
ENDROOT
BRANCH   1   6
ATOM     6   C5  UNL     1      -1.051   0.965  -0.248  1.00  0.00     0.114 C   
BRANCH   6   7
ATOM     7   C4  UNL     1      -2.251   0.243  -0.893  1.00  0.00     0.064 C   
BRANCH   7   8
ATOM     8   C2  UNL     1      -2.640  -1.102  -0.242  1.00  0.00    -0.012 C   
ATOM     9   C1  UNL     1      -3.796  -1.736  -1.022  1.00  0.00     0.007 C   
ATOM     10  C3  UNL     1      -3.036  -0.947   1.227  1.00  0.00     0.007 C   
ENDBRANCH   7   8
ENDBRANCH   6   7
BRANCH   6  11
ATOM     11  N1  UNL     1      -0.923   2.303  -0.953  1.00  0.00     0.249 N   
ATOM     12  H11 UNL     1      -1.845   2.741  -1.042  1.00  0.00     0.199 HD  
ATOM     13  H12 UNL     1      -0.590   2.102  -1.906  1.00  0.00     0.199 HD  
BRANCH  11  14
ATOM     14  C6  UNL     1       0.024   3.288  -0.347  1.00  0.00     0.164 C   
BRANCH  14  15
ATOM     15  C7  UNL     1      -0.401   3.744   1.021  1.00  0.00    -0.002 A   
ATOM     16  C8  UNL     1       0.316   3.324   2.167  1.00  0.00     0.012 A   
ATOM     17  C12 UNL     1      -1.531   4.567   1.175  1.00  0.00     0.045 A   
ATOM     18  C9  UNL     1      -0.089   3.710   3.450  1.00  0.00     0.037 A   
ATOM     19  C11 UNL     1      -1.903   4.927   2.454  1.00  0.00     0.109 A   
ATOM     20  C10 UNL     1      -1.204   4.510   3.559  1.00  0.00     0.108 A   
ATOM     21  O1  UNL     1      -2.968   5.706   2.775  1.00  0.00    -0.316 OA  
ATOM     22  O2  UNL     1      -1.740   4.976   4.717  1.00  0.00    -0.316 OA  
ATOM     23  C13 UNL     1      -2.842   5.762   4.215  1.00  0.00     0.337 C   
ENDBRANCH  14  15
ENDBRANCH  11  14
ENDBRANCH   6  11
ENDBRANCH   1   6
BRANCH   3  24
ATOM     24  C16 UNL     1       3.018  -1.970   0.243  1.00  0.00     0.095 A   
ATOM     25  C17 UNL     1       4.090  -2.236  -0.632  1.00  0.00     0.060 A   
ATOM     26  C21 UNL     1       2.989  -2.601   1.490  1.00  0.00     0.146 A   
ATOM     27  C18 UNL     1       5.107  -3.124  -0.243  1.00  0.00     0.120 A   
ATOM     28  C20 UNL     1       4.001  -3.484   1.872  1.00  0.00     0.043 A   
ATOM     29  C19 UNL     1       5.065  -3.751   1.009  1.00  0.00     0.034 A   
ATOM     30  F1  UNL     1       1.999  -2.385   2.365  1.00  0.00    -0.205 F   
BRANCH  27  31
ATOM     31  N3  UNL     1       6.226  -3.397  -1.157  1.00  0.00     0.092 N   
ATOM     32  O3  UNL     1       6.245  -2.786  -2.234  1.00  0.00    -0.138 OA  
ATOM     33  O4  UNL     1       7.078  -4.217  -0.791  1.00  0.00    -0.138 OA  
ENDBRANCH  27  31
ENDBRANCH   3  24
TORSDOF 8
