REMARK SMILES COc1ccc(Cn2cc([C@@H]([NH2+]Cc3ccc4c(c3)OCO4)C(C)C)nn2)c(F)c1
REMARK SMILES IDX 8 1 9 2 10 3 26 4 27 5 7 7 6 8 3 9 4 10 30 11 5 12 28 13
REMARK SMILES IDX 29 14 2 15 1 16 11 17 12 18 13 21 14 22 15 23 19 24 16 25
REMARK SMILES IDX 18 26 17 27 20 28 22 29 21 30 23 31 24 32 25 33
REMARK H PARENT 9 6 12 19 12 20
ROOT
ATOM     1   N1  UNL     1       1.314  -0.910  -1.924  1.00  0.00    -0.208 N   
ATOM     2   C7  UNL     1       0.247  -1.753  -1.772  1.00  0.00     0.046 A   
ATOM     3   C8  UNL     1      -0.727  -0.960  -1.208  1.00  0.00     0.127 A   
ATOM     4   N3  UNL     1      -0.234   0.311  -1.048  1.00  0.00    -0.132 NA  
ATOM     5   N4  UNL     1       1.012   0.330  -1.489  1.00  0.00    -0.076 NA  
ATOM     6   H8  UNL     1       0.293  -2.798  -2.047  1.00  0.00     0.083 HD  
ENDROOT
BRANCH   1   7
ATOM     7   C6  UNL     1       2.635  -1.215  -2.447  1.00  0.00     0.172 C   
BRANCH   7   8
ATOM     8   C5  UNL     1       3.583  -1.577  -1.338  1.00  0.00     0.007 A   
ATOM     9   C2  UNL     1       5.310  -2.276   0.775  1.00  0.00     0.077 A   
ATOM     10  C3  UNL     1       5.373  -1.002   0.205  1.00  0.00     0.034 A   
ATOM     11  C22 UNL     1       4.379  -3.195   0.293  1.00  0.00     0.073 A   
ATOM     12  C4  UNL     1       4.513  -0.653  -0.844  1.00  0.00     0.011 A   
ATOM     13  C21 UNL     1       3.532  -2.844  -0.752  1.00  0.00     0.130 A   
ATOM     14  F1  UNL     1       2.638  -3.740  -1.194  1.00  0.00    -0.207 F   
BRANCH   9  15
ATOM     15  O1  UNL     1       6.082  -2.734   1.806  1.00  0.00    -0.349 OA  
ATOM     16  C1  UNL     1       7.157  -1.901   2.228  1.00  0.00     0.203 C   
ENDBRANCH   9  15
ENDBRANCH   7   8
ENDBRANCH   1   7
BRANCH   3  17
ATOM     17  C9  UNL     1      -2.100  -1.285  -0.717  1.00  0.00     0.117 C   
BRANCH  17  18
ATOM     18  N2  UNL     1      -2.426  -0.437   0.488  1.00  0.00     0.249 N   
ATOM     19  H10 UNL     1      -2.150   0.529   0.257  1.00  0.00     0.199 HD  
ATOM     20  H11 UNL     1      -3.434  -0.417   0.671  1.00  0.00     0.199 HD  
BRANCH  18  21
ATOM     21  C10 UNL     1      -1.707  -0.808   1.739  1.00  0.00     0.164 C   
BRANCH  21  22
ATOM     22  C11 UNL     1      -2.084   0.124   2.855  1.00  0.00    -0.002 A   
ATOM     23  C12 UNL     1      -1.383   1.340   3.033  1.00  0.00     0.012 A   
ATOM     24  C16 UNL     1      -3.169  -0.181   3.696  1.00  0.00     0.045 A   
ATOM     25  C13 UNL     1      -1.746   2.237   4.043  1.00  0.00     0.037 A   
ATOM     26  C15 UNL     1      -3.501   0.726   4.681  1.00  0.00     0.109 A   
ATOM     27  C14 UNL     1      -2.809   1.900   4.851  1.00  0.00     0.108 A   
ATOM     28  O2  UNL     1      -4.514   0.585   5.575  1.00  0.00    -0.316 OA  
ATOM     29  O3  UNL     1      -3.297   2.644   5.877  1.00  0.00    -0.316 OA  
ATOM     30  C17 UNL     1      -4.367   1.798   6.349  1.00  0.00     0.337 C   
ENDBRANCH  21  22
ENDBRANCH  18  21
ENDBRANCH  17  18
BRANCH  17  31
ATOM     31  C18 UNL     1      -3.218  -1.089  -1.772  1.00  0.00     0.037 C   
ATOM     32  C19 UNL     1      -3.066  -2.066  -2.944  1.00  0.00     0.014 C   
ATOM     33  C20 UNL     1      -3.339   0.343  -2.306  1.00  0.00     0.014 C   
ENDBRANCH  17  31
ENDBRANCH   3  17
TORSDOF 8
