REMARK SMILES Cc1cncc(CCn2cc([C@@H]([NH2+]Cc3ccc4c(c3)OCO4)C(C)(C)C)nn2)c1
REMARK SMILES IDX 9 1 10 2 11 3 28 4 29 5 8 7 7 8 6 9 2 10 3 11 30 12 4 13
REMARK SMILES IDX 5 14 1 15 12 16 13 17 14 20 15 21 16 22 20 23 17 24 19 25
REMARK SMILES IDX 18 26 21 27 23 28 22 29 24 30 25 31 26 32 27 33
REMARK H PARENT 10 6 13 18 13 19
ROOT
ATOM     1   N2  UNL     1      -0.225   1.463   3.015  1.00  0.00    -0.212 N   
ATOM     2   C8  UNL     1      -0.194   0.391   2.162  1.00  0.00     0.045 A   
ATOM     3   C9  UNL     1      -0.579   0.916   0.946  1.00  0.00     0.127 A   
ATOM     4   N4  UNL     1      -0.963   2.222   1.142  1.00  0.00    -0.132 NA  
ATOM     5   N5  UNL     1      -0.734   2.545   2.405  1.00  0.00    -0.076 NA  
ATOM     6   H10 UNL     1       0.215  -0.559   2.471  1.00  0.00     0.083 HD  
ENDROOT
BRANCH   1   7
ATOM     7   C7  UNL     1       0.514   1.597   4.259  1.00  0.00     0.139 C   
BRANCH   7   8
ATOM     8   C6  UNL     1       1.895   2.252   4.057  1.00  0.00     0.058 C   
BRANCH   8   9
ATOM     9   C5  UNL     1       2.714   1.563   2.989  1.00  0.00    -0.028 A   
ATOM     10  C2  UNL     1       4.091  -0.262   2.208  1.00  0.00    -0.032 A   
ATOM     11  C3  UNL     1       3.876   0.202   0.914  1.00  0.00     0.114 A   
ATOM     12  C23 UNL     1       3.463   0.418   3.256  1.00  0.00     0.010 A   
ATOM     13  N1  UNL     1       3.112   1.281   0.603  1.00  0.00    -0.264 NA  
ATOM     14  C4  UNL     1       2.628   1.980   1.661  1.00  0.00     0.114 A   
ATOM     15  C1  UNL     1       4.910  -1.489   2.463  1.00  0.00     0.046 C   
ENDBRANCH   8   9
ENDBRANCH   7   8
ENDBRANCH   1   7
BRANCH   3  16
ATOM     16  C10 UNL     1      -0.489   0.399  -0.464  1.00  0.00     0.120 C   
BRANCH  16  17
ATOM     17  N3  UNL     1       0.799   0.894  -1.100  1.00  0.00     0.250 N   
ATOM     18  H12 UNL     1       1.094   0.291  -1.869  1.00  0.00     0.199 HD  
ATOM     19  H13 UNL     1       1.565   0.846  -0.400  1.00  0.00     0.199 HD  
BRANCH  17  20
ATOM     20  C11 UNL     1       0.795   2.300  -1.606  1.00  0.00     0.164 C   
BRANCH  20  21
ATOM     21  C12 UNL     1      -0.064   2.475  -2.828  1.00  0.00    -0.002 A   
ATOM     22  C13 UNL     1      -1.313   3.134  -2.733  1.00  0.00     0.012 A   
ATOM     23  C17 UNL     1       0.351   1.956  -4.067  1.00  0.00     0.045 A   
ATOM     24  C14 UNL     1      -2.143   3.268  -3.852  1.00  0.00     0.037 A   
ATOM     25  C16 UNL     1      -0.490   2.104  -5.149  1.00  0.00     0.109 A   
ATOM     26  C15 UNL     1      -1.703   2.739  -5.045  1.00  0.00     0.108 A   
ATOM     27  O1  UNL     1      -0.244   1.656  -6.408  1.00  0.00    -0.316 OA  
ATOM     28  O2  UNL     1      -2.373   2.773  -6.226  1.00  0.00    -0.316 OA  
ATOM     29  C18 UNL     1      -1.431   2.110  -7.097  1.00  0.00     0.337 C   
ENDBRANCH  20  21
ENDBRANCH  17  20
ENDBRANCH  16  17
BRANCH  16  30
ATOM     30  C19 UNL     1      -0.641  -1.148  -0.683  1.00  0.00     0.010 C   
ATOM     31  C20 UNL     1      -1.883  -1.686   0.063  1.00  0.00     0.017 C   
ATOM     32  C21 UNL     1      -0.881  -1.430  -2.190  1.00  0.00     0.017 C   
ATOM     33  C22 UNL     1       0.596  -1.961  -0.253  1.00  0.00     0.017 C   
ENDBRANCH  16  30
ENDBRANCH   3  16
TORSDOF 8
