REMARK SMILES CC(C)(C)[C@H]([NH2+]Cc1ccc2c(c1)OCO2)c1cn(CCc2ccco2)nn1
REMARK SMILES IDX 17 1 18 2 19 3 27 4 28 5 5 7 2 8 1 9 3 10 4 11 6 12 7 15
REMARK SMILES IDX 8 16 9 17 13 18 10 19 12 20 11 21 14 22 16 23 15 24 20 25
REMARK SMILES IDX 21 26 22 27 23 28 26 29 24 30 25 31
REMARK H PARENT 18 6 6 13 6 14
ROOT
ATOM     1   C14 UNL     1       1.270   0.632   1.835  1.00  0.00     0.127 A   
ATOM     2   C15 UNL     1       0.024   0.941   2.334  1.00  0.00     0.045 A   
ATOM     3   N2  UNL     1       0.188   2.179   2.884  1.00  0.00    -0.212 N   
ATOM     4   N3  UNL     1       1.456   2.608   2.741  1.00  0.00    -0.076 NA  
ATOM     5   N4  UNL     1       2.131   1.667   2.103  1.00  0.00    -0.132 NA  
ATOM     6   H20 UNL     1      -0.931   0.433   2.322  1.00  0.00     0.083 HD  
ENDROOT
BRANCH   1   7
ATOM     7   C5  UNL     1       1.749  -0.533   1.025  1.00  0.00     0.120 C   
BRANCH   7   8
ATOM     8   C2  UNL     1       2.378  -1.692   1.876  1.00  0.00     0.010 C   
ATOM     9   C1  UNL     1       3.667  -1.268   2.606  1.00  0.00     0.017 C   
ATOM     10  C3  UNL     1       2.709  -2.903   0.972  1.00  0.00     0.017 C   
ATOM     11  C4  UNL     1       1.363  -2.187   2.933  1.00  0.00     0.017 C   
ENDBRANCH   7   8
BRANCH   7  12
ATOM     12  N1  UNL     1       2.748  -0.036  -0.005  1.00  0.00     0.250 N   
ATOM     13  H11 UNL     1       3.255  -0.811  -0.435  1.00  0.00     0.199 HD  
ATOM     14  H12 UNL     1       3.431   0.532   0.515  1.00  0.00     0.199 HD  
BRANCH  12  15
ATOM     15  C6  UNL     1       2.203   0.838  -1.089  1.00  0.00     0.164 C   
BRANCH  15  16
ATOM     16  C7  UNL     1       1.257   0.114  -2.005  1.00  0.00    -0.002 A   
ATOM     17  C8  UNL     1       1.740  -0.838  -2.934  1.00  0.00     0.012 A   
ATOM     18  C12 UNL     1      -0.125   0.358  -1.918  1.00  0.00     0.045 A   
ATOM     19  C9  UNL     1       0.859  -1.543  -3.762  1.00  0.00     0.037 A   
ATOM     20  C11 UNL     1      -0.965  -0.355  -2.747  1.00  0.00     0.109 A   
ATOM     21  C10 UNL     1      -0.487  -1.279  -3.643  1.00  0.00     0.108 A   
ATOM     22  O1  UNL     1      -2.320  -0.247  -2.784  1.00  0.00    -0.316 OA  
ATOM     23  O2  UNL     1      -1.480  -1.868  -4.359  1.00  0.00    -0.316 OA  
ATOM     24  C13 UNL     1      -2.640  -1.189  -3.834  1.00  0.00     0.337 C   
ENDBRANCH  15  16
ENDBRANCH  12  15
ENDBRANCH   7  12
ENDBRANCH   1   7
BRANCH   3  25
ATOM     25  C16 UNL     1      -0.794   3.006   3.554  1.00  0.00     0.141 C   
BRANCH  25  26
ATOM     26  C17 UNL     1      -1.464   4.005   2.616  1.00  0.00     0.083 C   
BRANCH  26  27
ATOM     27  C18 UNL     1      -2.518   3.370   1.780  1.00  0.00     0.060 A   
ATOM     28  C19 UNL     1      -3.890   3.296   1.893  1.00  0.00     0.031 A   
ATOM     29  O3  UNL     1      -2.105   2.717   0.655  1.00  0.00    -0.322 OA  
ATOM     30  C20 UNL     1      -4.343   2.565   0.770  1.00  0.00     0.028 A   
ATOM     31  C21 UNL     1      -3.222   2.241   0.045  1.00  0.00     0.136 A   
ENDBRANCH  26  27
ENDBRANCH  25  26
ENDBRANCH   3  25
TORSDOF 8
