REMARK SMILES COc1ccccc1[C@@H](CO)n1cc([C@@H]([NH2+]Cc2ccc3c(c2)OCO3)C2CCCC2)nn1
REMARK SMILES IDX 12 1 13 2 14 3 32 4 33 5 9 7 8 8 3 9 4 10 5 11 7 12 6 13
REMARK SMILES IDX 2 14 1 15 10 16 11 17 15 19 16 20 17 23 18 24 19 25 23 26
REMARK SMILES IDX 20 27 22 28 21 29 24 30 26 31 25 32 27 33 28 34 31 35 29 36
REMARK SMILES IDX 30 37
REMARK H PARENT 13 6 11 18 16 21 16 22
ROOT
ATOM     1   N1  UNL     1      -2.275  -0.770  -1.104  1.00  0.00    -0.202 N   
ATOM     2   C10 UNL     1      -0.939  -0.579  -0.862  1.00  0.00     0.046 A   
ATOM     3   C11 UNL     1      -0.750   0.767  -1.075  1.00  0.00     0.127 A   
ATOM     4   N3  UNL     1      -1.943   1.343  -1.424  1.00  0.00    -0.132 NA  
ATOM     5   N4  UNL     1      -2.867   0.397  -1.442  1.00  0.00    -0.075 NA  
ATOM     6   H12 UNL     1      -0.283  -1.395  -0.591  1.00  0.00     0.083 HD  
ENDROOT
BRANCH   1   7
ATOM     7   C8  UNL     1      -3.010  -2.035  -1.091  1.00  0.00     0.158 C   
BRANCH   7   8
ATOM     8   C7  UNL     1      -3.822  -2.151   0.192  1.00  0.00     0.007 A   
ATOM     9   C2  UNL     1      -3.362  -2.939   1.267  1.00  0.00     0.080 A   
ATOM     10  C3  UNL     1      -4.128  -3.038   2.434  1.00  0.00     0.034 A   
ATOM     11  C4  UNL     1      -5.343  -2.361   2.545  1.00  0.00     0.003 A   
ATOM     12  C6  UNL     1      -5.044  -1.464   0.330  1.00  0.00     0.008 A   
ATOM     13  C5  UNL     1      -5.798  -1.572   1.497  1.00  0.00     0.001 A   
BRANCH   9  14
ATOM     14  O1  UNL     1      -2.147  -3.548   1.093  1.00  0.00    -0.349 OA  
ATOM     15  C1  UNL     1      -1.807  -4.585   2.011  1.00  0.00     0.203 C   
ENDBRANCH   9  14
ENDBRANCH   7   8
BRANCH   7  16
ATOM     16  C9  UNL     1      -3.842  -2.234  -2.373  1.00  0.00     0.186 C   
BRANCH  16  17
ATOM     17  O2  UNL     1      -2.987  -2.428  -3.506  1.00  0.00    -0.394 OA  
ATOM     18  H11 UNL     1      -3.572  -2.537  -4.277  1.00  0.00     0.210 HD  
ENDBRANCH  16  17
ENDBRANCH   7  16
ENDBRANCH   1   7
BRANCH   3  19
ATOM     19  C12 UNL     1       0.489   1.597  -1.065  1.00  0.00     0.117 C   
BRANCH  19  20
ATOM     20  N2  UNL     1       0.518   2.483  -2.296  1.00  0.00     0.249 N   
ATOM     21  H14 UNL     1       1.293   3.148  -2.237  1.00  0.00     0.199 HD  
ATOM     22  H15 UNL     1      -0.355   3.027  -2.275  1.00  0.00     0.199 HD  
BRANCH  20  23
ATOM     23  C13 UNL     1       0.577   1.786  -3.616  1.00  0.00     0.164 C   
BRANCH  23  24
ATOM     24  C14 UNL     1       1.832   0.982  -3.804  1.00  0.00    -0.002 A   
ATOM     25  C15 UNL     1       3.078   1.627  -3.990  1.00  0.00     0.012 A   
ATOM     26  C19 UNL     1       1.780  -0.423  -3.762  1.00  0.00     0.045 A   
ATOM     27  C16 UNL     1       4.257   0.886  -4.126  1.00  0.00     0.037 A   
ATOM     28  C18 UNL     1       2.959  -1.122  -3.901  1.00  0.00     0.109 A   
ATOM     29  C17 UNL     1       4.163  -0.487  -4.076  1.00  0.00     0.108 A   
ATOM     30  O3  UNL     1       3.084  -2.474  -3.874  1.00  0.00    -0.316 OA  
ATOM     31  O4  UNL     1       5.198  -1.361  -4.186  1.00  0.00    -0.316 OA  
ATOM     32  C20 UNL     1       4.501  -2.623  -4.108  1.00  0.00     0.337 C   
ENDBRANCH  23  24
ENDBRANCH  20  23
ENDBRANCH  19  20
BRANCH  19  33
ATOM     33  C21 UNL     1       0.567   2.504   0.179  1.00  0.00     0.043 C   
ATOM     34  C22 UNL     1       0.640   1.728   1.498  1.00  0.00     0.010 C   
ATOM     35  C25 UNL     1       1.830   3.372   0.249  1.00  0.00     0.010 C   
ATOM     36  C23 UNL     1       1.081   2.782   2.502  1.00  0.00     0.001 C   
ATOM     37  C24 UNL     1       2.022   3.702   1.730  1.00  0.00     0.001 C   
ENDBRANCH  19  33
ENDBRANCH   3  19
TORSDOF 10
