REMARK SMILES COc1ccccc1[C@H](CO)n1cc([C@@H]([NH2+]Cc2ccc3c(c2)OCO3)C2CCCC2)nn1
REMARK SMILES IDX 12 1 13 2 14 3 32 4 33 5 9 7 8 8 3 9 4 10 5 11 7 12 6 13
REMARK SMILES IDX 2 14 1 15 10 16 11 17 15 19 16 20 17 23 18 24 19 25 23 26
REMARK SMILES IDX 20 27 22 28 21 29 24 30 26 31 25 32 27 33 28 34 31 35 29 36
REMARK SMILES IDX 30 37
REMARK H PARENT 13 6 11 18 16 21 16 22
ROOT
ATOM     1   N1  UNL     1      -0.304  -1.433  -0.082  1.00  0.00    -0.202 N   
ATOM     2   C10 UNL     1      -1.063  -0.494   0.568  1.00  0.00     0.046 A   
ATOM     3   C11 UNL     1      -1.191   0.524  -0.350  1.00  0.00     0.127 A   
ATOM     4   N3  UNL     1      -0.564   0.163  -1.516  1.00  0.00    -0.132 NA  
ATOM     5   N4  UNL     1      -0.024  -1.032  -1.341  1.00  0.00    -0.075 NA  
ATOM     6   H12 UNL     1      -1.364  -0.615   1.600  1.00  0.00     0.083 HD  
ENDROOT
BRANCH   1   7
ATOM     7   C8  UNL     1       0.289  -2.667   0.447  1.00  0.00     0.158 C   
BRANCH   7   8
ATOM     8   C7  UNL     1      -0.789  -3.571   1.048  1.00  0.00     0.007 A   
ATOM     9   C2  UNL     1      -0.884  -3.950   2.402  1.00  0.00     0.080 A   
ATOM     10  C3  UNL     1      -1.924  -4.796   2.819  1.00  0.00     0.034 A   
ATOM     11  C4  UNL     1      -2.858  -5.291   1.909  1.00  0.00     0.003 A   
ATOM     12  C6  UNL     1      -1.750  -4.090   0.146  1.00  0.00     0.008 A   
ATOM     13  C5  UNL     1      -2.770  -4.939   0.570  1.00  0.00     0.001 A   
BRANCH   9  14
ATOM     14  O1  UNL     1       0.039  -3.438   3.276  1.00  0.00    -0.349 OA  
ATOM     15  C1  UNL     1       0.253  -4.165   4.487  1.00  0.00     0.203 C   
ENDBRANCH   9  14
ENDBRANCH   7   8
BRANCH   7  16
ATOM     16  C9  UNL     1       1.569  -2.324   1.238  1.00  0.00     0.186 C   
BRANCH  16  17
ATOM     17  O2  UNL     1       1.358  -1.379   2.292  1.00  0.00    -0.394 OA  
ATOM     18  H11 UNL     1       0.884  -1.874   2.992  1.00  0.00     0.210 HD  
ENDBRANCH  16  17
ENDBRANCH   7  16
ENDBRANCH   1   7
BRANCH   3  19
ATOM     19  C12 UNL     1      -1.737   1.909  -0.218  1.00  0.00     0.117 C   
BRANCH  19  20
ATOM     20  N2  UNL     1      -0.738   2.867  -0.822  1.00  0.00     0.249 N   
ATOM     21  H14 UNL     1      -1.143   3.786  -1.015  1.00  0.00     0.199 HD  
ATOM     22  H15 UNL     1      -0.479   2.468  -1.738  1.00  0.00     0.199 HD  
BRANCH  20  23
ATOM     23  C13 UNL     1       0.523   3.048  -0.048  1.00  0.00     0.164 C   
BRANCH  23  24
ATOM     24  C14 UNL     1       1.540   3.781  -0.878  1.00  0.00    -0.002 A   
ATOM     25  C15 UNL     1       1.621   5.195  -0.842  1.00  0.00     0.012 A   
ATOM     26  C19 UNL     1       2.382   3.058  -1.744  1.00  0.00     0.045 A   
ATOM     27  C16 UNL     1       2.538   5.881  -1.647  1.00  0.00     0.037 A   
ATOM     28  C18 UNL     1       3.276   3.765  -2.521  1.00  0.00     0.109 A   
ATOM     29  C17 UNL     1       3.355   5.136  -2.472  1.00  0.00     0.108 A   
ATOM     30  O3  UNL     1       4.160   3.224  -3.401  1.00  0.00    -0.316 OA  
ATOM     31  O4  UNL     1       4.303   5.629  -3.311  1.00  0.00    -0.316 OA  
ATOM     32  C20 UNL     1       4.826   4.412  -3.888  1.00  0.00     0.337 C   
ENDBRANCH  23  24
ENDBRANCH  20  23
ENDBRANCH  19  20
BRANCH  19  33
ATOM     33  C21 UNL     1      -3.080   2.083  -0.950  1.00  0.00     0.043 C   
ATOM     34  C22 UNL     1      -3.689   3.484  -0.819  1.00  0.00     0.010 C   
ATOM     35  C25 UNL     1      -4.202   1.208  -0.385  1.00  0.00     0.010 C   
ATOM     36  C23 UNL     1      -5.167   3.305  -1.151  1.00  0.00     0.001 C   
ATOM     37  C24 UNL     1      -5.469   1.820  -0.969  1.00  0.00     0.001 C   
ENDBRANCH  19  33
ENDBRANCH   3  19
TORSDOF 10
