REMARK SMILES CC(C)C[C@H]([NH2+]Cc1ccc2c(c1)OCO2)c1cn(Cc2ccc(F)nc2)nn1
REMARK SMILES IDX 17 1 18 2 19 3 28 4 29 5 5 7 4 8 2 9 1 10 3 11 6 12 7 15
REMARK SMILES IDX 8 16 9 17 13 18 10 19 12 20 11 21 14 22 16 23 15 24 20 25
REMARK SMILES IDX 21 26 22 27 27 28 23 29 26 30 24 31 25 32
REMARK H PARENT 18 6 6 13 6 14
ROOT
ATOM     1   C14 UNL     1       0.842   1.418  -0.780  1.00  0.00     0.127 A   
ATOM     2   C15 UNL     1       1.938   0.622  -0.528  1.00  0.00     0.046 A   
ATOM     3   N2  UNL     1       2.885   1.498  -0.074  1.00  0.00    -0.208 N   
ATOM     4   N4  UNL     1       2.411   2.758  -0.074  1.00  0.00    -0.076 NA  
ATOM     5   N5  UNL     1       1.165   2.724  -0.518  1.00  0.00    -0.132 NA  
ATOM     6   H20 UNL     1       2.107  -0.446  -0.574  1.00  0.00     0.083 HD  
ENDROOT
BRANCH   1   7
ATOM     7   C5  UNL     1      -0.553   1.065  -1.171  1.00  0.00     0.114 C   
BRANCH   7   8
ATOM     8   C4  UNL     1      -0.841   1.346  -2.659  1.00  0.00     0.064 C   
BRANCH   8   9
ATOM     9   C2  UNL     1      -0.004   0.518  -3.658  1.00  0.00    -0.012 C   
ATOM     10  C1  UNL     1      -0.340   0.946  -5.090  1.00  0.00     0.007 C   
ATOM     11  C3  UNL     1      -0.231  -0.986  -3.503  1.00  0.00     0.007 C   
ENDBRANCH   8   9
ENDBRANCH   7   8
BRANCH   7  12
ATOM     12  N1  UNL     1      -1.554   1.879  -0.371  1.00  0.00     0.249 N   
ATOM     13  H11 UNL     1      -1.351   2.869  -0.565  1.00  0.00     0.199 HD  
ATOM     14  H12 UNL     1      -2.502   1.690  -0.710  1.00  0.00     0.199 HD  
BRANCH  12  15
ATOM     15  C6  UNL     1      -1.524   1.713   1.117  1.00  0.00     0.164 C   
BRANCH  15  16
ATOM     16  C7  UNL     1      -1.715   0.293   1.573  1.00  0.00    -0.002 A   
ATOM     17  C8  UNL     1      -0.668  -0.380   2.248  1.00  0.00     0.012 A   
ATOM     18  C12 UNL     1      -2.924  -0.380   1.327  1.00  0.00     0.045 A   
ATOM     19  C9  UNL     1      -0.813  -1.709   2.660  1.00  0.00     0.037 A   
ATOM     20  C11 UNL     1      -3.033  -1.690   1.746  1.00  0.00     0.109 A   
ATOM     21  C10 UNL     1      -2.008  -2.337   2.391  1.00  0.00     0.108 A   
ATOM     22  O1  UNL     1      -4.126  -2.482   1.581  1.00  0.00    -0.316 OA  
ATOM     23  O2  UNL     1      -2.326  -3.617   2.715  1.00  0.00    -0.316 OA  
ATOM     24  C13 UNL     1      -3.688  -3.693   2.239  1.00  0.00     0.337 C   
ENDBRANCH  15  16
ENDBRANCH  12  15
ENDBRANCH   7  12
ENDBRANCH   1   7
BRANCH   3  25
ATOM     25  C16 UNL     1       4.177   1.191   0.522  1.00  0.00     0.171 C   
BRANCH  25  26
ATOM     26  C17 UNL     1       3.987   0.496   1.843  1.00  0.00    -0.010 A   
ATOM     27  C18 UNL     1       4.447  -0.807   2.062  1.00  0.00     0.012 A   
ATOM     28  C21 UNL     1       3.308   1.122   2.889  1.00  0.00     0.119 A   
ATOM     29  C19 UNL     1       4.191  -1.427   3.283  1.00  0.00     0.061 A   
ATOM     30  N3  UNL     1       3.017   0.528   4.065  1.00  0.00    -0.228 NA  
ATOM     31  C20 UNL     1       3.478  -0.727   4.241  1.00  0.00     0.212 A   
ATOM     32  F1  UNL     1       3.200  -1.333   5.402  1.00  0.00    -0.185 F   
ENDBRANCH  25  26
ENDBRANCH   3  25
TORSDOF 8
