REMARK SMILES CCn1cnc(Cl)c1Cn1cc([C@@H]([NH2+]Cc2ccc3c(c2)OCO3)C2CCCC2)nn1
REMARK SMILES IDX 10 1 11 2 12 3 30 4 31 5 9 7 8 8 3 9 4 10 5 11 6 12 7 13
REMARK SMILES IDX 2 14 1 15 13 16 14 17 15 20 16 21 17 22 21 23 18 24 20 25
REMARK SMILES IDX 19 26 22 27 24 28 23 29 25 30 26 31 29 32 27 33 28 34
REMARK H PARENT 11 6 14 18 14 19
ROOT
ATOM     1   N3  UNL     1       1.279  -1.340  -0.892  1.00  0.00    -0.206 N   
ATOM     2   C7  UNL     1       0.405  -1.778   0.066  1.00  0.00     0.046 A   
ATOM     3   C8  UNL     1      -0.756  -1.090  -0.209  1.00  0.00     0.127 A   
ATOM     4   N5  UNL     1      -0.567  -0.307  -1.318  1.00  0.00    -0.132 NA  
ATOM     5   N6  UNL     1       0.678  -0.475  -1.731  1.00  0.00    -0.076 NA  
ATOM     6   H9  UNL     1       0.699  -2.457   0.854  1.00  0.00     0.083 HD  
ENDROOT
BRANCH   1   7
ATOM     7   C6  UNL     1       2.703  -1.623  -1.010  1.00  0.00     0.188 C   
BRANCH   7   8
ATOM     8   C5  UNL     1       3.492  -0.487  -0.460  1.00  0.00     0.068 A   
ATOM     9   N1  UNL     1       4.150   0.462  -1.209  1.00  0.00    -0.291 N   
ATOM     10  C3  UNL     1       4.718   1.354  -0.341  1.00  0.00     0.190 A   
ATOM     11  N2  UNL     1       4.468   1.036   0.906  1.00  0.00    -0.227 NA  
ATOM     12  C4  UNL     1       3.724  -0.110   0.851  1.00  0.00     0.149 A   
ATOM     13  CL1 UNL     1       3.158  -0.888   2.255  1.00  0.00    -0.060 Cl  
BRANCH   9  14
ATOM     14  C2  UNL     1       4.239   0.560  -2.655  1.00  0.00     0.109 C   
ATOM     15  C1  UNL     1       5.382  -0.267  -3.217  1.00  0.00     0.025 C   
ENDBRANCH   9  14
ENDBRANCH   7   8
ENDBRANCH   1   7
BRANCH   3  16
ATOM     16  C9  UNL     1      -2.044  -0.994   0.543  1.00  0.00     0.117 C   
BRANCH  16  17
ATOM     17  N4  UNL     1      -2.401   0.462   0.711  1.00  0.00     0.249 N   
ATOM     18  H11 UNL     1      -2.312   0.899  -0.219  1.00  0.00     0.199 HD  
ATOM     19  H12 UNL     1      -3.377   0.590   0.996  1.00  0.00     0.199 HD  
BRANCH  17  20
ATOM     20  C10 UNL     1      -1.528   1.225   1.650  1.00  0.00     0.164 C   
BRANCH  20  21
ATOM     21  C11 UNL     1      -1.902   2.680   1.655  1.00  0.00    -0.002 A   
ATOM     22  C12 UNL     1      -2.764   3.200   2.648  1.00  0.00     0.012 A   
ATOM     23  C16 UNL     1      -1.424   3.526   0.640  1.00  0.00     0.045 A   
ATOM     24  C13 UNL     1      -3.138   4.547   2.640  1.00  0.00     0.037 A   
ATOM     25  C15 UNL     1      -1.815   4.848   0.659  1.00  0.00     0.109 A   
ATOM     26  C14 UNL     1      -2.648   5.345   1.630  1.00  0.00     0.108 A   
ATOM     27  O1  UNL     1      -1.447   5.794  -0.243  1.00  0.00    -0.316 OA  
ATOM     28  O2  UNL     1      -2.907   6.668   1.464  1.00  0.00    -0.316 OA  
ATOM     29  C17 UNL     1      -2.115   6.959   0.293  1.00  0.00     0.337 C   
ENDBRANCH  20  21
ENDBRANCH  17  20
ENDBRANCH  16  17
BRANCH  16  30
ATOM     30  C18 UNL     1      -3.196  -1.707  -0.190  1.00  0.00     0.043 C   
ATOM     31  C19 UNL     1      -4.535  -1.670   0.551  1.00  0.00     0.010 C   
ATOM     32  C22 UNL     1      -2.968  -3.216  -0.343  1.00  0.00     0.010 C   
ATOM     33  C20 UNL     1      -5.356  -2.775  -0.103  1.00  0.00     0.001 C   
ATOM     34  C21 UNL     1      -4.349  -3.793  -0.633  1.00  0.00     0.001 C   
ENDBRANCH  16  30
ENDBRANCH   3  16
TORSDOF 8
