REMARK SMILES O[C@@H](Cc1ccccc1)Cn1cc([C@@H]([NH2+]Cc2ccc3c(c2)OCO3)C2CCCC2)nn1
REMARK SMILES IDX 11 1 12 2 13 3 31 4 32 5 10 7 2 8 1 9 3 11 4 12 5 13 9 14
REMARK SMILES IDX 6 15 8 16 7 17 14 18 15 19 16 22 17 23 18 24 22 25 19 26
REMARK SMILES IDX 21 27 20 28 23 29 25 30 24 31 26 32 27 33 30 34 28 35 29 36
REMARK H PARENT 12 6 1 10 15 20 15 21
ROOT
ATOM     1   N1  UNL     1       1.574   2.983   0.598  1.00  0.00    -0.210 N   
ATOM     2   C10 UNL     1       1.401   2.453  -0.648  1.00  0.00     0.045 A   
ATOM     3   C11 UNL     1       1.945   1.193  -0.555  1.00  0.00     0.127 A   
ATOM     4   N3  UNL     1       2.473   1.031   0.705  1.00  0.00    -0.132 NA  
ATOM     5   N4  UNL     1       2.259   2.141   1.391  1.00  0.00    -0.076 NA  
ATOM     6   H12 UNL     1       0.868   2.988  -1.422  1.00  0.00     0.083 HD  
ENDROOT
BRANCH   1   7
ATOM     7   C9  UNL     1       1.139   4.266   1.092  1.00  0.00     0.166 C   
BRANCH   7   8
ATOM     8   C1  UNL     1      -0.381   4.449   1.188  1.00  0.00     0.138 C   
BRANCH   8   9
ATOM     9   O1  UNL     1      -0.970   4.502  -0.115  1.00  0.00    -0.391 OA  
ATOM     10  H1  UNL     1      -1.865   4.877  -0.013  1.00  0.00     0.211 HD  
ENDBRANCH   8   9
BRANCH   8  11
ATOM     11  C2  UNL     1      -1.123   3.474   2.125  1.00  0.00     0.069 C   
BRANCH  11  12
ATOM     12  C3  UNL     1      -1.284   2.028   1.702  1.00  0.00    -0.045 A   
ATOM     13  C4  UNL     1      -0.726   1.000   2.478  1.00  0.00     0.004 A   
ATOM     14  C8  UNL     1      -2.087   1.675   0.609  1.00  0.00     0.004 A   
ATOM     15  C5  UNL     1      -0.985  -0.341   2.183  1.00  0.00     0.000 A   
ATOM     16  C7  UNL     1      -2.346   0.333   0.314  1.00  0.00     0.000 A   
ATOM     17  C6  UNL     1      -1.806  -0.674   1.109  1.00  0.00     0.000 A   
ENDBRANCH  11  12
ENDBRANCH   8  11
ENDBRANCH   7   8
ENDBRANCH   1   7
BRANCH   3  18
ATOM     18  C12 UNL     1       1.948   0.000  -1.454  1.00  0.00     0.117 C   
BRANCH  18  19
ATOM     19  N2  UNL     1       1.145  -1.063  -0.748  1.00  0.00     0.249 N   
ATOM     20  H14 UNL     1       1.323  -0.924   0.261  1.00  0.00     0.199 HD  
ATOM     21  H15 UNL     1       0.141  -0.865  -0.833  1.00  0.00     0.199 HD  
BRANCH  19  22
ATOM     22  C13 UNL     1       1.450  -2.473  -1.073  1.00  0.00     0.164 C   
BRANCH  22  23
ATOM     23  C14 UNL     1       0.583  -3.400  -0.267  1.00  0.00    -0.002 A   
ATOM     24  C15 UNL     1      -0.591  -3.952  -0.832  1.00  0.00     0.012 A   
ATOM     25  C19 UNL     1       0.904  -3.677   1.073  1.00  0.00     0.045 A   
ATOM     26  C16 UNL     1      -1.433  -4.775  -0.075  1.00  0.00     0.037 A   
ATOM     27  C18 UNL     1       0.051  -4.487   1.792  1.00  0.00     0.109 A   
ATOM     28  C17 UNL     1      -1.085  -5.021   1.235  1.00  0.00     0.108 A   
ATOM     29  O2  UNL     1       0.207  -4.842   3.094  1.00  0.00    -0.316 OA  
ATOM     30  O3  UNL     1      -1.785  -5.782   2.115  1.00  0.00    -0.316 OA  
ATOM     31  C20 UNL     1      -0.947  -5.691   3.287  1.00  0.00     0.337 C   
ENDBRANCH  22  23
ENDBRANCH  19  22
ENDBRANCH  18  19
BRANCH  18  32
ATOM     32  C21 UNL     1       1.430   0.175  -2.891  1.00  0.00     0.043 C   
ATOM     33  C22 UNL     1       2.213   1.182  -3.741  1.00  0.00     0.010 C   
ATOM     34  C25 UNL     1      -0.048   0.568  -3.060  1.00  0.00     0.010 C   
ATOM     35  C23 UNL     1       1.267   1.458  -4.899  1.00  0.00     0.001 C   
ATOM     36  C24 UNL     1      -0.093   1.558  -4.224  1.00  0.00     0.001 C   
ENDBRANCH  18  32
ENDBRANCH   3  18
TORSDOF 10
