REMARK SMILES O[C@H](Cc1ccccc1)Cn1cc([C@@H]([NH2+]Cc2ccc3c(c2)OCO3)C2CCCC2)nn1
REMARK SMILES IDX 11 1 12 2 13 3 31 4 32 5 10 7 2 8 1 9 3 11 4 12 5 13 9 14
REMARK SMILES IDX 6 15 8 16 7 17 14 18 15 19 16 22 17 23 18 24 22 25 19 26
REMARK SMILES IDX 21 27 20 28 23 29 25 30 24 31 26 32 27 33 30 34 28 35 29 36
REMARK H PARENT 12 6 1 10 15 20 15 21
ROOT
ATOM     1   N1  UNL     1      -1.226   0.476  -2.399  1.00  0.00    -0.210 N   
ATOM     2   C10 UNL     1      -1.062  -0.572  -1.538  1.00  0.00     0.045 A   
ATOM     3   C11 UNL     1      -0.920   0.025  -0.308  1.00  0.00     0.127 A   
ATOM     4   N3  UNL     1      -1.040   1.385  -0.451  1.00  0.00    -0.132 NA  
ATOM     5   N4  UNL     1      -1.239   1.648  -1.731  1.00  0.00    -0.076 NA  
ATOM     6   H12 UNL     1      -1.054  -1.600  -1.875  1.00  0.00     0.083 HD  
ENDROOT
BRANCH   1   7
ATOM     7   C9  UNL     1      -1.525   0.443  -3.812  1.00  0.00     0.166 C   
BRANCH   7   8
ATOM     8   C1  UNL     1      -0.494  -0.247  -4.715  1.00  0.00     0.138 C   
BRANCH   8   9
ATOM     9   O1  UNL     1      -0.418  -1.646  -4.429  1.00  0.00    -0.391 OA  
ATOM     10  H1  UNL     1       0.033  -2.074  -5.182  1.00  0.00     0.211 HD  
ENDBRANCH   8   9
BRANCH   8  11
ATOM     11  C2  UNL     1       0.896   0.411  -4.777  1.00  0.00     0.069 C   
BRANCH  11  12
ATOM     12  C3  UNL     1       1.746   0.390  -3.527  1.00  0.00    -0.045 A   
ATOM     13  C4  UNL     1       2.284  -0.809  -3.039  1.00  0.00     0.004 A   
ATOM     14  C8  UNL     1       2.081   1.588  -2.879  1.00  0.00     0.004 A   
ATOM     15  C5  UNL     1       3.144  -0.810  -1.938  1.00  0.00     0.000 A   
ATOM     16  C7  UNL     1       2.943   1.587  -1.781  1.00  0.00     0.000 A   
ATOM     17  C6  UNL     1       3.480   0.389  -1.315  1.00  0.00     0.000 A   
ENDBRANCH  11  12
ENDBRANCH   8  11
ENDBRANCH   7   8
ENDBRANCH   1   7
BRANCH   3  18
ATOM     18  C12 UNL     1      -0.673  -0.555   1.048  1.00  0.00     0.117 C   
BRANCH  18  19
ATOM     19  N2  UNL     1      -0.266   0.546   1.997  1.00  0.00     0.249 N   
ATOM     20  H14 UNL     1      -0.566   0.360   2.957  1.00  0.00     0.199 HD  
ATOM     21  H15 UNL     1      -0.780   1.383   1.680  1.00  0.00     0.199 HD  
BRANCH  19  22
ATOM     22  C13 UNL     1       1.182   0.894   1.987  1.00  0.00     0.164 C   
BRANCH  22  23
ATOM     23  C14 UNL     1       1.982  -0.026   2.869  1.00  0.00    -0.002 A   
ATOM     24  C15 UNL     1       1.999   0.171   4.272  1.00  0.00     0.012 A   
ATOM     25  C19 UNL     1       2.677  -1.115   2.318  1.00  0.00     0.045 A   
ATOM     26  C16 UNL     1       2.697  -0.703   5.113  1.00  0.00     0.037 A   
ATOM     27  C18 UNL     1       3.351  -1.960   3.175  1.00  0.00     0.109 A   
ATOM     28  C17 UNL     1       3.362  -1.760   4.533  1.00  0.00     0.108 A   
ATOM     29  O2  UNL     1       4.059  -3.059   2.807  1.00  0.00    -0.316 OA  
ATOM     30  O3  UNL     1       4.082  -2.704   5.191  1.00  0.00    -0.316 OA  
ATOM     31  C20 UNL     1       4.536  -3.521   4.091  1.00  0.00     0.337 C   
ENDBRANCH  22  23
ENDBRANCH  19  22
ENDBRANCH  18  19
BRANCH  18  32
ATOM     32  C21 UNL     1      -1.904  -1.310   1.585  1.00  0.00     0.043 C   
ATOM     33  C22 UNL     1      -1.648  -2.117   2.865  1.00  0.00     0.010 C   
ATOM     34  C25 UNL     1      -3.119  -0.455   1.952  1.00  0.00     0.010 C   
ATOM     35  C23 UNL     1      -3.018  -2.287   3.525  1.00  0.00     0.001 C   
ATOM     36  C24 UNL     1      -3.995  -1.436   2.718  1.00  0.00     0.001 C   
ENDBRANCH  18  32
ENDBRANCH   3  18
TORSDOF 10
