REMARK SMILES COc1ccc(OC)c(-n2cc([C@H](CC(C)C)[NH2+]Cc3ccc4c(c3)OCO4)nn2)c1
REMARK SMILES IDX 10 1 11 2 12 3 29 4 30 5 9 6 3 7 4 8 31 9 5 10 6 11 2 12
REMARK SMILES IDX 1 13 7 14 8 15 13 16 14 17 15 18 16 19 17 20 18 21 19 24
REMARK SMILES IDX 20 25 21 26 25 27 22 28 24 29 23 30 26 31 28 32 27 33
REMARK H PARENT 18 22 18 23
ROOT
ATOM     1   N1  UNL     1       0.205   1.811  -0.167  1.00  0.00    -0.178 N   
ATOM     2   C8  UNL     1      -0.020   1.257   1.081  1.00  0.00     0.135 A   
ATOM     3   C9  UNL     1       0.332  -0.068   0.970  1.00  0.00     0.127 A   
ATOM     4   N3  UNL     1       0.755  -0.312  -0.302  1.00  0.00    -0.131 NA  
ATOM     5   N4  UNL     1       0.679   0.820  -0.980  1.00  0.00    -0.071 NA  
ENDROOT
BRANCH   1   6
ATOM     6   C7  UNL     1       0.020   3.137  -0.660  1.00  0.00     0.090 A   
ATOM     7   C2  UNL     1       0.278   4.660  -2.558  1.00  0.00     0.077 A   
ATOM     8   C3  UNL     1      -0.271   5.680  -1.790  1.00  0.00     0.036 A   
ATOM     9   C23 UNL     1       0.420   3.393  -1.994  1.00  0.00     0.062 A   
ATOM     10  C4  UNL     1      -0.672   5.446  -0.472  1.00  0.00     0.038 A   
ATOM     11  C5  UNL     1      -0.535   4.178   0.111  1.00  0.00     0.098 A   
BRANCH   7  12
ATOM     12  O1  UNL     1       0.624   5.026  -3.827  1.00  0.00    -0.349 OA  
ATOM     13  C1  UNL     1       1.262   4.048  -4.639  1.00  0.00     0.203 C   
ENDBRANCH   7  12
BRANCH  11  14
ATOM     14  O2  UNL     1      -0.936   3.910   1.391  1.00  0.00    -0.347 OA  
ATOM     15  C6  UNL     1      -1.471   4.978   2.169  1.00  0.00     0.203 C   
ENDBRANCH  11  14
ENDBRANCH   1   6
BRANCH   3  16
ATOM     16  C10 UNL     1       0.299  -1.182   1.961  1.00  0.00     0.114 C   
BRANCH  16  17
ATOM     17  C11 UNL     1       1.473  -1.145   2.960  1.00  0.00     0.064 C   
BRANCH  17  18
ATOM     18  C12 UNL     1       2.914  -1.058   2.405  1.00  0.00    -0.012 C   
ATOM     19  C13 UNL     1       3.369  -2.313   1.662  1.00  0.00     0.007 C   
ATOM     20  C14 UNL     1       3.881  -0.788   3.566  1.00  0.00     0.007 C   
ENDBRANCH  17  18
ENDBRANCH  16  17
BRANCH  16  21
ATOM     21  N2  UNL     1       0.244  -2.514   1.273  1.00  0.00     0.249 N   
ATOM     22  H20 UNL     1       0.859  -2.448   0.448  1.00  0.00     0.199 HD  
ATOM     23  H21 UNL     1       0.621  -3.266   1.859  1.00  0.00     0.199 HD  
BRANCH  21  24
ATOM     24  C15 UNL     1      -1.099  -2.909   0.764  1.00  0.00     0.164 C   
BRANCH  24  25
ATOM     25  C16 UNL     1      -1.008  -4.185  -0.025  1.00  0.00    -0.002 A   
ATOM     26  C17 UNL     1      -1.293  -5.430   0.584  1.00  0.00     0.012 A   
ATOM     27  C21 UNL     1      -0.588  -4.149  -1.366  1.00  0.00     0.045 A   
ATOM     28  C18 UNL     1      -1.174  -6.624  -0.135  1.00  0.00     0.037 A   
ATOM     29  C20 UNL     1      -0.479  -5.345  -2.045  1.00  0.00     0.109 A   
ATOM     30  C19 UNL     1      -0.764  -6.548  -1.448  1.00  0.00     0.108 A   
ATOM     31  O3  UNL     1      -0.089  -5.487  -3.338  1.00  0.00    -0.316 OA  
ATOM     32  O4  UNL     1      -0.593  -7.599  -2.291  1.00  0.00    -0.316 OA  
ATOM     33  C22 UNL     1      -0.181  -6.921  -3.498  1.00  0.00     0.337 C   
ENDBRANCH  24  25
ENDBRANCH  21  24
ENDBRANCH  16  21
ENDBRANCH   3  16
TORSDOF 9
