REMARK SMILES c1ccc(-n2cc(Cn3cc([C@@H]([NH2+]Cc4ccc5c(c4)OCO5)C4CCCCC4)nn3)cn2)cc1
REMARK SMILES IDX 9 1 10 2 11 3 30 4 31 5 8 7 7 8 5 9 6 10 33 11 32 12 4 13
REMARK SMILES IDX 1 14 2 15 35 16 3 17 34 18 12 19 13 20 14 23 15 24 16 25
REMARK SMILES IDX 20 26 17 27 19 28 18 29 21 30 23 31 22 32 24 33 25 34 29 35
REMARK SMILES IDX 26 36 28 37 27 38
REMARK H PARENT 10 6 13 21 13 22
ROOT
ATOM     1   N2  UNL     1       1.606  -0.296   2.306  1.00  0.00    -0.208 N   
ATOM     2   C8  UNL     1       0.368  -0.553   1.781  1.00  0.00     0.046 A   
ATOM     3   C9  UNL     1       0.638  -1.031   0.516  1.00  0.00     0.127 A   
ATOM     4   N4  UNL     1       1.995  -1.061   0.326  1.00  0.00    -0.132 NA  
ATOM     5   N5  UNL     1       2.576  -0.614   1.426  1.00  0.00    -0.076 NA  
ATOM     6   H7  UNL     1      -0.547  -0.356   2.323  1.00  0.00     0.083 HD  
ENDROOT
BRANCH   1   7
ATOM     7   C7  UNL     1       1.931   0.272   3.605  1.00  0.00     0.172 C   
BRANCH   7   8
ATOM     8   C6  UNL     1       1.950   1.756   3.524  1.00  0.00     0.008 A   
ATOM     9   N1  UNL     1       2.563   3.893   3.317  1.00  0.00    -0.201 N   
ATOM     10  C5  UNL     1       3.032   2.593   3.331  1.00  0.00     0.108 A   
ATOM     11  N6  UNL     1       1.212   3.914   3.465  1.00  0.00    -0.185 NA  
ATOM     12  C25 UNL     1       0.861   2.641   3.627  1.00  0.00     0.138 A   
BRANCH   9  13
ATOM     13  C4  UNL     1       3.307   5.096   3.161  1.00  0.00     0.056 A   
ATOM     14  C1  UNL     1       4.732   7.490   2.855  1.00  0.00     0.000 A   
ATOM     15  C2  UNL     1       3.343   7.516   2.967  1.00  0.00     0.002 A   
ATOM     16  C27 UNL     1       5.412   6.273   2.897  1.00  0.00     0.002 A   
ATOM     17  C3  UNL     1       2.630   6.325   3.122  1.00  0.00     0.026 A   
ATOM     18  C26 UNL     1       4.705   5.076   3.047  1.00  0.00     0.026 A   
ENDBRANCH   9  13
ENDBRANCH   7   8
ENDBRANCH   1   7
BRANCH   3  19
ATOM     19  C10 UNL     1      -0.274  -1.417  -0.603  1.00  0.00     0.117 C   
BRANCH  19  20
ATOM     20  N3  UNL     1       0.334  -1.037  -1.933  1.00  0.00     0.249 N   
ATOM     21  H9  UNL     1       1.298  -1.399  -1.922  1.00  0.00     0.199 HD  
ATOM     22  H10 UNL     1      -0.156  -1.498  -2.702  1.00  0.00     0.199 HD  
BRANCH  20  23
ATOM     23  C11 UNL     1       0.429   0.426  -2.224  1.00  0.00     0.164 C   
BRANCH  23  24
ATOM     24  C12 UNL     1      -0.917   1.080  -2.365  1.00  0.00    -0.002 A   
ATOM     25  C13 UNL     1      -1.728   0.823  -3.498  1.00  0.00     0.012 A   
ATOM     26  C17 UNL     1      -1.394   1.930  -1.351  1.00  0.00     0.045 A   
ATOM     27  C14 UNL     1      -3.001   1.391  -3.612  1.00  0.00     0.037 A   
ATOM     28  C16 UNL     1      -2.652   2.474  -1.497  1.00  0.00     0.109 A   
ATOM     29  C15 UNL     1      -3.435   2.210  -2.593  1.00  0.00     0.108 A   
ATOM     30  O1  UNL     1      -3.262   3.305  -0.612  1.00  0.00    -0.316 OA  
ATOM     31  O2  UNL     1      -4.636   2.843  -2.536  1.00  0.00    -0.316 OA  
ATOM     32  C18 UNL     1      -4.502   3.580  -1.302  1.00  0.00     0.337 C   
ENDBRANCH  23  24
ENDBRANCH  20  23
ENDBRANCH  19  20
BRANCH  19  33
ATOM     33  C19 UNL     1      -0.629  -2.930  -0.580  1.00  0.00     0.043 C   
ATOM     34  C20 UNL     1      -1.852  -3.236  -1.469  1.00  0.00     0.010 C   
ATOM     35  C24 UNL     1       0.543  -3.861  -0.951  1.00  0.00     0.010 C   
ATOM     36  C21 UNL     1      -2.248  -4.711  -1.400  1.00  0.00     0.001 C   
ATOM     37  C23 UNL     1       0.139  -5.334  -0.883  1.00  0.00     0.001 C   
ATOM     38  C22 UNL     1      -1.079  -5.625  -1.753  1.00  0.00     0.000 C   
ENDBRANCH  19  33
ENDBRANCH   3  19
TORSDOF 8
