REMARK SMILES CC(C)C[C@H]([NH2+]Cc1ccc2c(c1)OCO2)c1cn([C@@H](CO)c2ccsc2)nn1
REMARK SMILES IDX 17 1 18 2 19 3 28 4 29 5 5 7 4 8 2 9 1 10 3 11 6 12 7 15
REMARK SMILES IDX 8 16 9 17 13 18 10 19 12 20 11 21 14 22 16 23 15 24 20 25
REMARK SMILES IDX 21 26 22 27 23 29 24 30 27 31 25 32 26 33
REMARK H PARENT 18 6 6 13 6 14 22 28
ROOT
ATOM     1   C14 UNL     1       0.857  -0.052  -0.227  1.00  0.00     0.127 A   
ATOM     2   C15 UNL     1       2.148  -0.347  -0.599  1.00  0.00     0.046 A   
ATOM     3   N2  UNL     1       2.518  -1.364   0.242  1.00  0.00    -0.202 N   
ATOM     4   N3  UNL     1       1.485  -1.714   1.039  1.00  0.00    -0.075 NA  
ATOM     5   N4  UNL     1       0.469  -0.911   0.768  1.00  0.00    -0.132 NA  
ATOM     6   H20 UNL     1       2.823   0.059  -1.340  1.00  0.00     0.083 HD  
ENDROOT
BRANCH   1   7
ATOM     7   C5  UNL     1      -0.108   0.960  -0.752  1.00  0.00     0.114 C   
BRANCH   7   8
ATOM     8   C4  UNL     1      -0.108   2.261   0.071  1.00  0.00     0.064 C   
BRANCH   8   9
ATOM     9   C2  UNL     1       1.228   3.036   0.081  1.00  0.00    -0.012 C   
ATOM     10  C1  UNL     1       1.106   4.264   0.989  1.00  0.00     0.007 C   
ATOM     11  C3  UNL     1       1.658   3.473  -1.320  1.00  0.00     0.007 C   
ENDBRANCH   8   9
ENDBRANCH   7   8
BRANCH   7  12
ATOM     12  N1  UNL     1      -1.489   0.352  -0.704  1.00  0.00     0.249 N   
ATOM     13  H11 UNL     1      -1.402  -0.625  -1.018  1.00  0.00     0.199 HD  
ATOM     14  H12 UNL     1      -1.766   0.252   0.283  1.00  0.00     0.199 HD  
BRANCH  12  15
ATOM     15  C6  UNL     1      -2.558   1.007  -1.491  1.00  0.00     0.164 C   
BRANCH  15  16
ATOM     16  C7  UNL     1      -3.815   0.184  -1.464  1.00  0.00    -0.002 A   
ATOM     17  C8  UNL     1      -4.073  -0.762  -2.485  1.00  0.00     0.012 A   
ATOM     18  C12 UNL     1      -4.718   0.311  -0.395  1.00  0.00     0.045 A   
ATOM     19  C9  UNL     1      -5.219  -1.564  -2.449  1.00  0.00     0.037 A   
ATOM     20  C11 UNL     1      -5.838  -0.495  -0.390  1.00  0.00     0.109 A   
ATOM     21  C10 UNL     1      -6.082  -1.406  -1.387  1.00  0.00     0.108 A   
ATOM     22  O1  UNL     1      -6.804  -0.498   0.565  1.00  0.00    -0.316 OA  
ATOM     23  O2  UNL     1      -7.234  -2.096  -1.188  1.00  0.00    -0.316 OA  
ATOM     24  C13 UNL     1      -7.700  -1.508   0.045  1.00  0.00     0.337 C   
ENDBRANCH  15  16
ENDBRANCH  12  15
ENDBRANCH   7  12
ENDBRANCH   1   7
BRANCH   3  25
ATOM     25  C16 UNL     1       3.804  -2.050   0.358  1.00  0.00     0.156 C   
BRANCH  25  26
ATOM     26  C17 UNL     1       3.967  -3.137  -0.718  1.00  0.00     0.185 C   
BRANCH  26  27
ATOM     27  O3  UNL     1       3.847  -2.631  -2.050  1.00  0.00    -0.394 OA  
ATOM     28  H24 UNL     1       4.052  -3.371  -2.652  1.00  0.00     0.210 HD  
ENDBRANCH  26  27
ENDBRANCH  25  26
BRANCH  25  29
ATOM     29  C18 UNL     1       4.938  -1.042   0.457  1.00  0.00    -0.016 A   
ATOM     30  C19 UNL     1       5.762  -0.573  -0.625  1.00  0.00     0.013 A   
ATOM     31  C21 UNL     1       5.317  -0.432   1.643  1.00  0.00     0.051 A   
ATOM     32  C20 UNL     1       6.702   0.350  -0.222  1.00  0.00     0.046 A   
ATOM     33  S1  UNL     1       6.607   0.671   1.451  1.00  0.00    -0.106 S   
ENDBRANCH  25  29
ENDBRANCH   3  25
TORSDOF 10
