REMARK SMILES CC(C)C[C@H]([NH2+]Cc1ccc2c(c1)OCO2)c1cn([C@H](CO)c2ccsc2)nn1
REMARK SMILES IDX 17 1 18 2 19 3 28 4 29 5 5 7 4 8 2 9 1 10 3 11 6 12 7 15
REMARK SMILES IDX 8 16 9 17 13 18 10 19 12 20 11 21 14 22 16 23 15 24 20 25
REMARK SMILES IDX 21 26 22 27 23 29 24 30 27 31 25 32 26 33
REMARK H PARENT 18 6 6 13 6 14 22 28
ROOT
ATOM     1   C14 UNL     1       0.734   0.500  -0.941  1.00  0.00     0.127 A   
ATOM     2   C15 UNL     1       0.979   1.337  -2.004  1.00  0.00     0.046 A   
ATOM     3   N2  UNL     1       0.823   0.537  -3.106  1.00  0.00    -0.202 N   
ATOM     4   N3  UNL     1       0.483  -0.717  -2.734  1.00  0.00    -0.075 NA  
ATOM     5   N4  UNL     1       0.438  -0.752  -1.413  1.00  0.00    -0.132 NA  
ATOM     6   H20 UNL     1       1.249   2.381  -2.087  1.00  0.00     0.083 HD  
ENDROOT
BRANCH   1   7
ATOM     7   C5  UNL     1       0.723   0.759   0.532  1.00  0.00     0.114 C   
BRANCH   7   8
ATOM     8   C4  UNL     1       2.137   0.597   1.124  1.00  0.00     0.064 C   
BRANCH   8   9
ATOM     9   C2  UNL     1       2.295   0.910   2.628  1.00  0.00    -0.012 C   
ATOM     10  C1  UNL     1       1.827   2.320   2.987  1.00  0.00     0.007 C   
ATOM     11  C3  UNL     1       3.763   0.735   3.035  1.00  0.00     0.007 C   
ENDBRANCH   8   9
ENDBRANCH   7   8
BRANCH   7  12
ATOM     12  N1  UNL     1      -0.215  -0.202   1.213  1.00  0.00     0.249 N   
ATOM     13  H11 UNL     1      -0.026  -1.132   0.809  1.00  0.00     0.199 HD  
ATOM     14  H12 UNL     1      -0.031  -0.281   2.216  1.00  0.00     0.199 HD  
BRANCH  12  15
ATOM     15  C6  UNL     1      -1.664   0.082   1.012  1.00  0.00     0.164 C   
BRANCH  15  16
ATOM     16  C7  UNL     1      -2.499  -1.010   1.617  1.00  0.00    -0.002 A   
ATOM     17  C8  UNL     1      -2.899  -2.115   0.827  1.00  0.00     0.012 A   
ATOM     18  C12 UNL     1      -2.843  -0.972   2.979  1.00  0.00     0.045 A   
ATOM     19  C9  UNL     1      -3.643  -3.162   1.380  1.00  0.00     0.037 A   
ATOM     20  C11 UNL     1      -3.573  -2.023   3.494  1.00  0.00     0.109 A   
ATOM     21  C10 UNL     1      -3.964  -3.087   2.717  1.00  0.00     0.108 A   
ATOM     22  O1  UNL     1      -3.983  -2.143   4.783  1.00  0.00    -0.316 OA  
ATOM     23  O2  UNL     1      -4.672  -4.010   3.419  1.00  0.00    -0.316 OA  
ATOM     24  C13 UNL     1      -4.695  -3.402   4.729  1.00  0.00     0.337 C   
ENDBRANCH  15  16
ENDBRANCH  12  15
ENDBRANCH   7  12
ENDBRANCH   1   7
BRANCH   3  25
ATOM     25  C16 UNL     1       0.954   0.876  -4.522  1.00  0.00     0.156 C   
BRANCH  25  26
ATOM     26  C17 UNL     1       2.426   1.036  -4.943  1.00  0.00     0.185 C   
BRANCH  26  27
ATOM     27  O3  UNL     1       3.119   2.043  -4.200  1.00  0.00    -0.394 OA  
ATOM     28  H24 UNL     1       4.024   2.088  -4.563  1.00  0.00     0.210 HD  
ENDBRANCH  26  27
ENDBRANCH  25  26
BRANCH  25  29
ATOM     29  C18 UNL     1       0.034   2.034  -4.875  1.00  0.00    -0.016 A   
ATOM     30  C19 UNL     1       0.384   3.428  -4.910  1.00  0.00     0.013 A   
ATOM     31  C21 UNL     1      -1.302   1.870  -5.212  1.00  0.00     0.051 A   
ATOM     32  C20 UNL     1      -0.673   4.238  -5.260  1.00  0.00     0.046 A   
ATOM     33  S1  UNL     1      -2.098   3.344  -5.545  1.00  0.00    -0.106 S   
ENDBRANCH  25  29
ENDBRANCH   3  25
TORSDOF 10
