REMARK SMILES CC(C)(C)[C@H]([NH2+]Cc1ccc2c(c1)OCO2)c1cn([C@@H](CO)c2cccc(Cl)c2)nn1
REMARK SMILES IDX 17 1 18 2 19 3 30 4 31 5 5 7 2 8 1 9 3 10 4 11 6 12 7 15
REMARK SMILES IDX 8 16 9 17 13 18 10 19 12 20 11 21 14 22 16 23 15 24 20 25
REMARK SMILES IDX 21 26 22 27 23 29 24 30 29 31 25 32 27 33 26 34 28 35
REMARK H PARENT 18 6 6 13 6 14 22 28
ROOT
ATOM     1   C14 UNL     1       0.410  -0.453  -0.281  1.00  0.00     0.127 A   
ATOM     2   C15 UNL     1      -0.285  -0.790   0.857  1.00  0.00     0.046 A   
ATOM     3   N2  UNL     1       0.030  -2.106   1.066  1.00  0.00    -0.202 N   
ATOM     4   N3  UNL     1       0.884  -2.546   0.117  1.00  0.00    -0.075 NA  
ATOM     5   N4  UNL     1       1.125  -1.542  -0.711  1.00  0.00    -0.132 NA  
ATOM     6   H20 UNL     1      -0.930  -0.240   1.529  1.00  0.00     0.083 HD  
ENDROOT
BRANCH   1   7
ATOM     7   C5  UNL     1       0.560   0.855  -0.993  1.00  0.00     0.120 C   
BRANCH   7   8
ATOM     8   C2  UNL     1      -0.399   1.032  -2.221  1.00  0.00     0.010 C   
ATOM     9   C1  UNL     1      -0.127   0.015  -3.348  1.00  0.00     0.017 C   
ATOM     10  C3  UNL     1      -0.258   2.458  -2.803  1.00  0.00     0.017 C   
ATOM     11  C4  UNL     1      -1.870   0.873  -1.772  1.00  0.00     0.017 C   
ENDBRANCH   7   8
BRANCH   7  12
ATOM     12  N1  UNL     1       2.011   0.996  -1.421  1.00  0.00     0.250 N   
ATOM     13  H11 UNL     1       2.377   0.032  -1.484  1.00  0.00     0.199 HD  
ATOM     14  H12 UNL     1       2.088   1.376  -2.367  1.00  0.00     0.199 HD  
BRANCH  12  15
ATOM     15  C6  UNL     1       2.896   1.775  -0.509  1.00  0.00     0.164 C   
BRANCH  15  16
ATOM     16  C7  UNL     1       3.072   1.158   0.850  1.00  0.00    -0.002 A   
ATOM     17  C8  UNL     1       2.433   1.721   1.981  1.00  0.00     0.012 A   
ATOM     18  C12 UNL     1       3.846  -0.006   1.004  1.00  0.00     0.045 A   
ATOM     19  C9  UNL     1       2.548   1.129   3.243  1.00  0.00     0.037 A   
ATOM     20  C11 UNL     1       3.943  -0.561   2.264  1.00  0.00     0.109 A   
ATOM     21  C10 UNL     1       3.308  -0.014   3.351  1.00  0.00     0.108 A   
ATOM     22  O1  UNL     1       4.643  -1.682   2.581  1.00  0.00    -0.316 OA  
ATOM     23  O2  UNL     1       3.513  -0.732   4.487  1.00  0.00    -0.316 OA  
ATOM     24  C13 UNL     1       4.429  -1.743   4.008  1.00  0.00     0.337 C   
ENDBRANCH  15  16
ENDBRANCH  12  15
ENDBRANCH   7  12
ENDBRANCH   1   7
BRANCH   3  25
ATOM     25  C16 UNL     1      -0.407  -3.001   2.138  1.00  0.00     0.155 C   
BRANCH  25  26
ATOM     26  C17 UNL     1       0.374  -2.728   3.439  1.00  0.00     0.185 C   
BRANCH  26  27
ATOM     27  O3  UNL     1       0.239  -1.384   3.905  1.00  0.00    -0.394 OA  
ATOM     28  H24 UNL     1       0.857  -1.279   4.654  1.00  0.00     0.210 HD  
ENDBRANCH  26  27
ENDBRANCH  25  26
BRANCH  25  29
ATOM     29  C18 UNL     1      -1.929  -3.033   2.223  1.00  0.00    -0.022 A   
ATOM     30  C19 UNL     1      -2.646  -3.805   1.287  1.00  0.00     0.006 A   
ATOM     31  C23 UNL     1      -2.660  -2.305   3.175  1.00  0.00     0.026 A   
ATOM     32  C20 UNL     1      -4.041  -3.856   1.310  1.00  0.00     0.002 A   
ATOM     33  C22 UNL     1      -4.056  -2.356   3.191  1.00  0.00     0.041 A   
ATOM     34  C21 UNL     1      -4.749  -3.129   2.265  1.00  0.00     0.020 A   
ATOM     35  CL1 UNL     1      -4.926  -1.444   4.362  1.00  0.00    -0.084 Cl  
ENDBRANCH  25  29
ENDBRANCH   3  25
TORSDOF 9
