REMARK SMILES CC(C)(C)[C@H]([NH2+]Cc1ccc2c(c1)OCO2)c1cn([C@H](CO)c2cccc(Cl)c2)nn1
REMARK SMILES IDX 17 1 18 2 19 3 30 4 31 5 5 7 2 8 1 9 3 10 4 11 6 12 7 15
REMARK SMILES IDX 8 16 9 17 13 18 10 19 12 20 11 21 14 22 16 23 15 24 20 25
REMARK SMILES IDX 21 26 22 27 23 29 24 30 29 31 25 32 27 33 26 34 28 35
REMARK H PARENT 18 6 6 13 6 14 22 28
ROOT
ATOM     1   C14 UNL     1      -0.612   0.215   0.376  1.00  0.00     0.127 A   
ATOM     2   C15 UNL     1      -1.568  -0.621  -0.155  1.00  0.00     0.046 A   
ATOM     3   N2  UNL     1      -2.466   0.229  -0.747  1.00  0.00    -0.202 N   
ATOM     4   N3  UNL     1      -2.061   1.511  -0.615  1.00  0.00    -0.075 NA  
ATOM     5   N4  UNL     1      -0.932   1.514   0.073  1.00  0.00    -0.132 NA  
ATOM     6   H20 UNL     1      -1.693  -1.695  -0.168  1.00  0.00     0.083 HD  
ENDROOT
BRANCH   1   7
ATOM     7   C5  UNL     1       0.665  -0.080   1.102  1.00  0.00     0.120 C   
BRANCH   7   8
ATOM     8   C2  UNL     1       0.535  -0.052   2.667  1.00  0.00     0.010 C   
ATOM     9   C1  UNL     1      -0.559  -1.043   3.127  1.00  0.00     0.017 C   
ATOM     10  C3  UNL     1       0.182   1.345   3.214  1.00  0.00     0.017 C   
ATOM     11  C4  UNL     1       1.859  -0.510   3.323  1.00  0.00     0.017 C   
ENDBRANCH   7   8
BRANCH   7  12
ATOM     12  N1  UNL     1       1.724   0.905   0.644  1.00  0.00     0.250 N   
ATOM     13  H11 UNL     1       1.291   1.837   0.709  1.00  0.00     0.199 HD  
ATOM     14  H12 UNL     1       2.531   0.901   1.270  1.00  0.00     0.199 HD  
BRANCH  12  15
ATOM     15  C6  UNL     1       2.209   0.749  -0.761  1.00  0.00     0.164 C   
BRANCH  15  16
ATOM     16  C7  UNL     1       2.988  -0.519  -0.972  1.00  0.00    -0.002 A   
ATOM     17  C8  UNL     1       4.291  -0.660  -0.435  1.00  0.00     0.012 A   
ATOM     18  C12 UNL     1       2.412  -1.589  -1.679  1.00  0.00     0.045 A   
ATOM     19  C9  UNL     1       5.008  -1.851  -0.593  1.00  0.00     0.037 A   
ATOM     20  C11 UNL     1       3.145  -2.750  -1.815  1.00  0.00     0.109 A   
ATOM     21  C10 UNL     1       4.405  -2.878  -1.286  1.00  0.00     0.108 A   
ATOM     22  O1  UNL     1       2.733  -3.874  -2.456  1.00  0.00    -0.316 OA  
ATOM     23  O2  UNL     1       4.948  -4.098  -1.532  1.00  0.00    -0.316 OA  
ATOM     24  C13 UNL     1       3.897  -4.718  -2.304  1.00  0.00     0.337 C   
ENDBRANCH  15  16
ENDBRANCH  12  15
ENDBRANCH   7  12
ENDBRANCH   1   7
BRANCH   3  25
ATOM     25  C16 UNL     1      -3.698  -0.125  -1.454  1.00  0.00     0.155 C   
BRANCH  25  26
ATOM     26  C17 UNL     1      -3.765   0.509  -2.855  1.00  0.00     0.185 C   
BRANCH  26  27
ATOM     27  O3  UNL     1      -2.793  -0.096  -3.714  1.00  0.00    -0.394 OA  
ATOM     28  H24 UNL     1      -2.924   0.287  -4.602  1.00  0.00     0.210 HD  
ENDBRANCH  26  27
ENDBRANCH  25  26
BRANCH  25  29
ATOM     29  C18 UNL     1      -4.908   0.174  -0.584  1.00  0.00    -0.022 A   
ATOM     30  C19 UNL     1      -5.367   1.486  -0.376  1.00  0.00     0.006 A   
ATOM     31  C23 UNL     1      -5.588  -0.880   0.051  1.00  0.00     0.026 A   
ATOM     32  C20 UNL     1      -6.477   1.735   0.436  1.00  0.00     0.002 A   
ATOM     33  C22 UNL     1      -6.694  -0.624   0.863  1.00  0.00     0.041 A   
ATOM     34  C21 UNL     1      -7.142   0.679   1.057  1.00  0.00     0.020 A   
ATOM     35  CL1 UNL     1      -7.504  -1.931   1.633  1.00  0.00    -0.084 Cl  
ENDBRANCH  25  29
ENDBRANCH   3  25
TORSDOF 9
