REMARK SMILES CC(C)C[C@H]([NH2+]Cc1ccc2c(c1)OCO2)c1cn(Cc2cnn(-c3ccccc3)c2)nn1
REMARK SMILES IDX 17 1 18 2 19 3 32 4 33 5 5 7 4 8 2 9 1 10 3 11 6 12 7 15
REMARK SMILES IDX 8 16 9 17 13 18 10 19 12 20 11 21 14 22 16 23 15 24 20 25
REMARK SMILES IDX 21 26 22 27 31 28 23 29 24 30 25 31 26 32 30 33 27 34 29 35
REMARK SMILES IDX 28 36
REMARK H PARENT 18 6 6 13 6 14
ROOT
ATOM     1   C14 UNL     1      -1.767   0.354  -1.841  1.00  0.00     0.127 A   
ATOM     2   C15 UNL     1      -2.012   0.227  -0.492  1.00  0.00     0.046 A   
ATOM     3   N2  UNL     1      -2.564  -1.020  -0.376  1.00  0.00    -0.208 N   
ATOM     4   N5  UNL     1      -2.675  -1.613  -1.581  1.00  0.00    -0.076 NA  
ATOM     5   N6  UNL     1      -2.182  -0.783  -2.486  1.00  0.00    -0.132 NA  
ATOM     6   H20 UNL     1      -1.835   0.865   0.362  1.00  0.00     0.083 HD  
ENDROOT
BRANCH   1   7
ATOM     7   C5  UNL     1      -1.118   1.441  -2.635  1.00  0.00     0.114 C   
BRANCH   7   8
ATOM     8   C4  UNL     1      -2.169   2.394  -3.236  1.00  0.00     0.064 C   
BRANCH   8   9
ATOM     9   C2  UNL     1      -1.604   3.655  -3.924  1.00  0.00    -0.012 C   
ATOM     10  C1  UNL     1      -2.742   4.426  -4.601  1.00  0.00     0.007 C   
ATOM     11  C3  UNL     1      -0.877   4.576  -2.942  1.00  0.00     0.007 C   
ENDBRANCH   8   9
ENDBRANCH   7   8
BRANCH   7  12
ATOM     12  N1  UNL     1      -0.312   0.824  -3.755  1.00  0.00     0.249 N   
ATOM     13  H11 UNL     1      -0.688  -0.132  -3.877  1.00  0.00     0.199 HD  
ATOM     14  H12 UNL     1      -0.491   1.293  -4.646  1.00  0.00     0.199 HD  
BRANCH  12  15
ATOM     15  C6  UNL     1       1.155   0.722  -3.530  1.00  0.00     0.164 C   
BRANCH  15  16
ATOM     16  C7  UNL     1       1.533  -0.181  -2.390  1.00  0.00    -0.002 A   
ATOM     17  C8  UNL     1       1.990   0.360  -1.164  1.00  0.00     0.012 A   
ATOM     18  C12 UNL     1       1.421  -1.575  -2.528  1.00  0.00     0.045 A   
ATOM     19  C9  UNL     1       2.329  -0.471  -0.091  1.00  0.00     0.037 A   
ATOM     20  C11 UNL     1       1.774  -2.366  -1.456  1.00  0.00     0.109 A   
ATOM     21  C10 UNL     1       2.215  -1.831  -0.272  1.00  0.00     0.108 A   
ATOM     22  O1  UNL     1       1.755  -3.725  -1.437  1.00  0.00    -0.316 OA  
ATOM     23  O2  UNL     1       2.528  -2.784   0.643  1.00  0.00    -0.316 OA  
ATOM     24  C13 UNL     1       2.289  -3.989  -0.119  1.00  0.00     0.337 C   
ENDBRANCH  15  16
ENDBRANCH  12  15
ENDBRANCH   7  12
ENDBRANCH   1   7
BRANCH   3  25
ATOM     25  C16 UNL     1      -3.037  -1.685   0.828  1.00  0.00     0.172 C   
BRANCH  25  26
ATOM     26  C17 UNL     1      -1.937  -2.444   1.474  1.00  0.00     0.008 A   
ATOM     27  C18 UNL     1      -1.596  -3.794   1.266  1.00  0.00     0.138 A   
ATOM     28  C25 UNL     1      -1.028  -2.019   2.424  1.00  0.00     0.108 A   
ATOM     29  N3  UNL     1      -0.576  -4.191   2.023  1.00  0.00    -0.185 NA  
ATOM     30  N4  UNL     1      -0.214  -3.093   2.736  1.00  0.00    -0.201 N   
BRANCH  30  31
ATOM     31  C19 UNL     1       0.874  -3.137   3.651  1.00  0.00     0.056 A   
ATOM     32  C20 UNL     1       1.309  -1.984   4.323  1.00  0.00     0.026 A   
ATOM     33  C24 UNL     1       1.532  -4.356   3.879  1.00  0.00     0.026 A   
ATOM     34  C21 UNL     1       2.389  -2.058   5.208  1.00  0.00     0.002 A   
ATOM     35  C23 UNL     1       2.603  -4.423   4.772  1.00  0.00     0.002 A   
ATOM     36  C22 UNL     1       3.030  -3.275   5.436  1.00  0.00     0.000 A   
ENDBRANCH  30  31
ENDBRANCH  25  26
ENDBRANCH   3  25
TORSDOF 9
