REMARK SMILES CCc1ccsc1[C@H](CO)n1cc([C@@H]([NH2+]Cc2ccc3c(c2)OCO3)C(C)C)nn1
REMARK SMILES IDX 11 1 12 2 13 3 29 4 30 5 8 7 7 8 3 9 4 10 5 11 6 12 2 13
REMARK SMILES IDX 1 14 9 15 10 16 14 18 15 19 16 22 17 23 18 24 22 25 19 26
REMARK SMILES IDX 21 27 20 28 23 29 25 30 24 31 26 32 27 33 28 34
REMARK H PARENT 12 6 10 17 15 20 15 21
ROOT
ATOM     1   N1  UNL     1      -0.155  -2.417  -0.315  1.00  0.00    -0.202 N   
ATOM     2   C9  UNL     1      -1.269  -1.747   0.113  1.00  0.00     0.046 A   
ATOM     3   C10 UNL     1      -0.896  -0.425   0.108  1.00  0.00     0.127 A   
ATOM     4   N3  UNL     1       0.405  -0.327  -0.314  1.00  0.00    -0.132 NA  
ATOM     5   N4  UNL     1       0.855  -1.549  -0.548  1.00  0.00    -0.075 NA  
ATOM     6   H12 UNL     1      -2.182  -2.262   0.376  1.00  0.00     0.083 HD  
ENDROOT
BRANCH   1   7
ATOM     7   C7  UNL     1       0.034  -3.848  -0.544  1.00  0.00     0.162 C   
BRANCH   7   8
ATOM     8   C6  UNL     1      -1.001  -4.376  -1.532  1.00  0.00     0.017 A   
ATOM     9   C3  UNL     1      -0.950  -4.338  -2.925  1.00  0.00    -0.036 A   
ATOM     10  C4  UNL     1      -2.120  -4.932  -3.508  1.00  0.00     0.012 A   
ATOM     11  C5  UNL     1      -3.013  -5.386  -2.568  1.00  0.00     0.046 A   
ATOM     12  S1  UNL     1      -2.459  -5.109  -0.987  1.00  0.00    -0.100 S   
BRANCH   9  13
ATOM     13  C2  UNL     1       0.160  -3.760  -3.765  1.00  0.00     0.033 C   
ATOM     14  C1  UNL     1      -0.121  -2.326  -4.192  1.00  0.00     0.009 C   
ENDBRANCH   9  13
ENDBRANCH   7   8
BRANCH   7  15
ATOM     15  C8  UNL     1       0.191  -4.632   0.774  1.00  0.00     0.186 C   
BRANCH  15  16
ATOM     16  O1  UNL     1      -0.862  -4.391   1.709  1.00  0.00    -0.394 OA  
ATOM     17  H11 UNL     1      -0.789  -5.074   2.403  1.00  0.00     0.210 HD  
ENDBRANCH  15  16
ENDBRANCH   7  15
ENDBRANCH   1   7
BRANCH   3  18
ATOM     18  C11 UNL     1      -1.653   0.805   0.493  1.00  0.00     0.117 C   
BRANCH  18  19
ATOM     19  N2  UNL     1      -0.706   1.931   0.811  1.00  0.00     0.249 N   
ATOM     20  H14 UNL     1       0.006   1.935   0.066  1.00  0.00     0.199 HD  
ATOM     21  H15 UNL     1      -1.166   2.845   0.777  1.00  0.00     0.199 HD  
BRANCH  19  22
ATOM     22  C12 UNL     1       0.020   1.807   2.108  1.00  0.00     0.164 C   
BRANCH  22  23
ATOM     23  C13 UNL     1       0.968   2.959   2.283  1.00  0.00    -0.002 A   
ATOM     24  C14 UNL     1       0.604   4.080   3.066  1.00  0.00     0.012 A   
ATOM     25  C18 UNL     1       2.207   2.953   1.615  1.00  0.00     0.045 A   
ATOM     26  C15 UNL     1       1.464   5.177   3.192  1.00  0.00     0.037 A   
ATOM     27  C17 UNL     1       3.027   4.052   1.757  1.00  0.00     0.109 A   
ATOM     28  C16 UNL     1       2.668   5.132   2.525  1.00  0.00     0.108 A   
ATOM     29  O2  UNL     1       4.245   4.210   1.173  1.00  0.00    -0.316 OA  
ATOM     30  O3  UNL     1       3.615   6.104   2.523  1.00  0.00    -0.316 OA  
ATOM     31  C19 UNL     1       4.626   5.507   1.683  1.00  0.00     0.337 C   
ENDBRANCH  22  23
ENDBRANCH  19  22
ENDBRANCH  18  19
BRANCH  18  32
ATOM     32  C20 UNL     1      -2.655   1.242  -0.608  1.00  0.00     0.037 C   
ATOM     33  C21 UNL     1      -3.649   2.288  -0.089  1.00  0.00     0.014 C   
ATOM     34  C22 UNL     1      -1.986   1.754  -1.888  1.00  0.00     0.014 C   
ENDBRANCH  18  32
ENDBRANCH   3  18
TORSDOF 10
