REMARK SMILES CCc1ccsc1[C@@H](CO)n1cc([C@@H]([NH2+]Cc2ccc3c(c2)OCO3)C(C)C)nn1
REMARK SMILES IDX 11 1 12 2 13 3 29 4 30 5 8 7 7 8 3 9 4 10 5 11 6 12 2 13
REMARK SMILES IDX 1 14 9 15 10 16 14 18 15 19 16 22 17 23 18 24 22 25 19 26
REMARK SMILES IDX 21 27 20 28 23 29 25 30 24 31 26 32 27 33 28 34
REMARK H PARENT 12 6 10 17 15 20 15 21
ROOT
ATOM     1   N1  UNL     1       0.324   2.789   1.168  1.00  0.00    -0.202 N   
ATOM     2   C9  UNL     1       0.483   2.733  -0.191  1.00  0.00     0.046 A   
ATOM     3   C10 UNL     1      -0.100   1.541  -0.552  1.00  0.00     0.127 A   
ATOM     4   N3  UNL     1      -0.575   0.914   0.571  1.00  0.00    -0.132 NA  
ATOM     5   N4  UNL     1      -0.311   1.682   1.615  1.00  0.00    -0.075 NA  
ATOM     6   H12 UNL     1       0.971   3.523  -0.745  1.00  0.00     0.083 HD  
ENDROOT
BRANCH   1   7
ATOM     7   C7  UNL     1       0.770   3.814   2.109  1.00  0.00     0.162 C   
BRANCH   7   8
ATOM     8   C6  UNL     1       2.290   3.953   2.059  1.00  0.00     0.017 A   
ATOM     9   C3  UNL     1       3.244   3.144   2.679  1.00  0.00    -0.036 A   
ATOM     10  C4  UNL     1       4.576   3.606   2.406  1.00  0.00     0.012 A   
ATOM     11  C5  UNL     1       4.603   4.713   1.593  1.00  0.00     0.046 A   
ATOM     12  S1  UNL     1       3.039   5.206   1.147  1.00  0.00    -0.100 S   
BRANCH   9  13
ATOM     13  C2  UNL     1       2.973   1.935   3.537  1.00  0.00     0.033 C   
ATOM     14  C1  UNL     1       3.120   0.632   2.763  1.00  0.00     0.009 C   
ENDBRANCH   9  13
ENDBRANCH   7   8
BRANCH   7  15
ATOM     15  C8  UNL     1      -0.053   5.112   1.992  1.00  0.00     0.186 C   
BRANCH  15  16
ATOM     16  O1  UNL     1      -0.093   5.647   0.669  1.00  0.00    -0.394 OA  
ATOM     17  H11 UNL     1      -0.485   6.538   0.733  1.00  0.00     0.210 HD  
ENDBRANCH  15  16
ENDBRANCH   7  15
ENDBRANCH   1   7
BRANCH   3  18
ATOM     18  C11 UNL     1      -0.231   0.879  -1.886  1.00  0.00     0.117 C   
BRANCH  18  19
ATOM     19  N2  UNL     1      -0.291  -0.615  -1.718  1.00  0.00     0.249 N   
ATOM     20  H14 UNL     1      -0.936  -0.798  -0.935  1.00  0.00     0.199 HD  
ATOM     21  H15 UNL     1      -0.693  -1.081  -2.537  1.00  0.00     0.199 HD  
BRANCH  19  22
ATOM     22  C12 UNL     1       1.006  -1.263  -1.378  1.00  0.00     0.164 C   
BRANCH  22  23
ATOM     23  C13 UNL     1       0.809  -2.731  -1.127  1.00  0.00    -0.002 A   
ATOM     24  C14 UNL     1       0.450  -3.188   0.164  1.00  0.00     0.012 A   
ATOM     25  C18 UNL     1       0.925  -3.651  -2.182  1.00  0.00     0.045 A   
ATOM     26  C15 UNL     1       0.222  -4.546   0.407  1.00  0.00     0.037 A   
ATOM     27  C17 UNL     1       0.692  -4.984  -1.908  1.00  0.00     0.109 A   
ATOM     28  C16 UNL     1       0.352  -5.419  -0.651  1.00  0.00     0.108 A   
ATOM     29  O2  UNL     1       0.762  -5.998  -2.808  1.00  0.00    -0.316 OA  
ATOM     30  O3  UNL     1       0.166  -6.763  -0.601  1.00  0.00    -0.316 OA  
ATOM     31  C19 UNL     1       0.451  -7.133  -1.968  1.00  0.00     0.337 C   
ENDBRANCH  22  23
ENDBRANCH  19  22
ENDBRANCH  18  19
BRANCH  18  32
ATOM     32  C20 UNL     1      -1.466   1.386  -2.675  1.00  0.00     0.037 C   
ATOM     33  C21 UNL     1      -2.810   0.971  -2.064  1.00  0.00     0.014 C   
ATOM     34  C22 UNL     1      -1.413   0.956  -4.146  1.00  0.00     0.014 C   
ENDBRANCH  18  32
ENDBRANCH   3  18
TORSDOF 10
