REMARK SMILES COc1cccc(C(=O)Cn2cc([C@@H]([NH2+]Cc3ccc4c(c3)OCO4)C(C)C)nn2)c1
REMARK SMILES IDX 11 1 12 2 13 3 29 4 30 5 10 7 8 8 9 9 7 10 3 11 4 12 31 13
REMARK SMILES IDX 5 14 6 15 2 16 1 17 14 18 15 19 16 22 17 23 18 24 22 25
REMARK SMILES IDX 19 26 21 27 20 28 23 29 25 30 24 31 26 32 27 33 28 34
REMARK H PARENT 12 6 15 20 15 21
ROOT
ATOM     1   N1  UNL     1      -0.459  -1.147  -2.092  1.00  0.00    -0.204 N   
ATOM     2   C9  UNL     1      -0.167  -2.057  -1.112  1.00  0.00     0.046 A   
ATOM     3   C10 UNL     1      -1.306  -2.095  -0.341  1.00  0.00     0.127 A   
ATOM     4   N3  UNL     1      -2.243  -1.249  -0.880  1.00  0.00    -0.132 NA  
ATOM     5   N4  UNL     1      -1.710  -0.669  -1.945  1.00  0.00    -0.076 NA  
ATOM     6   H9  UNL     1       0.796  -2.546  -1.045  1.00  0.00     0.083 HD  
ENDROOT
BRANCH   1   7
ATOM     7   C8  UNL     1       0.365  -0.721  -3.198  1.00  0.00     0.214 C   
BRANCH   7   8
ATOM     8   C7  UNL     1       1.683  -0.164  -2.715  1.00  0.00     0.182 C   
ATOM     9   O2  UNL     1       2.569  -0.914  -2.298  1.00  0.00    -0.292 OA  
BRANCH   8  10
ATOM     10  C6  UNL     1       1.920   1.308  -2.733  1.00  0.00     0.022 A   
ATOM     11  C2  UNL     1       3.546   3.122  -2.749  1.00  0.00     0.075 A   
ATOM     12  C3  UNL     1       2.503   4.048  -2.735  1.00  0.00     0.033 A   
ATOM     13  C23 UNL     1       3.249   1.757  -2.743  1.00  0.00     0.045 A   
ATOM     14  C4  UNL     1       1.173   3.608  -2.714  1.00  0.00     0.003 A   
ATOM     15  C5  UNL     1       0.878   2.243  -2.709  1.00  0.00     0.012 A   
BRANCH  11  16
ATOM     16  O1  UNL     1       4.880   3.413  -2.748  1.00  0.00    -0.349 OA  
ATOM     17  C1  UNL     1       5.248   4.774  -2.958  1.00  0.00     0.203 C   
ENDBRANCH  11  16
ENDBRANCH   8  10
ENDBRANCH   7   8
ENDBRANCH   1   7
BRANCH   3  18
ATOM     18  C11 UNL     1      -1.606  -2.821   0.932  1.00  0.00     0.117 C   
BRANCH  18  19
ATOM     19  N2  UNL     1      -2.581  -2.014   1.766  1.00  0.00     0.249 N   
ATOM     20  H11 UNL     1      -3.266  -2.622   2.224  1.00  0.00     0.199 HD  
ATOM     21  H12 UNL     1      -3.116  -1.441   1.094  1.00  0.00     0.199 HD  
BRANCH  19  22
ATOM     22  C12 UNL     1      -1.984  -1.104   2.787  1.00  0.00     0.164 C   
BRANCH  22  23
ATOM     23  C13 UNL     1      -1.079  -0.044   2.223  1.00  0.00    -0.002 A   
ATOM     24  C14 UNL     1      -1.615   1.047   1.498  1.00  0.00     0.012 A   
ATOM     25  C18 UNL     1       0.313  -0.140   2.393  1.00  0.00     0.045 A   
ATOM     26  C15 UNL     1      -0.782   2.026   0.948  1.00  0.00     0.037 A   
ATOM     27  C17 UNL     1       1.106   0.842   1.838  1.00  0.00     0.109 A   
ATOM     28  C16 UNL     1       0.574   1.895   1.138  1.00  0.00     0.108 A   
ATOM     29  O3  UNL     1       2.464   0.895   1.908  1.00  0.00    -0.316 OA  
ATOM     30  O4  UNL     1       1.526   2.747   0.685  1.00  0.00    -0.316 OA  
ATOM     31  C19 UNL     1       2.731   2.107   1.169  1.00  0.00     0.337 C   
ENDBRANCH  22  23
ENDBRANCH  19  22
ENDBRANCH  18  19
BRANCH  18  32
ATOM     32  C20 UNL     1      -2.155  -4.249   0.677  1.00  0.00     0.037 C   
ATOM     33  C21 UNL     1      -2.165  -5.079   1.966  1.00  0.00     0.014 C   
ATOM     34  C22 UNL     1      -3.542  -4.280   0.027  1.00  0.00     0.014 C   
ENDBRANCH  18  32
ENDBRANCH   3  18
TORSDOF 9
