REMARK SMILES Cc1noc(C)c1CCn1cc([C@@H]([NH2+]Cc2ccc3c(c2)OCO3)C(C)(C)C)nn1
REMARK SMILES IDX 10 1 11 2 12 3 29 4 30 5 9 7 8 8 7 9 2 10 3 11 4 12 5 13
REMARK SMILES IDX 1 14 6 15 13 16 14 17 15 20 16 21 17 22 21 23 18 24 20 25
REMARK SMILES IDX 19 26 22 27 24 28 23 29 25 30 26 31 27 32 28 33
REMARK H PARENT 11 6 14 18 14 19
ROOT
ATOM     1   N2  UNL     1       0.969  -0.790  -2.996  1.00  0.00    -0.212 N   
ATOM     2   C8  UNL     1       1.148  -1.728  -2.018  1.00  0.00     0.045 A   
ATOM     3   C9  UNL     1       0.140  -1.464  -1.117  1.00  0.00     0.127 A   
ATOM     4   N4  UNL     1      -0.627  -0.430  -1.593  1.00  0.00    -0.132 NA  
ATOM     5   N5  UNL     1      -0.115  -0.034  -2.748  1.00  0.00    -0.076 NA  
ATOM     6   H11 UNL     1       1.982  -2.416  -2.018  1.00  0.00     0.083 HD  
ENDROOT
BRANCH   1   7
ATOM     7   C7  UNL     1       1.881  -0.451  -4.071  1.00  0.00     0.139 C   
BRANCH   7   8
ATOM     8   C6  UNL     1       2.660   0.846  -3.810  1.00  0.00     0.061 C   
BRANCH   8   9
ATOM     9   C5  UNL     1       3.288   0.890  -2.454  1.00  0.00     0.006 A   
ATOM     10  C2  UNL     1       2.918   1.709  -1.348  1.00  0.00     0.071 A   
ATOM     11  N1  UNL     1       3.588   1.363  -0.242  1.00  0.00    -0.134 NA  
ATOM     12  O1  UNL     1       4.491   0.396  -0.636  1.00  0.00    -0.218 OA  
ATOM     13  C3  UNL     1       4.325   0.128  -1.958  1.00  0.00     0.087 A   
ATOM     14  C1  UNL     1       1.905   2.792  -1.297  1.00  0.00     0.070 C   
ATOM     15  C4  UNL     1       5.226  -0.894  -2.526  1.00  0.00     0.076 C   
ENDBRANCH   8   9
ENDBRANCH   7   8
ENDBRANCH   1   7
BRANCH   3  16
ATOM     16  C10 UNL     1      -0.117  -2.019   0.252  1.00  0.00     0.120 C   
BRANCH  16  17
ATOM     17  N3  UNL     1      -0.457  -0.883   1.187  1.00  0.00     0.250 N   
ATOM     18  H13 UNL     1      -0.848  -1.210   2.073  1.00  0.00     0.199 HD  
ATOM     19  H14 UNL     1      -1.192  -0.326   0.728  1.00  0.00     0.199 HD  
BRANCH  17  20
ATOM     20  C11 UNL     1       0.671   0.050   1.490  1.00  0.00     0.164 C   
BRANCH  20  21
ATOM     21  C12 UNL     1       0.214   1.135   2.423  1.00  0.00    -0.002 A   
ATOM     22  C13 UNL     1       0.475   1.046   3.811  1.00  0.00     0.012 A   
ATOM     23  C17 UNL     1      -0.517   2.228   1.923  1.00  0.00     0.045 A   
ATOM     24  C14 UNL     1       0.023   2.035   4.691  1.00  0.00     0.037 A   
ATOM     25  C16 UNL     1      -0.948   3.184   2.818  1.00  0.00     0.109 A   
ATOM     26  C15 UNL     1      -0.687   3.092   4.163  1.00  0.00     0.108 A   
ATOM     27  O2  UNL     1      -1.662   4.296   2.503  1.00  0.00    -0.316 OA  
ATOM     28  O3  UNL     1      -1.201   4.135   4.864  1.00  0.00    -0.316 OA  
ATOM     29  C18 UNL     1      -1.799   4.912   3.804  1.00  0.00     0.337 C   
ENDBRANCH  20  21
ENDBRANCH  17  20
ENDBRANCH  16  17
BRANCH  16  30
ATOM     30  C19 UNL     1      -1.228  -3.124   0.300  1.00  0.00     0.010 C   
ATOM     31  C20 UNL     1      -1.325  -3.731   1.720  1.00  0.00     0.017 C   
ATOM     32  C21 UNL     1      -2.622  -2.592  -0.090  1.00  0.00     0.017 C   
ATOM     33  C22 UNL     1      -0.863  -4.281  -0.659  1.00  0.00     0.017 C   
ENDBRANCH  16  30
ENDBRANCH   3  16
TORSDOF 8
