REMARK SMILES FC(F)c1ocnc1Cn1cc([C@@H]([NH2+]Cc2ccc3c(c2)OCO3)C2CCCC2)nn1
REMARK SMILES IDX 10 1 11 2 12 3 30 4 31 5 9 7 8 8 4 9 5 10 6 11 7 12 2 13
REMARK SMILES IDX 1 14 3 15 13 16 14 17 15 20 16 21 17 22 21 23 18 24 20 25
REMARK SMILES IDX 19 26 22 27 24 28 23 29 25 30 26 31 29 32 27 33 28 34
REMARK H PARENT 11 6 14 18 14 19
ROOT
ATOM     1   N2  UNL     1       0.928  -0.703   3.197  1.00  0.00    -0.206 N   
ATOM     2   C6  UNL     1       0.076  -1.174   2.234  1.00  0.00     0.046 A   
ATOM     3   C7  UNL     1       0.854  -1.222   1.099  1.00  0.00     0.127 A   
ATOM     4   N4  UNL     1       2.129  -0.825   1.408  1.00  0.00    -0.132 NA  
ATOM     5   N5  UNL     1       2.163  -0.517   2.693  1.00  0.00    -0.076 NA  
ATOM     6   H5  UNL     1      -0.966  -1.385   2.432  1.00  0.00     0.083 HD  
ENDROOT
BRANCH   1   7
ATOM     7   C5  UNL     1       0.629  -0.396   4.586  1.00  0.00     0.192 C   
BRANCH   7   8
ATOM     8   C4  UNL     1       0.584   1.073   4.820  1.00  0.00     0.095 A   
ATOM     9   C2  UNL     1      -0.192   2.050   4.225  1.00  0.00     0.150 A   
ATOM     10  O1  UNL     1       0.131   3.252   4.800  1.00  0.00    -0.295 OA  
ATOM     11  C3  UNL     1       1.078   2.933   5.724  1.00  0.00     0.247 A   
ATOM     12  N1  UNL     1       1.378   1.657   5.787  1.00  0.00    -0.232 NA  
BRANCH   9  13
ATOM     13  C1  UNL     1      -1.223   2.052   3.173  1.00  0.00     0.398 C   
ATOM     14  F1  UNL     1      -1.991   0.928   3.255  1.00  0.00    -0.203 F   
ATOM     15  F2  UNL     1      -0.656   2.005   1.932  1.00  0.00    -0.203 F   
ENDBRANCH   9  13
ENDBRANCH   7   8
ENDBRANCH   1   7
BRANCH   3  16
ATOM     16  C8  UNL     1       0.516  -1.553  -0.318  1.00  0.00     0.117 C   
BRANCH  16  17
ATOM     17  N3  UNL     1       1.374  -0.729  -1.249  1.00  0.00     0.249 N   
ATOM     18  H7  UNL     1       2.323  -0.748  -0.848  1.00  0.00     0.199 HD  
ATOM     19  H8  UNL     1       1.432  -1.155  -2.177  1.00  0.00     0.199 HD  
BRANCH  17  20
ATOM     20  C9  UNL     1       0.991   0.708  -1.384  1.00  0.00     0.164 C   
BRANCH  20  21
ATOM     21  C10 UNL     1      -0.282   0.895  -2.163  1.00  0.00    -0.002 A   
ATOM     22  C11 UNL     1      -1.466   1.307  -1.506  1.00  0.00     0.012 A   
ATOM     23  C15 UNL     1      -0.313   0.636  -3.544  1.00  0.00     0.045 A   
ATOM     24  C12 UNL     1      -2.667   1.451  -2.209  1.00  0.00     0.037 A   
ATOM     25  C14 UNL     1      -1.513   0.786  -4.207  1.00  0.00     0.109 A   
ATOM     26  C13 UNL     1      -2.657   1.181  -3.559  1.00  0.00     0.108 A   
ATOM     27  O2  UNL     1      -1.715   0.569  -5.533  1.00  0.00    -0.316 OA  
ATOM     28  O3  UNL     1      -3.724   1.264  -4.396  1.00  0.00    -0.316 OA  
ATOM     29  C16 UNL     1      -3.117   0.902  -5.655  1.00  0.00     0.337 C   
ENDBRANCH  20  21
ENDBRANCH  17  20
ENDBRANCH  16  17
BRANCH  16  30
ATOM     30  C17 UNL     1       0.690  -3.056  -0.615  1.00  0.00     0.043 C   
ATOM     31  C18 UNL     1       2.127  -3.592  -0.594  1.00  0.00     0.010 C   
ATOM     32  C21 UNL     1       0.127  -3.498  -1.980  1.00  0.00     0.010 C   
ATOM     33  C19 UNL     1       2.017  -4.893  -1.373  1.00  0.00     0.001 C   
ATOM     34  C20 UNL     1       1.115  -4.522  -2.539  1.00  0.00     0.001 C   
ENDBRANCH  16  30
ENDBRANCH   3  16
TORSDOF 8
