REMARK SMILES c1ccc2c(Cn3cc([C@@H]([NH2+]Cc4ccc5c(c4)OCO5)C4CCCC4)nn3)n[nH]c2c1
REMARK SMILES IDX 7 1 8 2 9 3 27 4 28 5 6 7 5 8 1 9 2 10 32 11 3 12 31 13 4 14
REMARK SMILES IDX 30 15 29 16 10 18 11 19 12 22 13 23 14 24 18 25 15 26 17 27
REMARK SMILES IDX 16 28 19 29 21 30 20 31 22 32 23 33 26 34 24 35 25 36
REMARK H PARENT 8 6 30 17 11 20 11 21
ROOT
ATOM     1   N1  UNL     1      -0.846   0.183   3.501  1.00  0.00    -0.206 N   
ATOM     2   C7  UNL     1      -1.809   0.376   2.545  1.00  0.00     0.046 A   
ATOM     3   C8  UNL     1      -1.335  -0.311   1.451  1.00  0.00     0.127 A   
ATOM     4   N3  UNL     1      -0.140  -0.903   1.774  1.00  0.00    -0.132 NA  
ATOM     5   N4  UNL     1       0.151  -0.591   3.026  1.00  0.00    -0.076 NA  
ATOM     6   H6  UNL     1      -2.685   0.982   2.730  1.00  0.00     0.083 HD  
ENDROOT
BRANCH   1   7
ATOM     7   C6  UNL     1      -0.810   0.700   4.857  1.00  0.00     0.192 C   
BRANCH   7   8
ATOM     8   C5  UNL     1      -0.541   2.163   4.835  1.00  0.00     0.087 A   
ATOM     9   C1  UNL     1       2.714   4.748   4.429  1.00  0.00     0.002 A   
ATOM     10  C2  UNL     1       3.037   3.393   4.355  1.00  0.00     0.001 A   
ATOM     11  C24 UNL     1       1.393   5.167   4.626  1.00  0.00     0.026 A   
ATOM     12  C3  UNL     1       2.046   2.411   4.474  1.00  0.00     0.012 A   
ATOM     13  C23 UNL     1       0.420   4.170   4.740  1.00  0.00     0.057 A   
ATOM     14  C4  UNL     1       0.713   2.814   4.671  1.00  0.00     0.022 A   
ATOM     15  N6  UNL     1      -0.933   4.240   4.944  1.00  0.00    -0.238 N   
ATOM     16  N5  UNL     1      -1.548   3.042   4.964  1.00  0.00    -0.186 NA  
ATOM     17  H26 UNL     1      -1.495   5.076   5.069  1.00  0.00     0.176 HD  
ENDBRANCH   7   8
ENDBRANCH   1   7
BRANCH   3  18
ATOM     18  C9  UNL     1      -1.872  -0.446   0.063  1.00  0.00     0.117 C   
BRANCH  18  19
ATOM     19  N2  UNL     1      -0.741  -0.665  -0.907  1.00  0.00     0.249 N   
ATOM     20  H8  UNL     1      -1.054  -1.074  -1.792  1.00  0.00     0.199 HD  
ATOM     21  H9  UNL     1      -0.113  -1.358  -0.475  1.00  0.00     0.199 HD  
BRANCH  19  22
ATOM     22  C10 UNL     1       0.088   0.540  -1.195  1.00  0.00     0.164 C   
BRANCH  22  23
ATOM     23  C11 UNL     1       1.228   0.183  -2.107  1.00  0.00    -0.002 A   
ATOM     24  C12 UNL     1       2.405  -0.399  -1.574  1.00  0.00     0.012 A   
ATOM     25  C16 UNL     1       1.116   0.377  -3.494  1.00  0.00     0.045 A   
ATOM     26  C13 UNL     1       3.462  -0.774  -2.411  1.00  0.00     0.037 A   
ATOM     27  C15 UNL     1       2.175  -0.005  -4.290  1.00  0.00     0.109 A   
ATOM     28  C14 UNL     1       3.315  -0.562  -3.763  1.00  0.00     0.108 A   
ATOM     29  O1  UNL     1       2.232   0.114  -5.642  1.00  0.00    -0.316 OA  
ATOM     30  O2  UNL     1       4.235  -0.859  -4.716  1.00  0.00    -0.316 OA  
ATOM     31  C17 UNL     1       3.552  -0.411  -5.908  1.00  0.00     0.337 C   
ENDBRANCH  22  23
ENDBRANCH  19  22
ENDBRANCH  18  19
BRANCH  18  32
ATOM     32  C18 UNL     1      -2.909  -1.582  -0.040  1.00  0.00     0.043 C   
ATOM     33  C19 UNL     1      -2.379  -3.015   0.158  1.00  0.00     0.010 C   
ATOM     34  C22 UNL     1      -3.674  -1.631  -1.367  1.00  0.00     0.010 C   
ATOM     35  C20 UNL     1      -3.137  -3.892  -0.841  1.00  0.00     0.001 C   
ATOM     36  C21 UNL     1      -4.274  -3.027  -1.363  1.00  0.00     0.001 C   
ENDBRANCH  18  32
ENDBRANCH   3  18
TORSDOF 7
