REMARK SMILES CC(C)[C@H]([NH2+]Cc1ccc2c(c1)OCO2)c1cn([C@H](CO)c2cc[nH]n2)nn1
REMARK SMILES IDX 16 1 17 2 18 3 27 4 28 5 4 7 2 8 1 9 3 10 5 11 6 14 7 15
REMARK SMILES IDX 8 16 12 17 9 18 11 19 10 20 13 21 15 22 14 23 19 24 20 25
REMARK SMILES IDX 21 26 22 28 23 29 26 30 24 31 25 32
REMARK H PARENT 17 6 5 12 5 13 21 27 25 33
ROOT
ATOM     1   C13 UNL     1      -1.001   0.754   0.404  1.00  0.00     0.127 A   
ATOM     2   C14 UNL     1      -0.429   1.886  -0.128  1.00  0.00     0.046 A   
ATOM     3   N2  UNL     1      -0.732   2.874   0.772  1.00  0.00    -0.201 N   
ATOM     4   N5  UNL     1      -1.401   2.359   1.828  1.00  0.00    -0.075 NA  
ATOM     5   N6  UNL     1      -1.579   1.066   1.607  1.00  0.00    -0.132 NA  
ATOM     6   H18 UNL     1       0.122   2.085  -1.037  1.00  0.00     0.083 HD  
ENDROOT
BRANCH   1   7
ATOM     7   C4  UNL     1      -1.025  -0.655  -0.090  1.00  0.00     0.117 C   
BRANCH   7   8
ATOM     8   C2  UNL     1      -2.248  -0.995  -0.982  1.00  0.00     0.037 C   
ATOM     9   C1  UNL     1      -2.222  -0.211  -2.300  1.00  0.00     0.014 C   
ATOM     10  C3  UNL     1      -3.606  -0.804  -0.295  1.00  0.00     0.014 C   
ENDBRANCH   7   8
BRANCH   7  11
ATOM     11  N1  UNL     1      -1.008  -1.619   1.079  1.00  0.00     0.249 N   
ATOM     12  H9  UNL     1      -1.743  -1.300   1.725  1.00  0.00     0.199 HD  
ATOM     13  H10 UNL     1      -1.260  -2.560   0.766  1.00  0.00     0.199 HD  
BRANCH  11  14
ATOM     14  C5  UNL     1       0.262  -1.682   1.864  1.00  0.00     0.164 C   
BRANCH  14  15
ATOM     15  C6  UNL     1       1.409  -2.256   1.081  1.00  0.00    -0.002 A   
ATOM     16  C7  UNL     1       2.457  -1.417   0.632  1.00  0.00     0.012 A   
ATOM     17  C11 UNL     1       1.436  -3.626   0.765  1.00  0.00     0.045 A   
ATOM     18  C8  UNL     1       3.514  -1.930  -0.127  1.00  0.00     0.037 A   
ATOM     19  C10 UNL     1       2.493  -4.098   0.015  1.00  0.00     0.109 A   
ATOM     20  C9  UNL     1       3.502  -3.275  -0.419  1.00  0.00     0.108 A   
ATOM     21  O1  UNL     1       2.667  -5.386  -0.381  1.00  0.00    -0.316 OA  
ATOM     22  O2  UNL     1       4.440  -3.941  -1.141  1.00  0.00    -0.316 OA  
ATOM     23  C12 UNL     1       3.921  -5.288  -1.094  1.00  0.00     0.337 C   
ENDBRANCH  14  15
ENDBRANCH  11  14
ENDBRANCH   7  11
ENDBRANCH   1   7
BRANCH   3  24
ATOM     24  C15 UNL     1      -0.439   4.302   0.712  1.00  0.00     0.175 C   
BRANCH  24  25
ATOM     25  C16 UNL     1      -1.122   4.986  -0.486  1.00  0.00     0.187 C   
BRANCH  25  26
ATOM     26  O3  UNL     1      -0.636   4.536  -1.754  1.00  0.00    -0.394 OA  
ATOM     27  H22 UNL     1       0.337   4.687  -1.737  1.00  0.00     0.210 HD  
ENDBRANCH  25  26
ENDBRANCH  24  25
BRANCH  24  28
ATOM     28  C17 UNL     1       1.050   4.527   0.775  1.00  0.00     0.085 A   
ATOM     29  C18 UNL     1       1.838   4.734   1.934  1.00  0.00     0.044 A   
ATOM     30  N4  UNL     1       1.804   4.562  -0.339  1.00  0.00    -0.187 NA  
ATOM     31  C19 UNL     1       3.116   4.916   1.470  1.00  0.00     0.094 A   
ATOM     32  N3  UNL     1       3.046   4.824   0.112  1.00  0.00    -0.246 N   
ATOM     33  H25 UNL     1       3.800   4.928  -0.563  1.00  0.00     0.175 HD  
ENDBRANCH  24  28
ENDBRANCH   3  24
TORSDOF 9
