REMARK SMILES CC(C)[C@H]([NH2+]Cc1ccc2c(c1)OCO2)c1cn([C@@H](CO)c2cc[nH]n2)nn1
REMARK SMILES IDX 16 1 17 2 18 3 27 4 28 5 4 7 2 8 1 9 3 10 5 11 6 14 7 15
REMARK SMILES IDX 8 16 12 17 9 18 11 19 10 20 13 21 15 22 14 23 19 24 20 25
REMARK SMILES IDX 21 26 22 28 23 29 26 30 24 31 25 32
REMARK H PARENT 17 6 5 12 5 13 21 27 25 33
ROOT
ATOM     1   C13 UNL     1       0.775   1.554  -0.661  1.00  0.00     0.127 A   
ATOM     2   C14 UNL     1       1.452   0.864   0.317  1.00  0.00     0.046 A   
ATOM     3   N2  UNL     1       2.219   1.815   0.935  1.00  0.00    -0.201 N   
ATOM     4   N5  UNL     1       2.034   3.020   0.352  1.00  0.00    -0.075 NA  
ATOM     5   N6  UNL     1       1.154   2.871  -0.625  1.00  0.00    -0.132 NA  
ATOM     6   H18 UNL     1       1.421  -0.163   0.659  1.00  0.00     0.083 HD  
ENDROOT
BRANCH   1   7
ATOM     7   C4  UNL     1      -0.317   1.113  -1.575  1.00  0.00     0.117 C   
BRANCH   7   8
ATOM     8   C2  UNL     1       0.136   0.841  -3.033  1.00  0.00     0.037 C   
ATOM     9   C1  UNL     1       1.118  -0.335  -3.101  1.00  0.00     0.014 C   
ATOM     10  C3  UNL     1       0.735   2.053  -3.755  1.00  0.00     0.014 C   
ENDBRANCH   7   8
BRANCH   7  11
ATOM     11  N1  UNL     1      -1.430   2.140  -1.595  1.00  0.00     0.249 N   
ATOM     12  H9  UNL     1      -0.997   3.038  -1.847  1.00  0.00     0.199 HD  
ATOM     13  H10 UNL     1      -2.109   1.905  -2.325  1.00  0.00     0.199 HD  
BRANCH  11  14
ATOM     14  C5  UNL     1      -2.150   2.360  -0.301  1.00  0.00     0.164 C   
BRANCH  14  15
ATOM     15  C6  UNL     1      -2.849   1.132   0.211  1.00  0.00    -0.002 A   
ATOM     16  C7  UNL     1      -2.353   0.455   1.352  1.00  0.00     0.012 A   
ATOM     17  C11 UNL     1      -3.981   0.629  -0.454  1.00  0.00     0.045 A   
ATOM     18  C8  UNL     1      -2.970  -0.709   1.822  1.00  0.00     0.037 A   
ATOM     19  C10 UNL     1      -4.564  -0.521   0.036  1.00  0.00     0.109 A   
ATOM     20  C9  UNL     1      -4.072  -1.173   1.141  1.00  0.00     0.108 A   
ATOM     21  O1  UNL     1      -5.654  -1.139  -0.489  1.00  0.00    -0.316 OA  
ATOM     22  O2  UNL     1      -4.792  -2.283   1.450  1.00  0.00    -0.316 OA  
ATOM     23  C12 UNL     1      -5.815  -2.241   0.433  1.00  0.00     0.337 C   
ENDBRANCH  14  15
ENDBRANCH  11  14
ENDBRANCH   7  11
ENDBRANCH   1   7
BRANCH   3  24
ATOM     24  C15 UNL     1       3.022   1.707   2.151  1.00  0.00     0.175 C   
BRANCH  24  25
ATOM     25  C16 UNL     1       2.123   1.752   3.400  1.00  0.00     0.187 C   
BRANCH  25  26
ATOM     26  O3  UNL     1       1.193   0.663   3.460  1.00  0.00    -0.394 OA  
ATOM     27  H22 UNL     1       1.748  -0.150   3.460  1.00  0.00     0.210 HD  
ENDBRANCH  25  26
ENDBRANCH  24  25
BRANCH  24  28
ATOM     28  C17 UNL     1       3.920   0.500   2.093  1.00  0.00     0.085 A   
ATOM     29  C18 UNL     1       5.232   0.431   1.562  1.00  0.00     0.044 A   
ATOM     30  N4  UNL     1       3.529  -0.691   2.582  1.00  0.00    -0.187 NA  
ATOM     31  C19 UNL     1       5.631  -0.867   1.762  1.00  0.00     0.094 A   
ATOM     32  N3  UNL     1       4.593  -1.494   2.383  1.00  0.00    -0.246 N   
ATOM     33  H25 UNL     1       4.543  -2.460   2.696  1.00  0.00     0.175 HD  
ENDBRANCH  24  28
ENDBRANCH   3  24
TORSDOF 9
