REMARK SMILES CC(C)(C)[C@H]([NH2+]Cc1ccc2c(c1)OCO2)c1cn(Cc2cn[nH]c2C2CCCC2)nn1
REMARK SMILES IDX 17 1 18 2 19 3 31 4 32 5 5 7 2 8 1 9 3 10 4 11 6 12 7 15
REMARK SMILES IDX 8 16 9 17 13 18 10 19 12 20 11 21 14 22 16 23 15 24 20 25
REMARK SMILES IDX 21 26 22 27 25 28 23 29 24 30 26 32 27 33 30 34 28 35 29 36
REMARK H PARENT 18 6 6 13 6 14 24 31
ROOT
ATOM     1   C14 UNL     1       0.152   1.495  -0.998  1.00  0.00     0.127 A   
ATOM     2   C15 UNL     1      -0.859   0.616  -1.321  1.00  0.00     0.046 A   
ATOM     3   N2  UNL     1      -0.212  -0.422  -1.932  1.00  0.00    -0.208 N   
ATOM     4   N5  UNL     1       1.112  -0.180  -2.013  1.00  0.00    -0.076 NA  
ATOM     5   N6  UNL     1       1.347   0.989  -1.440  1.00  0.00    -0.132 NA  
ATOM     6   H20 UNL     1      -1.924   0.608  -1.132  1.00  0.00     0.083 HD  
ENDROOT
BRANCH   1   7
ATOM     7   C5  UNL     1       0.128   2.753  -0.187  1.00  0.00     0.120 C   
BRANCH   7   8
ATOM     8   C2  UNL     1       0.159   4.070  -1.043  1.00  0.00     0.010 C   
ATOM     9   C1  UNL     1      -1.040   4.088  -2.020  1.00  0.00     0.017 C   
ATOM     10  C3  UNL     1       0.014   5.311  -0.130  1.00  0.00     0.017 C   
ATOM     11  C4  UNL     1       1.455   4.228  -1.864  1.00  0.00     0.017 C   
ENDBRANCH   7   8
BRANCH   7  12
ATOM     12  N1  UNL     1       1.276   2.738   0.806  1.00  0.00     0.250 N   
ATOM     13  H11 UNL     1       1.323   3.622   1.316  1.00  0.00     0.199 HD  
ATOM     14  H12 UNL     1       2.139   2.652   0.254  1.00  0.00     0.199 HD  
BRANCH  12  15
ATOM     15  C6  UNL     1       1.293   1.616   1.800  1.00  0.00     0.164 C   
BRANCH  15  16
ATOM     16  C7  UNL     1       0.037   1.510   2.618  1.00  0.00    -0.002 A   
ATOM     17  C8  UNL     1      -0.796   0.371   2.489  1.00  0.00     0.012 A   
ATOM     18  C12 UNL     1      -0.332   2.540   3.500  1.00  0.00     0.045 A   
ATOM     19  C9  UNL     1      -1.987   0.265   3.213  1.00  0.00     0.037 A   
ATOM     20  C11 UNL     1      -1.514   2.402   4.199  1.00  0.00     0.109 A   
ATOM     21  C10 UNL     1      -2.320   1.301   4.059  1.00  0.00     0.108 A   
ATOM     22  O1  UNL     1      -2.014   3.303   5.085  1.00  0.00    -0.316 OA  
ATOM     23  O2  UNL     1      -3.432   1.371   4.835  1.00  0.00    -0.316 OA  
ATOM     24  C13 UNL     1      -3.212   2.621   5.522  1.00  0.00     0.337 C   
ENDBRANCH  15  16
ENDBRANCH  12  15
ENDBRANCH   7  12
ENDBRANCH   1   7
BRANCH   3  25
ATOM     25  C16 UNL     1      -0.768  -1.697  -2.356  1.00  0.00     0.172 C   
BRANCH  25  26
ATOM     26  C17 UNL     1      -0.944  -2.579  -1.169  1.00  0.00     0.010 A   
ATOM     27  C18 UNL     1      -2.094  -2.680  -0.353  1.00  0.00     0.138 A   
ATOM     28  C19 UNL     1      -0.039  -3.459  -0.593  1.00  0.00     0.034 A   
ATOM     29  N3  UNL     1      -1.919  -3.506   0.675  1.00  0.00    -0.192 NA  
ATOM     30  N4  UNL     1      -0.694  -4.014   0.477  1.00  0.00    -0.242 N   
ATOM     31  H24 UNL     1      -0.359  -4.725   1.121  1.00  0.00     0.175 HD  
BRANCH  28  32
ATOM     32  C20 UNL     1       1.363  -3.818  -0.964  1.00  0.00     0.035 C   
ATOM     33  C21 UNL     1       2.365  -3.680   0.183  1.00  0.00     0.010 C   
ATOM     34  C24 UNL     1       1.534  -5.275  -1.397  1.00  0.00     0.010 C   
ATOM     35  C22 UNL     1       3.579  -4.437  -0.337  1.00  0.00     0.001 C   
ATOM     36  C23 UNL     1       3.014  -5.590  -1.167  1.00  0.00     0.001 C   
ENDBRANCH  28  32
ENDBRANCH  25  26
ENDBRANCH   3  25
TORSDOF 8
