REMARK SMILES CC(=O)c1ccc(Cn2cc([C@@H]([NH2+]Cc3ccc4c(c3)OCO4)C(C)(C)C)nn2)cc1
REMARK SMILES IDX 9 1 10 2 11 3 28 4 29 5 8 7 7 8 4 9 5 10 31 11 6 12 30 13
REMARK SMILES IDX 2 14 1 15 3 16 12 17 13 18 14 21 15 22 16 23 20 24 17 25
REMARK SMILES IDX 19 26 18 27 21 28 23 29 22 30 24 31 25 32 26 33 27 34
REMARK H PARENT 10 6 13 19 13 20
ROOT
ATOM     1   N1  UNL     1      -0.481   1.120   1.818  1.00  0.00    -0.208 N   
ATOM     2   C8  UNL     1       0.799   0.639   1.758  1.00  0.00     0.046 A   
ATOM     3   C9  UNL     1       1.128   0.731   0.424  1.00  0.00     0.127 A   
ATOM     4   N3  UNL     1       0.059   1.245  -0.267  1.00  0.00    -0.132 NA  
ATOM     5   N4  UNL     1      -0.916   1.478   0.594  1.00  0.00    -0.076 NA  
ATOM     6   H8  UNL     1       1.323   0.279   2.633  1.00  0.00     0.083 HD  
ENDROOT
BRANCH   1   7
ATOM     7   C7  UNL     1      -1.345   1.239   2.980  1.00  0.00     0.169 C   
BRANCH   7   8
ATOM     8   C6  UNL     1      -2.046  -0.069   3.258  1.00  0.00    -0.029 A   
ATOM     9   C3  UNL     1      -3.317  -2.541   3.709  1.00  0.00     0.017 A   
ATOM     10  C4  UNL     1      -2.135  -2.216   4.386  1.00  0.00     0.012 A   
ATOM     11  C24 UNL     1      -3.864  -1.625   2.804  1.00  0.00     0.012 A   
ATOM     12  C5  UNL     1      -1.506  -0.989   4.167  1.00  0.00     0.006 A   
ATOM     13  C23 UNL     1      -3.229  -0.399   2.579  1.00  0.00     0.006 A   
BRANCH   9  14
ATOM     14  C2  UNL     1      -3.937  -3.872   3.965  1.00  0.00     0.159 C   
ATOM     15  C1  UNL     1      -5.362  -4.109   3.539  1.00  0.00     0.093 C   
ATOM     16  O1  UNL     1      -3.269  -4.754   4.499  1.00  0.00    -0.295 OA  
ENDBRANCH   9  14
ENDBRANCH   7   8
ENDBRANCH   1   7
BRANCH   3  17
ATOM     17  C10 UNL     1       2.350   0.297  -0.331  1.00  0.00     0.120 C   
BRANCH  17  18
ATOM     18  N2  UNL     1       1.916  -0.239  -1.675  1.00  0.00     0.250 N   
ATOM     19  H10 UNL     1       1.228   0.432  -2.051  1.00  0.00     0.199 HD  
ATOM     20  H11 UNL     1       2.681  -0.272  -2.354  1.00  0.00     0.199 HD  
BRANCH  18  21
ATOM     21  C11 UNL     1       1.251  -1.573  -1.645  1.00  0.00     0.164 C   
BRANCH  21  22
ATOM     22  C12 UNL     1       0.765  -1.945  -3.017  1.00  0.00    -0.002 A   
ATOM     23  C13 UNL     1      -0.495  -1.486  -3.471  1.00  0.00     0.012 A   
ATOM     24  C17 UNL     1       1.579  -2.701  -3.877  1.00  0.00     0.045 A   
ATOM     25  C14 UNL     1      -0.946  -1.786  -4.761  1.00  0.00     0.037 A   
ATOM     26  C16 UNL     1       1.103  -2.979  -5.142  1.00  0.00     0.109 A   
ATOM     27  C15 UNL     1      -0.123  -2.534  -5.572  1.00  0.00     0.108 A   
ATOM     28  O2  UNL     1       1.760  -3.694  -6.093  1.00  0.00    -0.316 OA  
ATOM     29  O3  UNL     1      -0.394  -2.916  -6.847  1.00  0.00    -0.316 OA  
ATOM     30  C18 UNL     1       0.791  -3.675  -7.167  1.00  0.00     0.337 C   
ENDBRANCH  21  22
ENDBRANCH  18  21
ENDBRANCH  17  18
BRANCH  17  31
ATOM     31  C19 UNL     1       3.427   1.423  -0.513  1.00  0.00     0.010 C   
ATOM     32  C20 UNL     1       3.849   1.985   0.864  1.00  0.00     0.017 C   
ATOM     33  C21 UNL     1       2.924   2.593  -1.381  1.00  0.00     0.017 C   
ATOM     34  C22 UNL     1       4.702   0.844  -1.171  1.00  0.00     0.017 C   
ENDBRANCH  17  31
ENDBRANCH   3  17
TORSDOF 8
