REMARK SMILES CC(C)(C)[C@H]([NH2+]Cc1ccc2c(c1)OCO2)c1cn(C[C@H](O)c2cc(F)cc(F)c2)nn1
REMARK SMILES IDX 17 1 18 2 19 3 31 4 32 5 5 7 2 8 1 9 3 10 4 11 6 12 7 15
REMARK SMILES IDX 8 16 9 17 13 18 10 19 12 20 11 21 14 22 16 23 15 24 20 25
REMARK SMILES IDX 21 26 22 27 23 29 24 30 30 31 25 32 28 33 27 34 26 35 29 36
REMARK H PARENT 18 6 6 13 6 14 22 28
ROOT
ATOM     1   C14 UNL     1       0.582  -0.616   1.839  1.00  0.00     0.127 A   
ATOM     2   C15 UNL     1       1.877  -0.707   2.298  1.00  0.00     0.046 A   
ATOM     3   N2  UNL     1       2.274  -1.960   1.921  1.00  0.00    -0.209 N   
ATOM     4   N3  UNL     1       1.277  -2.610   1.290  1.00  0.00    -0.076 NA  
ATOM     5   N4  UNL     1       0.238  -1.796   1.230  1.00  0.00    -0.132 NA  
ATOM     6   H20 UNL     1       2.545  -0.018   2.799  1.00  0.00     0.083 HD  
ENDROOT
BRANCH   1   7
ATOM     7   C5  UNL     1      -0.383   0.531   1.808  1.00  0.00     0.120 C   
BRANCH   7   8
ATOM     8   C2  UNL     1      -1.391   0.558   3.008  1.00  0.00     0.010 C   
ATOM     9   C1  UNL     1      -2.226   1.860   2.974  1.00  0.00     0.017 C   
ATOM     10  C3  UNL     1      -2.362  -0.639   3.000  1.00  0.00     0.017 C   
ATOM     11  C4  UNL     1      -0.624   0.552   4.350  1.00  0.00     0.017 C   
ENDBRANCH   7   8
BRANCH   7  12
ATOM     12  N1  UNL     1      -1.127   0.486   0.492  1.00  0.00     0.250 N   
ATOM     13  H11 UNL     1      -2.001   1.017   0.512  1.00  0.00     0.199 HD  
ATOM     14  H12 UNL     1      -1.396  -0.499   0.345  1.00  0.00     0.199 HD  
BRANCH  12  15
ATOM     15  C6  UNL     1      -0.337   0.898  -0.703  1.00  0.00     0.164 C   
BRANCH  15  16
ATOM     16  C7  UNL     1      -1.133   0.679  -1.957  1.00  0.00    -0.002 A   
ATOM     17  C8  UNL     1      -1.038  -0.551  -2.651  1.00  0.00     0.012 A   
ATOM     18  C12 UNL     1      -2.016   1.669  -2.418  1.00  0.00     0.045 A   
ATOM     19  C9  UNL     1      -1.800  -0.787  -3.801  1.00  0.00     0.037 A   
ATOM     20  C11 UNL     1      -2.754   1.403  -3.553  1.00  0.00     0.109 A   
ATOM     21  C10 UNL     1      -2.648   0.211  -4.226  1.00  0.00     0.108 A   
ATOM     22  O1  UNL     1      -3.650   2.247  -4.128  1.00  0.00    -0.316 OA  
ATOM     23  O2  UNL     1      -3.459   0.156  -5.314  1.00  0.00    -0.316 OA  
ATOM     24  C13 UNL     1      -4.084   1.456  -5.258  1.00  0.00     0.337 C   
ENDBRANCH  15  16
ENDBRANCH  12  15
ENDBRANCH   7  12
ENDBRANCH   1   7
BRANCH   3  25
ATOM     25  C16 UNL     1       3.575  -2.579   2.067  1.00  0.00     0.170 C   
BRANCH  25  26
ATOM     26  C17 UNL     1       4.627  -2.043   1.081  1.00  0.00     0.164 C   
BRANCH  26  27
ATOM     27  O3  UNL     1       5.003  -0.714   1.453  1.00  0.00    -0.387 OA  
ATOM     28  H24 UNL     1       5.793  -0.488   0.925  1.00  0.00     0.211 HD  
ENDBRANCH  26  27
BRANCH  26  29
ATOM     29  C18 UNL     1       4.186  -2.077  -0.368  1.00  0.00    -0.012 A   
ATOM     30  C19 UNL     1       4.295  -3.261  -1.113  1.00  0.00     0.046 A   
ATOM     31  C23 UNL     1       3.597  -0.959  -0.981  1.00  0.00     0.046 A   
ATOM     32  C20 UNL     1       3.823  -3.312  -2.424  1.00  0.00     0.126 A   
ATOM     33  C22 UNL     1       3.118  -1.039  -2.287  1.00  0.00     0.126 A   
ATOM     34  C21 UNL     1       3.228  -2.209  -3.021  1.00  0.00     0.078 A   
ATOM     35  F1  UNL     1       3.929  -4.456  -3.112  1.00  0.00    -0.207 F   
ATOM     36  F2  UNL     1       2.508   0.028  -2.819  1.00  0.00    -0.207 F   
ENDBRANCH  26  29
ENDBRANCH  25  26
ENDBRANCH   3  25
TORSDOF 9
