REMARK SMILES CC(C)(C)[C@H]([NH2+]Cc1ccc2c(c1)OCO2)c1cn(C[C@@H](O)c2cc(F)cc(F)c2)nn1
REMARK SMILES IDX 17 1 18 2 19 3 31 4 32 5 5 7 2 8 1 9 3 10 4 11 6 12 7 15
REMARK SMILES IDX 8 16 9 17 13 18 10 19 12 20 11 21 14 22 16 23 15 24 20 25
REMARK SMILES IDX 21 26 22 27 23 29 24 30 30 31 25 32 28 33 27 34 26 35 29 36
REMARK H PARENT 18 6 6 13 6 14 22 28
ROOT
ATOM     1   C14 UNL     1       0.747  -0.901  -0.032  1.00  0.00     0.127 A   
ATOM     2   C15 UNL     1       1.204  -2.152  -0.388  1.00  0.00     0.046 A   
ATOM     3   N2  UNL     1       2.345  -1.897  -1.098  1.00  0.00    -0.209 N   
ATOM     4   N3  UNL     1       2.621  -0.581  -1.107  1.00  0.00    -0.076 NA  
ATOM     5   N4  UNL     1       1.641   0.042  -0.472  1.00  0.00    -0.132 NA  
ATOM     6   H20 UNL     1       0.818  -3.154  -0.251  1.00  0.00     0.083 HD  
ENDROOT
BRANCH   1   7
ATOM     7   C5  UNL     1      -0.463  -0.463   0.740  1.00  0.00     0.120 C   
BRANCH   7   8
ATOM     8   C2  UNL     1      -1.736  -0.228  -0.146  1.00  0.00     0.010 C   
ATOM     9   C1  UNL     1      -1.540   0.904  -1.176  1.00  0.00     0.017 C   
ATOM     10  C3  UNL     1      -2.954   0.124   0.737  1.00  0.00     0.017 C   
ATOM     11  C4  UNL     1      -2.099  -1.523  -0.909  1.00  0.00     0.017 C   
ENDBRANCH   7   8
BRANCH   7  12
ATOM     12  N1  UNL     1      -0.115   0.792   1.505  1.00  0.00     0.250 N   
ATOM     13  H11 UNL     1      -0.939   1.338   1.763  1.00  0.00     0.199 HD  
ATOM     14  H12 UNL     1       0.432   1.387   0.867  1.00  0.00     0.199 HD  
BRANCH  12  15
ATOM     15  C6  UNL     1       0.711   0.580   2.728  1.00  0.00     0.164 C   
BRANCH  15  16
ATOM     16  C7  UNL     1       1.090   1.896   3.346  1.00  0.00    -0.002 A   
ATOM     17  C8  UNL     1       2.375   2.446   3.116  1.00  0.00     0.012 A   
ATOM     18  C12 UNL     1       0.155   2.615   4.117  1.00  0.00     0.045 A   
ATOM     19  C9  UNL     1       2.730   3.688   3.653  1.00  0.00     0.037 A   
ATOM     20  C11 UNL     1       0.533   3.843   4.616  1.00  0.00     0.109 A   
ATOM     21  C10 UNL     1       1.784   4.364   4.393  1.00  0.00     0.108 A   
ATOM     22  O1  UNL     1      -0.256   4.675   5.349  1.00  0.00    -0.316 OA  
ATOM     23  O2  UNL     1       1.947   5.585   4.967  1.00  0.00    -0.316 OA  
ATOM     24  C13 UNL     1       0.651   5.779   5.579  1.00  0.00     0.337 C   
ENDBRANCH  15  16
ENDBRANCH  12  15
ENDBRANCH   7  12
ENDBRANCH   1   7
BRANCH   3  25
ATOM     25  C16 UNL     1       3.177  -2.830  -1.824  1.00  0.00     0.170 C   
BRANCH  25  26
ATOM     26  C17 UNL     1       3.090  -2.652  -3.346  1.00  0.00     0.164 C   
BRANCH  26  27
ATOM     27  O3  UNL     1       3.967  -3.597  -3.964  1.00  0.00    -0.387 OA  
ATOM     28  H24 UNL     1       3.832  -3.537  -4.928  1.00  0.00     0.211 HD  
ENDBRANCH  26  27
BRANCH  26  29
ATOM     29  C18 UNL     1       1.687  -2.853  -3.884  1.00  0.00    -0.012 A   
ATOM     30  C19 UNL     1       0.900  -1.743  -4.233  1.00  0.00     0.046 A   
ATOM     31  C23 UNL     1       1.125  -4.134  -4.001  1.00  0.00     0.046 A   
ATOM     32  C20 UNL     1      -0.409  -1.923  -4.681  1.00  0.00     0.126 A   
ATOM     33  C22 UNL     1      -0.185  -4.287  -4.454  1.00  0.00     0.126 A   
ATOM     34  C21 UNL     1      -0.961  -3.189  -4.796  1.00  0.00     0.078 A   
ATOM     35  F1  UNL     1      -1.153  -0.850  -4.980  1.00  0.00    -0.207 F   
ATOM     36  F2  UNL     1      -0.707  -5.517  -4.544  1.00  0.00    -0.207 F   
ENDBRANCH  26  29
ENDBRANCH  25  26
ENDBRANCH   3  25
TORSDOF 9
