REMARK SMILES Cc1cc([C@H](CO)n2cc([C@@H]([NH2+]Cc3ccc4c(c3)OCO4)C(C)C)nn2)n[nH]1
REMARK SMILES IDX 8 1 9 2 10 3 26 4 27 5 5 7 4 8 2 9 3 10 29 11 28 12 1 13
REMARK SMILES IDX 6 15 7 16 11 18 12 19 13 22 14 23 15 24 19 25 16 26 18 27
REMARK SMILES IDX 17 28 20 29 22 30 21 31 23 32 24 33 25 34
REMARK H PARENT 9 6 29 14 7 17 12 20 12 21
ROOT
ATOM     1   N1  UNL     1       1.160   0.297   1.401  1.00  0.00    -0.201 N   
ATOM     2   C7  UNL     1       0.338   0.707   0.384  1.00  0.00     0.046 A   
ATOM     3   C8  UNL     1      -0.549  -0.331   0.228  1.00  0.00     0.127 A   
ATOM     4   N3  UNL     1      -0.271  -1.306   1.149  1.00  0.00    -0.132 NA  
ATOM     5   N4  UNL     1       0.772  -0.913   1.863  1.00  0.00    -0.075 NA  
ATOM     6   H9  UNL     1       0.490   1.645  -0.132  1.00  0.00     0.083 HD  
ENDROOT
BRANCH   1   7
ATOM     7   C5  UNL     1       2.343   0.951   1.951  1.00  0.00     0.175 C   
BRANCH   7   8
ATOM     8   C4  UNL     1       1.981   2.308   2.495  1.00  0.00     0.085 A   
ATOM     9   C2  UNL     1       1.358   3.978   3.818  1.00  0.00     0.024 A   
ATOM     10  C3  UNL     1       1.534   2.613   3.804  1.00  0.00     0.048 A   
ATOM     11  N6  UNL     1       1.695   4.411   2.567  1.00  0.00    -0.243 N   
ATOM     12  N5  UNL     1       2.064   3.416   1.737  1.00  0.00    -0.187 NA  
ATOM     13  C1  UNL     1       0.914   4.907   4.882  1.00  0.00     0.063 C   
ATOM     14  H27 UNL     1       1.696   5.364   2.215  1.00  0.00     0.175 HD  
ENDBRANCH   7   8
BRANCH   7  15
ATOM     15  C6  UNL     1       3.504   0.976   0.940  1.00  0.00     0.187 C   
BRANCH  15  16
ATOM     16  O1  UNL     1       3.229   1.762  -0.225  1.00  0.00    -0.394 OA  
ATOM     17  H8  UNL     1       3.006   2.659   0.114  1.00  0.00     0.210 HD  
ENDBRANCH  15  16
ENDBRANCH   7  15
ENDBRANCH   1   7
BRANCH   3  18
ATOM     18  C9  UNL     1      -1.632  -0.544  -0.777  1.00  0.00     0.117 C   
BRANCH  18  19
ATOM     19  N2  UNL     1      -1.716  -2.005  -1.156  1.00  0.00     0.249 N   
ATOM     20  H11 UNL     1      -1.404  -2.530  -0.323  1.00  0.00     0.199 HD  
ATOM     21  H12 UNL     1      -2.684  -2.287  -1.323  1.00  0.00     0.199 HD  
BRANCH  19  22
ATOM     22  C10 UNL     1      -0.881  -2.434  -2.316  1.00  0.00     0.164 C   
BRANCH  22  23
ATOM     23  C11 UNL     1       0.593  -2.455  -2.028  1.00  0.00    -0.002 A   
ATOM     24  C12 UNL     1       1.430  -1.405  -2.477  1.00  0.00     0.012 A   
ATOM     25  C16 UNL     1       1.145  -3.501  -1.269  1.00  0.00     0.045 A   
ATOM     26  C13 UNL     1       2.794  -1.388  -2.163  1.00  0.00     0.037 A   
ATOM     27  C15 UNL     1       2.494  -3.457  -0.983  1.00  0.00     0.109 A   
ATOM     28  C14 UNL     1       3.295  -2.429  -1.413  1.00  0.00     0.108 A   
ATOM     29  O2  UNL     1       3.178  -4.383  -0.261  1.00  0.00    -0.316 OA  
ATOM     30  O3  UNL     1       4.584  -2.573  -1.010  1.00  0.00    -0.316 OA  
ATOM     31  C17 UNL     1       4.511  -3.827  -0.298  1.00  0.00     0.337 C   
ENDBRANCH  22  23
ENDBRANCH  19  22
ENDBRANCH  18  19
BRANCH  18  32
ATOM     32  C18 UNL     1      -3.008  -0.031  -0.275  1.00  0.00     0.037 C   
ATOM     33  C19 UNL     1      -3.590  -0.833   0.896  1.00  0.00     0.014 C   
ATOM     34  C20 UNL     1      -4.033   0.039  -1.414  1.00  0.00     0.014 C   
ENDBRANCH  18  32
ENDBRANCH   3  18
TORSDOF 9
