REMARK SMILES Cc1cc([C@@H](CO)n2cc([C@@H]([NH2+]Cc3ccc4c(c3)OCO4)C(C)C)nn2)n[nH]1
REMARK SMILES IDX 8 1 9 2 10 3 26 4 27 5 5 7 4 8 2 9 3 10 29 11 28 12 1 13
REMARK SMILES IDX 6 15 7 16 11 18 12 19 13 22 14 23 15 24 19 25 16 26 18 27
REMARK SMILES IDX 17 28 20 29 22 30 21 31 23 32 24 33 25 34
REMARK H PARENT 9 6 29 14 7 17 12 20 12 21
ROOT
ATOM     1   N1  UNL     1       0.449  -1.812  -1.354  1.00  0.00    -0.201 N   
ATOM     2   C7  UNL     1      -0.444  -1.506  -0.360  1.00  0.00     0.046 A   
ATOM     3   C8  UNL     1      -0.476  -0.131  -0.342  1.00  0.00     0.127 A   
ATOM     4   N3  UNL     1       0.417   0.350  -1.266  1.00  0.00    -0.132 NA  
ATOM     5   N4  UNL     1       0.983  -0.682  -1.869  1.00  0.00    -0.075 NA  
ATOM     6   H9  UNL     1      -0.971  -2.272   0.192  1.00  0.00     0.083 HD  
ENDROOT
BRANCH   1   7
ATOM     7   C5  UNL     1       0.831  -3.116  -1.886  1.00  0.00     0.175 C   
BRANCH   7   8
ATOM     8   C4  UNL     1       1.502  -3.937  -0.817  1.00  0.00     0.085 A   
ATOM     9   C2  UNL     1       3.003  -4.902   0.505  1.00  0.00     0.024 A   
ATOM     10  C3  UNL     1       2.886  -3.994  -0.522  1.00  0.00     0.048 A   
ATOM     11  N6  UNL     1       1.733  -5.334   0.766  1.00  0.00    -0.243 N   
ATOM     12  N5  UNL     1       0.799  -4.748  -0.007  1.00  0.00    -0.187 NA  
ATOM     13  C1  UNL     1       4.186  -5.405   1.240  1.00  0.00     0.063 C   
ATOM     14  H27 UNL     1       1.435  -6.022   1.452  1.00  0.00     0.175 HD  
ENDBRANCH   7   8
BRANCH   7  15
ATOM     15  C6  UNL     1      -0.352  -3.827  -2.568  1.00  0.00     0.187 C   
BRANCH  15  16
ATOM     16  O1  UNL     1      -1.406  -4.174  -1.664  1.00  0.00    -0.394 OA  
ATOM     17  H8  UNL     1      -0.986  -4.728  -0.967  1.00  0.00     0.210 HD  
ENDBRANCH  15  16
ENDBRANCH   7  15
ENDBRANCH   1   7
BRANCH   3  18
ATOM     18  C9  UNL     1      -1.253   0.824   0.504  1.00  0.00     0.117 C   
BRANCH  18  19
ATOM     19  N2  UNL     1      -0.472   2.103   0.683  1.00  0.00     0.249 N   
ATOM     20  H11 UNL     1      -1.078   2.877   0.973  1.00  0.00     0.199 HD  
ATOM     21  H12 UNL     1      -0.102   2.354  -0.247  1.00  0.00     0.199 HD  
BRANCH  19  22
ATOM     22  C10 UNL     1       0.691   2.015   1.608  1.00  0.00     0.164 C   
BRANCH  22  23
ATOM     23  C11 UNL     1       1.421   3.327   1.659  1.00  0.00    -0.002 A   
ATOM     24  C12 UNL     1       1.142   4.267   2.679  1.00  0.00     0.012 A   
ATOM     25  C16 UNL     1       2.353   3.649   0.655  1.00  0.00     0.045 A   
ATOM     26  C13 UNL     1       1.788   5.507   2.708  1.00  0.00     0.037 A   
ATOM     27  C15 UNL     1       2.970   4.881   0.713  1.00  0.00     0.109 A   
ATOM     28  C14 UNL     1       2.696   5.784   1.710  1.00  0.00     0.108 A   
ATOM     29  O2  UNL     1       3.886   5.349  -0.174  1.00  0.00    -0.316 OA  
ATOM     30  O3  UNL     1       3.409   6.933   1.579  1.00  0.00    -0.316 OA  
ATOM     31  C17 UNL     1       4.178   6.647   0.391  1.00  0.00     0.337 C   
ENDBRANCH  22  23
ENDBRANCH  19  22
ENDBRANCH  18  19
BRANCH  18  32
ATOM     32  C18 UNL     1      -2.652   1.182  -0.061  1.00  0.00     0.037 C   
ATOM     33  C19 UNL     1      -2.622   1.823  -1.453  1.00  0.00     0.014 C   
ATOM     34  C20 UNL     1      -3.589  -0.031  -0.070  1.00  0.00     0.014 C   
ENDBRANCH  18  32
ENDBRANCH   3  18
TORSDOF 9
