REMARK SMILES CC(C)[C@H]([NH2+]Cc1ccc2c(c1)OCO2)c1cn(Cc2cccc3c2ccn3C)nn1
REMARK SMILES IDX 16 1 17 2 18 3 30 4 31 5 4 7 2 8 1 9 3 10 5 11 6 14 7 15
REMARK SMILES IDX 8 16 12 17 9 18 11 19 10 20 13 21 15 22 14 23 19 24 20 25
REMARK SMILES IDX 21 26 25 27 22 28 24 29 26 30 23 31 28 32 27 33 29 34
REMARK H PARENT 17 6 5 12 5 13
ROOT
ATOM     1   C13 UNL     1       0.893   1.088  -1.154  1.00  0.00     0.127 A   
ATOM     2   C14 UNL     1       2.041   0.617  -0.559  1.00  0.00     0.046 A   
ATOM     3   N2  UNL     1       2.425   1.636   0.271  1.00  0.00    -0.208 N   
ATOM     4   N4  UNL     1       1.577   2.679   0.174  1.00  0.00    -0.076 NA  
ATOM     5   N5  UNL     1       0.636   2.356  -0.698  1.00  0.00    -0.132 NA  
ATOM     6   H18 UNL     1       2.584  -0.316  -0.618  1.00  0.00     0.083 HD  
ENDROOT
BRANCH   1   7
ATOM     7   C4  UNL     1      -0.059   0.439  -2.106  1.00  0.00     0.117 C   
BRANCH   7   8
ATOM     8   C2  UNL     1       0.407   0.564  -3.580  1.00  0.00     0.037 C   
ATOM     9   C1  UNL     1      -0.396  -0.355  -4.509  1.00  0.00     0.014 C   
ATOM     10  C3  UNL     1       0.379   1.998  -4.123  1.00  0.00     0.014 C   
ENDBRANCH   7   8
BRANCH   7  11
ATOM     11  N1  UNL     1      -1.438   1.015  -1.940  1.00  0.00     0.249 N   
ATOM     12  H9  UNL     1      -2.038   0.821  -2.746  1.00  0.00     0.199 HD  
ATOM     13  H10 UNL     1      -1.329   2.039  -1.896  1.00  0.00     0.199 HD  
BRANCH  11  14
ATOM     14  C5  UNL     1      -2.150   0.601  -0.698  1.00  0.00     0.164 C   
BRANCH  14  15
ATOM     15  C6  UNL     1      -3.499   1.259  -0.624  1.00  0.00    -0.002 A   
ATOM     16  C7  UNL     1      -3.622   2.567  -0.097  1.00  0.00     0.012 A   
ATOM     17  C11 UNL     1      -4.635   0.605  -1.127  1.00  0.00     0.045 A   
ATOM     18  C8  UNL     1      -4.863   3.213  -0.061  1.00  0.00     0.037 A   
ATOM     19  C10 UNL     1      -5.843   1.268  -1.073  1.00  0.00     0.109 A   
ATOM     20  C9  UNL     1      -5.955   2.535  -0.556  1.00  0.00     0.108 A   
ATOM     21  O1  UNL     1      -7.032   0.780  -1.513  1.00  0.00    -0.316 OA  
ATOM     22  O2  UNL     1      -7.228   3.003  -0.603  1.00  0.00    -0.316 OA  
ATOM     23  C12 UNL     1      -7.917   1.875  -1.182  1.00  0.00     0.337 C   
ENDBRANCH  14  15
ENDBRANCH  11  14
ENDBRANCH   7  11
ENDBRANCH   1   7
BRANCH   3  24
ATOM     24  C15 UNL     1       3.557   1.676   1.182  1.00  0.00     0.170 C   
BRANCH  24  25
ATOM     25  C16 UNL     1       3.301   0.798   2.382  1.00  0.00    -0.019 A   
ATOM     26  C17 UNL     1       2.507   1.293   3.439  1.00  0.00     0.006 A   
ATOM     27  C21 UNL     1       3.798  -0.527   2.490  1.00  0.00     0.002 A   
ATOM     28  C18 UNL     1       2.219   0.518   4.558  1.00  0.00     0.002 A   
ATOM     29  C20 UNL     1       3.491  -1.286   3.624  1.00  0.00     0.040 A   
ATOM     30  C22 UNL     1       4.608  -1.349   1.652  1.00  0.00     0.026 A   
ATOM     31  C19 UNL     1       2.705  -0.784   4.671  1.00  0.00     0.024 A   
ATOM     32  N3  UNL     1       4.104  -2.513   3.470  1.00  0.00    -0.310 N   
ATOM     33  C23 UNL     1       4.771  -2.563   2.276  1.00  0.00     0.075 A   
ATOM     34  C24 UNL     1       4.064  -3.590   4.436  1.00  0.00     0.136 C   
ENDBRANCH  24  25
ENDBRANCH   3  24
TORSDOF 7
