REMARK SMILES CC(C)[C@H]([NH2+]Cc1ccc2c(c1)OCO2)c1cn(CCc2ccc(Cl)o2)nn1
REMARK SMILES IDX 16 1 17 2 18 3 27 4 28 5 4 7 2 8 1 9 3 10 5 11 6 14 7 15
REMARK SMILES IDX 8 16 12 17 9 18 11 19 10 20 13 21 15 22 14 23 19 24 20 25
REMARK SMILES IDX 21 26 22 27 26 28 23 29 24 30 25 31
REMARK H PARENT 17 6 5 12 5 13
ROOT
ATOM     1   C13 UNL     1       1.241  -0.221   0.709  1.00  0.00     0.127 A   
ATOM     2   C14 UNL     1       1.062  -1.565   0.471  1.00  0.00     0.045 A   
ATOM     3   N2  UNL     1       1.378  -2.152   1.664  1.00  0.00    -0.212 N   
ATOM     4   N3  UNL     1       1.749  -1.233   2.573  1.00  0.00    -0.076 NA  
ATOM     5   N4  UNL     1       1.655  -0.043   2.005  1.00  0.00    -0.132 NA  
ATOM     6   H18 UNL     1       0.725  -2.132  -0.385  1.00  0.00     0.083 HD  
ENDROOT
BRANCH   1   7
ATOM     7   C4  UNL     1       0.978   0.978  -0.141  1.00  0.00     0.117 C   
BRANCH   7   8
ATOM     8   C2  UNL     1       2.233   1.551  -0.847  1.00  0.00     0.037 C   
ATOM     9   C1  UNL     1       3.344   2.009   0.103  1.00  0.00     0.014 C   
ATOM     10  C3  UNL     1       2.802   0.560  -1.869  1.00  0.00     0.014 C   
ENDBRANCH   7   8
BRANCH   7  11
ATOM     11  N1  UNL     1       0.364   2.064   0.715  1.00  0.00     0.249 N   
ATOM     12  H9  UNL     1       0.527   2.989   0.307  1.00  0.00     0.199 HD  
ATOM     13  H10 UNL     1       0.873   2.034   1.611  1.00  0.00     0.199 HD  
BRANCH  11  14
ATOM     14  C5  UNL     1      -1.089   1.907   1.018  1.00  0.00     0.164 C   
BRANCH  14  15
ATOM     15  C6  UNL     1      -1.952   2.403  -0.110  1.00  0.00    -0.002 A   
ATOM     16  C7  UNL     1      -2.191   3.790  -0.265  1.00  0.00     0.012 A   
ATOM     17  C11 UNL     1      -2.494   1.502  -1.041  1.00  0.00     0.045 A   
ATOM     18  C8  UNL     1      -2.959   4.273  -1.331  1.00  0.00     0.037 A   
ATOM     19  C10 UNL     1      -3.248   2.010  -2.079  1.00  0.00     0.109 A   
ATOM     20  C9  UNL     1      -3.473   3.357  -2.221  1.00  0.00     0.108 A   
ATOM     21  O1  UNL     1      -3.838   1.278  -3.060  1.00  0.00    -0.316 OA  
ATOM     22  O2  UNL     1      -4.233   3.644  -3.308  1.00  0.00    -0.316 OA  
ATOM     23  C12 UNL     1      -4.496   2.319  -3.818  1.00  0.00     0.337 C   
ENDBRANCH  14  15
ENDBRANCH  11  14
ENDBRANCH   7  11
ENDBRANCH   1   7
BRANCH   3  24
ATOM     24  C15 UNL     1       1.335  -3.558   2.016  1.00  0.00     0.141 C   
BRANCH  24  25
ATOM     25  C16 UNL     1       0.195  -3.901   2.973  1.00  0.00     0.083 C   
BRANCH  25  26
ATOM     26  C17 UNL     1      -1.138  -3.843   2.314  1.00  0.00     0.062 A   
ATOM     27  C18 UNL     1      -2.029  -4.806   1.893  1.00  0.00     0.033 A   
ATOM     28  O3  UNL     1      -1.641  -2.600   2.063  1.00  0.00    -0.303 OA  
ATOM     29  C19 UNL     1      -3.142  -4.111   1.357  1.00  0.00     0.049 A   
ATOM     30  C20 UNL     1      -2.867  -2.768   1.490  1.00  0.00     0.147 A   
ATOM     31  CL1 UNL     1      -3.868  -1.453   1.019  1.00  0.00    -0.056 Cl  
ENDBRANCH  25  26
ENDBRANCH  24  25
ENDBRANCH   3  24
TORSDOF 8
