REMARK SMILES Oc1ccc(F)cc1Cn1cc([C@@H]([NH2+]Cc2ccc3c(c2)OCO3)C2CCCC2)nn1
REMARK SMILES IDX 10 1 11 2 12 3 30 4 31 5 9 7 8 8 2 9 3 10 4 11 7 12 5 13
REMARK SMILES IDX 6 14 1 15 13 17 14 18 15 21 16 22 17 23 21 24 18 25 20 26
REMARK SMILES IDX 19 27 22 28 24 29 23 30 25 31 26 32 29 33 27 34 28 35
REMARK H PARENT 11 6 1 16 14 19 14 20
ROOT
ATOM     1   N1  UNL     1       1.637   1.562  -2.528  1.00  0.00    -0.208 N   
ATOM     2   C8  UNL     1       0.612   0.660  -2.631  1.00  0.00     0.046 A   
ATOM     3   C9  UNL     1      -0.150   0.892  -1.508  1.00  0.00     0.127 A   
ATOM     4   N3  UNL     1       0.418   1.906  -0.779  1.00  0.00    -0.132 NA  
ATOM     5   N4  UNL     1       1.515   2.299  -1.406  1.00  0.00    -0.076 NA  
ATOM     6   H7  UNL     1       0.540  -0.034  -3.458  1.00  0.00     0.083 HD  
ENDROOT
BRANCH   1   7
ATOM     7   C7  UNL     1       2.743   1.780  -3.444  1.00  0.00     0.172 C   
BRANCH   7   8
ATOM     8   C6  UNL     1       3.824   0.752  -3.236  1.00  0.00     0.004 A   
ATOM     9   C1  UNL     1       3.853  -0.443  -3.971  1.00  0.00     0.076 A   
ATOM     10  C2  UNL     1       4.847  -1.400  -3.764  1.00  0.00     0.036 A   
ATOM     11  C3  UNL     1       5.827  -1.173  -2.798  1.00  0.00     0.042 A   
ATOM     12  C5  UNL     1       4.816   0.963  -2.267  1.00  0.00     0.047 A   
ATOM     13  C4  UNL     1       5.802   0.004  -2.059  1.00  0.00     0.123 A   
ATOM     14  F1  UNL     1       6.737   0.216  -1.125  1.00  0.00    -0.207 F   
BRANCH   9  15
ATOM     15  O1  UNL     1       2.877  -0.664  -4.901  1.00  0.00    -0.361 OA  
ATOM     16  H1  UNL     1       3.144  -1.419  -5.458  1.00  0.00     0.218 HD  
ENDBRANCH   9  15
ENDBRANCH   7   8
ENDBRANCH   1   7
BRANCH   3  17
ATOM     17  C10 UNL     1      -1.378   0.217  -0.992  1.00  0.00     0.117 C   
BRANCH  17  18
ATOM     18  N2  UNL     1      -1.358   0.217   0.518  1.00  0.00     0.249 N   
ATOM     19  H9  UNL     1      -2.276  -0.003   0.913  1.00  0.00     0.199 HD  
ATOM     20  H10 UNL     1      -1.138   1.181   0.811  1.00  0.00     0.199 HD  
BRANCH  18  21
ATOM     21  C11 UNL     1      -0.343  -0.677   1.143  1.00  0.00     0.164 C   
BRANCH  21  22
ATOM     22  C12 UNL     1      -0.453  -0.622   2.641  1.00  0.00    -0.002 A   
ATOM     23  C13 UNL     1      -1.218  -1.587   3.339  1.00  0.00     0.012 A   
ATOM     24  C17 UNL     1       0.163   0.423   3.352  1.00  0.00     0.045 A   
ATOM     25  C14 UNL     1      -1.366  -1.516   4.729  1.00  0.00     0.037 A   
ATOM     26  C16 UNL     1       0.001   0.460   4.722  1.00  0.00     0.109 A   
ATOM     27  C15 UNL     1      -0.743  -0.481   5.391  1.00  0.00     0.108 A   
ATOM     28  O2  UNL     1       0.524   1.399   5.555  1.00  0.00    -0.316 OA  
ATOM     29  O3  UNL     1      -0.781  -0.254   6.730  1.00  0.00    -0.316 OA  
ATOM     30  C18 UNL     1       0.061   0.914   6.837  1.00  0.00     0.337 C   
ENDBRANCH  21  22
ENDBRANCH  18  21
ENDBRANCH  17  18
BRANCH  17  31
ATOM     31  C19 UNL     1      -2.667   0.922  -1.463  1.00  0.00     0.043 C   
ATOM     32  C20 UNL     1      -3.964   0.277  -0.951  1.00  0.00     0.010 C   
ATOM     33  C23 UNL     1      -2.857   0.900  -2.983  1.00  0.00     0.010 C   
ATOM     34  C21 UNL     1      -5.028   0.536  -2.021  1.00  0.00     0.001 C   
ATOM     35  C22 UNL     1      -4.322   1.266  -3.152  1.00  0.00     0.001 C   
ENDBRANCH  17  31
ENDBRANCH   3  17
TORSDOF 8
