REMARK SMILES Cc1ccc(C)c([C@H](O)Cn2cc([C@@H]([NH2+]Cc3ccc4c(c3)OCO4)C3CCCC3)nn2)c1
REMARK SMILES IDX 11 1 12 2 13 3 31 4 32 5 10 7 8 8 7 9 2 10 3 11 33 12 4 13
REMARK SMILES IDX 5 14 1 15 6 16 9 17 14 19 15 20 16 23 17 24 18 25 22 26
REMARK SMILES IDX 19 27 21 28 20 29 23 30 25 31 24 32 26 33 27 34 30 35 28 36
REMARK SMILES IDX 29 37
REMARK H PARENT 12 6 9 18 15 21 15 22
ROOT
ATOM     1   N1  UNL     1      -1.737   2.425  -0.452  1.00  0.00    -0.209 N   
ATOM     2   C10 UNL     1      -1.194   1.342   0.178  1.00  0.00     0.045 A   
ATOM     3   C11 UNL     1       0.064   1.231  -0.370  1.00  0.00     0.127 A   
ATOM     4   N3  UNL     1       0.226   2.207  -1.320  1.00  0.00    -0.132 NA  
ATOM     5   N4  UNL     1      -0.880   2.930  -1.361  1.00  0.00    -0.076 NA  
ATOM     6   H13 UNL     1      -1.729   0.783   0.935  1.00  0.00     0.083 HD  
ENDROOT
BRANCH   1   7
ATOM     7   C9  UNL     1      -3.052   3.003  -0.276  1.00  0.00     0.170 C   
BRANCH   7   8
ATOM     8   C8  UNL     1      -3.122   4.017   0.875  1.00  0.00     0.164 C   
BRANCH   8   9
ATOM     9   C7  UNL     1      -2.877   3.380   2.239  1.00  0.00    -0.015 A   
ATOM     10  C2  UNL     1      -3.649   1.820   3.970  1.00  0.00    -0.051 A   
ATOM     11  C3  UNL     1      -2.490   2.080   4.703  1.00  0.00     0.004 A   
ATOM     12  C26 UNL     1      -3.826   2.460   2.738  1.00  0.00     0.010 A   
ATOM     13  C4  UNL     1      -1.542   2.989   4.231  1.00  0.00     0.004 A   
ATOM     14  C5  UNL     1      -1.719   3.648   3.002  1.00  0.00    -0.045 A   
ATOM     15  C1  UNL     1      -4.676   0.851   4.482  1.00  0.00     0.044 C   
ATOM     16  C6  UNL     1      -0.677   4.645   2.565  1.00  0.00     0.045 C   
ENDBRANCH   8   9
BRANCH   8  17
ATOM     17  O1  UNL     1      -4.416   4.631   0.863  1.00  0.00    -0.387 OA  
ATOM     18  H10 UNL     1      -4.630   4.894   1.780  1.00  0.00     0.211 HD  
ENDBRANCH   8  17
ENDBRANCH   7   8
ENDBRANCH   1   7
BRANCH   3  19
ATOM     19  C12 UNL     1       1.156   0.239  -0.142  1.00  0.00     0.117 C   
BRANCH  19  20
ATOM     20  N2  UNL     1       1.648  -0.273  -1.474  1.00  0.00     0.249 N   
ATOM     21  H15 UNL     1       2.543  -0.762  -1.379  1.00  0.00     0.199 HD  
ATOM     22  H16 UNL     1       1.831   0.549  -2.071  1.00  0.00     0.199 HD  
BRANCH  20  23
ATOM     23  C13 UNL     1       0.703  -1.157  -2.209  1.00  0.00     0.164 C   
BRANCH  23  24
ATOM     24  C14 UNL     1       1.371  -1.743  -3.418  1.00  0.00    -0.002 A   
ATOM     25  C15 UNL     1       1.305  -1.083  -4.668  1.00  0.00     0.012 A   
ATOM     26  C19 UNL     1       2.116  -2.930  -3.300  1.00  0.00     0.045 A   
ATOM     27  C16 UNL     1       1.950  -1.613  -5.794  1.00  0.00     0.037 A   
ATOM     28  C18 UNL     1       2.743  -3.419  -4.427  1.00  0.00     0.109 A   
ATOM     29  C17 UNL     1       2.660  -2.784  -5.641  1.00  0.00     0.108 A   
ATOM     30  O2  UNL     1       3.491  -4.553  -4.482  1.00  0.00    -0.316 OA  
ATOM     31  O3  UNL     1       3.337  -3.442  -6.618  1.00  0.00    -0.316 OA  
ATOM     32  C20 UNL     1       3.859  -4.570  -5.882  1.00  0.00     0.337 C   
ENDBRANCH  23  24
ENDBRANCH  20  23
ENDBRANCH  19  20
BRANCH  19  33
ATOM     33  C21 UNL     1       2.354   0.852   0.610  1.00  0.00     0.043 C   
ATOM     34  C22 UNL     1       2.013   1.339   2.025  1.00  0.00     0.010 C   
ATOM     35  C25 UNL     1       3.495  -0.132   0.893  1.00  0.00     0.010 C   
ATOM     36  C23 UNL     1       3.378   1.541   2.672  1.00  0.00     0.001 C   
ATOM     37  C24 UNL     1       4.301   0.511   2.025  1.00  0.00     0.001 C   
ENDBRANCH  19  33
ENDBRANCH   3  19
TORSDOF 9
