REMARK SMILES Cc1ccc(C)c([C@@H](O)Cn2cc([C@@H]([NH2+]Cc3ccc4c(c3)OCO4)C3CCCC3)nn2)c1
REMARK SMILES IDX 11 1 12 2 13 3 31 4 32 5 10 7 8 8 7 9 2 10 3 11 33 12 4 13
REMARK SMILES IDX 5 14 1 15 6 16 9 17 14 19 15 20 16 23 17 24 18 25 22 26
REMARK SMILES IDX 19 27 21 28 20 29 23 30 25 31 24 32 26 33 27 34 30 35 28 36
REMARK SMILES IDX 29 37
REMARK H PARENT 12 6 9 18 15 21 15 22
ROOT
ATOM     1   N1  UNL     1       1.963  -2.649  -1.658  1.00  0.00    -0.209 N   
ATOM     2   C10 UNL     1       1.752  -1.416  -2.208  1.00  0.00     0.045 A   
ATOM     3   C11 UNL     1       2.534  -0.577  -1.444  1.00  0.00     0.127 A   
ATOM     4   N3  UNL     1       3.187  -1.313  -0.490  1.00  0.00    -0.132 NA  
ATOM     5   N4  UNL     1       2.845  -2.582  -0.644  1.00  0.00    -0.076 NA  
ATOM     6   H13 UNL     1       1.055  -1.252  -3.019  1.00  0.00     0.083 HD  
ENDROOT
BRANCH   1   7
ATOM     7   C9  UNL     1       1.287  -3.885  -1.972  1.00  0.00     0.170 C   
BRANCH   7   8
ATOM     8   C8  UNL     1       0.364  -4.366  -0.841  1.00  0.00     0.164 C   
BRANCH   8   9
ATOM     9   C7  UNL     1      -0.674  -3.337  -0.407  1.00  0.00    -0.015 A   
ATOM     10  C2  UNL     1      -2.587  -1.927  -1.025  1.00  0.00    -0.051 A   
ATOM     11  C3  UNL     1      -2.630  -1.433   0.279  1.00  0.00     0.004 A   
ATOM     12  C26 UNL     1      -1.622  -2.888  -1.351  1.00  0.00     0.010 A   
ATOM     13  C4  UNL     1      -1.713  -1.875   1.233  1.00  0.00     0.004 A   
ATOM     14  C5  UNL     1      -0.729  -2.823   0.908  1.00  0.00    -0.045 A   
ATOM     15  C1  UNL     1      -3.608  -1.496  -2.037  1.00  0.00     0.044 C   
ATOM     16  C6  UNL     1       0.219  -3.270   1.990  1.00  0.00     0.045 C   
ENDBRANCH   8   9
BRANCH   8  17
ATOM     17  O1  UNL     1      -0.322  -5.541  -1.287  1.00  0.00    -0.387 OA  
ATOM     18  H10 UNL     1      -1.047  -5.711  -0.657  1.00  0.00     0.211 HD  
ENDBRANCH   8  17
ENDBRANCH   7   8
ENDBRANCH   1   7
BRANCH   3  19
ATOM     19  C12 UNL     1       2.633   0.911  -1.431  1.00  0.00     0.117 C   
BRANCH  19  20
ATOM     20  N2  UNL     1       2.351   1.427  -0.037  1.00  0.00     0.249 N   
ATOM     21  H15 UNL     1       2.614   2.413   0.045  1.00  0.00     0.199 HD  
ATOM     22  H16 UNL     1       2.962   0.895   0.596  1.00  0.00     0.199 HD  
BRANCH  20  23
ATOM     23  C13 UNL     1       0.953   1.246   0.464  1.00  0.00     0.164 C   
BRANCH  23  24
ATOM     24  C14 UNL     1      -0.039   2.120  -0.251  1.00  0.00    -0.002 A   
ATOM     25  C15 UNL     1      -0.134   3.498   0.064  1.00  0.00     0.012 A   
ATOM     26  C19 UNL     1      -0.854   1.585  -1.265  1.00  0.00     0.045 A   
ATOM     27  C16 UNL     1      -1.025   4.332  -0.623  1.00  0.00     0.037 A   
ATOM     28  C18 UNL     1      -1.715   2.436  -1.927  1.00  0.00     0.109 A   
ATOM     29  C17 UNL     1      -1.799   3.771  -1.616  1.00  0.00     0.108 A   
ATOM     30  O2  UNL     1      -2.547   2.083  -2.942  1.00  0.00    -0.316 OA  
ATOM     31  O3  UNL     1      -2.703   4.427  -2.390  1.00  0.00    -0.316 OA  
ATOM     32  C20 UNL     1      -3.190   3.349  -3.220  1.00  0.00     0.337 C   
ENDBRANCH  23  24
ENDBRANCH  20  23
ENDBRANCH  19  20
BRANCH  19  33
ATOM     33  C21 UNL     1       4.006   1.413  -1.932  1.00  0.00     0.043 C   
ATOM     34  C22 UNL     1       4.007   2.910  -2.291  1.00  0.00     0.010 C   
ATOM     35  C25 UNL     1       5.204   1.223  -0.976  1.00  0.00     0.010 C   
ATOM     36  C23 UNL     1       5.441   3.354  -2.053  1.00  0.00     0.001 C   
ATOM     37  C24 UNL     1       5.811   2.610  -0.784  1.00  0.00     0.001 C   
ENDBRANCH  19  33
ENDBRANCH   3  19
TORSDOF 9
