REMARK SMILES CC(C)(C)[C@H]([NH2+]Cc1ccc2c(c1)OCO2)c1cn(C[C@H]2NCCc3ccsc32)nn1
REMARK SMILES IDX 17 1 18 2 19 3 30 4 31 5 5 7 2 8 1 9 3 10 4 11 6 12 7 15
REMARK SMILES IDX 8 16 9 17 13 18 10 19 12 20 11 21 14 22 16 23 15 24 20 25
REMARK SMILES IDX 21 26 22 27 29 28 23 29 25 30 28 31 24 32 26 33 27 34
REMARK H PARENT 18 6 6 13 6 14 22 35
ROOT
ATOM     1   C14 UNL     1      -1.948  -0.846  -0.943  1.00  0.00     0.127 A   
ATOM     2   C15 UNL     1      -1.629  -2.022  -0.302  1.00  0.00     0.045 A   
ATOM     3   N2  UNL     1      -0.911  -2.721  -1.232  1.00  0.00    -0.210 N   
ATOM     4   N4  UNL     1      -0.819  -2.030  -2.382  1.00  0.00    -0.076 NA  
ATOM     5   N5  UNL     1      -1.441  -0.876  -2.215  1.00  0.00    -0.132 NA  
ATOM     6   H20 UNL     1      -1.820  -2.404   0.690  1.00  0.00     0.083 HD  
ENDROOT
BRANCH   1   7
ATOM     7   C5  UNL     1      -2.632   0.396  -0.456  1.00  0.00     0.120 C   
BRANCH   7   8
ATOM     8   C2  UNL     1      -4.173   0.444  -0.752  1.00  0.00     0.010 C   
ATOM     9   C1  UNL     1      -4.491   0.503  -2.259  1.00  0.00     0.017 C   
ATOM     10  C3  UNL     1      -4.868  -0.802  -0.155  1.00  0.00     0.017 C   
ATOM     11  C4  UNL     1      -4.813   1.678  -0.074  1.00  0.00     0.017 C   
ENDBRANCH   7   8
BRANCH   7  12
ATOM     12  N1  UNL     1      -1.940   1.597  -1.074  1.00  0.00     0.250 N   
ATOM     13  H11 UNL     1      -1.859   1.388  -2.079  1.00  0.00     0.199 HD  
ATOM     14  H12 UNL     1      -2.505   2.442  -0.986  1.00  0.00     0.199 HD  
BRANCH  12  15
ATOM     15  C6  UNL     1      -0.557   1.887  -0.586  1.00  0.00     0.164 C   
BRANCH  15  16
ATOM     16  C7  UNL     1      -0.529   2.356   0.843  1.00  0.00    -0.002 A   
ATOM     17  C8  UNL     1      -0.048   1.502   1.866  1.00  0.00     0.012 A   
ATOM     18  C12 UNL     1      -1.004   3.637   1.178  1.00  0.00     0.045 A   
ATOM     19  C9  UNL     1      -0.045   1.914   3.204  1.00  0.00     0.037 A   
ATOM     20  C11 UNL     1      -0.987   4.011   2.505  1.00  0.00     0.109 A   
ATOM     21  C10 UNL     1      -0.521   3.175   3.491  1.00  0.00     0.108 A   
ATOM     22  O1  UNL     1      -1.407   5.206   2.993  1.00  0.00    -0.316 OA  
ATOM     23  O2  UNL     1      -0.588   3.738   4.724  1.00  0.00    -0.316 OA  
ATOM     24  C13 UNL     1      -1.130   5.039   4.404  1.00  0.00     0.337 C   
ENDBRANCH  15  16
ENDBRANCH  12  15
ENDBRANCH   7  12
ENDBRANCH   1   7
BRANCH   3  25
ATOM     25  C16 UNL     1      -0.310  -4.034  -1.110  1.00  0.00     0.158 C   
BRANCH  25  26
ATOM     26  C17 UNL     1       0.841  -4.097  -0.082  1.00  0.00     0.111 C   
ATOM     27  N3  UNL     1       1.161  -5.513   0.255  1.00  0.00    -0.308 NA  
ATOM     28  C23 UNL     1       2.094  -3.392  -0.551  1.00  0.00     0.011 A   
ATOM     29  C18 UNL     1       1.924  -6.178  -0.828  1.00  0.00     0.086 C   
ATOM     30  C20 UNL     1       3.215  -4.030  -1.048  1.00  0.00    -0.035 A   
ATOM     31  S1  UNL     1       2.299  -1.702  -0.479  1.00  0.00    -0.101 S   
ATOM     32  C19 UNL     1       3.294  -5.525  -1.110  1.00  0.00     0.051 C   
ATOM     33  C21 UNL     1       4.230  -3.104  -1.429  1.00  0.00     0.012 A   
ATOM     34  C22 UNL     1       3.857  -1.803  -1.181  1.00  0.00     0.046 A   
ATOM     35  H24 UNL     1       1.754  -5.507   1.088  1.00  0.00     0.123 HD  
ENDBRANCH  25  26
ENDBRANCH   3  25
TORSDOF 7
