REMARK SMILES CC(C)(C)[C@H]([NH2+]Cc1ccc2c(c1)OCO2)c1cn(C[C@@H]2NCCc3ccsc32)nn1
REMARK SMILES IDX 17 1 18 2 19 3 30 4 31 5 5 7 2 8 1 9 3 10 4 11 6 12 7 15
REMARK SMILES IDX 8 16 9 17 13 18 10 19 12 20 11 21 14 22 16 23 15 24 20 25
REMARK SMILES IDX 21 26 22 27 29 28 23 29 25 30 28 31 24 32 26 33 27 34
REMARK H PARENT 18 6 6 13 6 14 22 35
ROOT
ATOM     1   C14 UNL     1      -0.218  -0.967   1.739  1.00  0.00     0.127 A   
ATOM     2   C15 UNL     1       1.150  -1.000   1.590  1.00  0.00     0.045 A   
ATOM     3   N2  UNL     1       1.504  -2.235   2.057  1.00  0.00    -0.210 N   
ATOM     4   N4  UNL     1       0.422  -2.901   2.513  1.00  0.00    -0.076 NA  
ATOM     5   N5  UNL     1      -0.641  -2.141   2.308  1.00  0.00    -0.132 NA  
ATOM     6   H20 UNL     1       1.869  -0.304   1.174  1.00  0.00     0.083 HD  
ENDROOT
BRANCH   1   7
ATOM     7   C5  UNL     1      -1.225   0.044   1.294  1.00  0.00     0.120 C   
BRANCH   7   8
ATOM     8   C2  UNL     1      -1.704   1.023   2.424  1.00  0.00     0.010 C   
ATOM     9   C1  UNL     1      -0.488   1.742   3.052  1.00  0.00     0.017 C   
ATOM     10  C3  UNL     1      -2.475   0.309   3.551  1.00  0.00     0.017 C   
ATOM     11  C4  UNL     1      -2.616   2.121   1.829  1.00  0.00     0.017 C   
ENDBRANCH   7   8
BRANCH   7  12
ATOM     12  N1  UNL     1      -2.410  -0.688   0.689  1.00  0.00     0.250 N   
ATOM     13  H11 UNL     1      -3.204  -0.061   0.551  1.00  0.00     0.199 HD  
ATOM     14  H12 UNL     1      -2.690  -1.395   1.383  1.00  0.00     0.199 HD  
BRANCH  12  15
ATOM     15  C6  UNL     1      -2.151  -1.421  -0.589  1.00  0.00     0.164 C   
BRANCH  15  16
ATOM     16  C7  UNL     1      -1.774  -0.508  -1.723  1.00  0.00    -0.002 A   
ATOM     17  C8  UNL     1      -2.741   0.336  -2.320  1.00  0.00     0.012 A   
ATOM     18  C12 UNL     1      -0.440  -0.460  -2.169  1.00  0.00     0.045 A   
ATOM     19  C9  UNL     1      -2.382   1.225  -3.340  1.00  0.00     0.037 A   
ATOM     20  C11 UNL     1      -0.119   0.427  -3.175  1.00  0.00     0.109 A   
ATOM     21  C10 UNL     1      -1.062   1.248  -3.742  1.00  0.00     0.108 A   
ATOM     22  O1  UNL     1       1.119   0.610  -3.708  1.00  0.00    -0.316 OA  
ATOM     23  O2  UNL     1      -0.536   2.054  -4.702  1.00  0.00    -0.316 OA  
ATOM     24  C13 UNL     1       0.845   1.632  -4.693  1.00  0.00     0.337 C   
ENDBRANCH  15  16
ENDBRANCH  12  15
ENDBRANCH   7  12
ENDBRANCH   1   7
BRANCH   3  25
ATOM     25  C16 UNL     1       2.812  -2.852   2.119  1.00  0.00     0.158 C   
BRANCH  25  26
ATOM     26  C17 UNL     1       3.632  -2.829   0.809  1.00  0.00     0.111 C   
ATOM     27  N3  UNL     1       4.199  -1.468   0.579  1.00  0.00    -0.308 NA  
ATOM     28  C23 UNL     1       2.867  -3.315  -0.408  1.00  0.00     0.011 A   
ATOM     29  C18 UNL     1       4.786  -1.333  -0.771  1.00  0.00     0.086 C   
ATOM     30  C20 UNL     1       2.910  -2.717  -1.655  1.00  0.00    -0.035 A   
ATOM     31  S1  UNL     1       1.935  -4.743  -0.421  1.00  0.00    -0.101 S   
ATOM     32  C19 UNL     1       3.727  -1.484  -1.881  1.00  0.00     0.051 C   
ATOM     33  C21 UNL     1       2.128  -3.420  -2.613  1.00  0.00     0.012 A   
ATOM     34  C22 UNL     1       1.537  -4.541  -2.069  1.00  0.00     0.046 A   
ATOM     35  H24 UNL     1       4.940  -1.307   1.261  1.00  0.00     0.123 HD  
ENDBRANCH  25  26
ENDBRANCH   3  25
TORSDOF 7
