REMARK SMILES COc1cccc(-n2cc([C@@H]([NH2+]Cc3ccc4c(c3)OCO4)C3CCCCC3)nn2)c1C
REMARK SMILES IDX 8 1 9 2 10 3 29 4 30 5 7 6 3 7 4 8 31 9 5 10 6 11 32 12 2 13
REMARK SMILES IDX 1 14 11 15 12 16 13 19 14 20 15 21 19 22 16 23 18 24 17 25
REMARK SMILES IDX 20 26 22 27 21 28 23 29 24 30 28 31 25 32 27 33 26 34
REMARK H PARENT 12 17 12 18
ROOT
ATOM     1   N1  UNL     1       2.089  -1.231  -0.514  1.00  0.00    -0.180 N   
ATOM     2   C7  UNL     1       1.078  -0.322  -0.234  1.00  0.00     0.135 A   
ATOM     3   C8  UNL     1      -0.096  -1.033  -0.339  1.00  0.00     0.127 A   
ATOM     4   N3  UNL     1       0.194  -2.311  -0.714  1.00  0.00    -0.131 NA  
ATOM     5   N4  UNL     1       1.506  -2.418  -0.820  1.00  0.00    -0.071 NA  
ENDROOT
BRANCH   1   6
ATOM     6   C6  UNL     1       3.499  -1.009  -0.556  1.00  0.00     0.063 A   
ATOM     7   C2  UNL     1       5.822  -1.745  -0.774  1.00  0.00     0.079 A   
ATOM     8   C3  UNL     1       6.243  -0.412  -0.752  1.00  0.00     0.034 A   
ATOM     9   C24 UNL     1       4.445  -2.067  -0.652  1.00  0.00     0.003 A   
ATOM     10  C4  UNL     1       5.316   0.614  -0.616  1.00  0.00     0.005 A   
ATOM     11  C5  UNL     1       3.958   0.322  -0.522  1.00  0.00     0.026 A   
ATOM     12  C25 UNL     1       4.052  -3.528  -0.625  1.00  0.00     0.049 C   
BRANCH   7  13
ATOM     13  O1  UNL     1       6.681  -2.807  -0.910  1.00  0.00    -0.349 OA  
ATOM     14  C1  UNL     1       8.068  -2.535  -1.065  1.00  0.00     0.203 C   
ENDBRANCH   7  13
ENDBRANCH   1   6
BRANCH   3  15
ATOM     15  C9  UNL     1      -1.522  -0.624  -0.163  1.00  0.00     0.117 C   
BRANCH  15  16
ATOM     16  N2  UNL     1      -2.411  -1.425  -1.093  1.00  0.00     0.249 N   
ATOM     17  H9  UNL     1      -3.388  -1.365  -0.791  1.00  0.00     0.199 HD  
ATOM     18  H10 UNL     1      -2.121  -2.408  -0.997  1.00  0.00     0.199 HD  
BRANCH  16  19
ATOM     19  C10 UNL     1      -2.327  -1.085  -2.546  1.00  0.00     0.164 C   
BRANCH  19  20
ATOM     20  C11 UNL     1      -2.855   0.288  -2.855  1.00  0.00    -0.002 A   
ATOM     21  C12 UNL     1      -4.240   0.564  -2.761  1.00  0.00     0.012 A   
ATOM     22  C16 UNL     1      -1.968   1.319  -3.211  1.00  0.00     0.045 A   
ATOM     23  C13 UNL     1      -4.735   1.850  -3.007  1.00  0.00     0.037 A   
ATOM     24  C15 UNL     1      -2.488   2.574  -3.446  1.00  0.00     0.109 A   
ATOM     25  C14 UNL     1      -3.832   2.832  -3.346  1.00  0.00     0.108 A   
ATOM     26  O2  UNL     1      -1.771   3.675  -3.789  1.00  0.00    -0.316 OA  
ATOM     27  O3  UNL     1      -4.133   4.128  -3.618  1.00  0.00    -0.316 OA  
ATOM     28  C17 UNL     1      -2.824   4.658  -3.921  1.00  0.00     0.337 C   
ENDBRANCH  19  20
ENDBRANCH  16  19
ENDBRANCH  15  16
BRANCH  15  29
ATOM     29  C18 UNL     1      -2.062  -0.791   1.283  1.00  0.00     0.043 C   
ATOM     30  C19 UNL     1      -2.000  -2.232   1.824  1.00  0.00     0.010 C   
ATOM     31  C23 UNL     1      -1.368   0.172   2.266  1.00  0.00     0.010 C   
ATOM     32  C20 UNL     1      -2.599  -2.330   3.227  1.00  0.00     0.001 C   
ATOM     33  C22 UNL     1      -1.967   0.073   3.668  1.00  0.00     0.001 C   
ATOM     34  C21 UNL     1      -1.931  -1.358   4.195  1.00  0.00     0.000 C   
ENDBRANCH  15  29
ENDBRANCH   3  15
TORSDOF 7
