REMARK SMILES CC(C)C[C@H]([NH2+]Cc1ccc2c(c1)OCO2)c1cn(CCOc2ccccc2)nn1
REMARK SMILES IDX 17 1 18 2 19 3 29 4 30 5 5 7 4 8 2 9 1 10 3 11 6 12 7 15
REMARK SMILES IDX 8 16 9 17 13 18 10 19 12 20 11 21 14 22 16 23 15 24 20 25
REMARK SMILES IDX 21 26 22 27 23 28 24 29 28 30 25 31 27 32 26 33
REMARK H PARENT 18 6 6 13 6 14
ROOT
ATOM     1   C14 UNL     1      -1.212   2.299  -0.170  1.00  0.00     0.127 A   
ATOM     2   C15 UNL     1      -1.286   2.583   1.174  1.00  0.00     0.045 A   
ATOM     3   N2  UNL     1      -2.326   1.811   1.611  1.00  0.00    -0.210 N   
ATOM     4   N3  UNL     1      -2.897   1.146   0.591  1.00  0.00    -0.076 NA  
ATOM     5   N4  UNL     1      -2.216   1.429  -0.506  1.00  0.00    -0.132 NA  
ATOM     6   H20 UNL     1      -0.673   3.162   1.851  1.00  0.00     0.083 HD  
ENDROOT
BRANCH   1   7
ATOM     7   C5  UNL     1      -0.176   2.641  -1.192  1.00  0.00     0.114 C   
BRANCH   7   8
ATOM     8   C4  UNL     1      -0.754   3.556  -2.287  1.00  0.00     0.064 C   
BRANCH   8   9
ATOM     9   C2  UNL     1       0.232   4.030  -3.379  1.00  0.00    -0.012 C   
ATOM     10  C1  UNL     1      -0.496   4.951  -4.364  1.00  0.00     0.007 C   
ATOM     11  C3  UNL     1       1.448   4.755  -2.802  1.00  0.00     0.007 C   
ENDBRANCH   8   9
ENDBRANCH   7   8
BRANCH   7  12
ATOM     12  N1  UNL     1       0.332   1.366  -1.814  1.00  0.00     0.249 N   
ATOM     13  H11 UNL     1      -0.501   0.807  -2.061  1.00  0.00     0.199 HD  
ATOM     14  H12 UNL     1       0.835   1.531  -2.689  1.00  0.00     0.199 HD  
BRANCH  12  15
ATOM     15  C6  UNL     1       1.178   0.527  -0.918  1.00  0.00     0.164 C   
BRANCH  15  16
ATOM     16  C7  UNL     1       1.467  -0.808  -1.542  1.00  0.00    -0.002 A   
ATOM     17  C8  UNL     1       2.561  -0.975  -2.423  1.00  0.00     0.012 A   
ATOM     18  C12 UNL     1       0.619  -1.897  -1.271  1.00  0.00     0.045 A   
ATOM     19  C9  UNL     1       2.818  -2.217  -3.017  1.00  0.00     0.037 A   
ATOM     20  C11 UNL     1       0.903  -3.107  -1.871  1.00  0.00     0.109 A   
ATOM     21  C10 UNL     1       1.971  -3.262  -2.720  1.00  0.00     0.108 A   
ATOM     22  O1  UNL     1       0.197  -4.256  -1.705  1.00  0.00    -0.316 OA  
ATOM     23  O2  UNL     1       2.074  -4.531  -3.197  1.00  0.00    -0.316 OA  
ATOM     24  C13 UNL     1       0.943  -5.159  -2.554  1.00  0.00     0.337 C   
ENDBRANCH  15  16
ENDBRANCH  12  15
ENDBRANCH   7  12
ENDBRANCH   1   7
BRANCH   3  25
ATOM     25  C16 UNL     1      -2.689   1.497   2.981  1.00  0.00     0.163 C   
BRANCH  25  26
ATOM     26  C17 UNL     1      -2.040   0.180   3.403  1.00  0.00     0.189 C   
BRANCH  26  27
ATOM     27  O3  UNL     1      -0.625   0.396   3.505  1.00  0.00    -0.344 OA  
BRANCH  27  28
ATOM     28  C18 UNL     1       0.208  -0.604   3.089  1.00  0.00     0.075 A   
ATOM     29  C19 UNL     1       1.526  -0.205   2.854  1.00  0.00     0.033 A   
ATOM     30  C23 UNL     1      -0.141  -1.942   2.912  1.00  0.00     0.033 A   
ATOM     31  C20 UNL     1       2.478  -1.122   2.404  1.00  0.00     0.003 A   
ATOM     32  C22 UNL     1       0.810  -2.860   2.460  1.00  0.00     0.003 A   
ATOM     33  C21 UNL     1       2.115  -2.450   2.199  1.00  0.00     0.000 A   
ENDBRANCH  27  28
ENDBRANCH  26  27
ENDBRANCH  25  26
ENDBRANCH   3  25
TORSDOF 10
