REMARK SMILES CC(C)[C@H]([NH2+]Cc1ccc2c(c1)OCO2)c1cn(-c2ccc(Cl)cc2O)nn1
REMARK SMILES IDX 16 1 17 2 18 3 27 4 28 5 4 6 2 7 1 8 3 9 5 10 6 13 7 14 8 15
REMARK SMILES IDX 12 16 9 17 11 18 10 19 13 20 15 21 14 22 19 23 20 24 25 25
REMARK SMILES IDX 21 26 24 27 22 28 23 29 26 30
REMARK H PARENT 5 11 5 12 26 31
ROOT
ATOM     1   C13 UNL     1       0.768   1.137   0.204  1.00  0.00     0.127 A   
ATOM     2   C14 UNL     1       1.425   1.970   1.081  1.00  0.00     0.135 A   
ATOM     3   N2  UNL     1       0.484   2.898   1.487  1.00  0.00    -0.178 N   
ATOM     4   N3  UNL     1      -0.699   2.590   0.878  1.00  0.00    -0.071 NA  
ATOM     5   N4  UNL     1      -0.530   1.538   0.096  1.00  0.00    -0.131 NA  
ENDROOT
BRANCH   1   6
ATOM     6   C4  UNL     1       1.244  -0.059  -0.560  1.00  0.00     0.117 C   
BRANCH   6   7
ATOM     7   C2  UNL     1       2.055   0.339  -1.821  1.00  0.00     0.037 C   
ATOM     8   C1  UNL     1       2.807  -0.860  -2.414  1.00  0.00     0.014 C   
ATOM     9   C3  UNL     1       1.216   1.014  -2.913  1.00  0.00     0.014 C   
ENDBRANCH   6   7
BRANCH   6  10
ATOM     10  N1  UNL     1       0.081  -0.935  -0.944  1.00  0.00     0.249 N   
ATOM     11  H9  UNL     1       0.305  -1.555  -1.728  1.00  0.00     0.199 HD  
ATOM     12  H10 UNL     1      -0.667  -0.309  -1.277  1.00  0.00     0.199 HD  
BRANCH  10  13
ATOM     13  C5  UNL     1      -0.493  -1.750   0.163  1.00  0.00     0.164 C   
BRANCH  13  14
ATOM     14  C6  UNL     1      -1.707  -2.495  -0.314  1.00  0.00    -0.002 A   
ATOM     15  C7  UNL     1      -2.980  -1.876  -0.276  1.00  0.00     0.012 A   
ATOM     16  C11 UNL     1      -1.580  -3.786  -0.854  1.00  0.00     0.045 A   
ATOM     17  C8  UNL     1      -4.115  -2.537  -0.758  1.00  0.00     0.037 A   
ATOM     18  C10 UNL     1      -2.719  -4.409  -1.321  1.00  0.00     0.109 A   
ATOM     19  C9  UNL     1      -3.950  -3.803  -1.274  1.00  0.00     0.108 A   
ATOM     20  O1  UNL     1      -2.771  -5.650  -1.871  1.00  0.00    -0.316 OA  
ATOM     21  O2  UNL     1      -4.934  -4.588  -1.787  1.00  0.00    -0.316 OA  
ATOM     22  C12 UNL     1      -4.186  -5.770  -2.144  1.00  0.00     0.337 C   
ENDBRANCH  13  14
ENDBRANCH  10  13
ENDBRANCH   6  10
ENDBRANCH   1   6
BRANCH   3  23
ATOM     23  C15 UNL     1       0.587   4.006   2.373  1.00  0.00     0.088 A   
ATOM     24  C16 UNL     1      -0.564   4.791   2.591  1.00  0.00     0.030 A   
ATOM     25  C20 UNL     1       1.773   4.357   3.035  1.00  0.00     0.096 A   
ATOM     26  C17 UNL     1      -0.528   5.894   3.449  1.00  0.00     0.023 A   
ATOM     27  C19 UNL     1       1.806   5.463   3.894  1.00  0.00     0.055 A   
ATOM     28  C18 UNL     1       0.656   6.224   4.096  1.00  0.00     0.043 A   
ATOM     29  CL1 UNL     1       0.705   7.580   5.152  1.00  0.00    -0.084 Cl  
BRANCH  25  30
ATOM     30  O3  UNL     1       2.925   3.641   2.873  1.00  0.00    -0.359 OA  
ATOM     31  H22 UNL     1       3.637   4.050   3.400  1.00  0.00     0.218 HD  
ENDBRANCH  25  30
ENDBRANCH   3  23
TORSDOF 7
