REMARK SMILES CCC[C@@H](c1cnn[nH]1)n1cc([C@@H]([NH2+]Cc2ccc3c(c2)OCO3)C2CCCC2)nn1
REMARK SMILES IDX 10 1 11 2 12 3 30 4 31 5 4 7 3 8 2 9 1 10 5 11 6 12 9 13
REMARK SMILES IDX 7 14 8 15 13 17 14 18 15 21 16 22 17 23 21 24 18 25 20 26
REMARK SMILES IDX 19 27 22 28 24 29 23 30 25 31 26 32 29 33 27 34 28 35
REMARK H PARENT 11 6 9 16 14 19 14 20
ROOT
ATOM     1   N4  UNL     1       0.057   1.069  -0.945  1.00  0.00    -0.203 N   
ATOM     2   C7  UNL     1      -0.361   0.409   0.180  1.00  0.00     0.046 A   
ATOM     3   C8  UNL     1       0.738   0.429   1.009  1.00  0.00     0.127 A   
ATOM     4   N6  UNL     1       1.764   1.092   0.381  1.00  0.00    -0.132 NA  
ATOM     5   N7  UNL     1       1.332   1.486  -0.804  1.00  0.00    -0.075 NA  
ATOM     6   H11 UNL     1      -1.355  -0.009   0.273  1.00  0.00     0.083 HD  
ENDROOT
BRANCH   1   7
ATOM     7   C4  UNL     1      -0.711   1.366  -2.161  1.00  0.00     0.147 C   
BRANCH   7   8
ATOM     8   C3  UNL     1      -0.928   2.884  -2.318  1.00  0.00     0.031 C   
BRANCH   8   9
ATOM     9   C2  UNL     1      -1.933   3.231  -3.424  1.00  0.00    -0.001 C   
ATOM     10  C1  UNL     1      -2.221   4.723  -3.466  1.00  0.00     0.004 C   
ENDBRANCH   8   9
ENDBRANCH   7   8
BRANCH   7  11
ATOM     11  C5  UNL     1      -0.065   0.746  -3.355  1.00  0.00     0.069 A   
ATOM     12  C6  UNL     1      -0.536  -0.100  -4.334  1.00  0.00     0.160 A   
ATOM     13  N3  UNL     1       1.236   0.978  -3.729  1.00  0.00    -0.220 N   
ATOM     14  N1  UNL     1       0.459  -0.353  -5.235  1.00  0.00    -0.141 NA  
ATOM     15  N2  UNL     1       1.535   0.330  -4.862  1.00  0.00    -0.079 NA  
ATOM     16  H10 UNL     1       1.954   1.534  -3.273  1.00  0.00     0.177 HD  
ENDBRANCH   7  11
ENDBRANCH   1   7
BRANCH   3  17
ATOM     17  C9  UNL     1       0.971  -0.161   2.364  1.00  0.00     0.117 C   
BRANCH  17  18
ATOM     18  N5  UNL     1       2.422  -0.596   2.477  1.00  0.00     0.249 N   
ATOM     19  H13 UNL     1       2.818  -0.324   3.384  1.00  0.00     0.199 HD  
ATOM     20  H14 UNL     1       2.942  -0.044   1.773  1.00  0.00     0.199 HD  
BRANCH  18  21
ATOM     21  C10 UNL     1       2.698  -2.039   2.249  1.00  0.00     0.164 C   
BRANCH  21  22
ATOM     22  C11 UNL     1       2.366  -2.519   0.861  1.00  0.00    -0.002 A   
ATOM     23  C12 UNL     1       1.351  -3.484   0.667  1.00  0.00     0.012 A   
ATOM     24  C16 UNL     1       3.068  -2.025  -0.256  1.00  0.00     0.045 A   
ATOM     25  C13 UNL     1       1.026  -3.943  -0.616  1.00  0.00     0.037 A   
ATOM     26  C15 UNL     1       2.727  -2.500  -1.508  1.00  0.00     0.109 A   
ATOM     27  C14 UNL     1       1.734  -3.433  -1.681  1.00  0.00     0.108 A   
ATOM     28  O1  UNL     1       3.301  -2.133  -2.683  1.00  0.00    -0.316 OA  
ATOM     29  O2  UNL     1       1.559  -3.772  -2.986  1.00  0.00    -0.316 OA  
ATOM     30  C17 UNL     1       2.585  -2.972  -3.620  1.00  0.00     0.337 C   
ENDBRANCH  21  22
ENDBRANCH  18  21
ENDBRANCH  17  18
BRANCH  17  31
ATOM     31  C18 UNL     1       0.675   0.793   3.539  1.00  0.00     0.043 C   
ATOM     32  C19 UNL     1       1.456   2.110   3.561  1.00  0.00     0.010 C   
ATOM     33  C22 UNL     1      -0.775   1.274   3.642  1.00  0.00     0.010 C   
ATOM     34  C20 UNL     1       0.738   2.931   4.626  1.00  0.00     0.001 C   
ATOM     35  C21 UNL     1      -0.719   2.464   4.600  1.00  0.00     0.001 C   
ENDBRANCH  17  31
ENDBRANCH   3  17
TORSDOF 9
