REMARK SMILES CCC[C@H](c1cnn[nH]1)n1cc([C@@H]([NH2+]Cc2ccc3c(c2)OCO3)C2CCCC2)nn1
REMARK SMILES IDX 10 1 11 2 12 3 30 4 31 5 4 7 3 8 2 9 1 10 5 11 6 12 9 13
REMARK SMILES IDX 7 14 8 15 13 17 14 18 15 21 16 22 17 23 21 24 18 25 20 26
REMARK SMILES IDX 19 27 22 28 24 29 23 30 25 31 26 32 29 33 27 34 28 35
REMARK H PARENT 11 6 9 16 14 19 14 20
ROOT
ATOM     1   N4  UNL     1      -0.457   1.906  -0.426  1.00  0.00    -0.203 N   
ATOM     2   C7  UNL     1      -1.389   0.986  -0.825  1.00  0.00     0.046 A   
ATOM     3   C8  UNL     1      -0.953  -0.197  -0.268  1.00  0.00     0.127 A   
ATOM     4   N6  UNL     1       0.219   0.030   0.406  1.00  0.00    -0.132 NA  
ATOM     5   N7  UNL     1       0.514   1.314   0.304  1.00  0.00    -0.075 NA  
ATOM     6   H11 UNL     1      -2.256   1.257  -1.414  1.00  0.00     0.083 HD  
ENDROOT
BRANCH   1   7
ATOM     7   C4  UNL     1      -0.473   3.355  -0.635  1.00  0.00     0.147 C   
BRANCH   7   8
ATOM     8   C3  UNL     1       0.876   3.923  -1.118  1.00  0.00     0.031 C   
BRANCH   8   9
ATOM     9   C2  UNL     1       1.400   3.327  -2.431  1.00  0.00    -0.001 C   
ATOM     10  C1  UNL     1       0.483   3.568  -3.620  1.00  0.00     0.004 C   
ENDBRANCH   8   9
ENDBRANCH   7   8
BRANCH   7  11
ATOM     11  C5  UNL     1      -0.935   4.030   0.616  1.00  0.00     0.069 A   
ATOM     12  C6  UNL     1      -1.926   4.951   0.868  1.00  0.00     0.160 A   
ATOM     13  N3  UNL     1      -0.384   3.807   1.854  1.00  0.00    -0.220 N   
ATOM     14  N1  UNL     1      -1.963   5.224   2.205  1.00  0.00    -0.141 NA  
ATOM     15  N2  UNL     1      -1.021   4.508   2.800  1.00  0.00    -0.079 NA  
ATOM     16  H10 UNL     1       0.380   3.192   2.123  1.00  0.00     0.177 HD  
ENDBRANCH   7  11
ENDBRANCH   1   7
BRANCH   3  17
ATOM     17  C9  UNL     1      -1.534  -1.577  -0.301  1.00  0.00     0.117 C   
BRANCH  17  18
ATOM     18  N5  UNL     1      -0.449  -2.602  -0.109  1.00  0.00     0.249 N   
ATOM     19  H13 UNL     1      -0.819  -3.499   0.221  1.00  0.00     0.199 HD  
ATOM     20  H14 UNL     1       0.160  -2.252   0.645  1.00  0.00     0.199 HD  
BRANCH  18  21
ATOM     21  C10 UNL     1       0.422  -2.845  -1.294  1.00  0.00     0.164 C   
BRANCH  21  22
ATOM     22  C11 UNL     1       1.499  -3.835  -0.947  1.00  0.00    -0.002 A   
ATOM     23  C12 UNL     1       2.663  -3.406  -0.264  1.00  0.00     0.012 A   
ATOM     24  C16 UNL     1       1.329  -5.198  -1.239  1.00  0.00     0.045 A   
ATOM     25  C13 UNL     1       3.647  -4.322   0.123  1.00  0.00     0.037 A   
ATOM     26  C15 UNL     1       2.321  -6.074  -0.848  1.00  0.00     0.109 A   
ATOM     27  C14 UNL     1       3.445  -5.650  -0.182  1.00  0.00     0.108 A   
ATOM     28  O1  UNL     1       2.316  -7.417  -1.054  1.00  0.00    -0.316 OA  
ATOM     29  O2  UNL     1       4.286  -6.673   0.118  1.00  0.00    -0.316 OA  
ATOM     30  C17 UNL     1       3.580  -7.791  -0.461  1.00  0.00     0.337 C   
ENDBRANCH  21  22
ENDBRANCH  18  21
ENDBRANCH  17  18
BRANCH  17  31
ATOM     31  C18 UNL     1      -2.632  -1.757   0.768  1.00  0.00     0.043 C   
ATOM     32  C19 UNL     1      -2.162  -1.746   2.228  1.00  0.00     0.010 C   
ATOM     33  C22 UNL     1      -3.445  -3.058   0.635  1.00  0.00     0.010 C   
ATOM     34  C20 UNL     1      -3.336  -2.372   2.966  1.00  0.00     0.001 C   
ATOM     35  C21 UNL     1      -3.741  -3.526   2.061  1.00  0.00     0.001 C   
ENDBRANCH  17  31
ENDBRANCH   3  17
TORSDOF 9
