REMARK SMILES CC(C)C[C@H]([NH2+]Cc1ccc2c(c1)OCO2)c1cn(-c2ccc(CO)cc2)nn1
REMARK SMILES IDX 17 1 18 2 19 3 28 4 29 5 5 6 4 7 2 8 1 9 3 10 6 11 7 14 8 15
REMARK SMILES IDX 9 16 13 17 10 18 12 19 11 20 14 21 16 22 15 23 20 24 21 25
REMARK SMILES IDX 27 26 22 27 26 28 23 29 24 30 25 31
REMARK H PARENT 6 12 6 13 25 32
ROOT
ATOM     1   C14 UNL     1       0.751  -0.092   1.049  1.00  0.00     0.127 A   
ATOM     2   C15 UNL     1       0.327   0.446  -0.145  1.00  0.00     0.135 A   
ATOM     3   N2  UNL     1       0.423  -0.589  -1.056  1.00  0.00    -0.181 N   
ATOM     4   N3  UNL     1       0.959  -1.671  -0.432  1.00  0.00    -0.071 NA  
ATOM     5   N4  UNL     1       1.140  -1.385   0.847  1.00  0.00    -0.131 NA  
ENDROOT
BRANCH   1   6
ATOM     6   C5  UNL     1       0.730   0.449   2.440  1.00  0.00     0.114 C   
BRANCH   6   7
ATOM     7   C4  UNL     1       2.143   0.681   3.007  1.00  0.00     0.064 C   
BRANCH   7   8
ATOM     8   C2  UNL     1       2.992   1.718   2.239  1.00  0.00    -0.012 C   
ATOM     9   C1  UNL     1       4.387   1.807   2.865  1.00  0.00     0.007 C   
ATOM     10  C3  UNL     1       2.346   3.103   2.219  1.00  0.00     0.007 C   
ENDBRANCH   7   8
ENDBRANCH   6   7
BRANCH   6  11
ATOM     11  N1  UNL     1       0.040  -0.561   3.346  1.00  0.00     0.249 N   
ATOM     12  H11 UNL     1       0.220  -1.488   2.929  1.00  0.00     0.199 HD  
ATOM     13  H12 UNL     1       0.490  -0.581   4.267  1.00  0.00     0.199 HD  
BRANCH  11  14
ATOM     14  C6  UNL     1      -1.433  -0.398   3.536  1.00  0.00     0.164 C   
BRANCH  14  15
ATOM     15  C7  UNL     1      -2.229  -0.398   2.260  1.00  0.00    -0.002 A   
ATOM     16  C8  UNL     1      -2.852   0.793   1.809  1.00  0.00     0.012 A   
ATOM     17  C12 UNL     1      -2.323  -1.563   1.478  1.00  0.00     0.045 A   
ATOM     18  C9  UNL     1      -3.529   0.833   0.586  1.00  0.00     0.037 A   
ATOM     19  C11 UNL     1      -2.989  -1.486   0.272  1.00  0.00     0.109 A   
ATOM     20  C10 UNL     1      -3.570  -0.321  -0.165  1.00  0.00     0.108 A   
ATOM     21  O1  UNL     1      -3.131  -2.502  -0.619  1.00  0.00    -0.316 OA  
ATOM     22  O2  UNL     1      -4.152  -0.457  -1.384  1.00  0.00    -0.316 OA  
ATOM     23  C13 UNL     1      -3.880  -1.847  -1.667  1.00  0.00     0.337 C   
ENDBRANCH  14  15
ENDBRANCH  11  14
ENDBRANCH   6  11
ENDBRANCH   1   6
BRANCH   3  24
ATOM     24  C16 UNL     1       0.011  -0.629  -2.411  1.00  0.00     0.058 A   
ATOM     25  C17 UNL     1       0.212  -1.798  -3.160  1.00  0.00     0.026 A   
ATOM     26  C22 UNL     1      -0.618   0.470  -3.007  1.00  0.00     0.026 A   
ATOM     27  C18 UNL     1      -0.203  -1.861  -4.493  1.00  0.00     0.008 A   
ATOM     28  C21 UNL     1      -1.039   0.396  -4.338  1.00  0.00     0.008 A   
ATOM     29  C19 UNL     1      -0.828  -0.764  -5.097  1.00  0.00    -0.023 A   
BRANCH  29  30
ATOM     30  C20 UNL     1      -1.298  -0.836  -6.527  1.00  0.00     0.191 C   
BRANCH  30  31
ATOM     31  O3  UNL     1      -0.855   0.301  -7.254  1.00  0.00    -0.392 OA  
ATOM     32  H25 UNL     1       0.073   0.456  -7.009  1.00  0.00     0.211 HD  
ENDBRANCH  30  31
ENDBRANCH  29  30
ENDBRANCH   3  24
TORSDOF 9
