REMARK SMILES COc1cc(Cn2cc([C@@H]([NH2+]Cc3ccc4c(c3)OCO4)C(C)(C)C)nn2)ccn1
REMARK SMILES IDX 7 1 8 2 9 3 26 4 27 5 6 7 5 8 3 9 4 10 30 11 29 12 28 13
REMARK SMILES IDX 2 14 1 15 10 16 11 17 12 20 13 21 14 22 18 23 15 24 17 25
REMARK SMILES IDX 16 26 19 27 21 28 20 29 22 30 23 31 24 32 25 33
REMARK H PARENT 8 6 11 18 11 19
ROOT
ATOM     1   N1  UNL     1       0.907  -2.802   1.700  1.00  0.00    -0.208 N   
ATOM     2   C6  UNL     1       1.018  -1.440   1.766  1.00  0.00     0.046 A   
ATOM     3   C7  UNL     1      -0.269  -1.013   2.014  1.00  0.00     0.127 A   
ATOM     4   N3  UNL     1      -1.091  -2.104   2.125  1.00  0.00    -0.132 NA  
ATOM     5   N4  UNL     1      -0.363  -3.191   1.925  1.00  0.00    -0.076 NA  
ATOM     6   H7  UNL     1       1.949  -0.923   1.579  1.00  0.00     0.083 HD  
ENDROOT
BRANCH   1   7
ATOM     7   C5  UNL     1       1.919  -3.764   1.290  1.00  0.00     0.169 C   
BRANCH   7   8
ATOM     8   C4  UNL     1       2.294  -3.546  -0.155  1.00  0.00    -0.023 A   
ATOM     9   C2  UNL     1       1.711  -3.453  -2.480  1.00  0.00     0.166 A   
ATOM     10  C3  UNL     1       1.352  -3.739  -1.173  1.00  0.00     0.060 A   
ATOM     11  N5  UNL     1       2.929  -2.999  -2.836  1.00  0.00    -0.233 NA  
ATOM     12  C22 UNL     1       3.840  -2.861  -1.851  1.00  0.00     0.114 A   
ATOM     13  C21 UNL     1       3.574  -3.111  -0.512  1.00  0.00     0.026 A   
BRANCH   9  14
ATOM     14  O1  UNL     1       0.719  -3.593  -3.428  1.00  0.00    -0.333 OA  
ATOM     15  C1  UNL     1       1.201  -3.438  -4.761  1.00  0.00     0.205 C   
ENDBRANCH   9  14
ENDBRANCH   7   8
ENDBRANCH   1   7
BRANCH   3  16
ATOM     16  C8  UNL     1      -0.849   0.367   2.044  1.00  0.00     0.120 C   
BRANCH  16  17
ATOM     17  N2  UNL     1      -2.169   0.384   1.294  1.00  0.00     0.250 N   
ATOM     18  H9  UNL     1      -2.778  -0.306   1.754  1.00  0.00     0.199 HD  
ATOM     19  H10 UNL     1      -2.620   1.297   1.376  1.00  0.00     0.199 HD  
BRANCH  17  20
ATOM     20  C9  UNL     1      -2.127   0.008  -0.156  1.00  0.00     0.164 C   
BRANCH  20  21
ATOM     21  C10 UNL     1      -1.196   0.856  -0.977  1.00  0.00    -0.002 A   
ATOM     22  C11 UNL     1      -0.059   0.271  -1.585  1.00  0.00     0.012 A   
ATOM     23  C15 UNL     1      -1.434   2.232  -1.138  1.00  0.00     0.045 A   
ATOM     24  C12 UNL     1       0.838   1.042  -2.331  1.00  0.00     0.037 A   
ATOM     25  C14 UNL     1      -0.528   2.965  -1.877  1.00  0.00     0.109 A   
ATOM     26  C13 UNL     1       0.577   2.388  -2.455  1.00  0.00     0.108 A   
ATOM     27  O2  UNL     1      -0.603   4.300  -2.115  1.00  0.00    -0.316 OA  
ATOM     28  O3  UNL     1       1.334   3.288  -3.134  1.00  0.00    -0.316 OA  
ATOM     29  C16 UNL     1       0.566   4.496  -2.944  1.00  0.00     0.337 C   
ENDBRANCH  20  21
ENDBRANCH  17  20
ENDBRANCH  16  17
BRANCH  16  30
ATOM     30  C17 UNL     1      -1.034   0.956   3.489  1.00  0.00     0.010 C   
ATOM     31  C18 UNL     1       0.320   0.954   4.236  1.00  0.00     0.017 C   
ATOM     32  C19 UNL     1      -2.053   0.168   4.335  1.00  0.00     0.017 C   
ATOM     33  C20 UNL     1      -1.505   2.427   3.414  1.00  0.00     0.017 C   
ENDBRANCH  16  30
ENDBRANCH   3  16
TORSDOF 8
