REMARK SMILES Cc1nn(C)c(C)c1CCn1cc([C@H](CC(C)C)[NH2+]Cc2ccc3c(c2)OCO3)nn1
REMARK SMILES IDX 11 1 12 2 13 3 30 4 31 5 10 7 9 8 8 9 2 10 3 11 4 12 6 13
REMARK SMILES IDX 1 14 5 15 7 16 14 17 15 18 16 19 17 20 18 21 19 22 20 25
REMARK SMILES IDX 21 26 22 27 26 28 23 29 25 30 24 31 27 32 29 33 28 34
REMARK H PARENT 12 6 19 23 19 24
ROOT
ATOM     1   N3  UNL     1       1.425   2.770  -1.715  1.00  0.00    -0.212 N   
ATOM     2   C9  UNL     1       2.026   1.574  -1.417  1.00  0.00     0.045 A   
ATOM     3   C10 UNL     1       1.112   0.643  -1.856  1.00  0.00     0.127 A   
ATOM     4   N5  UNL     1       0.127   1.279  -2.567  1.00  0.00    -0.132 NA  
ATOM     5   N6  UNL     1       0.345   2.584  -2.493  1.00  0.00    -0.076 NA  
ATOM     6   H14 UNL     1       2.901   1.510  -0.785  1.00  0.00     0.083 HD  
ENDROOT
BRANCH   1   7
ATOM     7   C8  UNL     1       1.611   4.023  -1.004  1.00  0.00     0.139 C   
BRANCH   7   8
ATOM     8   C7  UNL     1       0.606   4.197   0.153  1.00  0.00     0.060 C   
BRANCH   8   9
ATOM     9   C6  UNL     1       0.472   2.959   0.996  1.00  0.00    -0.005 A   
ATOM     10  C2  UNL     1      -0.599   2.020   0.977  1.00  0.00     0.060 A   
ATOM     11  N1  UNL     1      -0.239   0.869   1.571  1.00  0.00    -0.187 NA  
ATOM     12  N2  UNL     1       0.852   1.226   2.290  1.00  0.00    -0.233 N   
ATOM     13  C4  UNL     1       1.381   2.428   1.897  1.00  0.00     0.030 A   
ATOM     14  C1  UNL     1      -1.922   2.137   0.305  1.00  0.00     0.069 C   
ATOM     15  C3  UNL     1       1.378   0.315   3.282  1.00  0.00     0.159 C   
ATOM     16  C5  UNL     1       2.676   2.951   2.406  1.00  0.00     0.064 C   
ENDBRANCH   8   9
ENDBRANCH   7   8
ENDBRANCH   1   7
BRANCH   3  17
ATOM     17  C11 UNL     1       0.969  -0.806  -1.517  1.00  0.00     0.114 C   
BRANCH  17  18
ATOM     18  C12 UNL     1       0.933  -1.699  -2.772  1.00  0.00     0.064 C   
BRANCH  18  19
ATOM     19  C13 UNL     1       2.188  -1.606  -3.669  1.00  0.00    -0.012 C   
ATOM     20  C14 UNL     1       1.995  -2.470  -4.918  1.00  0.00     0.007 C   
ATOM     21  C15 UNL     1       3.458  -2.039  -2.934  1.00  0.00     0.007 C   
ENDBRANCH  18  19
ENDBRANCH  17  18
BRANCH  17  22
ATOM     22  N4  UNL     1      -0.313  -0.951  -0.738  1.00  0.00     0.249 N   
ATOM     23  H25 UNL     1      -0.285  -0.268   0.051  1.00  0.00     0.199 HD  
ATOM     24  H26 UNL     1      -1.083  -0.601  -1.323  1.00  0.00     0.199 HD  
BRANCH  22  25
ATOM     25  C16 UNL     1      -0.661  -2.258  -0.143  1.00  0.00     0.164 C   
BRANCH  25  26
ATOM     26  C17 UNL     1      -2.053  -2.232   0.427  1.00  0.00    -0.002 A   
ATOM     27  C18 UNL     1      -2.272  -1.869   1.776  1.00  0.00     0.012 A   
ATOM     28  C22 UNL     1      -3.157  -2.510  -0.400  1.00  0.00     0.045 A   
ATOM     29  C19 UNL     1      -3.566  -1.790   2.301  1.00  0.00     0.037 A   
ATOM     30  C21 UNL     1      -4.420  -2.422   0.148  1.00  0.00     0.109 A   
ATOM     31  C20 UNL     1      -4.620  -2.071   1.460  1.00  0.00     0.108 A   
ATOM     32  O1  UNL     1      -5.585  -2.651  -0.511  1.00  0.00    -0.316 OA  
ATOM     33  O2  UNL     1      -5.936  -2.036   1.794  1.00  0.00    -0.316 OA  
ATOM     34  C23 UNL     1      -6.547  -2.412   0.541  1.00  0.00     0.337 C   
ENDBRANCH  25  26
ENDBRANCH  22  25
ENDBRANCH  17  22
ENDBRANCH   3  17
TORSDOF 9
