REMARK SMILES Cc1[nH]nc(CC(C)C)c1Cn1cc([C@@H]([NH2+]Cc2ccc3c(c2)OCO3)C(C)C)nn1
REMARK SMILES IDX 12 1 13 2 14 3 30 4 31 5 11 7 10 8 2 9 3 10 4 11 5 12 1 13
REMARK SMILES IDX 6 15 7 16 8 17 9 18 15 19 16 20 17 23 18 24 19 25 23 26
REMARK SMILES IDX 20 27 22 28 21 29 24 30 26 31 25 32 27 33 28 34 29 35
REMARK H PARENT 13 6 3 14 16 21 16 22
ROOT
ATOM     1   N3  UNL     1      -3.126  -0.444   0.600  1.00  0.00    -0.208 N   
ATOM     2   C10 UNL     1      -2.103  -1.247   0.170  1.00  0.00     0.046 A   
ATOM     3   C11 UNL     1      -1.349  -1.461   1.301  1.00  0.00     0.127 A   
ATOM     4   N5  UNL     1      -1.932  -0.816   2.362  1.00  0.00    -0.132 NA  
ATOM     5   N6  UNL     1      -3.018  -0.201   1.922  1.00  0.00    -0.076 NA  
ATOM     6   H16 UNL     1      -2.003  -1.550  -0.863  1.00  0.00     0.083 HD  
ENDROOT
BRANCH   1   7
ATOM     7   C9  UNL     1      -4.213   0.133  -0.177  1.00  0.00     0.173 C   
BRANCH   7   8
ATOM     8   C8  UNL     1      -3.689   1.092  -1.194  1.00  0.00     0.013 A   
ATOM     9   C2  UNL     1      -3.688   0.955  -2.574  1.00  0.00     0.028 A   
ATOM     10  N1  UNL     1      -3.132   2.104  -3.066  1.00  0.00    -0.242 N   
ATOM     11  N2  UNL     1      -2.749   2.964  -2.113  1.00  0.00    -0.189 NA  
ATOM     12  C3  UNL     1      -3.093   2.372  -0.966  1.00  0.00     0.065 A   
ATOM     13  C1  UNL     1      -4.165  -0.128  -3.469  1.00  0.00     0.064 C   
ATOM     14  H4  UNL     1      -2.980   2.366  -4.038  1.00  0.00     0.175 HD  
BRANCH  12  15
ATOM     15  C4  UNL     1      -2.834   3.072   0.335  1.00  0.00     0.061 C   
BRANCH  15  16
ATOM     16  C5  UNL     1      -1.406   2.842   0.874  1.00  0.00    -0.011 C   
ATOM     17  C6  UNL     1      -0.366   3.698   0.143  1.00  0.00     0.008 C   
ATOM     18  C7  UNL     1      -1.356   3.143   2.372  1.00  0.00     0.008 C   
ENDBRANCH  15  16
ENDBRANCH  12  15
ENDBRANCH   7   8
ENDBRANCH   1   7
BRANCH   3  19
ATOM     19  C12 UNL     1      -0.059  -2.187   1.500  1.00  0.00     0.117 C   
BRANCH  19  20
ATOM     20  N4  UNL     1       0.766  -1.501   2.565  1.00  0.00     0.249 N   
ATOM     21  H18 UNL     1       1.493  -2.131   2.917  1.00  0.00     0.199 HD  
ATOM     22  H19 UNL     1       0.121  -1.304   3.342  1.00  0.00     0.199 HD  
BRANCH  20  23
ATOM     23  C13 UNL     1       1.396  -0.205   2.170  1.00  0.00     0.164 C   
BRANCH  23  24
ATOM     24  C14 UNL     1       2.505  -0.390   1.170  1.00  0.00    -0.002 A   
ATOM     25  C15 UNL     1       3.728  -0.988   1.564  1.00  0.00     0.012 A   
ATOM     26  C19 UNL     1       2.316  -0.013  -0.174  1.00  0.00     0.045 A   
ATOM     27  C16 UNL     1       4.739  -1.232   0.629  1.00  0.00     0.037 A   
ATOM     28  C18 UNL     1       3.332  -0.274  -1.070  1.00  0.00     0.109 A   
ATOM     29  C17 UNL     1       4.509  -0.867  -0.681  1.00  0.00     0.108 A   
ATOM     30  O1  UNL     1       3.299  -0.015  -2.406  1.00  0.00    -0.316 OA  
ATOM     31  O2  UNL     1       5.365  -1.048  -1.720  1.00  0.00    -0.316 OA  
ATOM     32  C20 UNL     1       4.611  -0.474  -2.808  1.00  0.00     0.337 C   
ENDBRANCH  23  24
ENDBRANCH  20  23
ENDBRANCH  19  20
BRANCH  19  33
ATOM     33  C21 UNL     1      -0.274  -3.680   1.869  1.00  0.00     0.037 C   
ATOM     34  C22 UNL     1       1.015  -4.492   1.694  1.00  0.00     0.014 C   
ATOM     35  C23 UNL     1      -0.837  -3.903   3.278  1.00  0.00     0.014 C   
ENDBRANCH  19  33
ENDBRANCH   3  19
TORSDOF 9
