REMARK SMILES CC(C)C[C@H]([NH2+]Cc1ccc2c(c1)OCO2)c1cn([C@H](CO)c2ccco2)nn1
REMARK SMILES IDX 17 1 18 2 19 3 28 4 29 5 5 7 4 8 2 9 1 10 3 11 6 12 7 15
REMARK SMILES IDX 8 16 9 17 13 18 10 19 12 20 11 21 14 22 16 23 15 24 20 25
REMARK SMILES IDX 21 26 22 27 23 29 24 30 27 31 25 32 26 33
REMARK H PARENT 18 6 6 13 6 14 22 28
ROOT
ATOM     1   C14 UNL     1      -1.023   0.109   0.020  1.00  0.00     0.127 A   
ATOM     2   C15 UNL     1      -2.391   0.023   0.136  1.00  0.00     0.046 A   
ATOM     3   N2  UNL     1      -2.865   0.761  -0.917  1.00  0.00    -0.200 N   
ATOM     4   N3  UNL     1      -1.839   1.280  -1.629  1.00  0.00    -0.075 NA  
ATOM     5   N4  UNL     1      -0.710   0.886  -1.066  1.00  0.00    -0.132 NA  
ATOM     6   H20 UNL     1      -3.051  -0.466   0.839  1.00  0.00     0.083 HD  
ENDROOT
BRANCH   1   7
ATOM     7   C5  UNL     1       0.072  -0.494   0.831  1.00  0.00     0.114 C   
BRANCH   7   8
ATOM     8   C4  UNL     1       0.304   0.221   2.176  1.00  0.00     0.064 C   
BRANCH   8   9
ATOM     9   C2  UNL     1       0.498   1.755   2.176  1.00  0.00    -0.012 C   
ATOM     10  C1  UNL     1       1.790   2.218   1.505  1.00  0.00     0.007 C   
ATOM     11  C3  UNL     1       0.480   2.261   3.625  1.00  0.00     0.007 C   
ENDBRANCH   8   9
ENDBRANCH   7   8
BRANCH   7  12
ATOM     12  N1  UNL     1       1.350  -0.550   0.046  1.00  0.00     0.249 N   
ATOM     13  H11 UNL     1       1.394   0.318  -0.507  1.00  0.00     0.199 HD  
ATOM     14  H12 UNL     1       2.176  -0.556   0.652  1.00  0.00     0.199 HD  
BRANCH  12  15
ATOM     15  C6  UNL     1       1.442  -1.669  -0.932  1.00  0.00     0.164 C   
BRANCH  15  16
ATOM     16  C7  UNL     1       2.692  -1.540  -1.756  1.00  0.00    -0.002 A   
ATOM     17  C8  UNL     1       2.690  -0.742  -2.925  1.00  0.00     0.012 A   
ATOM     18  C12 UNL     1       3.883  -2.159  -1.341  1.00  0.00     0.045 A   
ATOM     19  C9  UNL     1       3.855  -0.571  -3.680  1.00  0.00     0.037 A   
ATOM     20  C11 UNL     1       5.014  -1.969  -2.108  1.00  0.00     0.109 A   
ATOM     21  C10 UNL     1       5.001  -1.198  -3.244  1.00  0.00     0.108 A   
ATOM     22  O1  UNL     1       6.240  -2.492  -1.848  1.00  0.00    -0.316 OA  
ATOM     23  O2  UNL     1       6.218  -1.141  -3.845  1.00  0.00    -0.316 OA  
ATOM     24  C13 UNL     1       6.998  -1.982  -2.969  1.00  0.00     0.337 C   
ENDBRANCH  15  16
ENDBRANCH  12  15
ENDBRANCH   7  12
ENDBRANCH   1   7
BRANCH   3  25
ATOM     25  C16 UNL     1      -4.245   1.047  -1.306  1.00  0.00     0.179 C   
BRANCH  25  26
ATOM     26  C17 UNL     1      -4.824   2.215  -0.493  1.00  0.00     0.188 C   
BRANCH  26  27
ATOM     27  O3  UNL     1      -4.852   1.952   0.913  1.00  0.00    -0.394 OA  
ATOM     28  H24 UNL     1      -5.266   2.727   1.338  1.00  0.00     0.210 HD  
ENDBRANCH  26  27
ENDBRANCH  25  26
BRANCH  25  29
ATOM     29  C18 UNL     1      -5.077  -0.197  -1.268  1.00  0.00     0.083 A   
ATOM     30  C19 UNL     1      -6.013  -0.717  -0.394  1.00  0.00     0.033 A   
ATOM     31  O4  UNL     1      -4.913  -1.053  -2.322  1.00  0.00    -0.320 OA  
ATOM     32  C20 UNL     1      -6.445  -1.946  -0.948  1.00  0.00     0.028 A   
ATOM     33  C21 UNL     1      -5.749  -2.104  -2.122  1.00  0.00     0.136 A   
ENDBRANCH  25  29
ENDBRANCH   3  25
TORSDOF 10
