REMARK SMILES CC(C)C[C@H]([NH2+]Cc1ccc2c(c1)OCO2)c1cn([C@@H](CO)c2ccco2)nn1
REMARK SMILES IDX 17 1 18 2 19 3 28 4 29 5 5 7 4 8 2 9 1 10 3 11 6 12 7 15
REMARK SMILES IDX 8 16 9 17 13 18 10 19 12 20 11 21 14 22 16 23 15 24 20 25
REMARK SMILES IDX 21 26 22 27 23 29 24 30 27 31 25 32 26 33
REMARK H PARENT 18 6 6 13 6 14 22 28
ROOT
ATOM     1   C14 UNL     1      -1.484  -0.422  -0.662  1.00  0.00     0.127 A   
ATOM     2   C15 UNL     1      -2.156   0.742  -0.954  1.00  0.00     0.046 A   
ATOM     3   N2  UNL     1      -3.252   0.712  -0.130  1.00  0.00    -0.200 N   
ATOM     4   N3  UNL     1      -3.233  -0.399   0.642  1.00  0.00    -0.075 NA  
ATOM     5   N4  UNL     1      -2.164  -1.105   0.313  1.00  0.00    -0.132 NA  
ATOM     6   H20 UNL     1      -1.974   1.557  -1.641  1.00  0.00     0.083 HD  
ENDROOT
BRANCH   1   7
ATOM     7   C5  UNL     1      -0.201  -0.974  -1.192  1.00  0.00     0.114 C   
BRANCH   7   8
ATOM     8   C4  UNL     1      -0.468  -1.920  -2.382  1.00  0.00     0.064 C   
BRANCH   8   9
ATOM     9   C2  UNL     1       0.775  -2.507  -3.086  1.00  0.00    -0.012 C   
ATOM     10  C1  UNL     1       0.331  -3.399  -4.249  1.00  0.00     0.007 C   
ATOM     11  C3  UNL     1       1.725  -1.425  -3.600  1.00  0.00     0.007 C   
ENDBRANCH   8   9
ENDBRANCH   7   8
BRANCH   7  12
ATOM     12  N1  UNL     1       0.530  -1.736  -0.113  1.00  0.00     0.249 N   
ATOM     13  H11 UNL     1      -0.146  -2.411   0.271  1.00  0.00     0.199 HD  
ATOM     14  H12 UNL     1       1.307  -2.270  -0.508  1.00  0.00     0.199 HD  
BRANCH  12  15
ATOM     15  C6  UNL     1       1.045  -0.926   1.033  1.00  0.00     0.164 C   
BRANCH  15  16
ATOM     16  C7  UNL     1       2.132   0.031   0.628  1.00  0.00    -0.002 A   
ATOM     17  C8  UNL     1       1.873   1.422   0.572  1.00  0.00     0.012 A   
ATOM     18  C12 UNL     1       3.403  -0.450   0.268  1.00  0.00     0.045 A   
ATOM     19  C9  UNL     1       2.860   2.321   0.157  1.00  0.00     0.037 A   
ATOM     20  C11 UNL     1       4.353   0.464  -0.139  1.00  0.00     0.109 A   
ATOM     21  C10 UNL     1       4.089   1.810  -0.194  1.00  0.00     0.108 A   
ATOM     22  O1  UNL     1       5.620   0.165  -0.527  1.00  0.00    -0.316 OA  
ATOM     23  O2  UNL     1       5.158   2.530  -0.623  1.00  0.00    -0.316 OA  
ATOM     24  C13 UNL     1       6.139   1.486  -0.806  1.00  0.00     0.337 C   
ENDBRANCH  15  16
ENDBRANCH  12  15
ENDBRANCH   7  12
ENDBRANCH   1   7
BRANCH   3  25
ATOM     25  C16 UNL     1      -4.311   1.712  -0.016  1.00  0.00     0.179 C   
BRANCH  25  26
ATOM     26  C17 UNL     1      -5.703   1.105  -0.237  1.00  0.00     0.188 C   
BRANCH  26  27
ATOM     27  O3  UNL     1      -5.869   0.735  -1.608  1.00  0.00    -0.394 OA  
ATOM     28  H24 UNL     1      -6.777   0.389  -1.703  1.00  0.00     0.210 HD  
ENDBRANCH  26  27
ENDBRANCH  25  26
BRANCH  25  29
ATOM     29  C18 UNL     1      -4.192   2.419   1.294  1.00  0.00     0.083 A   
ATOM     30  C19 UNL     1      -4.524   2.100   2.597  1.00  0.00     0.033 A   
ATOM     31  O4  UNL     1      -3.631   3.664   1.253  1.00  0.00    -0.320 OA  
ATOM     32  C20 UNL     1      -4.157   3.216   3.388  1.00  0.00     0.028 A   
ATOM     33  C21 UNL     1      -3.622   4.141   2.524  1.00  0.00     0.136 A   
ENDBRANCH  25  29
ENDBRANCH   3  25
TORSDOF 10
