REMARK SMILES CC(C)C[C@H]([NH2+]Cc1ccc2c(c1)OCO2)c1cn(CCc2ccc(F)cc2F)nn1
REMARK SMILES IDX 17 1 18 2 19 3 30 4 31 5 5 7 4 8 2 9 1 10 3 11 6 12 7 15
REMARK SMILES IDX 8 16 9 17 13 18 10 19 12 20 11 21 14 22 16 23 15 24 20 25
REMARK SMILES IDX 21 26 22 27 23 28 28 29 24 30 27 31 25 32 29 33 26 34
REMARK H PARENT 18 6 6 13 6 14
ROOT
ATOM     1   C14 UNL     1       0.859   1.239   0.569  1.00  0.00     0.127 A   
ATOM     2   C15 UNL     1       1.082   0.431  -0.523  1.00  0.00     0.045 A   
ATOM     3   N2  UNL     1       2.079   1.070  -1.204  1.00  0.00    -0.212 N   
ATOM     4   N3  UNL     1       2.507   2.153  -0.531  1.00  0.00    -0.076 NA  
ATOM     5   N4  UNL     1       1.755   2.278   0.551  1.00  0.00    -0.132 NA  
ATOM     6   H20 UNL     1       0.612  -0.470  -0.892  1.00  0.00     0.083 HD  
ENDROOT
BRANCH   1   7
ATOM     7   C5  UNL     1      -0.127   1.135   1.683  1.00  0.00     0.114 C   
BRANCH   7   8
ATOM     8   C4  UNL     1      -1.379   2.004   1.440  1.00  0.00     0.064 C   
BRANCH   8   9
ATOM     9   C2  UNL     1      -2.212   1.627   0.196  1.00  0.00    -0.012 C   
ATOM     10  C1  UNL     1      -2.756   0.200   0.264  1.00  0.00     0.007 C   
ATOM     11  C3  UNL     1      -3.371   2.614   0.030  1.00  0.00     0.007 C   
ENDBRANCH   8   9
ENDBRANCH   7   8
BRANCH   7  12
ATOM     12  N1  UNL     1       0.495   1.619   2.978  1.00  0.00     0.249 N   
ATOM     13  H11 UNL     1       0.897   2.545   2.774  1.00  0.00     0.199 HD  
ATOM     14  H12 UNL     1      -0.230   1.751   3.689  1.00  0.00     0.199 HD  
BRANCH  12  15
ATOM     15  C6  UNL     1       1.588   0.774   3.543  1.00  0.00     0.164 C   
BRANCH  15  16
ATOM     16  C7  UNL     1       1.109  -0.577   3.995  1.00  0.00    -0.002 A   
ATOM     17  C8  UNL     1       1.447  -1.737   3.257  1.00  0.00     0.012 A   
ATOM     18  C12 UNL     1       0.296  -0.697   5.135  1.00  0.00     0.045 A   
ATOM     19  C9  UNL     1       0.978  -2.998   3.643  1.00  0.00     0.037 A   
ATOM     20  C11 UNL     1      -0.150  -1.954   5.487  1.00  0.00     0.109 A   
ATOM     21  C10 UNL     1       0.180  -3.072   4.762  1.00  0.00     0.108 A   
ATOM     22  O1  UNL     1      -0.943  -2.241   6.553  1.00  0.00    -0.316 OA  
ATOM     23  O2  UNL     1      -0.363  -4.204   5.280  1.00  0.00    -0.316 OA  
ATOM     24  C13 UNL     1      -1.046  -3.679   6.439  1.00  0.00     0.337 C   
ENDBRANCH  15  16
ENDBRANCH  12  15
ENDBRANCH   7  12
ENDBRANCH   1   7
BRANCH   3  25
ATOM     25  C16 UNL     1       2.631   0.733  -2.501  1.00  0.00     0.139 C   
BRANCH  25  26
ATOM     26  C17 UNL     1       2.118   1.645  -3.619  1.00  0.00     0.060 C   
BRANCH  26  27
ATOM     27  C18 UNL     1       0.613   1.657  -3.769  1.00  0.00    -0.010 A   
ATOM     28  C19 UNL     1      -0.111   2.843  -3.577  1.00  0.00     0.010 A   
ATOM     29  C23 UNL     1      -0.088   0.489  -4.098  1.00  0.00     0.129 A   
ATOM     30  C20 UNL     1      -1.502   2.843  -3.699  1.00  0.00     0.040 A   
ATOM     31  C22 UNL     1      -1.472   0.480  -4.217  1.00  0.00     0.078 A   
ATOM     32  C21 UNL     1      -2.168   1.662  -4.013  1.00  0.00     0.126 A   
ATOM     33  F2  UNL     1       0.583  -0.658  -4.274  1.00  0.00    -0.207 F   
ATOM     34  F1  UNL     1      -3.504   1.665  -4.106  1.00  0.00    -0.207 F   
ENDBRANCH  26  27
ENDBRANCH  25  26
ENDBRANCH   3  25
TORSDOF 9
