REMARK SMILES CC(C)[C@H]([NH2+]Cc1ccc2c(c1)OCO2)c1cn(Cc2n[nH]c3ccccc23)nn1
REMARK SMILES IDX 16 1 17 2 18 3 29 4 30 5 4 7 2 8 1 9 3 10 5 11 6 14 7 15
REMARK SMILES IDX 8 16 12 17 9 18 11 19 10 20 13 21 15 22 14 23 19 24 20 25
REMARK SMILES IDX 21 26 28 27 22 28 23 29 27 30 24 31 26 32 25 33
REMARK H PARENT 17 6 5 12 5 13 22 34
ROOT
ATOM     1   C13 UNL     1       2.066   1.187  -0.142  1.00  0.00     0.127 A   
ATOM     2   C14 UNL     1       1.879   1.185   1.221  1.00  0.00     0.046 A   
ATOM     3   N2  UNL     1       1.266   2.383   1.472  1.00  0.00    -0.206 N   
ATOM     4   N5  UNL     1       1.161   3.112   0.342  1.00  0.00    -0.076 NA  
ATOM     5   N6  UNL     1       1.649   2.389  -0.653  1.00  0.00    -0.132 NA  
ATOM     6   H18 UNL     1       2.023   0.442   1.994  1.00  0.00     0.083 HD  
ENDROOT
BRANCH   1   7
ATOM     7   C4  UNL     1       2.492   0.088  -1.057  1.00  0.00     0.117 C   
BRANCH   7   8
ATOM     8   C2  UNL     1       4.000   0.162  -1.418  1.00  0.00     0.037 C   
ATOM     9   C1  UNL     1       4.382   1.352  -2.306  1.00  0.00     0.014 C   
ATOM     10  C3  UNL     1       4.488  -1.138  -2.068  1.00  0.00     0.014 C   
ENDBRANCH   7   8
BRANCH   7  11
ATOM     11  N1  UNL     1       1.647   0.070  -2.311  1.00  0.00     0.249 N   
ATOM     12  H9  UNL     1       1.761   0.990  -2.756  1.00  0.00     0.199 HD  
ATOM     13  H10 UNL     1       1.995  -0.636  -2.964  1.00  0.00     0.199 HD  
BRANCH  11  14
ATOM     14  C5  UNL     1       0.172  -0.125  -2.123  1.00  0.00     0.164 C   
BRANCH  14  15
ATOM     15  C6  UNL     1      -0.190  -1.387  -1.391  1.00  0.00    -0.002 A   
ATOM     16  C7  UNL     1       0.021  -2.653  -1.987  1.00  0.00     0.012 A   
ATOM     17  C11 UNL     1      -0.728  -1.314  -0.092  1.00  0.00     0.045 A   
ATOM     18  C8  UNL     1      -0.288  -3.830  -1.297  1.00  0.00     0.037 A   
ATOM     19  C10 UNL     1      -1.022  -2.493   0.560  1.00  0.00     0.109 A   
ATOM     20  C9  UNL     1      -0.805  -3.716  -0.025  1.00  0.00     0.108 A   
ATOM     21  O1  UNL     1      -1.539  -2.600   1.813  1.00  0.00    -0.316 OA  
ATOM     22  O2  UNL     1      -1.157  -4.748   0.784  1.00  0.00    -0.316 OA  
ATOM     23  C12 UNL     1      -1.640  -4.037   1.943  1.00  0.00     0.337 C   
ENDBRANCH  14  15
ENDBRANCH  11  14
ENDBRANCH   7  11
ENDBRANCH   1   7
BRANCH   3  24
ATOM     24  C15 UNL     1       0.621   2.808   2.702  1.00  0.00     0.192 C   
BRANCH  24  25
ATOM     25  C16 UNL     1      -0.606   1.986   2.903  1.00  0.00     0.087 A   
ATOM     26  N3  UNL     1      -0.571   0.893   3.681  1.00  0.00    -0.186 NA  
ATOM     27  C22 UNL     1      -1.879   2.160   2.293  1.00  0.00     0.022 A   
ATOM     28  N4  UNL     1      -1.821   0.399   3.600  1.00  0.00    -0.238 N   
ATOM     29  C17 UNL     1      -2.645   1.099   2.761  1.00  0.00     0.057 A   
ATOM     30  C21 UNL     1      -2.456   3.074   1.392  1.00  0.00     0.012 A   
ATOM     31  C18 UNL     1      -3.975   0.893   2.383  1.00  0.00     0.026 A   
ATOM     32  C20 UNL     1      -3.787   2.887   1.001  1.00  0.00     0.001 A   
ATOM     33  C19 UNL     1      -4.532   1.814   1.490  1.00  0.00     0.002 A   
ATOM     34  H21 UNL     1      -2.048  -0.437   4.129  1.00  0.00     0.176 HD  
ENDBRANCH  24  25
ENDBRANCH   3  24
TORSDOF 7
