REMARK SMILES Cc1nccnc1CCn1cc([C@@H]([NH2+]Cc2ccc3c(c2)OCO3)C(C)(C)C)nn1
REMARK SMILES IDX 10 1 11 2 12 3 29 4 30 5 9 7 8 8 7 9 2 10 3 11 4 12 6 13
REMARK SMILES IDX 5 14 1 15 13 16 14 17 15 20 16 21 17 22 21 23 18 24 20 25
REMARK SMILES IDX 19 26 22 27 24 28 23 29 25 30 26 31 27 32 28 33
REMARK H PARENT 11 6 14 18 14 19
ROOT
ATOM     1   N3  UNL     1      -2.448   0.465   0.748  1.00  0.00    -0.212 N   
ATOM     2   C8  UNL     1      -1.482  -0.451   1.048  1.00  0.00     0.045 A   
ATOM     3   C9  UNL     1      -0.562   0.262   1.781  1.00  0.00     0.127 A   
ATOM     4   N5  UNL     1      -0.986   1.564   1.885  1.00  0.00    -0.132 NA  
ATOM     5   N6  UNL     1      -2.141   1.674   1.251  1.00  0.00    -0.076 NA  
ATOM     6   H10 UNL     1      -1.548  -1.483   0.727  1.00  0.00     0.083 HD  
ENDROOT
BRANCH   1   7
ATOM     7   C7  UNL     1      -3.689   0.265   0.026  1.00  0.00     0.140 C   
BRANCH   7   8
ATOM     8   C6  UNL     1      -3.565   0.620  -1.457  1.00  0.00     0.079 C   
BRANCH   8   9
ATOM     9   C5  UNL     1      -2.723  -0.355  -2.244  1.00  0.00     0.063 A   
ATOM     10  C2  UNL     1      -1.974   0.028  -3.364  1.00  0.00     0.059 A   
ATOM     11  N1  UNL     1      -1.285  -0.884  -4.103  1.00  0.00    -0.258 NA  
ATOM     12  C3  UNL     1      -1.385  -2.174  -3.720  1.00  0.00     0.131 A   
ATOM     13  N2  UNL     1      -2.796  -1.660  -1.859  1.00  0.00    -0.258 NA  
ATOM     14  C4  UNL     1      -2.126  -2.554  -2.622  1.00  0.00     0.131 A   
ATOM     15  C1  UNL     1      -1.897   1.446  -3.837  1.00  0.00     0.069 C   
ENDBRANCH   8   9
ENDBRANCH   7   8
ENDBRANCH   1   7
BRANCH   3  16
ATOM     16  C10 UNL     1       0.755  -0.120   2.387  1.00  0.00     0.120 C   
BRANCH  16  17
ATOM     17  N4  UNL     1       1.597   1.141   2.502  1.00  0.00     0.250 N   
ATOM     18  H12 UNL     1       0.960   1.922   2.270  1.00  0.00     0.199 HD  
ATOM     19  H13 UNL     1       1.874   1.321   3.471  1.00  0.00     0.199 HD  
BRANCH  17  20
ATOM     20  C11 UNL     1       2.786   1.230   1.613  1.00  0.00     0.164 C   
BRANCH  20  21
ATOM     21  C12 UNL     1       2.441   1.330   0.153  1.00  0.00    -0.002 A   
ATOM     22  C13 UNL     1       1.851   2.507  -0.367  1.00  0.00     0.012 A   
ATOM     23  C17 UNL     1       2.697   0.248  -0.708  1.00  0.00     0.045 A   
ATOM     24  C14 UNL     1       1.528   2.610  -1.724  1.00  0.00     0.037 A   
ATOM     25  C16 UNL     1       2.369   0.384  -2.039  1.00  0.00     0.109 A   
ATOM     26  C15 UNL     1       1.804   1.532  -2.534  1.00  0.00     0.108 A   
ATOM     27  O1  UNL     1       2.556  -0.562  -3.000  1.00  0.00    -0.316 OA  
ATOM     28  O2  UNL     1       1.573   1.461  -3.871  1.00  0.00    -0.316 OA  
ATOM     29  C18 UNL     1       2.084   0.143  -4.171  1.00  0.00     0.337 C   
ENDBRANCH  20  21
ENDBRANCH  17  20
ENDBRANCH  16  17
BRANCH  16  30
ATOM     30  C19 UNL     1       0.652  -0.837   3.777  1.00  0.00     0.010 C   
ATOM     31  C20 UNL     1       2.063  -1.168   4.316  1.00  0.00     0.017 C   
ATOM     32  C21 UNL     1      -0.095  -2.184   3.626  1.00  0.00     0.017 C   
ATOM     33  C22 UNL     1      -0.092   0.010   4.830  1.00  0.00     0.017 C   
ENDBRANCH  16  30
ENDBRANCH   3  16
TORSDOF 8
