REMARK SMILES COc1ccc(OC)c(Cn2cc([C@H](CC(C)C)[NH2+]Cc3ccc4c(c3)OCO4)nn2)c1
REMARK SMILES IDX 11 1 12 2 13 3 30 4 31 5 10 7 9 8 3 9 4 10 32 11 5 12 6 13
REMARK SMILES IDX 2 14 1 15 7 16 8 17 14 18 15 19 16 20 17 21 18 22 19 23
REMARK SMILES IDX 20 26 21 27 22 28 26 29 23 30 25 31 24 32 27 33 29 34 28 35
REMARK H PARENT 12 6 19 24 19 25
ROOT
ATOM     1   N1  UNL     1      -0.634  -2.760  -0.982  1.00  0.00    -0.208 N   
ATOM     2   C9  UNL     1       0.270  -1.767  -1.252  1.00  0.00     0.046 A   
ATOM     3   C10 UNL     1       0.603  -1.275  -0.011  1.00  0.00     0.127 A   
ATOM     4   N3  UNL     1      -0.072  -1.983   0.952  1.00  0.00    -0.132 NA  
ATOM     5   N4  UNL     1      -0.831  -2.882   0.346  1.00  0.00    -0.076 NA  
ATOM     6   H11 UNL     1       0.554  -1.508  -2.263  1.00  0.00     0.083 HD  
ENDROOT
BRANCH   1   7
ATOM     7   C8  UNL     1      -1.347  -3.610  -1.920  1.00  0.00     0.172 C   
BRANCH   7   8
ATOM     8   C7  UNL     1      -2.543  -2.888  -2.492  1.00  0.00     0.004 A   
ATOM     9   C2  UNL     1      -4.877  -2.224  -2.260  1.00  0.00     0.075 A   
ATOM     10  C3  UNL     1      -4.776  -1.522  -3.460  1.00  0.00     0.036 A   
ATOM     11  C24 UNL     1      -3.759  -2.900  -1.776  1.00  0.00     0.041 A   
ATOM     12  C4  UNL     1      -3.579  -1.496  -4.180  1.00  0.00     0.036 A   
ATOM     13  C5  UNL     1      -2.458  -2.179  -3.704  1.00  0.00     0.080 A   
BRANCH   9  14
ATOM     14  O1  UNL     1      -6.101  -2.157  -1.658  1.00  0.00    -0.349 OA  
ATOM     15  C1  UNL     1      -6.313  -2.990  -0.525  1.00  0.00     0.203 C   
ENDBRANCH   9  14
BRANCH  13  16
ATOM     16  O2  UNL     1      -1.236  -2.190  -4.324  1.00  0.00    -0.349 OA  
ATOM     17  C6  UNL     1      -1.206  -1.774  -5.687  1.00  0.00     0.203 C   
ENDBRANCH  13  16
ENDBRANCH   7   8
ENDBRANCH   1   7
BRANCH   3  18
ATOM     18  C11 UNL     1       1.488  -0.141   0.396  1.00  0.00     0.114 C   
BRANCH  18  19
ATOM     19  C12 UNL     1       2.937  -0.626   0.597  1.00  0.00     0.064 C   
BRANCH  19  20
ATOM     20  C13 UNL     1       3.981   0.453   0.955  1.00  0.00    -0.012 C   
ATOM     21  C14 UNL     1       4.043   1.575  -0.082  1.00  0.00     0.007 C   
ATOM     22  C15 UNL     1       5.361  -0.196   1.097  1.00  0.00     0.007 C   
ENDBRANCH  19  20
ENDBRANCH  18  19
BRANCH  18  23
ATOM     23  N2  UNL     1       0.985   0.464   1.678  1.00  0.00     0.249 N   
ATOM     24  H22 UNL     1       0.799  -0.322   2.320  1.00  0.00     0.199 HD  
ATOM     25  H23 UNL     1       1.687   1.051   2.136  1.00  0.00     0.199 HD  
BRANCH  23  26
ATOM     26  C16 UNL     1      -0.282   1.243   1.562  1.00  0.00     0.164 C   
BRANCH  26  27
ATOM     27  C17 UNL     1      -0.754   1.670   2.923  1.00  0.00    -0.002 A   
ATOM     28  C18 UNL     1      -1.530   0.786   3.711  1.00  0.00     0.012 A   
ATOM     29  C22 UNL     1      -0.377   2.917   3.447  1.00  0.00     0.045 A   
ATOM     30  C19 UNL     1      -1.934   1.141   5.002  1.00  0.00     0.037 A   
ATOM     31  C21 UNL     1      -0.794   3.236   4.723  1.00  0.00     0.109 A   
ATOM     32  C20 UNL     1      -1.549   2.374   5.479  1.00  0.00     0.108 A   
ATOM     33  O3  UNL     1      -0.517   4.394   5.378  1.00  0.00    -0.316 OA  
ATOM     34  O4  UNL     1      -1.843   2.880   6.705  1.00  0.00    -0.316 OA  
ATOM     35  C23 UNL     1      -1.206   4.173   6.630  1.00  0.00     0.337 C   
ENDBRANCH  26  27
ENDBRANCH  23  26
ENDBRANCH  18  23
ENDBRANCH   3  18
TORSDOF 10
