REMARK SMILES Cc1ccnc2c1[C@H](n1cc([C@H](CC(C)C)[NH2+]Cc3ccc4c(c3)OCO4)nn1)CCO2
REMARK SMILES IDX 12 1 11 2 9 3 10 4 29 5 28 6 8 8 2 9 3 10 7 11 4 12 6 13
REMARK SMILES IDX 5 14 32 15 30 16 31 17 1 18 13 19 14 20 15 21 16 22 17 23
REMARK SMILES IDX 18 26 19 27 20 28 24 29 21 30 23 31 22 32 25 33 27 34 26 35
REMARK H PARENT 10 7 17 24 17 25
ROOT
ATOM     1   C10 UNL     1      -2.178  -0.889  -0.615  1.00  0.00     0.114 C   
ENDROOT
BRANCH   1   2
ATOM     2   C9  UNL     1      -0.771  -1.325  -0.868  1.00  0.00     0.127 A   
ATOM     3   N2  UNL     1       1.332  -1.853  -0.837  1.00  0.00    -0.204 N   
ATOM     4   C8  UNL     1       0.342  -1.316  -0.057  1.00  0.00     0.046 A   
ATOM     5   N5  UNL     1       0.856  -2.141  -2.068  1.00  0.00    -0.075 NA  
ATOM     6   N4  UNL     1      -0.427  -1.821  -2.098  1.00  0.00    -0.132 NA  
ATOM     7   H7  UNL     1       0.510  -0.994   0.963  1.00  0.00     0.083 HD  
BRANCH   3   8
ATOM     8   C7  UNL     1       2.736  -2.128  -0.515  1.00  0.00     0.136 C   
ATOM     9   C2  UNL     1       3.625   0.265  -0.276  1.00  0.00    -0.040 A   
ATOM     10  C3  UNL     1       4.174   1.253   0.546  1.00  0.00     0.024 A   
ATOM     11  C6  UNL     1       3.344  -1.002   0.283  1.00  0.00     0.027 A   
ATOM     12  C4  UNL     1       4.426   0.953   1.872  1.00  0.00     0.114 A   
ATOM     13  C5  UNL     1       3.643  -1.200   1.633  1.00  0.00     0.172 A   
ATOM     14  N1  UNL     1       4.169  -0.247   2.425  1.00  0.00    -0.232 NA  
ATOM     15  O3  UNL     1       3.467  -2.387   2.285  1.00  0.00    -0.329 OA  
ATOM     16  C23 UNL     1       2.893  -3.478   0.190  1.00  0.00     0.059 C   
ATOM     17  C24 UNL     1       2.587  -3.320   1.666  1.00  0.00     0.172 C   
ATOM     18  C1  UNL     1       3.323   0.605  -1.711  1.00  0.00     0.045 C   
ENDBRANCH   3   8
ENDBRANCH   1   2
BRANCH   1  19
ATOM     19  C11 UNL     1      -3.020  -2.057  -0.064  1.00  0.00     0.064 C   
BRANCH  19  20
ATOM     20  C12 UNL     1      -4.453  -1.696   0.380  1.00  0.00    -0.012 C   
ATOM     21  C13 UNL     1      -4.471  -0.663   1.508  1.00  0.00     0.007 C   
ATOM     22  C14 UNL     1      -5.181  -2.966   0.835  1.00  0.00     0.007 C   
ENDBRANCH  19  20
ENDBRANCH   1  19
BRANCH   1  23
ATOM     23  N3  UNL     1      -2.796  -0.395  -1.902  1.00  0.00     0.249 N   
ATOM     24  H18 UNL     1      -2.148  -0.672  -2.655  1.00  0.00     0.199 HD  
ATOM     25  H19 UNL     1      -3.660  -0.903  -2.108  1.00  0.00     0.199 HD  
BRANCH  23  26
ATOM     26  C15 UNL     1      -3.040   1.067  -1.997  1.00  0.00     0.164 C   
BRANCH  26  27
ATOM     27  C16 UNL     1      -1.789   1.899  -1.956  1.00  0.00    -0.002 A   
ATOM     28  C17 UNL     1      -0.877   1.883  -3.038  1.00  0.00     0.012 A   
ATOM     29  C21 UNL     1      -1.516   2.705  -0.836  1.00  0.00     0.045 A   
ATOM     30  C18 UNL     1       0.289   2.658  -3.008  1.00  0.00     0.037 A   
ATOM     31  C20 UNL     1      -0.357   3.454  -0.838  1.00  0.00     0.109 A   
ATOM     32  C19 UNL     1       0.523   3.429  -1.891  1.00  0.00     0.108 A   
ATOM     33  O1  UNL     1       0.047   4.285   0.157  1.00  0.00    -0.316 OA  
ATOM     34  O2  UNL     1       1.599   4.234  -1.687  1.00  0.00    -0.316 OA  
ATOM     35  C22 UNL     1       1.259   4.829  -0.415  1.00  0.00     0.337 C   
ENDBRANCH  26  27
ENDBRANCH  23  26
ENDBRANCH   1  23
TORSDOF 7
