REMARK SMILES Cc1ccnc2c1[C@@H](n1cc([C@H](CC(C)C)[NH2+]Cc3ccc4c(c3)OCO4)nn1)CCO2
REMARK SMILES IDX 12 1 11 2 9 3 10 4 29 5 28 6 8 8 2 9 3 10 7 11 4 12 6 13
REMARK SMILES IDX 5 14 32 15 30 16 31 17 1 18 13 19 14 20 15 21 16 22 17 23
REMARK SMILES IDX 18 26 19 27 20 28 24 29 21 30 23 31 22 32 25 33 27 34 26 35
REMARK H PARENT 10 7 17 24 17 25
ROOT
ATOM     1   C10 UNL     1       1.175  -0.544  -2.386  1.00  0.00     0.114 C   
ENDROOT
BRANCH   1   2
ATOM     2   C9  UNL     1       0.630   0.037  -1.126  1.00  0.00     0.127 A   
ATOM     3   N2  UNL     1      -0.429   0.579   0.685  1.00  0.00    -0.204 N   
ATOM     4   C8  UNL     1      -0.376  -0.385  -0.287  1.00  0.00     0.046 A   
ATOM     5   N5  UNL     1       0.471   1.552   0.434  1.00  0.00    -0.075 NA  
ATOM     6   N4  UNL     1       1.129   1.228  -0.666  1.00  0.00    -0.132 NA  
ATOM     7   H7  UNL     1      -1.023  -1.252  -0.288  1.00  0.00     0.083 HD  
BRANCH   3   8
ATOM     8   C7  UNL     1      -1.285   0.672   1.871  1.00  0.00     0.136 C   
ATOM     9   C2  UNL     1      -0.594  -1.423   3.176  1.00  0.00    -0.040 A   
ATOM     10  C3  UNL     1      -0.935  -2.691   3.656  1.00  0.00     0.024 A   
ATOM     11  C6  UNL     1      -1.565  -0.688   2.459  1.00  0.00     0.027 A   
ATOM     12  C4  UNL     1      -2.207  -3.176   3.414  1.00  0.00     0.114 A   
ATOM     13  C5  UNL     1      -2.822  -1.268   2.280  1.00  0.00     0.172 A   
ATOM     14  N1  UNL     1      -3.146  -2.492   2.735  1.00  0.00    -0.232 NA  
ATOM     15  O3  UNL     1      -3.864  -0.648   1.654  1.00  0.00    -0.329 OA  
ATOM     16  C23 UNL     1      -2.579   1.423   1.566  1.00  0.00     0.059 C   
ATOM     17  C24 UNL     1      -3.552   0.495   0.869  1.00  0.00     0.172 C   
ATOM     18  C1  UNL     1       0.788  -0.893   3.443  1.00  0.00     0.045 C   
ENDBRANCH   3   8
ENDBRANCH   1   2
BRANCH   1  19
ATOM     19  C11 UNL     1       2.503  -1.294  -2.159  1.00  0.00     0.064 C   
BRANCH  19  20
ATOM     20  C12 UNL     1       2.418  -2.516  -1.218  1.00  0.00    -0.012 C   
ATOM     21  C13 UNL     1       1.454  -3.585  -1.734  1.00  0.00     0.007 C   
ATOM     22  C14 UNL     1       3.811  -3.123  -1.035  1.00  0.00     0.007 C   
ENDBRANCH  19  20
ENDBRANCH   1  19
BRANCH   1  23
ATOM     23  N3  UNL     1       1.457   0.575  -3.373  1.00  0.00     0.249 N   
ATOM     24  H18 UNL     1       2.319   0.387  -3.893  1.00  0.00     0.199 HD  
ATOM     25  H19 UNL     1       1.649   1.414  -2.803  1.00  0.00     0.199 HD  
BRANCH  23  26
ATOM     26  C15 UNL     1       0.370   0.894  -4.342  1.00  0.00     0.164 C   
BRANCH  26  27
ATOM     27  C16 UNL     1      -0.906   1.370  -3.707  1.00  0.00    -0.002 A   
ATOM     28  C17 UNL     1      -2.055   0.542  -3.700  1.00  0.00     0.012 A   
ATOM     29  C21 UNL     1      -0.965   2.635  -3.096  1.00  0.00     0.045 A   
ATOM     30  C18 UNL     1      -3.241   0.961  -3.088  1.00  0.00     0.037 A   
ATOM     31  C20 UNL     1      -2.149   3.018  -2.502  1.00  0.00     0.109 A   
ATOM     32  C19 UNL     1      -3.254   2.204  -2.495  1.00  0.00     0.108 A   
ATOM     33  O1  UNL     1      -2.371   4.199  -1.867  1.00  0.00    -0.316 OA  
ATOM     34  O2  UNL     1      -4.307   2.765  -1.846  1.00  0.00    -0.316 OA  
ATOM     35  C22 UNL     1      -3.764   4.061  -1.508  1.00  0.00     0.337 C   
ENDBRANCH  26  27
ENDBRANCH  23  26
ENDBRANCH   1  23
TORSDOF 7
