REMARK SMILES COCc1ccc(Cn2cc([C@@H]([NH2+]Cc3ccc4c(c3)OCO4)C3CCCC3)nn2)cc1
REMARK SMILES IDX 9 1 10 2 11 3 29 4 30 5 8 7 7 8 4 9 5 10 32 11 6 12 31 13
REMARK SMILES IDX 3 14 2 15 1 16 12 17 13 18 14 21 15 22 16 23 20 24 17 25
REMARK SMILES IDX 19 26 18 27 21 28 23 29 22 30 24 31 25 32 28 33 26 34 27 35
REMARK H PARENT 10 6 13 19 13 20
ROOT
ATOM     1   N1  UNL     1      -1.671   3.055  -0.849  1.00  0.00    -0.208 N   
ATOM     2   C8  UNL     1      -1.153   1.822  -1.146  1.00  0.00     0.046 A   
ATOM     3   C9  UNL     1      -2.160   0.941  -0.821  1.00  0.00     0.127 A   
ATOM     4   N3  UNL     1      -3.238   1.651  -0.354  1.00  0.00    -0.132 NA  
ATOM     5   N4  UNL     1      -2.926   2.937  -0.369  1.00  0.00    -0.076 NA  
ATOM     6   H10 UNL     1      -0.149   1.690  -1.529  1.00  0.00     0.083 HD  
ENDROOT
BRANCH   1   7
ATOM     7   C7  UNL     1      -1.077   4.374  -1.022  1.00  0.00     0.169 C   
BRANCH   7   8
ATOM     8   C6  UNL     1       0.403   4.376  -0.732  1.00  0.00    -0.029 A   
ATOM     9   C3  UNL     1       3.168   4.260  -0.193  1.00  0.00    -0.022 A   
ATOM     10  C4  UNL     1       2.701   4.271  -1.513  1.00  0.00     0.006 A   
ATOM     11  C25 UNL     1       2.240   4.304   0.856  1.00  0.00     0.006 A   
ATOM     12  C5  UNL     1       1.333   4.335  -1.782  1.00  0.00     0.006 A   
ATOM     13  C24 UNL     1       0.870   4.364   0.590  1.00  0.00     0.006 A   
BRANCH   9  14
ATOM     14  C2  UNL     1       4.642   4.156   0.098  1.00  0.00     0.195 C   
BRANCH  14  15
ATOM     15  O1  UNL     1       4.949   2.784   0.334  1.00  0.00    -0.380 OA  
ATOM     16  C1  UNL     1       6.342   2.595   0.550  1.00  0.00     0.195 C   
ENDBRANCH  14  15
ENDBRANCH   9  14
ENDBRANCH   7   8
ENDBRANCH   1   7
BRANCH   3  17
ATOM     17  C10 UNL     1      -2.212  -0.553  -0.843  1.00  0.00     0.117 C   
BRANCH  17  18
ATOM     18  N2  UNL     1      -3.170  -1.046   0.224  1.00  0.00     0.249 N   
ATOM     19  H12 UNL     1      -3.427  -2.022   0.055  1.00  0.00     0.199 HD  
ATOM     20  H13 UNL     1      -4.024  -0.480   0.119  1.00  0.00     0.199 HD  
BRANCH  18  21
ATOM     21  C11 UNL     1      -2.715  -0.891   1.637  1.00  0.00     0.164 C   
BRANCH  21  22
ATOM     22  C12 UNL     1      -1.655  -1.886   2.021  1.00  0.00    -0.002 A   
ATOM     23  C13 UNL     1      -0.306  -1.479   2.158  1.00  0.00     0.012 A   
ATOM     24  C17 UNL     1      -1.994  -3.235   2.228  1.00  0.00     0.045 A   
ATOM     25  C14 UNL     1       0.691  -2.397   2.506  1.00  0.00     0.037 A   
ATOM     26  C16 UNL     1      -0.987  -4.114   2.568  1.00  0.00     0.109 A   
ATOM     27  C15 UNL     1       0.318  -3.707   2.707  1.00  0.00     0.108 A   
ATOM     28  O2  UNL     1      -1.145  -5.441   2.805  1.00  0.00    -0.316 OA  
ATOM     29  O3  UNL     1       1.145  -4.726   3.053  1.00  0.00    -0.316 OA  
ATOM     30  C18 UNL     1       0.213  -5.828   3.119  1.00  0.00     0.337 C   
ENDBRANCH  21  22
ENDBRANCH  18  21
ENDBRANCH  17  18
BRANCH  17  31
ATOM     31  C19 UNL     1      -2.664  -1.157  -2.189  1.00  0.00     0.043 C   
ATOM     32  C20 UNL     1      -1.704  -0.906  -3.368  1.00  0.00     0.010 C   
ATOM     33  C23 UNL     1      -4.040  -0.714  -2.702  1.00  0.00     0.010 C   
ATOM     34  C21 UNL     1      -2.586  -0.638  -4.589  1.00  0.00     0.001 C   
ATOM     35  C22 UNL     1      -3.986  -1.070  -4.180  1.00  0.00     0.001 C   
ENDBRANCH  17  31
ENDBRANCH   3  17
TORSDOF 9
