REMARK SMILES Cc1ccccc1[C@H](CO)n1cc([C@@H]([NH2+]Cc2ccc3c(c2)OCO3)C2CCCC2)nn1
REMARK SMILES IDX 11 1 12 2 13 3 31 4 32 5 8 7 7 8 2 9 3 10 4 11 6 12 5 13
REMARK SMILES IDX 1 14 9 15 10 16 14 18 15 19 16 22 17 23 18 24 22 25 19 26
REMARK SMILES IDX 21 27 20 28 23 29 25 30 24 31 26 32 27 33 30 34 28 35 29 36
REMARK H PARENT 12 6 10 17 15 20 15 21
ROOT
ATOM     1   N1  UNL     1      -0.684  -2.196  -1.325  1.00  0.00    -0.202 N   
ATOM     2   C10 UNL     1      -0.984  -0.998  -0.730  1.00  0.00     0.046 A   
ATOM     3   C11 UNL     1       0.180  -0.271  -0.832  1.00  0.00     0.127 A   
ATOM     4   N3  UNL     1       1.130  -1.022  -1.474  1.00  0.00    -0.132 NA  
ATOM     5   N4  UNL     1       0.593  -2.194  -1.770  1.00  0.00    -0.075 NA  
ATOM     6   H12 UNL     1      -1.958  -0.793  -0.304  1.00  0.00     0.083 HD  
ENDROOT
BRANCH   1   7
ATOM     7   C8  UNL     1      -1.553  -3.368  -1.471  1.00  0.00     0.155 C   
BRANCH   7   8
ATOM     8   C7  UNL     1      -1.020  -4.537  -0.642  1.00  0.00    -0.020 A   
ATOM     9   C2  UNL     1      -1.565  -4.874   0.622  1.00  0.00    -0.046 A   
ATOM     10  C3  UNL     1      -1.042  -5.974   1.329  1.00  0.00     0.004 A   
ATOM     11  C4  UNL     1       0.013  -6.724   0.813  1.00  0.00     0.000 A   
ATOM     12  C6  UNL     1       0.055  -5.308  -1.136  1.00  0.00     0.006 A   
ATOM     13  C5  UNL     1       0.564  -6.391  -0.417  1.00  0.00     0.000 A   
ATOM     14  C1  UNL     1      -2.716  -4.124   1.239  1.00  0.00     0.045 C   
ENDBRANCH   7   8
BRANCH   7  15
ATOM     15  C9  UNL     1      -1.794  -3.709  -2.955  1.00  0.00     0.185 C   
BRANCH  15  16
ATOM     16  O1  UNL     1      -2.643  -2.724  -3.556  1.00  0.00    -0.394 OA  
ATOM     17  H11 UNL     1      -2.798  -3.009  -4.478  1.00  0.00     0.210 HD  
ENDBRANCH  15  16
ENDBRANCH   7  15
ENDBRANCH   1   7
BRANCH   3  18
ATOM     18  C12 UNL     1       0.547   1.081  -0.314  1.00  0.00     0.117 C   
BRANCH  18  19
ATOM     19  N2  UNL     1       1.931   1.025   0.302  1.00  0.00     0.249 N   
ATOM     20  H14 UNL     1       2.551   0.643  -0.428  1.00  0.00     0.199 HD  
ATOM     21  H15 UNL     1       2.264   1.967   0.525  1.00  0.00     0.199 HD  
BRANCH  19  22
ATOM     22  C13 UNL     1       2.087   0.161   1.511  1.00  0.00     0.164 C   
BRANCH  22  23
ATOM     23  C14 UNL     1       1.291   0.649   2.690  1.00  0.00    -0.002 A   
ATOM     24  C15 UNL     1       0.130  -0.047   3.103  1.00  0.00     0.012 A   
ATOM     25  C19 UNL     1       1.679   1.818   3.371  1.00  0.00     0.045 A   
ATOM     26  C16 UNL     1      -0.633   0.405   4.186  1.00  0.00     0.037 A   
ATOM     27  C18 UNL     1       0.908   2.232   4.437  1.00  0.00     0.109 A   
ATOM     28  C17 UNL     1      -0.214   1.544   4.835  1.00  0.00     0.108 A   
ATOM     29  O2  UNL     1       1.155   3.317   5.212  1.00  0.00    -0.316 OA  
ATOM     30  O3  UNL     1      -0.818   2.115   5.908  1.00  0.00    -0.316 OA  
ATOM     31  C20 UNL     1       0.074   3.221   6.169  1.00  0.00     0.337 C   
ENDBRANCH  22  23
ENDBRANCH  19  22
ENDBRANCH  18  19
BRANCH  18  32
ATOM     32  C21 UNL     1       0.569   2.145  -1.429  1.00  0.00     0.043 C   
ATOM     33  C22 UNL     1      -0.787   2.356  -2.109  1.00  0.00     0.010 C   
ATOM     34  C25 UNL     1       0.924   3.561  -0.947  1.00  0.00     0.010 C   
ATOM     35  C23 UNL     1      -0.584   3.660  -2.864  1.00  0.00     0.001 C   
ATOM     36  C24 UNL     1       0.246   4.524  -1.921  1.00  0.00     0.001 C   
ENDBRANCH  18  32
ENDBRANCH   3  18
TORSDOF 9
