REMARK SMILES Cc1ccccc1[C@@H](CO)n1cc([C@@H]([NH2+]Cc2ccc3c(c2)OCO3)C2CCCC2)nn1
REMARK SMILES IDX 11 1 12 2 13 3 31 4 32 5 8 7 7 8 2 9 3 10 4 11 6 12 5 13
REMARK SMILES IDX 1 14 9 15 10 16 14 18 15 19 16 22 17 23 18 24 22 25 19 26
REMARK SMILES IDX 21 27 20 28 23 29 25 30 24 31 26 32 27 33 30 34 28 35 29 36
REMARK H PARENT 12 6 10 17 15 20 15 21
ROOT
ATOM     1   N1  UNL     1       0.148  -1.584  -1.706  1.00  0.00    -0.202 N   
ATOM     2   C10 UNL     1       0.398  -0.322  -1.231  1.00  0.00     0.046 A   
ATOM     3   C11 UNL     1      -0.073  -0.347   0.063  1.00  0.00     0.127 A   
ATOM     4   N3  UNL     1      -0.623  -1.580   0.314  1.00  0.00    -0.132 NA  
ATOM     5   N4  UNL     1      -0.489  -2.323  -0.771  1.00  0.00    -0.075 NA  
ATOM     6   H12 UNL     1       0.875   0.435  -1.837  1.00  0.00     0.083 HD  
ENDROOT
BRANCH   1   7
ATOM     7   C8  UNL     1       0.490  -2.126  -3.024  1.00  0.00     0.155 C   
BRANCH   7   8
ATOM     8   C7  UNL     1       1.656  -3.104  -2.905  1.00  0.00    -0.020 A   
ATOM     9   C2  UNL     1       2.975  -2.748  -3.275  1.00  0.00    -0.046 A   
ATOM     10  C3  UNL     1       4.008  -3.693  -3.145  1.00  0.00     0.004 A   
ATOM     11  C4  UNL     1       3.756  -4.970  -2.648  1.00  0.00     0.000 A   
ATOM     12  C6  UNL     1       1.429  -4.401  -2.397  1.00  0.00     0.006 A   
ATOM     13  C5  UNL     1       2.467  -5.323  -2.271  1.00  0.00     0.000 A   
ATOM     14  C1  UNL     1       3.324  -1.390  -3.825  1.00  0.00     0.045 C   
ENDBRANCH   7   8
BRANCH   7  15
ATOM     15  C9  UNL     1      -0.741  -2.706  -3.745  1.00  0.00     0.185 C   
BRANCH  15  16
ATOM     16  O1  UNL     1      -1.616  -1.648  -4.149  1.00  0.00    -0.394 OA  
ATOM     17  H11 UNL     1      -2.345  -2.060  -4.649  1.00  0.00     0.210 HD  
ENDBRANCH  15  16
ENDBRANCH   7  15
ENDBRANCH   1   7
BRANCH   3  18
ATOM     18  C12 UNL     1      -0.122   0.707   1.130  1.00  0.00     0.117 C   
BRANCH  18  19
ATOM     19  N2  UNL     1      -1.217   0.319   2.102  1.00  0.00     0.249 N   
ATOM     20  H14 UNL     1      -2.022   0.042   1.524  1.00  0.00     0.199 HD  
ATOM     21  H15 UNL     1      -0.937  -0.564   2.550  1.00  0.00     0.199 HD  
BRANCH  19  22
ATOM     22  C13 UNL     1      -1.675   1.302   3.113  1.00  0.00     0.164 C   
BRANCH  22  23
ATOM     23  C14 UNL     1      -2.229   2.562   2.509  1.00  0.00    -0.002 A   
ATOM     24  C15 UNL     1      -1.516   3.780   2.615  1.00  0.00     0.012 A   
ATOM     25  C19 UNL     1      -3.450   2.534   1.813  1.00  0.00     0.045 A   
ATOM     26  C16 UNL     1      -2.008   4.954   2.032  1.00  0.00     0.037 A   
ATOM     27  C18 UNL     1      -3.906   3.708   1.250  1.00  0.00     0.109 A   
ATOM     28  C17 UNL     1      -3.205   4.884   1.355  1.00  0.00     0.108 A   
ATOM     29  O2  UNL     1      -5.058   3.850   0.544  1.00  0.00    -0.316 OA  
ATOM     30  O3  UNL     1      -3.829   5.916   0.730  1.00  0.00    -0.316 OA  
ATOM     31  C20 UNL     1      -5.018   5.262   0.236  1.00  0.00     0.337 C   
ENDBRANCH  22  23
ENDBRANCH  19  22
ENDBRANCH  18  19
BRANCH  18  32
ATOM     32  C21 UNL     1       1.207   0.906   1.888  1.00  0.00     0.043 C   
ATOM     33  C22 UNL     1       1.748  -0.341   2.611  1.00  0.00     0.010 C   
ATOM     34  C25 UNL     1       2.372   1.412   1.011  1.00  0.00     0.010 C   
ATOM     35  C23 UNL     1       3.260  -0.192   2.548  1.00  0.00     0.001 C   
ATOM     36  C24 UNL     1       3.485   0.383   1.161  1.00  0.00     0.001 C   
ENDBRANCH  18  32
ENDBRANCH   3  18
TORSDOF 9
