REMARK SMILES CC(C)C[C@H]([NH2+]Cc1ccc2c(c1)OCO2)c1cn(Cc2cccc3cc[nH]c23)nn1
REMARK SMILES IDX 17 1 18 2 19 3 30 4 31 5 5 7 4 8 2 9 1 10 3 11 6 12 7 15
REMARK SMILES IDX 8 16 9 17 13 18 10 19 12 20 11 21 14 22 16 23 15 24 20 25
REMARK SMILES IDX 21 26 22 27 29 28 23 29 25 30 28 31 24 32 26 33 27 34
REMARK H PARENT 18 6 6 13 6 14 28 35
ROOT
ATOM     1   C14 UNL     1       2.222   0.759  -0.646  1.00  0.00     0.127 A   
ATOM     2   C15 UNL     1       1.804   0.521  -1.938  1.00  0.00     0.046 A   
ATOM     3   N2  UNL     1       1.569   1.772  -2.445  1.00  0.00    -0.208 N   
ATOM     4   N4  UNL     1       1.884   2.721  -1.541  1.00  0.00    -0.076 NA  
ATOM     5   N5  UNL     1       2.281   2.111  -0.435  1.00  0.00    -0.132 NA  
ATOM     6   H20 UNL     1       1.578  -0.375  -2.499  1.00  0.00     0.083 HD  
ENDROOT
BRANCH   1   7
ATOM     7   C5  UNL     1       2.438  -0.175   0.497  1.00  0.00     0.114 C   
BRANCH   7   8
ATOM     8   C4  UNL     1       3.295  -1.404   0.143  1.00  0.00     0.064 C   
BRANCH   8   9
ATOM     9   C2  UNL     1       4.731  -1.084  -0.324  1.00  0.00    -0.012 C   
ATOM     10  C1  UNL     1       5.449  -2.381  -0.709  1.00  0.00     0.007 C   
ATOM     11  C3  UNL     1       5.540  -0.344   0.741  1.00  0.00     0.007 C   
ENDBRANCH   8   9
ENDBRANCH   7   8
BRANCH   7  12
ATOM     12  N1  UNL     1       1.110  -0.687   1.011  1.00  0.00     0.249 N   
ATOM     13  H11 UNL     1       0.605  -1.148   0.245  1.00  0.00     0.199 HD  
ATOM     14  H12 UNL     1       1.262  -1.403   1.729  1.00  0.00     0.199 HD  
BRANCH  12  15
ATOM     15  C6  UNL     1       0.208   0.360   1.585  1.00  0.00     0.164 C   
BRANCH  15  16
ATOM     16  C7  UNL     1      -1.071  -0.267   2.065  1.00  0.00    -0.002 A   
ATOM     17  C8  UNL     1      -1.198  -0.709   3.403  1.00  0.00     0.012 A   
ATOM     18  C12 UNL     1      -2.135  -0.461   1.166  1.00  0.00     0.045 A   
ATOM     19  C9  UNL     1      -2.372  -1.328   3.845  1.00  0.00     0.037 A   
ATOM     20  C11 UNL     1      -3.279  -1.072   1.635  1.00  0.00     0.109 A   
ATOM     21  C10 UNL     1      -3.394  -1.494   2.936  1.00  0.00     0.108 A   
ATOM     22  O1  UNL     1      -4.394  -1.332   0.903  1.00  0.00    -0.316 OA  
ATOM     23  O2  UNL     1      -4.597  -2.073   3.188  1.00  0.00    -0.316 OA  
ATOM     24  C13 UNL     1      -5.245  -1.932   1.906  1.00  0.00     0.337 C   
ENDBRANCH  15  16
ENDBRANCH  12  15
ENDBRANCH   7  12
ENDBRANCH   1   7
BRANCH   3  25
ATOM     25  C16 UNL     1       0.822   2.115  -3.646  1.00  0.00     0.171 C   
BRANCH  25  26
ATOM     26  C17 UNL     1      -0.628   1.729  -3.466  1.00  0.00    -0.007 A   
ATOM     27  C18 UNL     1      -1.232   0.805  -4.341  1.00  0.00     0.007 A   
ATOM     28  C24 UNL     1      -1.449   2.232  -2.431  1.00  0.00     0.042 A   
ATOM     29  C19 UNL     1      -2.555   0.395  -4.178  1.00  0.00     0.001 A   
ATOM     30  C21 UNL     1      -2.771   1.828  -2.241  1.00  0.00    -0.003 A   
ATOM     31  N3  UNL     1      -1.173   3.159  -1.442  1.00  0.00    -0.320 N   
ATOM     32  C20 UNL     1      -3.332   0.892  -3.129  1.00  0.00     0.010 A   
ATOM     33  C22 UNL     1      -3.268   2.518  -1.101  1.00  0.00     0.025 A   
ATOM     34  C23 UNL     1      -2.259   3.321  -0.624  1.00  0.00     0.072 A   
ATOM     35  H28 UNL     1      -0.287   3.640  -1.334  1.00  0.00     0.152 HD  
ENDBRANCH  25  26
ENDBRANCH   3  25
TORSDOF 8
