REMARK SMILES COc1ccc(CCn2cc([C@@H]([NH2+]Cc3ccc4c(c3)OCO4)C(C)C)nn2)cc1
REMARK SMILES IDX 9 1 10 2 11 3 27 4 28 5 8 7 7 8 6 9 3 10 4 11 30 12 5 13
REMARK SMILES IDX 29 14 2 15 1 16 12 17 13 18 14 21 15 22 16 23 20 24 17 25
REMARK SMILES IDX 19 26 18 27 21 28 23 29 22 30 24 31 25 32 26 33
REMARK H PARENT 10 6 13 19 13 20
ROOT
ATOM     1   N1  UNL     1      -4.114   1.042   0.930  1.00  0.00    -0.212 N   
ATOM     2   C8  UNL     1      -3.742   0.098   0.014  1.00  0.00     0.045 A   
ATOM     3   C9  UNL     1      -2.929  -0.752   0.730  1.00  0.00     0.127 A   
ATOM     4   N3  UNL     1      -2.888  -0.341   2.038  1.00  0.00    -0.132 NA  
ATOM     5   N4  UNL     1      -3.633   0.746   2.151  1.00  0.00    -0.076 NA  
ATOM     6   H10 UNL     1      -4.006   0.168  -1.032  1.00  0.00     0.083 HD  
ENDROOT
BRANCH   1   7
ATOM     7   C7  UNL     1      -4.763   2.312   0.672  1.00  0.00     0.139 C   
BRANCH   7   8
ATOM     8   C6  UNL     1      -3.845   3.521   0.896  1.00  0.00     0.057 C   
BRANCH   8   9
ATOM     9   C5  UNL     1      -2.487   3.412   0.232  1.00  0.00    -0.046 A   
ATOM     10  C2  UNL     1       0.056   3.093  -0.933  1.00  0.00     0.075 A   
ATOM     11  C3  UNL     1      -1.098   3.009  -1.714  1.00  0.00     0.034 A   
ATOM     12  C23 UNL     1      -0.058   3.367   0.428  1.00  0.00     0.034 A   
ATOM     13  C4  UNL     1      -2.361   3.186  -1.143  1.00  0.00     0.006 A   
ATOM     14  C22 UNL     1      -1.323   3.520   1.006  1.00  0.00     0.006 A   
BRANCH  10  15
ATOM     15  O1  UNL     1       1.225   2.848  -1.598  1.00  0.00    -0.349 OA  
ATOM     16  C1  UNL     1       2.418   3.312  -0.970  1.00  0.00     0.203 C   
ENDBRANCH  10  15
ENDBRANCH   8   9
ENDBRANCH   7   8
ENDBRANCH   1   7
BRANCH   3  17
ATOM     17  C10 UNL     1      -2.029  -1.851   0.270  1.00  0.00     0.117 C   
BRANCH  17  18
ATOM     18  N2  UNL     1      -0.656  -1.653   0.865  1.00  0.00     0.249 N   
ATOM     19  H12 UNL     1      -0.791  -1.488   1.873  1.00  0.00     0.199 HD  
ATOM     20  H13 UNL     1      -0.079  -2.494   0.777  1.00  0.00     0.199 HD  
BRANCH  18  21
ATOM     21  C11 UNL     1       0.092  -0.479   0.326  1.00  0.00     0.164 C   
BRANCH  21  22
ATOM     22  C12 UNL     1       1.371  -0.270   1.085  1.00  0.00    -0.002 A   
ATOM     23  C13 UNL     1       1.354   0.415   2.324  1.00  0.00     0.012 A   
ATOM     24  C17 UNL     1       2.583  -0.784   0.593  1.00  0.00     0.045 A   
ATOM     25  C14 UNL     1       2.530   0.601   3.058  1.00  0.00     0.037 A   
ATOM     26  C16 UNL     1       3.723  -0.585   1.344  1.00  0.00     0.109 A   
ATOM     27  C15 UNL     1       3.698   0.089   2.540  1.00  0.00     0.108 A   
ATOM     28  O2  UNL     1       4.969  -1.014   1.015  1.00  0.00    -0.316 OA  
ATOM     29  O3  UNL     1       4.926   0.173   3.113  1.00  0.00    -0.316 OA  
ATOM     30  C18 UNL     1       5.734  -0.527   2.141  1.00  0.00     0.337 C   
ENDBRANCH  21  22
ENDBRANCH  18  21
ENDBRANCH  17  18
BRANCH  17  31
ATOM     31  C19 UNL     1      -2.524  -3.279   0.606  1.00  0.00     0.037 C   
ATOM     32  C20 UNL     1      -3.835  -3.599  -0.121  1.00  0.00     0.014 C   
ATOM     33  C21 UNL     1      -2.680  -3.566   2.103  1.00  0.00     0.014 C   
ENDBRANCH  17  31
ENDBRANCH   3  17
TORSDOF 9
