REMARK SMILES Cc1nc(Cl)ccc1Cn1cc([C@H](CC(C)C)[NH2+]Cc2ccc3c(c2)OCO3)nn1
REMARK SMILES IDX 10 1 11 2 12 3 29 4 30 5 9 7 8 8 2 9 3 10 4 11 7 12 6 13
REMARK SMILES IDX 1 14 5 15 13 16 14 17 15 18 16 19 17 20 18 21 19 24 20 25
REMARK SMILES IDX 21 26 25 27 22 28 24 29 23 30 26 31 28 32 27 33
REMARK H PARENT 11 6 18 22 18 23
ROOT
ATOM     1   N2  UNL     1       1.421  -2.020  -0.746  1.00  0.00    -0.208 N   
ATOM     2   C8  UNL     1       0.692  -0.863  -0.720  1.00  0.00     0.046 A   
ATOM     3   C9  UNL     1       1.477   0.010  -0.000  1.00  0.00     0.127 A   
ATOM     4   N4  UNL     1       2.657  -0.607   0.321  1.00  0.00    -0.132 NA  
ATOM     5   N5  UNL     1       2.612  -1.846  -0.143  1.00  0.00    -0.076 NA  
ATOM     6   H8  UNL     1      -0.305  -0.793  -1.134  1.00  0.00     0.083 HD  
ENDROOT
BRANCH   1   7
ATOM     7   C7  UNL     1       1.000  -3.339  -1.197  1.00  0.00     0.171 C   
BRANCH   7   8
ATOM     8   C6  UNL     1      -0.227  -3.788  -0.440  1.00  0.00    -0.007 A   
ATOM     9   C2  UNL     1      -0.186  -4.197   0.902  1.00  0.00     0.044 A   
ATOM     10  N1  UNL     1      -1.307  -4.463   1.613  1.00  0.00    -0.241 NA  
ATOM     11  C3  UNL     1      -2.492  -4.386   0.975  1.00  0.00     0.129 A   
ATOM     12  C5  UNL     1      -1.483  -3.734  -1.067  1.00  0.00     0.010 A   
ATOM     13  C4  UNL     1      -2.635  -4.043  -0.352  1.00  0.00     0.041 A   
ATOM     14  C1  UNL     1       1.096  -4.325   1.676  1.00  0.00     0.067 C   
ATOM     15  CL1 UNL     1      -3.857  -4.732   1.949  1.00  0.00    -0.062 Cl  
ENDBRANCH   7   8
ENDBRANCH   1   7
BRANCH   3  16
ATOM     16  C10 UNL     1       1.182   1.374   0.524  1.00  0.00     0.114 C   
BRANCH  16  17
ATOM     17  C11 UNL     1       1.924   2.482  -0.247  1.00  0.00     0.064 C   
BRANCH  17  18
ATOM     18  C12 UNL     1       1.533   2.616  -1.734  1.00  0.00    -0.012 C   
ATOM     19  C13 UNL     1       0.052   2.950  -1.921  1.00  0.00     0.007 C   
ATOM     20  C14 UNL     1       2.392   3.696  -2.398  1.00  0.00     0.007 C   
ENDBRANCH  17  18
ENDBRANCH  16  17
BRANCH  16  21
ATOM     21  N3  UNL     1       1.608   1.486   1.977  1.00  0.00     0.249 N   
ATOM     22  H19 UNL     1       2.617   1.289   2.003  1.00  0.00     0.199 HD  
ATOM     23  H20 UNL     1       1.475   2.449   2.301  1.00  0.00     0.199 HD  
BRANCH  21  24
ATOM     24  C15 UNL     1       0.954   0.549   2.944  1.00  0.00     0.164 C   
BRANCH  24  25
ATOM     25  C16 UNL     1      -0.544   0.670   2.982  1.00  0.00    -0.002 A   
ATOM     26  C17 UNL     1      -1.161   1.800   3.568  1.00  0.00     0.012 A   
ATOM     27  C21 UNL     1      -1.344  -0.334   2.408  1.00  0.00     0.045 A   
ATOM     28  C18 UNL     1      -2.554   1.932   3.579  1.00  0.00     0.037 A   
ATOM     29  C20 UNL     1      -2.713  -0.169   2.428  1.00  0.00     0.109 A   
ATOM     30  C19 UNL     1      -3.301   0.930   3.002  1.00  0.00     0.108 A   
ATOM     31  O1  UNL     1      -3.623  -1.029   1.901  1.00  0.00    -0.316 OA  
ATOM     32  O2  UNL     1      -4.657   0.889   2.925  1.00  0.00    -0.316 OA  
ATOM     33  C22 UNL     1      -4.859  -0.396   2.298  1.00  0.00     0.337 C   
ENDBRANCH  24  25
ENDBRANCH  21  24
ENDBRANCH  16  21
ENDBRANCH   3  16
TORSDOF 8
