REMARK SMILES CC(C)(C)[C@H]([NH2+]Cc1ccc2c(c1)OCO2)c1cn(-c2cc(N([O-])[O-])ccc2F)nn1
REMARK SMILES IDX 17 1 18 2 19 3 30 4 31 5 5 6 2 7 1 8 3 9 4 10 6 11 7 14 8 15
REMARK SMILES IDX 9 16 13 17 10 18 12 19 11 20 14 21 16 22 15 23 20 24 21 25
REMARK SMILES IDX 28 26 22 27 27 28 26 29 29 30 23 31 24 32 25 33
REMARK H PARENT 6 12 6 13
ROOT
ATOM     1   C14 UNL     1      -0.747   0.467  -1.222  1.00  0.00     0.128 A   
ATOM     2   C15 UNL     1       0.051   1.572  -1.022  1.00  0.00     0.135 A   
ATOM     3   N2  UNL     1      -0.501   2.231   0.060  1.00  0.00    -0.178 N   
ATOM     4   N4  UNL     1      -1.554   1.500   0.513  1.00  0.00    -0.071 NA  
ATOM     5   N5  UNL     1      -1.716   0.441  -0.261  1.00  0.00    -0.131 NA  
ENDROOT
BRANCH   1   6
ATOM     6   C5  UNL     1      -0.665  -0.652  -2.221  1.00  0.00     0.120 C   
BRANCH   6   7
ATOM     7   C2  UNL     1      -1.463  -0.386  -3.547  1.00  0.00     0.010 C   
ATOM     8   C1  UNL     1      -0.981   0.925  -4.209  1.00  0.00     0.017 C   
ATOM     9   C3  UNL     1      -1.207  -1.521  -4.566  1.00  0.00     0.017 C   
ATOM     10  C4  UNL     1      -2.983  -0.280  -3.313  1.00  0.00     0.017 C   
ENDBRANCH   6   7
BRANCH   6  11
ATOM     11  N1  UNL     1      -1.146  -1.926  -1.567  1.00  0.00     0.250 N   
ATOM     12  H11 UNL     1      -1.401  -2.645  -2.250  1.00  0.00     0.199 HD  
ATOM     13  H12 UNL     1      -2.015  -1.696  -1.062  1.00  0.00     0.199 HD  
BRANCH  11  14
ATOM     14  C6  UNL     1      -0.211  -2.533  -0.578  1.00  0.00     0.164 C   
BRANCH  14  15
ATOM     15  C7  UNL     1      -0.828  -3.755   0.040  1.00  0.00    -0.002 A   
ATOM     16  C8  UNL     1      -1.672  -3.631   1.170  1.00  0.00     0.012 A   
ATOM     17  C12 UNL     1      -0.619  -5.021  -0.534  1.00  0.00     0.045 A   
ATOM     18  C9  UNL     1      -2.292  -4.754   1.729  1.00  0.00     0.037 A   
ATOM     19  C11 UNL     1      -1.246  -6.106   0.043  1.00  0.00     0.109 A   
ATOM     20  C10 UNL     1      -2.059  -5.977   1.142  1.00  0.00     0.108 A   
ATOM     21  O1  UNL     1      -1.151  -7.392  -0.386  1.00  0.00    -0.316 OA  
ATOM     22  O2  UNL     1      -2.576  -7.166   1.545  1.00  0.00    -0.316 OA  
ATOM     23  C13 UNL     1      -1.979  -8.067   0.588  1.00  0.00     0.337 C   
ENDBRANCH  14  15
ENDBRANCH  11  14
ENDBRANCH   6  11
ENDBRANCH   1   6
BRANCH   3  24
ATOM     24  C16 UNL     1      -0.123   3.442   0.689  1.00  0.00     0.095 A   
ATOM     25  C17 UNL     1      -0.863   3.907   1.793  1.00  0.00     0.060 A   
ATOM     26  C21 UNL     1       0.966   4.194   0.237  1.00  0.00     0.146 A   
ATOM     27  C18 UNL     1      -0.499   5.111   2.422  1.00  0.00     0.120 A   
ATOM     28  C20 UNL     1       1.323   5.389   0.864  1.00  0.00     0.043 A   
ATOM     29  C19 UNL     1       0.593   5.855   1.958  1.00  0.00     0.034 A   
ATOM     30  F1  UNL     1       1.707   3.801  -0.806  1.00  0.00    -0.205 F   
BRANCH  27  31
ATOM     31  N3  UNL     1      -1.272   5.592   3.577  1.00  0.00     0.092 N   
ATOM     32  O3  UNL     1      -2.192   4.873   3.987  1.00  0.00    -0.138 OA  
ATOM     33  O4  UNL     1      -0.951   6.682   4.067  1.00  0.00    -0.138 OA  
ENDBRANCH  27  31
ENDBRANCH   3  24
TORSDOF 7
