REMARK SMILES Cc1cc(Cn2cc([C@@H]([NH2+]Cc3ccc4c(c3)OCO4)C3CCCC3)nn2)c(C)o1
REMARK SMILES IDX 6 1 7 2 8 3 26 4 27 5 5 7 4 8 2 9 3 10 30 11 28 12 1 13
REMARK SMILES IDX 29 14 9 15 10 16 11 19 12 20 13 21 17 22 14 23 16 24 15 25
REMARK SMILES IDX 18 26 20 27 19 28 21 29 22 30 25 31 23 32 24 33
REMARK H PARENT 7 6 10 17 10 18
ROOT
ATOM     1   N1  UNL     1      -1.259  -2.372  -0.547  1.00  0.00    -0.208 N   
ATOM     2   C6  UNL     1      -0.987  -1.037  -0.682  1.00  0.00     0.046 A   
ATOM     3   C7  UNL     1      -1.294  -0.508   0.552  1.00  0.00     0.127 A   
ATOM     4   N3  UNL     1      -1.791  -1.502   1.356  1.00  0.00    -0.132 NA  
ATOM     5   N4  UNL     1      -1.790  -2.630   0.665  1.00  0.00    -0.076 NA  
ATOM     6   H7  UNL     1      -0.573  -0.620  -1.590  1.00  0.00     0.083 HD  
ENDROOT
BRANCH   1   7
ATOM     7   C5  UNL     1      -1.045  -3.439  -1.512  1.00  0.00     0.172 C   
BRANCH   7   8
ATOM     8   C4  UNL     1       0.411  -3.680  -1.712  1.00  0.00     0.000 A   
ATOM     9   C2  UNL     1       2.471  -3.786  -2.610  1.00  0.00     0.056 A   
ATOM     10  C3  UNL     1       1.175  -3.408  -2.885  1.00  0.00     0.037 A   
ATOM     11  O3  UNL     1       2.555  -4.271  -1.343  1.00  0.00    -0.319 OA  
ATOM     12  C22 UNL     1       1.308  -4.218  -0.803  1.00  0.00     0.061 A   
ATOM     13  C1  UNL     1       3.723  -3.778  -3.393  1.00  0.00     0.073 C   
ATOM     14  C23 UNL     1       1.183  -4.716   0.584  1.00  0.00     0.073 C   
ENDBRANCH   7   8
ENDBRANCH   1   7
BRANCH   3  15
ATOM     15  C8  UNL     1      -1.186   0.887   1.080  1.00  0.00     0.117 C   
BRANCH  15  16
ATOM     16  N2  UNL     1      -2.290   1.154   2.083  1.00  0.00     0.249 N   
ATOM     17  H9  UNL     1      -2.124   2.035   2.575  1.00  0.00     0.199 HD  
ATOM     18  H10 UNL     1      -2.236   0.398   2.780  1.00  0.00     0.199 HD  
BRANCH  16  19
ATOM     19  C9  UNL     1      -3.686   1.166   1.550  1.00  0.00     0.164 C   
BRANCH  19  20
ATOM     20  C10 UNL     1      -3.918   2.242   0.526  1.00  0.00    -0.002 A   
ATOM     21  C11 UNL     1      -4.120   1.898  -0.833  1.00  0.00     0.012 A   
ATOM     22  C15 UNL     1      -3.906   3.598   0.900  1.00  0.00     0.045 A   
ATOM     23  C12 UNL     1      -4.302   2.885  -1.807  1.00  0.00     0.037 A   
ATOM     24  C14 UNL     1      -4.087   4.546  -0.086  1.00  0.00     0.109 A   
ATOM     25  C13 UNL     1      -4.279   4.201  -1.401  1.00  0.00     0.108 A   
ATOM     26  O1  UNL     1      -4.095   5.892   0.105  1.00  0.00    -0.316 OA  
ATOM     27  O2  UNL     1      -4.434   5.285  -2.204  1.00  0.00    -0.316 OA  
ATOM     28  C16 UNL     1      -4.349   6.358  -1.241  1.00  0.00     0.337 C   
ENDBRANCH  19  20
ENDBRANCH  16  19
ENDBRANCH  15  16
BRANCH  15  29
ATOM     29  C17 UNL     1       0.171   1.130   1.775  1.00  0.00     0.043 C   
ATOM     30  C18 UNL     1       1.369   0.999   0.824  1.00  0.00     0.010 C   
ATOM     31  C21 UNL     1       0.357   2.548   2.323  1.00  0.00     0.010 C   
ATOM     32  C19 UNL     1       2.500   1.798   1.469  1.00  0.00     0.001 C   
ATOM     33  C20 UNL     1       1.857   2.647   2.560  1.00  0.00     0.001 C   
ENDBRANCH  15  29
ENDBRANCH   3  15
TORSDOF 7
