REMARK SMILES Cc1ccc(N([O-])[O-])c(-n2cc([C@@H]([NH2+]Cc3ccc4c(c3)OCO4)C(C)C)nn2)c1
REMARK SMILES IDX 10 1 11 2 12 3 28 4 29 5 9 6 2 7 3 8 30 9 4 10 5 11 1 12
REMARK SMILES IDX 6 13 7 14 8 15 13 16 14 17 15 20 16 21 17 22 21 23 18 24
REMARK SMILES IDX 20 25 19 26 22 27 24 28 23 29 25 30 26 31 27 32
REMARK H PARENT 14 18 14 19
ROOT
ATOM     1   N2  UNL     1      -0.567   1.387  -0.802  1.00  0.00    -0.178 N   
ATOM     2   C7  UNL     1      -0.958   1.045   0.479  1.00  0.00     0.135 A   
ATOM     3   C8  UNL     1       0.140   0.438   1.047  1.00  0.00     0.127 A   
ATOM     4   N4  UNL     1       1.173   0.468   0.157  1.00  0.00    -0.131 NA  
ATOM     5   N5  UNL     1       0.751   1.078  -0.938  1.00  0.00    -0.071 NA  
ENDROOT
BRANCH   1   6
ATOM     6   C6  UNL     1      -1.290   1.989  -1.868  1.00  0.00     0.086 A   
ATOM     7   C2  UNL     1      -1.192   3.269  -3.959  1.00  0.00    -0.049 A   
ATOM     8   C3  UNL     1      -2.588   3.342  -3.984  1.00  0.00     0.006 A   
ATOM     9   C21 UNL     1      -0.552   2.602  -2.900  1.00  0.00     0.031 A   
ATOM     10  C4  UNL     1      -3.342   2.716  -2.993  1.00  0.00     0.033 A   
ATOM     11  C5  UNL     1      -2.690   2.034  -1.954  1.00  0.00     0.141 A   
ATOM     12  C1  UNL     1      -0.379   3.954  -5.021  1.00  0.00     0.044 C   
BRANCH  11  13
ATOM     13  N1  UNL     1      -3.542   1.275  -1.063  1.00  0.00     0.094 N   
ATOM     14  O1  UNL     1      -3.357   0.051  -1.013  1.00  0.00    -0.138 OA  
ATOM     15  O2  UNL     1      -4.354   1.910  -0.381  1.00  0.00    -0.138 OA  
ENDBRANCH  11  13
ENDBRANCH   1   6
BRANCH   3  16
ATOM     16  C9  UNL     1       0.320  -0.230   2.374  1.00  0.00     0.117 C   
BRANCH  16  17
ATOM     17  N3  UNL     1       1.314  -1.359   2.252  1.00  0.00     0.249 N   
ATOM     18  H8  UNL     1       1.685  -1.634   3.168  1.00  0.00     0.199 HD  
ATOM     19  H9  UNL     1       2.115  -1.000   1.710  1.00  0.00     0.199 HD  
BRANCH  17  20
ATOM     20  C10 UNL     1       0.815  -2.575   1.548  1.00  0.00     0.164 C   
BRANCH  20  21
ATOM     21  C11 UNL     1       1.914  -3.592   1.419  1.00  0.00    -0.002 A   
ATOM     22  C12 UNL     1       2.044  -4.634   2.366  1.00  0.00     0.012 A   
ATOM     23  C16 UNL     1       2.855  -3.477   0.380  1.00  0.00     0.045 A   
ATOM     24  C13 UNL     1       3.091  -5.557   2.278  1.00  0.00     0.037 A   
ATOM     25  C15 UNL     1       3.877  -4.402   0.324  1.00  0.00     0.109 A   
ATOM     26  C14 UNL     1       3.992  -5.413   1.246  1.00  0.00     0.108 A   
ATOM     27  O3  UNL     1       4.867  -4.431  -0.605  1.00  0.00    -0.316 OA  
ATOM     28  O4  UNL     1       5.067  -6.208   1.012  1.00  0.00    -0.316 OA  
ATOM     29  C17 UNL     1       5.614  -5.592  -0.173  1.00  0.00     0.337 C   
ENDBRANCH  20  21
ENDBRANCH  17  20
ENDBRANCH  16  17
BRANCH  16  30
ATOM     30  C18 UNL     1       0.792   0.719   3.506  1.00  0.00     0.037 C   
ATOM     31  C19 UNL     1      -0.272   1.770   3.844  1.00  0.00     0.014 C   
ATOM     32  C20 UNL     1       2.132   1.409   3.231  1.00  0.00     0.014 C   
ENDBRANCH  16  30
ENDBRANCH   3  16
TORSDOF 7
