REMARK SMILES CC(C)[C@H]([NH2+]Cc1ccc2c(c1)OCO2)c1cn([C@@H](CO)c2cc(F)ccc2F)nn1
REMARK SMILES IDX 16 1 17 2 18 3 30 4 31 5 4 7 2 8 1 9 3 10 5 11 6 14 7 15
REMARK SMILES IDX 8 16 12 17 9 18 11 19 10 20 13 21 15 22 14 23 19 24 20 25
REMARK SMILES IDX 21 26 22 28 23 29 28 30 24 31 27 32 26 33 29 34 25 35
REMARK H PARENT 17 6 5 12 5 13 21 27
ROOT
ATOM     1   C13 UNL     1      -0.277   1.529  -0.529  1.00  0.00     0.127 A   
ATOM     2   C14 UNL     1       0.433   2.048  -1.588  1.00  0.00     0.046 A   
ATOM     3   N2  UNL     1       1.742   1.811  -1.260  1.00  0.00    -0.202 N   
ATOM     4   N3  UNL     1       1.827   1.151  -0.085  1.00  0.00    -0.075 NA  
ATOM     5   N4  UNL     1       0.600   0.991   0.380  1.00  0.00    -0.132 NA  
ATOM     6   H18 UNL     1       0.150   2.547  -2.504  1.00  0.00     0.083 HD  
ENDROOT
BRANCH   1   7
ATOM     7   C4  UNL     1      -1.748   1.450  -0.269  1.00  0.00     0.117 C   
BRANCH   7   8
ATOM     8   C2  UNL     1      -2.327   2.798   0.235  1.00  0.00     0.037 C   
ATOM     9   C1  UNL     1      -3.861   2.800   0.214  1.00  0.00     0.014 C   
ATOM     10  C3  UNL     1      -1.829   3.206   1.626  1.00  0.00     0.014 C   
ENDBRANCH   7   8
BRANCH   7  11
ATOM     11  N1  UNL     1      -2.046   0.351   0.716  1.00  0.00     0.249 N   
ATOM     12  H9  UNL     1      -2.953   0.472   1.175  1.00  0.00     0.199 HD  
ATOM     13  H10 UNL     1      -1.333   0.423   1.458  1.00  0.00     0.199 HD  
BRANCH  11  14
ATOM     14  C5  UNL     1      -1.962  -1.031   0.164  1.00  0.00     0.164 C   
BRANCH  14  15
ATOM     15  C6  UNL     1      -2.148  -2.046   1.256  1.00  0.00    -0.002 A   
ATOM     16  C7  UNL     1      -3.410  -2.647   1.472  1.00  0.00     0.012 A   
ATOM     17  C11 UNL     1      -1.071  -2.372   2.100  1.00  0.00     0.045 A   
ATOM     18  C8  UNL     1      -3.598  -3.569   2.508  1.00  0.00     0.037 A   
ATOM     19  C10 UNL     1      -1.290  -3.283   3.112  1.00  0.00     0.109 A   
ATOM     20  C9  UNL     1      -2.518  -3.865   3.310  1.00  0.00     0.108 A   
ATOM     21  O1  UNL     1      -0.364  -3.704   4.013  1.00  0.00    -0.316 OA  
ATOM     22  O2  UNL     1      -2.518  -4.729   4.359  1.00  0.00    -0.316 OA  
ATOM     23  C12 UNL     1      -1.141  -4.645   4.787  1.00  0.00     0.337 C   
ENDBRANCH  14  15
ENDBRANCH  11  14
ENDBRANCH   7  11
ENDBRANCH   1   7
BRANCH   3  24
ATOM     24  C15 UNL     1       2.938   2.155  -2.032  1.00  0.00     0.158 C   
BRANCH  24  25
ATOM     25  C16 UNL     1       3.889   3.052  -1.218  1.00  0.00     0.186 C   
BRANCH  25  26
ATOM     26  O3  UNL     1       3.326   4.359  -1.077  1.00  0.00    -0.394 OA  
ATOM     27  H22 UNL     1       3.964   4.891  -0.565  1.00  0.00     0.210 HD  
ENDBRANCH  25  26
ENDBRANCH  24  25
BRANCH  24  28
ATOM     28  C17 UNL     1       3.564   0.894  -2.595  1.00  0.00     0.016 A   
ATOM     29  C18 UNL     1       4.571   0.174  -1.931  1.00  0.00     0.048 A   
ATOM     30  C22 UNL     1       3.096   0.391  -3.819  1.00  0.00     0.128 A   
ATOM     31  C19 UNL     1       5.094  -0.986  -2.503  1.00  0.00     0.123 A   
ATOM     32  C21 UNL     1       3.623  -0.766  -4.390  1.00  0.00     0.042 A   
ATOM     33  C20 UNL     1       4.634  -1.458  -3.728  1.00  0.00     0.042 A   
ATOM     34  F2  UNL     1       2.104   1.030  -4.459  1.00  0.00    -0.207 F   
ATOM     35  F1  UNL     1       6.053  -1.659  -1.856  1.00  0.00    -0.207 F   
ENDBRANCH  24  28
ENDBRANCH   3  24
TORSDOF 9
