REMARK SMILES CC(C)[C@H]([NH2+]Cc1ccc2c(c1)OCO2)c1cn([C@H](CO)c2cc(F)ccc2F)nn1
REMARK SMILES IDX 16 1 17 2 18 3 30 4 31 5 4 7 2 8 1 9 3 10 5 11 6 14 7 15
REMARK SMILES IDX 8 16 12 17 9 18 11 19 10 20 13 21 15 22 14 23 19 24 20 25
REMARK SMILES IDX 21 26 22 28 23 29 28 30 24 31 27 32 26 33 29 34 25 35
REMARK H PARENT 17 6 5 12 5 13 21 27
ROOT
ATOM     1   C13 UNL     1       0.119  -2.140   1.148  1.00  0.00     0.127 A   
ATOM     2   C14 UNL     1       0.074  -1.022   1.950  1.00  0.00     0.046 A   
ATOM     3   N2  UNL     1       1.135  -1.178   2.802  1.00  0.00    -0.202 N   
ATOM     4   N3  UNL     1       1.789  -2.329   2.538  1.00  0.00    -0.075 NA  
ATOM     5   N4  UNL     1       1.179  -2.922   1.527  1.00  0.00    -0.132 NA  
ATOM     6   H18 UNL     1      -0.589  -0.170   2.008  1.00  0.00     0.083 HD  
ENDROOT
BRANCH   1   7
ATOM     7   C4  UNL     1      -0.728  -2.550  -0.012  1.00  0.00     0.117 C   
BRANCH   7   8
ATOM     8   C2  UNL     1      -2.004  -3.314   0.429  1.00  0.00     0.037 C   
ATOM     9   C1  UNL     1      -1.730  -4.692   1.041  1.00  0.00     0.014 C   
ATOM     10  C3  UNL     1      -3.007  -3.453  -0.723  1.00  0.00     0.014 C   
ENDBRANCH   7   8
BRANCH   7  11
ATOM     11  N1  UNL     1       0.076  -3.388  -0.981  1.00  0.00     0.249 N   
ATOM     12  H9  UNL     1      -0.536  -3.871  -1.641  1.00  0.00     0.199 HD  
ATOM     13  H10 UNL     1       0.547  -4.106  -0.414  1.00  0.00     0.199 HD  
BRANCH  11  14
ATOM     14  C5  UNL     1       1.143  -2.669  -1.743  1.00  0.00     0.164 C   
BRANCH  14  15
ATOM     15  C6  UNL     1       0.585  -1.684  -2.733  1.00  0.00    -0.002 A   
ATOM     16  C7  UNL     1       0.668  -0.293  -2.479  1.00  0.00     0.012 A   
ATOM     17  C11 UNL     1      -0.057  -2.138  -3.898  1.00  0.00     0.045 A   
ATOM     18  C8  UNL     1       0.117   0.634  -3.370  1.00  0.00     0.037 A   
ATOM     19  C10 UNL     1      -0.590  -1.197  -4.754  1.00  0.00     0.109 A   
ATOM     20  C9  UNL     1      -0.508   0.149  -4.497  1.00  0.00     0.108 A   
ATOM     21  O1  UNL     1      -1.243  -1.467  -5.915  1.00  0.00    -0.316 OA  
ATOM     22  O2  UNL     1      -1.097   0.897  -5.465  1.00  0.00    -0.316 OA  
ATOM     23  C12 UNL     1      -1.549  -0.130  -6.373  1.00  0.00     0.337 C   
ENDBRANCH  14  15
ENDBRANCH  11  14
ENDBRANCH   7  11
ENDBRANCH   1   7
BRANCH   3  24
ATOM     24  C15 UNL     1       1.599  -0.290   3.870  1.00  0.00     0.158 C   
BRANCH  24  25
ATOM     25  C16 UNL     1       0.712  -0.434   5.124  1.00  0.00     0.186 C   
BRANCH  25  26
ATOM     26  O3  UNL     1      -0.659  -0.122   4.871  1.00  0.00    -0.394 OA  
ATOM     27  H22 UNL     1      -1.139  -0.231   5.715  1.00  0.00     0.210 HD  
ENDBRANCH  25  26
ENDBRANCH  24  25
BRANCH  24  28
ATOM     28  C17 UNL     1       1.835   1.116   3.337  1.00  0.00     0.016 A   
ATOM     29  C18 UNL     1       0.992   2.205   3.606  1.00  0.00     0.048 A   
ATOM     30  C22 UNL     1       2.952   1.344   2.515  1.00  0.00     0.128 A   
ATOM     31  C19 UNL     1       1.277   3.463   3.073  1.00  0.00     0.123 A   
ATOM     32  C21 UNL     1       3.238   2.602   1.987  1.00  0.00     0.042 A   
ATOM     33  C20 UNL     1       2.393   3.672   2.270  1.00  0.00     0.042 A   
ATOM     34  F2  UNL     1       3.771   0.324   2.215  1.00  0.00    -0.207 F   
ATOM     35  F1  UNL     1       0.454   4.486   3.342  1.00  0.00    -0.207 F   
ENDBRANCH  24  28
ENDBRANCH   3  24
TORSDOF 9
