REMARK SMILES Nc1cccc(Cn2cc([C@@H]([NH2+]Cc3ccc4c(c3)OCO4)C3CCCC3)nn2)c1
REMARK SMILES IDX 8 1 9 2 10 3 28 4 29 5 7 7 6 8 2 9 3 10 30 11 4 12 5 13 1 14
REMARK SMILES IDX 11 17 12 18 13 21 14 22 15 23 19 24 16 25 18 26 17 27 20 28
REMARK SMILES IDX 22 29 21 30 23 31 24 32 27 33 25 34 26 35
REMARK H PARENT 9 6 1 15 1 16 12 19 12 20
ROOT
ATOM     1   N2  UNL     1      -1.332  -1.705   1.826  1.00  0.00    -0.208 N   
ATOM     2   C7  UNL     1      -1.513  -0.457   1.292  1.00  0.00     0.046 A   
ATOM     3   C8  UNL     1      -0.819  -0.500   0.104  1.00  0.00     0.127 A   
ATOM     4   N4  UNL     1      -0.268  -1.746  -0.051  1.00  0.00    -0.132 NA  
ATOM     5   N5  UNL     1      -0.584  -2.471   1.008  1.00  0.00    -0.076 NA  
ATOM     6   H8  UNL     1      -2.071   0.315   1.803  1.00  0.00     0.083 HD  
ENDROOT
BRANCH   1   7
ATOM     7   C6  UNL     1      -1.806  -2.215   3.102  1.00  0.00     0.169 C   
BRANCH   7   8
ATOM     8   C5  UNL     1      -1.033  -1.598   4.239  1.00  0.00    -0.027 A   
ATOM     9   C1  UNL     1      -0.850   0.081   6.003  1.00  0.00     0.024 A   
ATOM     10  C2  UNL     1       0.452  -0.356   6.258  1.00  0.00     0.023 A   
ATOM     11  C23 UNL     1      -1.566  -0.516   4.961  1.00  0.00     0.028 A   
ATOM     12  C3  UNL     1       0.992  -1.437   5.559  1.00  0.00     0.002 A   
ATOM     13  C4  UNL     1       0.251  -2.061   4.558  1.00  0.00     0.005 A   
BRANCH   9  14
ATOM     14  N1  UNL     1      -1.339   1.240   6.617  1.00  0.00    -0.358 N   
ATOM     15  H1  UNL     1      -2.352   1.285   6.667  1.00  0.00     0.143 HD  
ATOM     16  H2  UNL     1      -0.917   1.426   7.524  1.00  0.00     0.143 HD  
ENDBRANCH   9  14
ENDBRANCH   7   8
ENDBRANCH   1   7
BRANCH   3  17
ATOM     17  C9  UNL     1      -0.546   0.555  -0.918  1.00  0.00     0.117 C   
BRANCH  17  18
ATOM     18  N3  UNL     1       0.869   0.410  -1.421  1.00  0.00     0.249 N   
ATOM     19  H10 UNL     1       0.997  -0.584  -1.664  1.00  0.00     0.199 HD  
ATOM     20  H11 UNL     1       1.026   0.941  -2.283  1.00  0.00     0.199 HD  
BRANCH  18  21
ATOM     21  C10 UNL     1       1.933   0.767  -0.441  1.00  0.00     0.164 C   
BRANCH  21  22
ATOM     22  C11 UNL     1       3.291   0.580  -1.057  1.00  0.00    -0.002 A   
ATOM     23  C12 UNL     1       3.951   1.663  -1.685  1.00  0.00     0.012 A   
ATOM     24  C16 UNL     1       3.889  -0.693  -1.062  1.00  0.00     0.045 A   
ATOM     25  C13 UNL     1       5.194   1.485  -2.302  1.00  0.00     0.037 A   
ATOM     26  C15 UNL     1       5.114  -0.834  -1.679  1.00  0.00     0.109 A   
ATOM     27  C14 UNL     1       5.748   0.224  -2.282  1.00  0.00     0.108 A   
ATOM     28  O1  UNL     1       5.824  -1.988  -1.775  1.00  0.00    -0.316 OA  
ATOM     29  O2  UNL     1       6.939  -0.130  -2.832  1.00  0.00    -0.316 OA  
ATOM     30  C17 UNL     1       6.994  -1.532  -2.490  1.00  0.00     0.337 C   
ENDBRANCH  21  22
ENDBRANCH  18  21
ENDBRANCH  17  18
BRANCH  17  31
ATOM     31  C18 UNL     1      -1.506   0.456  -2.120  1.00  0.00     0.043 C   
ATOM     32  C19 UNL     1      -1.289   1.530  -3.192  1.00  0.00     0.010 C   
ATOM     33  C22 UNL     1      -2.974   0.685  -1.745  1.00  0.00     0.010 C   
ATOM     34  C20 UNL     1      -2.605   1.601  -3.964  1.00  0.00     0.001 C   
ATOM     35  C21 UNL     1      -3.657   0.937  -3.081  1.00  0.00     0.001 C   
ENDBRANCH  17  31
ENDBRANCH   3  17
TORSDOF 8
