REMARK SMILES CC(C)[C@H]([NH2+]Cc1ccc2c(c1)OCO2)c1cn(Cc2ccccc2CN)nn1
REMARK SMILES IDX 16 1 17 2 18 3 28 4 29 5 4 7 2 8 1 9 3 10 5 11 6 14 7 15
REMARK SMILES IDX 8 16 12 17 9 18 11 19 10 20 13 21 15 22 14 23 19 24 20 25
REMARK SMILES IDX 21 26 25 27 22 28 24 29 23 30 26 31 27 32
REMARK H PARENT 17 6 5 12 5 13 27 33 27 34
ROOT
ATOM     1   C13 UNL     1      -1.199   1.000   0.904  1.00  0.00     0.127 A   
ATOM     2   C14 UNL     1      -1.125   0.701   2.245  1.00  0.00     0.046 A   
ATOM     3   N2  UNL     1      -1.906  -0.416   2.378  1.00  0.00    -0.208 N   
ATOM     4   N4  UNL     1      -2.497  -0.728   1.205  1.00  0.00    -0.076 NA  
ATOM     5   N5  UNL     1      -2.059   0.121   0.291  1.00  0.00    -0.132 NA  
ATOM     6   H18 UNL     1      -0.553   1.108   3.068  1.00  0.00     0.083 HD  
ENDROOT
BRANCH   1   7
ATOM     7   C4  UNL     1      -0.451   2.000   0.080  1.00  0.00     0.117 C   
BRANCH   7   8
ATOM     8   C2  UNL     1      -1.179   3.367   0.008  1.00  0.00     0.037 C   
ATOM     9   C1  UNL     1      -0.271   4.463  -0.563  1.00  0.00     0.014 C   
ATOM     10  C3  UNL     1      -2.499   3.334  -0.774  1.00  0.00     0.014 C   
ENDBRANCH   7   8
BRANCH   7  11
ATOM     11  N1  UNL     1      -0.213   1.453  -1.301  1.00  0.00     0.249 N   
ATOM     12  H9  UNL     1       0.032   2.186  -1.972  1.00  0.00     0.199 HD  
ATOM     13  H10 UNL     1      -1.108   1.053  -1.621  1.00  0.00     0.199 HD  
BRANCH  11  14
ATOM     14  C5  UNL     1       0.804   0.363  -1.383  1.00  0.00     0.164 C   
BRANCH  14  15
ATOM     15  C6  UNL     1       0.841  -0.206  -2.775  1.00  0.00    -0.002 A   
ATOM     16  C7  UNL     1      -0.070  -1.226  -3.144  1.00  0.00     0.012 A   
ATOM     17  C11 UNL     1       1.735   0.305  -3.730  1.00  0.00     0.045 A   
ATOM     18  C8  UNL     1      -0.083  -1.740  -4.445  1.00  0.00     0.037 A   
ATOM     19  C10 UNL     1       1.696  -0.226  -5.003  1.00  0.00     0.109 A   
ATOM     20  C9  UNL     1       0.813  -1.218  -5.351  1.00  0.00     0.108 A   
ATOM     21  O1  UNL     1       2.490   0.151  -6.040  1.00  0.00    -0.316 OA  
ATOM     22  O2  UNL     1       0.940  -1.593  -6.651  1.00  0.00    -0.316 OA  
ATOM     23  C12 UNL     1       2.020  -0.736  -7.080  1.00  0.00     0.337 C   
ENDBRANCH  14  15
ENDBRANCH  11  14
ENDBRANCH   7  11
ENDBRANCH   1   7
BRANCH   3  24
ATOM     24  C15 UNL     1      -2.030  -1.301   3.527  1.00  0.00     0.169 C   
BRANCH  24  25
ATOM     25  C16 UNL     1      -0.675  -1.834   3.945  1.00  0.00    -0.024 A   
ATOM     26  C17 UNL     1      -0.056  -1.256   5.073  1.00  0.00     0.006 A   
ATOM     27  C21 UNL     1       0.010  -2.845   3.227  1.00  0.00    -0.030 A   
ATOM     28  C18 UNL     1       1.221  -1.643   5.474  1.00  0.00     0.000 A   
ATOM     29  C20 UNL     1       1.309  -3.203   3.639  1.00  0.00     0.005 A   
ATOM     30  C19 UNL     1       1.908  -2.609   4.750  1.00  0.00     0.000 A   
BRANCH  27  31
ATOM     31  C22 UNL     1      -0.574  -3.582   2.041  1.00  0.00     0.113 C   
BRANCH  31  32
ATOM     32  N3  UNL     1      -0.352  -2.875   0.778  1.00  0.00    -0.326 NA  
ATOM     33  H27 UNL     1      -0.558  -3.532   0.025  1.00  0.00     0.119 HD  
ATOM     34  H28 UNL     1      -1.081  -2.159   0.695  1.00  0.00     0.119 HD  
ENDBRANCH  31  32
ENDBRANCH  27  31
ENDBRANCH  24  25
ENDBRANCH   3  24
TORSDOF 9
