REMARK SMILES CC(C)(C)[C@H]([NH2+]Cc1ccc2c(c1)OCO2)c1cn(CCc2cccnc2F)nn1
REMARK SMILES IDX 17 1 18 2 19 3 29 4 30 5 5 7 2 8 1 9 3 10 4 11 6 12 7 15
REMARK SMILES IDX 8 16 9 17 13 18 10 19 12 20 11 21 14 22 16 23 15 24 20 25
REMARK SMILES IDX 21 26 22 27 23 28 27 29 24 30 26 31 25 32 28 33
REMARK H PARENT 18 6 6 13 6 14
ROOT
ATOM     1   C14 UNL     1      -1.258  -0.415  -1.131  1.00  0.00     0.127 A   
ATOM     2   C15 UNL     1      -1.507   0.307  -2.279  1.00  0.00     0.045 A   
ATOM     3   N2  UNL     1      -2.625   1.030  -1.972  1.00  0.00    -0.212 N   
ATOM     4   N4  UNL     1      -3.080   0.720  -0.745  1.00  0.00    -0.076 NA  
ATOM     5   N5  UNL     1      -2.249  -0.161  -0.217  1.00  0.00    -0.132 NA  
ATOM     6   H20 UNL     1      -0.972   0.427  -3.211  1.00  0.00     0.083 HD  
ENDROOT
BRANCH   1   7
ATOM     7   C5  UNL     1      -0.092  -1.266  -0.725  1.00  0.00     0.120 C   
BRANCH   7   8
ATOM     8   C2  UNL     1      -0.291  -2.799  -0.980  1.00  0.00     0.010 C   
ATOM     9   C1  UNL     1      -1.421  -3.405  -0.124  1.00  0.00     0.017 C   
ATOM     10  C3  UNL     1      -0.620  -3.053  -2.469  1.00  0.00     0.017 C   
ATOM     11  C4  UNL     1       1.018  -3.565  -0.673  1.00  0.00     0.017 C   
ENDBRANCH   7   8
BRANCH   7  12
ATOM     12  N1  UNL     1       0.186  -1.004   0.744  1.00  0.00     0.250 N   
ATOM     13  H11 UNL     1      -0.739  -0.920   1.192  1.00  0.00     0.199 HD  
ATOM     14  H12 UNL     1       0.658  -1.792   1.190  1.00  0.00     0.199 HD  
BRANCH  12  15
ATOM     15  C6  UNL     1       0.936   0.252   1.053  1.00  0.00     0.164 C   
BRANCH  15  16
ATOM     16  C7  UNL     1       2.391   0.158   0.681  1.00  0.00    -0.002 A   
ATOM     17  C8  UNL     1       2.917   0.972  -0.350  1.00  0.00     0.012 A   
ATOM     18  C12 UNL     1       3.238  -0.749   1.343  1.00  0.00     0.045 A   
ATOM     19  C9  UNL     1       4.260   0.875  -0.731  1.00  0.00     0.037 A   
ATOM     20  C11 UNL     1       4.556  -0.821   0.941  1.00  0.00     0.109 A   
ATOM     21  C10 UNL     1       5.052  -0.034  -0.068  1.00  0.00     0.108 A   
ATOM     22  O1  UNL     1       5.497  -1.648   1.468  1.00  0.00    -0.316 OA  
ATOM     23  O2  UNL     1       6.370  -0.265  -0.304  1.00  0.00    -0.316 OA  
ATOM     24  C13 UNL     1       6.657  -1.269   0.693  1.00  0.00     0.337 C   
ENDBRANCH  15  16
ENDBRANCH  12  15
ENDBRANCH   7  12
ENDBRANCH   1   7
BRANCH   3  25
ATOM     25  C16 UNL     1      -3.216   2.128  -2.710  1.00  0.00     0.139 C   
BRANCH  25  26
ATOM     26  C17 UNL     1      -2.326   3.377  -2.760  1.00  0.00     0.061 C   
BRANCH  26  27
ATOM     27  C18 UNL     1      -1.932   3.897  -1.403  1.00  0.00     0.009 A   
ATOM     28  C19 UNL     1      -2.773   4.724  -0.658  1.00  0.00     0.010 A   
ATOM     29  C22 UNL     1      -0.728   3.518  -0.811  1.00  0.00     0.216 A   
ATOM     30  C20 UNL     1      -2.383   5.127   0.617  1.00  0.00     0.021 A   
ATOM     31  N3  UNL     1      -0.333   3.862   0.432  1.00  0.00    -0.228 NA  
ATOM     32  C21 UNL     1      -1.169   4.675   1.113  1.00  0.00     0.114 A   
ATOM     33  F1  UNL     1       0.100   2.709  -1.492  1.00  0.00    -0.185 F   
ENDBRANCH  26  27
ENDBRANCH  25  26
ENDBRANCH   3  25
TORSDOF 8
