REMARK SMILES COc1cc(F)cc(F)c1Cn1cc([C@@H]([NH2+]Cc2ccc3c(c2)OCO3)C2CCCCC2)nn1
REMARK SMILES IDX 12 1 13 2 14 3 33 4 34 5 11 7 10 8 3 9 4 10 5 11 8 12 7 13
REMARK SMILES IDX 6 14 9 15 2 16 1 17 15 18 16 19 17 22 18 23 19 24 23 25
REMARK SMILES IDX 20 26 22 27 21 28 24 29 26 30 25 31 27 32 28 33 32 34 29 35
REMARK SMILES IDX 31 36 30 37
REMARK H PARENT 13 6 16 20 16 21
ROOT
ATOM     1   N1  UNL     1       0.942   2.141   2.044  1.00  0.00    -0.208 N   
ATOM     2   C9  UNL     1       0.851   1.410   0.890  1.00  0.00     0.046 A   
ATOM     3   C10 UNL     1      -0.139   0.490   1.155  1.00  0.00     0.127 A   
ATOM     4   N3  UNL     1      -0.578   0.661   2.443  1.00  0.00    -0.132 NA  
ATOM     5   N4  UNL     1       0.105   1.656   2.982  1.00  0.00    -0.076 NA  
ATOM     6   H8  UNL     1       1.458   1.624   0.022  1.00  0.00     0.083 HD  
ENDROOT
BRANCH   1   7
ATOM     7   C8  UNL     1       1.823   3.259   2.337  1.00  0.00     0.175 C   
BRANCH   7   8
ATOM     8   C7  UNL     1       1.250   4.553   1.821  1.00  0.00     0.038 A   
ATOM     9   C2  UNL     1       1.522   5.025   0.524  1.00  0.00     0.085 A   
ATOM     10  C3  UNL     1       0.944   6.222   0.091  1.00  0.00     0.073 A   
ATOM     11  C4  UNL     1       0.110   6.939   0.946  1.00  0.00     0.128 A   
ATOM     12  C6  UNL     1       0.403   5.301   2.650  1.00  0.00     0.133 A   
ATOM     13  C5  UNL     1      -0.168   6.491   2.225  1.00  0.00     0.079 A   
ATOM     14  F1  UNL     1      -0.439   8.082   0.515  1.00  0.00    -0.207 F   
ATOM     15  F2  UNL     1       0.135   4.865   3.888  1.00  0.00    -0.206 F   
BRANCH   9  16
ATOM     16  O1  UNL     1       2.343   4.237  -0.241  1.00  0.00    -0.349 OA  
ATOM     17  C1  UNL     1       2.836   4.805  -1.453  1.00  0.00     0.203 C   
ENDBRANCH   9  16
ENDBRANCH   7   8
ENDBRANCH   1   7
BRANCH   3  18
ATOM     18  C11 UNL     1      -0.740  -0.590   0.313  1.00  0.00     0.117 C   
BRANCH  18  19
ATOM     19  N2  UNL     1      -1.399  -1.626   1.194  1.00  0.00     0.249 N   
ATOM     20  H10 UNL     1      -2.121  -2.143   0.688  1.00  0.00     0.199 HD  
ATOM     21  H11 UNL     1      -1.874  -1.099   1.941  1.00  0.00     0.199 HD  
BRANCH  19  22
ATOM     22  C12 UNL     1      -0.479  -2.594   1.861  1.00  0.00     0.164 C   
BRANCH  22  23
ATOM     23  C13 UNL     1       0.116  -3.582   0.895  1.00  0.00    -0.002 A   
ATOM     24  C14 UNL     1       1.492  -3.523   0.570  1.00  0.00     0.012 A   
ATOM     25  C18 UNL     1      -0.697  -4.555   0.287  1.00  0.00     0.045 A   
ATOM     26  C15 UNL     1       2.052  -4.410  -0.355  1.00  0.00     0.037 A   
ATOM     27  C17 UNL     1      -0.113  -5.413  -0.622  1.00  0.00     0.109 A   
ATOM     28  C16 UNL     1       1.221  -5.343  -0.936  1.00  0.00     0.108 A   
ATOM     29  O2  UNL     1      -0.755  -6.398  -1.302  1.00  0.00    -0.316 OA  
ATOM     30  O3  UNL     1       1.588  -6.275  -1.853  1.00  0.00    -0.316 OA  
ATOM     31  C19 UNL     1       0.338  -6.965  -2.061  1.00  0.00     0.337 C   
ENDBRANCH  22  23
ENDBRANCH  19  22
ENDBRANCH  18  19
BRANCH  18  32
ATOM     32  C20 UNL     1      -1.759  -0.030  -0.716  1.00  0.00     0.043 C   
ATOM     33  C21 UNL     1      -2.110  -1.076  -1.794  1.00  0.00     0.010 C   
ATOM     34  C25 UNL     1      -3.045   0.535  -0.081  1.00  0.00     0.010 C   
ATOM     35  C22 UNL     1      -3.059  -0.504  -2.845  1.00  0.00     0.001 C   
ATOM     36  C24 UNL     1      -3.993   1.101  -1.139  1.00  0.00     0.001 C   
ATOM     37  C23 UNL     1      -4.322   0.067  -2.211  1.00  0.00     0.000 C   
ENDBRANCH  18  32
ENDBRANCH   3  18
TORSDOF 8
