REMARK SMILES NCc1ccccc1Cn1cc([C@@H]([NH2+]Cc2ccc3c(c2)OCO3)C2CCCCC2)nn1
REMARK SMILES IDX 10 1 11 2 12 3 31 4 32 5 9 7 8 8 3 9 4 10 5 11 7 12 6 13
REMARK SMILES IDX 2 14 1 15 13 18 14 19 15 22 16 23 17 24 21 25 18 26 20 27
REMARK SMILES IDX 19 28 22 29 24 30 23 31 25 32 26 33 30 34 27 35 29 36 28 37
REMARK H PARENT 11 6 1 16 1 17 14 20 14 21
ROOT
ATOM     1   N2  UNL     1      -2.015  -1.894  -1.728  1.00  0.00    -0.208 N   
ATOM     2   C9  UNL     1      -1.081  -1.343  -0.891  1.00  0.00     0.046 A   
ATOM     3   C10 UNL     1      -1.293   0.014  -1.007  1.00  0.00     0.127 A   
ATOM     4   N4  UNL     1      -2.290   0.237  -1.927  1.00  0.00    -0.132 NA  
ATOM     5   N5  UNL     1      -2.711  -0.933  -2.372  1.00  0.00    -0.076 NA  
ATOM     6   H11 UNL     1      -0.424  -1.944  -0.279  1.00  0.00     0.083 HD  
ENDROOT
BRANCH   1   7
ATOM     7   C8  UNL     1      -2.343  -3.299  -1.921  1.00  0.00     0.169 C   
BRANCH   7   8
ATOM     8   C7  UNL     1      -2.891  -3.902  -0.645  1.00  0.00    -0.024 A   
ATOM     9   C2  UNL     1      -2.168  -4.802   0.172  1.00  0.00    -0.030 A   
ATOM     10  C3  UNL     1      -2.804  -5.313   1.323  1.00  0.00     0.005 A   
ATOM     11  C4  UNL     1      -4.091  -4.917   1.688  1.00  0.00     0.000 A   
ATOM     12  C6  UNL     1      -4.196  -3.517  -0.261  1.00  0.00     0.006 A   
ATOM     13  C5  UNL     1      -4.788  -4.014   0.897  1.00  0.00     0.000 A   
BRANCH   9  14
ATOM     14  C1  UNL     1      -0.783  -5.311  -0.178  1.00  0.00     0.113 C   
BRANCH  14  15
ATOM     15  N1  UNL     1       0.061  -5.517   0.993  1.00  0.00    -0.326 NA  
ATOM     16  H1  UNL     1       0.254  -4.627   1.446  1.00  0.00     0.119 HD  
ATOM     17  H2  UNL     1       0.958  -5.911   0.711  1.00  0.00     0.119 HD  
ENDBRANCH  14  15
ENDBRANCH   9  14
ENDBRANCH   7   8
ENDBRANCH   1   7
BRANCH   3  18
ATOM     18  C11 UNL     1      -0.664   1.186  -0.320  1.00  0.00     0.117 C   
BRANCH  18  19
ATOM     19  N3  UNL     1      -1.060   2.454  -1.040  1.00  0.00     0.249 N   
ATOM     20  H13 UNL     1      -1.140   3.253  -0.404  1.00  0.00     0.199 HD  
ATOM     21  H14 UNL     1      -2.010   2.279  -1.404  1.00  0.00     0.199 HD  
BRANCH  19  22
ATOM     22  C12 UNL     1      -0.203   2.829  -2.200  1.00  0.00     0.164 C   
BRANCH  22  23
ATOM     23  C13 UNL     1       0.975   3.658  -1.768  1.00  0.00    -0.002 A   
ATOM     24  C14 UNL     1       0.831   5.057  -1.597  1.00  0.00     0.012 A   
ATOM     25  C18 UNL     1       2.208   3.050  -1.477  1.00  0.00     0.045 A   
ATOM     26  C15 UNL     1       1.898   5.838  -1.141  1.00  0.00     0.037 A   
ATOM     27  C17 UNL     1       3.236   3.848  -1.022  1.00  0.00     0.109 A   
ATOM     28  C16 UNL     1       3.087   5.203  -0.859  1.00  0.00     0.108 A   
ATOM     29  O1  UNL     1       4.478   3.416  -0.678  1.00  0.00    -0.316 OA  
ATOM     30  O2  UNL     1       4.220   5.796  -0.401  1.00  0.00    -0.316 OA  
ATOM     31  C19 UNL     1       5.117   4.668  -0.341  1.00  0.00     0.337 C   
ENDBRANCH  22  23
ENDBRANCH  19  22
ENDBRANCH  18  19
BRANCH  18  32
ATOM     32  C20 UNL     1      -1.037   1.270   1.183  1.00  0.00     0.043 C   
ATOM     33  C21 UNL     1      -2.533   1.524   1.444  1.00  0.00     0.010 C   
ATOM     34  C25 UNL     1      -0.178   2.313   1.926  1.00  0.00     0.010 C   
ATOM     35  C22 UNL     1      -2.844   1.561   2.941  1.00  0.00     0.001 C   
ATOM     36  C24 UNL     1      -0.498   2.348   3.419  1.00  0.00     0.001 C   
ATOM     37  C23 UNL     1      -1.983   2.586   3.670  1.00  0.00     0.000 C   
ENDBRANCH  18  32
ENDBRANCH   3  18
TORSDOF 9
