REMARK SMILES CC(C)(C)[C@H]([NH2+]Cc1ccc2c(c1)OCO2)c1cn([C@H](CO)c2ccc(O)cc2)nn1
REMARK SMILES IDX 17 1 18 2 19 3 30 4 31 5 5 7 2 8 1 9 3 10 4 11 6 12 7 15
REMARK SMILES IDX 8 16 9 17 13 18 10 19 12 20 11 21 14 22 16 23 15 24 20 25
REMARK SMILES IDX 21 26 22 27 23 29 24 30 29 31 25 32 28 33 26 34 27 35
REMARK H PARENT 18 6 6 13 6 14 22 28 27 36
ROOT
ATOM     1   C14 UNL     1       0.734  -0.701   0.609  1.00  0.00     0.127 A   
ATOM     2   C15 UNL     1       1.446   0.336   0.051  1.00  0.00     0.046 A   
ATOM     3   N2  UNL     1       2.373  -0.279  -0.744  1.00  0.00    -0.202 N   
ATOM     4   N3  UNL     1       2.221  -1.620  -0.695  1.00  0.00    -0.075 NA  
ATOM     5   N4  UNL     1       1.220  -1.888   0.127  1.00  0.00    -0.132 NA  
ATOM     6   H20 UNL     1       1.378   1.411   0.133  1.00  0.00     0.083 HD  
ENDROOT
BRANCH   1   7
ATOM     7   C5  UNL     1      -0.461  -0.687   1.508  1.00  0.00     0.120 C   
BRANCH   7   8
ATOM     8   C2  UNL     1      -0.129  -0.980   3.017  1.00  0.00     0.010 C   
ATOM     9   C1  UNL     1      -1.390  -0.780   3.889  1.00  0.00     0.017 C   
ATOM     10  C3  UNL     1       0.398  -2.410   3.258  1.00  0.00     0.017 C   
ATOM     11  C4  UNL     1       0.936   0.021   3.528  1.00  0.00     0.017 C   
ENDBRANCH   7   8
BRANCH   7  12
ATOM     12  N1  UNL     1      -1.490  -1.673   0.986  1.00  0.00     0.250 N   
ATOM     13  H11 UNL     1      -1.010  -2.580   0.904  1.00  0.00     0.199 HD  
ATOM     14  H12 UNL     1      -2.256  -1.787   1.652  1.00  0.00     0.199 HD  
BRANCH  12  15
ATOM     15  C6  UNL     1      -2.069  -1.378  -0.366  1.00  0.00     0.164 C   
BRANCH  15  16
ATOM     16  C7  UNL     1      -2.751  -0.041  -0.451  1.00  0.00    -0.002 A   
ATOM     17  C8  UNL     1      -2.209   0.978  -1.273  1.00  0.00     0.012 A   
ATOM     18  C12 UNL     1      -3.908   0.222   0.301  1.00  0.00     0.045 A   
ATOM     19  C9  UNL     1      -2.802   2.245  -1.336  1.00  0.00     0.037 A   
ATOM     20  C11 UNL     1      -4.462   1.484   0.223  1.00  0.00     0.109 A   
ATOM     21  C10 UNL     1      -3.923   2.469  -0.569  1.00  0.00     0.108 A   
ATOM     22  O1  UNL     1      -5.559   1.905   0.903  1.00  0.00    -0.316 OA  
ATOM     23  O2  UNL     1      -4.614   3.636  -0.488  1.00  0.00    -0.316 OA  
ATOM     24  C13 UNL     1      -5.650   3.277   0.452  1.00  0.00     0.337 C   
ENDBRANCH  15  16
ENDBRANCH  12  15
ENDBRANCH   7  12
ENDBRANCH   1   7
BRANCH   3  25
ATOM     25  C16 UNL     1       3.360   0.322  -1.640  1.00  0.00     0.155 C   
BRANCH  25  26
ATOM     26  C17 UNL     1       4.440   1.113  -0.872  1.00  0.00     0.185 C   
BRANCH  26  27
ATOM     27  O3  UNL     1       3.914   2.176  -0.073  1.00  0.00    -0.394 OA  
ATOM     28  H24 UNL     1       4.676   2.621   0.342  1.00  0.00     0.210 HD  
ENDBRANCH  26  27
ENDBRANCH  25  26
BRANCH  25  29
ATOM     29  C18 UNL     1       2.652   1.033  -2.791  1.00  0.00    -0.023 A   
ATOM     30  C19 UNL     1       2.348   2.406  -2.778  1.00  0.00     0.008 A   
ATOM     31  C23 UNL     1       2.252   0.273  -3.909  1.00  0.00     0.008 A   
ATOM     32  C20 UNL     1       1.682   3.005  -3.857  1.00  0.00     0.033 A   
ATOM     33  C22 UNL     1       1.586   0.869  -4.982  1.00  0.00     0.033 A   
ATOM     34  C21 UNL     1       1.306   2.229  -4.949  1.00  0.00     0.071 A   
BRANCH  34  35
ATOM     35  O4  UNL     1       0.655   2.764  -6.020  1.00  0.00    -0.361 OA  
ATOM     36  H27 UNL     1       0.552   3.720  -5.887  1.00  0.00     0.218 HD  
ENDBRANCH  34  35
ENDBRANCH  25  29
ENDBRANCH   3  25
TORSDOF 10
