REMARK SMILES CC(C)(C)[C@H]([NH2+]Cc1ccc2c(c1)OCO2)c1cn(CCc2cnc3ccccc3n2)nn1
REMARK SMILES IDX 17 1 18 2 19 3 32 4 33 5 5 7 2 8 1 9 3 10 4 11 6 12 7 15
REMARK SMILES IDX 8 16 9 17 13 18 10 19 12 20 11 21 14 22 16 23 15 24 20 25
REMARK SMILES IDX 21 26 22 27 23 28 31 29 24 30 30 31 25 32 29 33 26 34 28 35
REMARK SMILES IDX 27 36
REMARK H PARENT 18 6 6 13 6 14
ROOT
ATOM     1   C14 UNL     1       0.425   0.167  -2.287  1.00  0.00     0.127 A   
ATOM     2   C15 UNL     1       1.511  -0.561  -2.720  1.00  0.00     0.045 A   
ATOM     3   N2  UNL     1       2.535   0.344  -2.723  1.00  0.00    -0.212 N   
ATOM     4   N5  UNL     1       2.103   1.562  -2.346  1.00  0.00    -0.076 NA  
ATOM     5   N6  UNL     1       0.812   1.466  -2.074  1.00  0.00    -0.132 NA  
ATOM     6   H20 UNL     1       1.664  -1.607  -2.949  1.00  0.00     0.083 HD  
ENDROOT
BRANCH   1   7
ATOM     7   C5  UNL     1      -0.959  -0.271  -1.917  1.00  0.00     0.120 C   
BRANCH   7   8
ATOM     8   C2  UNL     1      -2.040   0.011  -3.017  1.00  0.00     0.010 C   
ATOM     9   C1  UNL     1      -1.620  -0.645  -4.353  1.00  0.00     0.017 C   
ATOM     10  C3  UNL     1      -3.394  -0.618  -2.613  1.00  0.00     0.017 C   
ATOM     11  C4  UNL     1      -2.265   1.516  -3.266  1.00  0.00     0.017 C   
ENDBRANCH   7   8
BRANCH   7  12
ATOM     12  N1  UNL     1      -1.349   0.376  -0.608  1.00  0.00     0.250 N   
ATOM     13  H11 UNL     1      -1.180   1.387  -0.707  1.00  0.00     0.199 HD  
ATOM     14  H12 UNL     1      -2.344   0.264  -0.404  1.00  0.00     0.199 HD  
BRANCH  12  15
ATOM     15  C6  UNL     1      -0.567  -0.076   0.582  1.00  0.00     0.164 C   
BRANCH  15  16
ATOM     16  C7  UNL     1      -1.112   0.548   1.835  1.00  0.00    -0.002 A   
ATOM     17  C8  UNL     1      -2.092  -0.124   2.604  1.00  0.00     0.012 A   
ATOM     18  C12 UNL     1      -0.684   1.829   2.224  1.00  0.00     0.045 A   
ATOM     19  C9  UNL     1      -2.632   0.466   3.752  1.00  0.00     0.037 A   
ATOM     20  C11 UNL     1      -1.238   2.383   3.359  1.00  0.00     0.109 A   
ATOM     21  C10 UNL     1      -2.184   1.720   4.102  1.00  0.00     0.108 A   
ATOM     22  O1  UNL     1      -0.937   3.605   3.870  1.00  0.00    -0.316 OA  
ATOM     23  O2  UNL     1      -2.597   2.441   5.177  1.00  0.00    -0.316 OA  
ATOM     24  C13 UNL     1      -1.784   3.628   5.042  1.00  0.00     0.337 C   
ENDBRANCH  15  16
ENDBRANCH  12  15
ENDBRANCH   7  12
ENDBRANCH   1   7
BRANCH   3  25
ATOM     25  C16 UNL     1       3.953   0.074  -2.858  1.00  0.00     0.140 C   
BRANCH  25  26
ATOM     26  C17 UNL     1       4.708   0.226  -1.535  1.00  0.00     0.079 C   
BRANCH  26  27
ATOM     27  C18 UNL     1       4.067  -0.580  -0.436  1.00  0.00     0.061 A   
ATOM     28  C19 UNL     1       3.462   0.037   0.648  1.00  0.00     0.135 A   
ATOM     29  N4  UNL     1       4.011  -1.924  -0.595  1.00  0.00    -0.250 NA  
ATOM     30  N3  UNL     1       2.773  -0.650   1.588  1.00  0.00    -0.253 NA  
ATOM     31  C25 UNL     1       3.389  -2.633   0.368  1.00  0.00     0.089 A   
ATOM     32  C20 UNL     1       2.766  -1.991   1.467  1.00  0.00     0.089 A   
ATOM     33  C24 UNL     1       3.335  -4.018   0.279  1.00  0.00     0.030 A   
ATOM     34  C21 UNL     1       2.124  -2.763   2.427  1.00  0.00     0.030 A   
ATOM     35  C23 UNL     1       2.687  -4.784   1.249  1.00  0.00     0.002 A   
ATOM     36  C22 UNL     1       2.080  -4.154   2.328  1.00  0.00     0.002 A   
ENDBRANCH  26  27
ENDBRANCH  25  26
ENDBRANCH   3  25
TORSDOF 8
