REMARK SMILES CC(C)[C@H]([NH2+]Cc1ccc2c(c1)OCO2)c1cn(Cc2cccc(F)c2F)nn1
REMARK SMILES IDX 16 1 17 2 18 3 28 4 29 5 4 7 2 8 1 9 3 10 5 11 6 14 7 15
REMARK SMILES IDX 8 16 12 17 9 18 11 19 10 20 13 21 15 22 14 23 19 24 20 25
REMARK SMILES IDX 21 26 26 27 22 28 24 29 23 30 27 31 25 32
REMARK H PARENT 17 6 5 12 5 13
ROOT
ATOM     1   C13 UNL     1      -0.056  -0.871  -0.903  1.00  0.00     0.127 A   
ATOM     2   C14 UNL     1       0.915   0.067  -0.631  1.00  0.00     0.046 A   
ATOM     3   N2  UNL     1       0.502   1.177  -1.313  1.00  0.00    -0.208 N   
ATOM     4   N3  UNL     1      -0.657   0.941  -1.961  1.00  0.00    -0.076 NA  
ATOM     5   N4  UNL     1      -1.008  -0.310  -1.718  1.00  0.00    -0.132 NA  
ATOM     6   H18 UNL     1       1.813   0.058  -0.028  1.00  0.00     0.083 HD  
ENDROOT
BRANCH   1   7
ATOM     7   C4  UNL     1      -0.258  -2.269  -0.408  1.00  0.00     0.117 C   
BRANCH   7   8
ATOM     8   C2  UNL     1       0.242  -3.352  -1.400  1.00  0.00     0.037 C   
ATOM     9   C1  UNL     1       0.085  -4.768  -0.823  1.00  0.00     0.014 C   
ATOM     10  C3  UNL     1       1.719  -3.151  -1.770  1.00  0.00     0.014 C   
ENDBRANCH   7   8
BRANCH   7  11
ATOM     11  N1  UNL     1      -1.748  -2.458  -0.174  1.00  0.00     0.249 N   
ATOM     12  H9  UNL     1      -2.094  -3.308  -0.628  1.00  0.00     0.199 HD  
ATOM     13  H10 UNL     1      -2.210  -1.689  -0.688  1.00  0.00     0.199 HD  
BRANCH  11  14
ATOM     14  C5  UNL     1      -2.208  -2.415   1.240  1.00  0.00     0.164 C   
BRANCH  14  15
ATOM     15  C6  UNL     1      -1.902  -1.123   1.945  1.00  0.00    -0.002 A   
ATOM     16  C7  UNL     1      -2.533   0.082   1.551  1.00  0.00     0.012 A   
ATOM     17  C11 UNL     1      -0.969  -1.100   2.996  1.00  0.00     0.045 A   
ATOM     18  C8  UNL     1      -2.237   1.292   2.189  1.00  0.00     0.037 A   
ATOM     19  C10 UNL     1      -0.703   0.109   3.605  1.00  0.00     0.109 A   
ATOM     20  C9  UNL     1      -1.320   1.271   3.215  1.00  0.00     0.108 A   
ATOM     21  O1  UNL     1       0.168   0.300   4.630  1.00  0.00    -0.316 OA  
ATOM     22  O2  UNL     1      -0.923   2.340   3.952  1.00  0.00    -0.316 OA  
ATOM     23  C12 UNL     1       0.014   1.720   4.859  1.00  0.00     0.337 C   
ENDBRANCH  14  15
ENDBRANCH  11  14
ENDBRANCH   7  11
ENDBRANCH   1   7
BRANCH   3  24
ATOM     24  C15 UNL     1       1.159   2.468  -1.415  1.00  0.00     0.172 C   
BRANCH  24  25
ATOM     25  C16 UNL     1       0.745   3.381  -0.297  1.00  0.00     0.010 A   
ATOM     26  C17 UNL     1      -0.318   4.285  -0.448  1.00  0.00     0.009 A   
ATOM     27  C21 UNL     1       1.410   3.331   0.932  1.00  0.00     0.163 A   
ATOM     28  C18 UNL     1      -0.689   5.127   0.606  1.00  0.00     0.004 A   
ATOM     29  C20 UNL     1       1.043   4.172   1.976  1.00  0.00     0.159 A   
ATOM     30  C19 UNL     1      -0.004   5.072   1.821  1.00  0.00     0.042 A   
ATOM     31  F2  UNL     1       2.411   2.454   1.104  1.00  0.00    -0.203 F   
ATOM     32  F1  UNL     1       1.695   4.112   3.145  1.00  0.00    -0.204 F   
ENDBRANCH  24  25
ENDBRANCH   3  24
TORSDOF 7
