REMARK SMILES OC[C@H](c1ccc(O)cc1)n1cc([C@@H]([NH2+]Cc2ccc3c(c2)OCO3)C2CCCCC2)nn1
REMARK SMILES IDX 11 1 12 2 13 3 32 4 33 5 3 7 2 8 1 9 4 11 5 12 10 13 6 14
REMARK SMILES IDX 9 15 7 16 8 17 14 19 15 20 16 23 17 24 18 25 22 26 19 27
REMARK SMILES IDX 21 28 20 29 23 30 25 31 24 32 26 33 27 34 31 35 28 36 30 37
REMARK SMILES IDX 29 38
REMARK H PARENT 12 6 1 10 8 18 15 21 15 22
ROOT
ATOM     1   N1  UNL     1       1.277   1.312   1.375  1.00  0.00    -0.202 N   
ATOM     2   C9  UNL     1       1.137   0.864   0.088  1.00  0.00     0.046 A   
ATOM     3   C10 UNL     1       0.912  -0.489   0.224  1.00  0.00     0.127 A   
ATOM     4   N3  UNL     1       0.889  -0.807   1.554  1.00  0.00    -0.132 NA  
ATOM     5   N4  UNL     1       1.106   0.300   2.248  1.00  0.00    -0.075 NA  
ATOM     6   H10 UNL     1       1.203   1.531  -0.760  1.00  0.00     0.083 HD  
ENDROOT
BRANCH   1   7
ATOM     7   C2  UNL     1       1.511   2.674   1.856  1.00  0.00     0.155 C   
BRANCH   7   8
ATOM     8   C1  UNL     1       0.181   3.448   1.972  1.00  0.00     0.185 C   
BRANCH   8   9
ATOM     9   O1  UNL     1      -0.572   3.464   0.754  1.00  0.00    -0.394 OA  
ATOM     10  H1  UNL     1      -1.317   4.078   0.898  1.00  0.00     0.210 HD  
ENDBRANCH   8   9
ENDBRANCH   7   8
BRANCH   7  11
ATOM     11  C3  UNL     1       2.637   3.340   1.069  1.00  0.00    -0.023 A   
ATOM     12  C4  UNL     1       2.406   4.275   0.049  1.00  0.00     0.008 A   
ATOM     13  C8  UNL     1       3.970   2.983   1.356  1.00  0.00     0.008 A   
ATOM     14  C5  UNL     1       3.471   4.837  -0.658  1.00  0.00     0.033 A   
ATOM     15  C7  UNL     1       5.036   3.547   0.651  1.00  0.00     0.033 A   
ATOM     16  C6  UNL     1       4.775   4.470  -0.352  1.00  0.00     0.071 A   
BRANCH  16  17
ATOM     17  O2  UNL     1       5.777   5.045  -1.071  1.00  0.00    -0.361 OA  
ATOM     18  H7  UNL     1       6.634   4.751  -0.718  1.00  0.00     0.218 HD  
ENDBRANCH  16  17
ENDBRANCH   7  11
ENDBRANCH   1   7
BRANCH   3  19
ATOM     19  C11 UNL     1       0.598  -1.534  -0.800  1.00  0.00     0.117 C   
BRANCH  19  20
ATOM     20  N2  UNL     1      -0.821  -1.343  -1.282  1.00  0.00     0.249 N   
ATOM     21  H12 UNL     1      -1.040  -1.987  -2.046  1.00  0.00     0.199 HD  
ATOM     22  H13 UNL     1      -0.919  -0.393  -1.661  1.00  0.00     0.199 HD  
BRANCH  20  23
ATOM     23  C12 UNL     1      -1.869  -1.535  -0.231  1.00  0.00     0.164 C   
BRANCH  23  24
ATOM     24  C13 UNL     1      -3.236  -1.345  -0.826  1.00  0.00    -0.002 A   
ATOM     25  C14 UNL     1      -3.925  -2.437  -1.404  1.00  0.00     0.012 A   
ATOM     26  C18 UNL     1      -3.814  -0.064  -0.857  1.00  0.00     0.045 A   
ATOM     27  C15 UNL     1      -5.180  -2.259  -1.998  1.00  0.00     0.037 A   
ATOM     28  C17 UNL     1      -5.053   0.076  -1.448  1.00  0.00     0.109 A   
ATOM     29  C16 UNL     1      -5.716  -0.990  -2.003  1.00  0.00     0.108 A   
ATOM     30  O3  UNL     1      -5.750   1.237  -1.559  1.00  0.00    -0.316 OA  
ATOM     31  O4  UNL     1      -6.915  -0.634  -2.532  1.00  0.00    -0.316 OA  
ATOM     32  C19 UNL     1      -6.949   0.774  -2.221  1.00  0.00     0.337 C   
ENDBRANCH  23  24
ENDBRANCH  20  23
ENDBRANCH  19  20
BRANCH  19  33
ATOM     33  C20 UNL     1       1.579  -1.513  -2.013  1.00  0.00     0.043 C   
ATOM     34  C21 UNL     1       1.255  -2.544  -3.116  1.00  0.00     0.010 C   
ATOM     35  C25 UNL     1       3.046  -1.736  -1.575  1.00  0.00     0.010 C   
ATOM     36  C22 UNL     1       1.486  -3.984  -2.664  1.00  0.00     0.001 C   
ATOM     37  C24 UNL     1       3.314  -3.167  -1.111  1.00  0.00     0.001 C   
ATOM     38  C23 UNL     1       2.915  -4.191  -2.169  1.00  0.00     0.000 C   
ENDBRANCH  19  33
ENDBRANCH   3  19
TORSDOF 10
