REMARK SMILES OC[C@@H](c1ccc(O)cc1)n1cc([C@@H]([NH2+]Cc2ccc3c(c2)OCO3)C2CCCCC2)nn1
REMARK SMILES IDX 11 1 12 2 13 3 32 4 33 5 3 7 2 8 1 9 4 11 5 12 10 13 6 14
REMARK SMILES IDX 9 15 7 16 8 17 14 19 15 20 16 23 17 24 18 25 22 26 19 27
REMARK SMILES IDX 21 28 20 29 23 30 25 31 24 32 26 33 27 34 31 35 28 36 30 37
REMARK SMILES IDX 29 38
REMARK H PARENT 12 6 1 10 8 18 15 21 15 22
ROOT
ATOM     1   N1  UNL     1       0.845   0.517  -2.641  1.00  0.00    -0.202 N   
ATOM     2   C9  UNL     1       0.192   0.164  -1.485  1.00  0.00     0.046 A   
ATOM     3   C10 UNL     1       1.130   0.348  -0.496  1.00  0.00     0.127 A   
ATOM     4   N3  UNL     1       2.296   0.803  -1.060  1.00  0.00    -0.132 NA  
ATOM     5   N4  UNL     1       2.112   0.896  -2.365  1.00  0.00    -0.075 NA  
ATOM     6   H10 UNL     1      -0.832  -0.179  -1.474  1.00  0.00     0.083 HD  
ENDROOT
BRANCH   1   7
ATOM     7   C2  UNL     1       0.358   0.556  -4.021  1.00  0.00     0.155 C   
BRANCH   7   8
ATOM     8   C1  UNL     1      -0.782  -0.441  -4.320  1.00  0.00     0.185 C   
BRANCH   8   9
ATOM     9   O1  UNL     1      -0.354  -1.789  -4.112  1.00  0.00    -0.394 OA  
ATOM     10  H1  UNL     1      -1.046  -2.372  -4.480  1.00  0.00     0.210 HD  
ENDBRANCH   8   9
ENDBRANCH   7   8
BRANCH   7  11
ATOM     11  C3  UNL     1      -0.028   1.986  -4.391  1.00  0.00    -0.023 A   
ATOM     12  C4  UNL     1      -1.170   2.608  -3.850  1.00  0.00     0.008 A   
ATOM     13  C8  UNL     1       0.773   2.715  -5.288  1.00  0.00     0.008 A   
ATOM     14  C5  UNL     1      -1.501   3.917  -4.210  1.00  0.00     0.033 A   
ATOM     15  C7  UNL     1       0.442   4.029  -5.641  1.00  0.00     0.033 A   
ATOM     16  C6  UNL     1      -0.695   4.615  -5.101  1.00  0.00     0.071 A   
BRANCH  16  17
ATOM     17  O2  UNL     1      -1.061   5.888  -5.420  1.00  0.00    -0.361 OA  
ATOM     18  H7  UNL     1      -0.383   6.282  -5.997  1.00  0.00     0.218 HD  
ENDBRANCH  16  17
ENDBRANCH   7  11
ENDBRANCH   1   7
BRANCH   3  19
ATOM     19  C11 UNL     1       1.073   0.120   0.982  1.00  0.00     0.117 C   
BRANCH  19  20
ATOM     20  N2  UNL     1       2.472   0.142   1.556  1.00  0.00     0.249 N   
ATOM     21  H12 UNL     1       2.977   0.871   1.029  1.00  0.00     0.199 HD  
ATOM     22  H13 UNL     1       2.473   0.429   2.537  1.00  0.00     0.199 HD  
BRANCH  20  23
ATOM     23  C12 UNL     1       3.252  -1.123   1.408  1.00  0.00     0.164 C   
BRANCH  23  24
ATOM     24  C13 UNL     1       2.799  -2.192   2.368  1.00  0.00    -0.002 A   
ATOM     25  C14 UNL     1       3.081  -2.077   3.752  1.00  0.00     0.012 A   
ATOM     26  C18 UNL     1       2.071  -3.303   1.901  1.00  0.00     0.045 A   
ATOM     27  C15 UNL     1       2.641  -3.047   4.660  1.00  0.00     0.037 A   
ATOM     28  C17 UNL     1       1.655  -4.241   2.824  1.00  0.00     0.109 A   
ATOM     29  C16 UNL     1       1.931  -4.117   4.163  1.00  0.00     0.108 A   
ATOM     30  O3  UNL     1       0.944  -5.365   2.542  1.00  0.00    -0.316 OA  
ATOM     31  O4  UNL     1       1.433  -5.150   4.894  1.00  0.00    -0.316 OA  
ATOM     32  C19 UNL     1       0.842  -5.963   3.857  1.00  0.00     0.337 C   
ENDBRANCH  23  24
ENDBRANCH  20  23
ENDBRANCH  19  20
BRANCH  19  33
ATOM     33  C20 UNL     1       0.172   1.157   1.708  1.00  0.00     0.043 C   
ATOM     34  C21 UNL     1       0.733   2.594   1.687  1.00  0.00     0.010 C   
ATOM     35  C25 UNL     1      -0.144   0.721   3.155  1.00  0.00     0.010 C   
ATOM     36  C22 UNL     1      -0.210   3.574   2.387  1.00  0.00     0.001 C   
ATOM     37  C24 UNL     1      -1.080   1.710   3.850  1.00  0.00     0.001 C   
ATOM     38  C23 UNL     1      -0.527   3.134   3.813  1.00  0.00     0.000 C   
ENDBRANCH  19  33
ENDBRANCH   3  19
TORSDOF 10
