REMARK SMILES Clc1ccc(CCn2cc([C@@H]([NH2+]Cc3ccc4c(c3)OCO4)C3CCCC3)nn2)nc1
REMARK SMILES IDX 8 1 9 2 10 3 28 4 29 5 7 7 6 8 5 9 2 10 3 11 31 12 4 13
REMARK SMILES IDX 30 14 1 15 11 16 12 17 13 20 14 21 15 22 19 23 16 24 18 25
REMARK SMILES IDX 17 26 20 27 22 28 21 29 23 30 24 31 27 32 25 33 26 34
REMARK H PARENT 9 6 12 18 12 19
ROOT
ATOM     1   N1  UNL     1      -0.173   2.981   0.208  1.00  0.00    -0.212 N   
ATOM     2   C7  UNL     1       0.647   1.897   0.075  1.00  0.00     0.045 A   
ATOM     3   C8  UNL     1      -0.141   0.954  -0.548  1.00  0.00     0.127 A   
ATOM     4   N3  UNL     1      -1.382   1.490  -0.777  1.00  0.00    -0.132 NA  
ATOM     5   N4  UNL     1      -1.393   2.725  -0.302  1.00  0.00    -0.076 NA  
ATOM     6   H7  UNL     1       1.669   1.901   0.428  1.00  0.00     0.083 HD  
ENDROOT
BRANCH   1   7
ATOM     7   C6  UNL     1       0.138   4.286   0.754  1.00  0.00     0.140 C   
BRANCH   7   8
ATOM     8   C5  UNL     1      -0.420   4.497   2.160  1.00  0.00     0.077 C   
BRANCH   8   9
ATOM     9   C4  UNL     1       0.273   3.702   3.241  1.00  0.00     0.042 A   
ATOM     10  C1  UNL     1       1.599   2.359   5.248  1.00  0.00     0.059 A   
ATOM     11  C2  UNL     1       0.358   2.918   5.516  1.00  0.00     0.024 A   
ATOM     12  C23 UNL     1       2.119   2.506   3.973  1.00  0.00     0.131 A   
ATOM     13  C3  UNL     1      -0.313   3.605   4.504  1.00  0.00     0.025 A   
ATOM     14  N5  UNL     1       1.481   3.155   2.963  1.00  0.00    -0.260 NA  
ATOM     15  CL1 UNL     1       2.464   1.509   6.462  1.00  0.00    -0.083 Cl  
ENDBRANCH   8   9
ENDBRANCH   7   8
ENDBRANCH   1   7
BRANCH   3  16
ATOM     16  C9  UNL     1       0.146  -0.454  -0.963  1.00  0.00     0.117 C   
BRANCH  16  17
ATOM     17  N2  UNL     1      -1.144  -1.224  -1.106  1.00  0.00     0.249 N   
ATOM     18  H9  UNL     1      -1.791  -0.597  -1.606  1.00  0.00     0.199 HD  
ATOM     19  H10 UNL     1      -1.022  -2.056  -1.686  1.00  0.00     0.199 HD  
BRANCH  17  20
ATOM     20  C10 UNL     1      -1.819  -1.608   0.169  1.00  0.00     0.164 C   
BRANCH  20  21
ATOM     21  C11 UNL     1      -1.087  -2.684   0.922  1.00  0.00    -0.002 A   
ATOM     22  C12 UNL     1      -0.484  -2.395   2.174  1.00  0.00     0.012 A   
ATOM     23  C16 UNL     1      -0.990  -3.982   0.391  1.00  0.00     0.045 A   
ATOM     24  C13 UNL     1       0.204  -3.383   2.887  1.00  0.00     0.037 A   
ATOM     25  C15 UNL     1      -0.302  -4.932   1.120  1.00  0.00     0.109 A   
ATOM     26  C14 UNL     1       0.276  -4.643   2.331  1.00  0.00     0.108 A   
ATOM     27  O1  UNL     1      -0.120  -6.226   0.754  1.00  0.00    -0.316 OA  
ATOM     28  O2  UNL     1       0.894  -5.721   2.882  1.00  0.00    -0.316 OA  
ATOM     29  C17 UNL     1       0.595  -6.738   1.902  1.00  0.00     0.337 C   
ENDBRANCH  20  21
ENDBRANCH  17  20
ENDBRANCH  16  17
BRANCH  16  30
ATOM     30  C18 UNL     1       0.956  -0.498  -2.273  1.00  0.00     0.043 C   
ATOM     31  C19 UNL     1       0.220  -0.073  -3.543  1.00  0.00     0.010 C   
ATOM     32  C22 UNL     1       1.488  -1.880  -2.660  1.00  0.00     0.010 C   
ATOM     33  C20 UNL     1       1.151  -0.521  -4.664  1.00  0.00     0.001 C   
ATOM     34  C21 UNL     1       1.924  -1.721  -4.116  1.00  0.00     0.001 C   
ENDBRANCH  16  30
ENDBRANCH   3  16
TORSDOF 8
