REMARK SMILES Cc1nn2cc[nH]c2c1Cn1cc([C@@H]([NH2+]Cc2ccc3c(c2)OCO3)C2CCCCC2)nn1
REMARK SMILES IDX 11 1 12 2 13 3 32 4 33 5 10 7 9 8 2 9 3 10 4 11 8 12 5 13
REMARK SMILES IDX 7 14 6 15 1 16 14 18 15 19 16 22 17 23 18 24 22 25 19 26
REMARK SMILES IDX 21 27 20 28 23 29 25 30 24 31 26 32 27 33 31 34 28 35 30 36
REMARK SMILES IDX 29 37
REMARK H PARENT 12 6 7 17 15 20 15 21
ROOT
ATOM     1   N4  UNL     1      -1.833  -0.870  -3.252  1.00  0.00    -0.208 N   
ATOM     2   C8  UNL     1      -0.949  -1.250  -2.277  1.00  0.00     0.046 A   
ATOM     3   C9  UNL     1      -0.183  -0.125  -2.064  1.00  0.00     0.127 A   
ATOM     4   N6  UNL     1      -0.559   0.847  -2.959  1.00  0.00    -0.132 NA  
ATOM     5   N7  UNL     1      -1.561   0.377  -3.683  1.00  0.00    -0.076 NA  
ATOM     6   H9  UNL     1      -0.989  -2.226  -1.812  1.00  0.00     0.083 HD  
ENDROOT
BRANCH   1   7
ATOM     7   C7  UNL     1      -2.962  -1.616  -3.786  1.00  0.00     0.175 C   
BRANCH   7   8
ATOM     8   C6  UNL     1      -3.943  -1.896  -2.712  1.00  0.00     0.032 A   
ATOM     9   C2  UNL     1      -4.796  -0.975  -2.010  1.00  0.00     0.064 A   
ATOM     10  N1  UNL     1      -5.529  -1.567  -1.049  1.00  0.00    -0.180 NA  
ATOM     11  N2  UNL     1      -5.197  -2.860  -1.147  1.00  0.00    -0.185 N   
ATOM     12  C5  UNL     1      -4.240  -3.085  -2.113  1.00  0.00     0.120 A   
ATOM     13  C3  UNL     1      -5.549  -4.069  -0.570  1.00  0.00     0.118 A   
ATOM     14  N3  UNL     1      -3.965  -4.413  -2.117  1.00  0.00    -0.306 N   
ATOM     15  C4  UNL     1      -4.810  -5.016  -1.184  1.00  0.00     0.091 A   
ATOM     16  C1  UNL     1      -4.914   0.494  -2.216  1.00  0.00     0.069 C   
ATOM     17  H6  UNL     1      -3.573  -4.968  -2.871  1.00  0.00     0.154 HD  
ENDBRANCH   7   8
ENDBRANCH   1   7
BRANCH   3  18
ATOM     18  C10 UNL     1       0.930   0.158  -1.105  1.00  0.00     0.117 C   
BRANCH  18  19
ATOM     19  N5  UNL     1       1.726   1.347  -1.616  1.00  0.00     0.249 N   
ATOM     20  H11 UNL     1       1.290   1.620  -2.512  1.00  0.00     0.199 HD  
ATOM     21  H12 UNL     1       1.588   2.159  -1.006  1.00  0.00     0.199 HD  
BRANCH  19  22
ATOM     22  C11 UNL     1       3.178   1.129  -1.839  1.00  0.00     0.164 C   
BRANCH  22  23
ATOM     23  C12 UNL     1       3.942   0.996  -0.551  1.00  0.00    -0.002 A   
ATOM     24  C13 UNL     1       4.225   2.141   0.232  1.00  0.00     0.012 A   
ATOM     25  C17 UNL     1       4.341  -0.271  -0.090  1.00  0.00     0.045 A   
ATOM     26  C14 UNL     1       4.889   2.028   1.458  1.00  0.00     0.037 A   
ATOM     27  C16 UNL     1       4.990  -0.347   1.124  1.00  0.00     0.109 A   
ATOM     28  C15 UNL     1       5.256   0.769   1.877  1.00  0.00     0.108 A   
ATOM     29  O1  UNL     1       5.429  -1.489   1.715  1.00  0.00    -0.316 OA  
ATOM     30  O2  UNL     1       5.900   0.472   3.035  1.00  0.00    -0.316 OA  
ATOM     31  C18 UNL     1       6.031  -0.961   2.919  1.00  0.00     0.337 C   
ENDBRANCH  22  23
ENDBRANCH  19  22
ENDBRANCH  18  19
BRANCH  18  32
ATOM     32  C19 UNL     1       0.474   0.447   0.350  1.00  0.00     0.043 C   
ATOM     33  C20 UNL     1       0.001  -0.835   1.063  1.00  0.00     0.010 C   
ATOM     34  C24 UNL     1      -0.605   1.544   0.466  1.00  0.00     0.010 C   
ATOM     35  C21 UNL     1      -0.365  -0.563   2.521  1.00  0.00     0.001 C   
ATOM     36  C23 UNL     1      -0.976   1.811   1.925  1.00  0.00     0.001 C   
ATOM     37  C22 UNL     1      -1.415   0.537   2.639  1.00  0.00     0.000 C   
ENDBRANCH  18  32
ENDBRANCH   3  18
TORSDOF 7
