REMARK SMILES Cc1cccnc1CCn1cc([C@H](CC(C)C)[NH2+]Cc2ccc3c(c2)OCO3)nn1
REMARK SMILES IDX 10 1 11 2 12 3 29 4 30 5 9 7 8 8 7 9 2 10 3 11 4 12 6 13
REMARK SMILES IDX 5 14 1 15 13 16 14 17 15 18 16 19 17 20 18 21 19 24 20 25
REMARK SMILES IDX 21 26 25 27 22 28 24 29 23 30 26 31 28 32 27 33
REMARK H PARENT 11 6 18 22 18 23
ROOT
ATOM     1   N2  UNL     1      -0.950   1.427  -2.544  1.00  0.00    -0.212 N   
ATOM     2   C9  UNL     1      -0.630   0.733  -1.413  1.00  0.00     0.045 A   
ATOM     3   C10 UNL     1       0.498   1.369  -0.945  1.00  0.00     0.127 A   
ATOM     4   N4  UNL     1       0.870   2.342  -1.838  1.00  0.00    -0.132 NA  
ATOM     5   N5  UNL     1      -0.011   2.351  -2.824  1.00  0.00    -0.076 NA  
ATOM     6   H11 UNL     1      -1.248  -0.068  -1.031  1.00  0.00     0.083 HD  
ENDROOT
BRANCH   1   7
ATOM     7   C8  UNL     1      -2.083   1.240  -3.428  1.00  0.00     0.140 C   
BRANCH   7   8
ATOM     8   C7  UNL     1      -3.289   2.088  -3.034  1.00  0.00     0.078 C   
BRANCH   8   9
ATOM     9   C6  UNL     1      -4.065   1.470  -1.895  1.00  0.00     0.045 A   
ATOM     10  C2  UNL     1      -5.167   0.630  -2.107  1.00  0.00    -0.029 A   
ATOM     11  C3  UNL     1      -5.827   0.124  -0.980  1.00  0.00     0.007 A   
ATOM     12  C4  UNL     1      -5.382   0.449   0.295  1.00  0.00     0.020 A   
ATOM     13  N1  UNL     1      -3.602   1.767  -0.652  1.00  0.00    -0.261 NA  
ATOM     14  C5  UNL     1      -4.278   1.269   0.407  1.00  0.00     0.111 A   
ATOM     15  C1  UNL     1      -5.685   0.294  -3.475  1.00  0.00     0.046 C   
ENDBRANCH   8   9
ENDBRANCH   7   8
ENDBRANCH   1   7
BRANCH   3  16
ATOM     16  C11 UNL     1       1.320   1.141   0.276  1.00  0.00     0.114 C   
BRANCH  16  17
ATOM     17  C12 UNL     1       0.948   2.098   1.427  1.00  0.00     0.064 C   
BRANCH  17  18
ATOM     18  C13 UNL     1      -0.491   1.955   1.966  1.00  0.00    -0.012 C   
ATOM     19  C14 UNL     1      -0.740   2.999   3.058  1.00  0.00     0.007 C   
ATOM     20  C15 UNL     1      -0.774   0.557   2.516  1.00  0.00     0.007 C   
ENDBRANCH  17  18
ENDBRANCH  16  17
BRANCH  16  21
ATOM     21  N3  UNL     1       2.784   1.389  -0.036  1.00  0.00     0.249 N   
ATOM     22  H22 UNL     1       2.819   2.309  -0.499  1.00  0.00     0.199 HD  
ATOM     23  H23 UNL     1       3.323   1.461   0.831  1.00  0.00     0.199 HD  
BRANCH  21  24
ATOM     24  C16 UNL     1       3.442   0.408  -0.948  1.00  0.00     0.164 C   
BRANCH  24  25
ATOM     25  C17 UNL     1       3.598  -0.952  -0.326  1.00  0.00    -0.002 A   
ATOM     26  C18 UNL     1       4.583  -1.178   0.666  1.00  0.00     0.012 A   
ATOM     27  C22 UNL     1       2.741  -2.001  -0.701  1.00  0.00     0.045 A   
ATOM     28  C19 UNL     1       4.711  -2.429   1.278  1.00  0.00     0.037 A   
ATOM     29  C21 UNL     1       2.893  -3.221  -0.076  1.00  0.00     0.109 A   
ATOM     30  C20 UNL     1       3.849  -3.429   0.887  1.00  0.00     0.108 A   
ATOM     31  O1  UNL     1       2.144  -4.330  -0.314  1.00  0.00    -0.316 OA  
ATOM     32  O2  UNL     1       3.826  -4.696   1.374  1.00  0.00    -0.316 OA  
ATOM     33  C23 UNL     1       2.764  -5.276   0.587  1.00  0.00     0.337 C   
ENDBRANCH  24  25
ENDBRANCH  21  24
ENDBRANCH  16  21
ENDBRANCH   3  16
TORSDOF 9
