REMARK SMILES CC(C)Cn1nccc1Cn1cc([C@@H]([NH2+]Cc2ccc3c(c2)OCO3)C(C)C)nn1
REMARK SMILES IDX 11 1 12 2 13 3 29 4 30 5 10 7 9 8 5 9 6 10 7 11 8 12 4 13
REMARK SMILES IDX 2 14 1 15 3 16 14 17 15 18 16 21 17 22 18 23 22 24 19 25
REMARK SMILES IDX 21 26 20 27 23 28 25 29 24 30 26 31 27 32 28 33
REMARK H PARENT 12 6 15 19 15 20
ROOT
ATOM     1   N3  UNL     1      -2.329   0.857  -0.424  1.00  0.00    -0.206 N   
ATOM     2   C9  UNL     1      -1.115   1.414  -0.131  1.00  0.00     0.046 A   
ATOM     3   C10 UNL     1      -0.354   1.163  -1.251  1.00  0.00     0.127 A   
ATOM     4   N5  UNL     1      -1.125   0.516  -2.182  1.00  0.00    -0.132 NA  
ATOM     5   N6  UNL     1      -2.329   0.334  -1.665  1.00  0.00    -0.076 NA  
ATOM     6   H14 UNL     1      -0.901   1.867   0.827  1.00  0.00     0.083 HD  
ENDROOT
BRANCH   1   7
ATOM     7   C8  UNL     1      -3.481   0.698   0.454  1.00  0.00     0.187 C   
BRANCH   7   8
ATOM     8   C7  UNL     1      -3.162  -0.273   1.540  1.00  0.00     0.049 A   
ATOM     9   N1  UNL     1      -3.242  -1.640   1.410  1.00  0.00    -0.228 N   
ATOM     10  N2  UNL     1      -2.760  -2.292   2.485  1.00  0.00    -0.190 NA  
ATOM     11  C5  UNL     1      -2.510  -1.330   3.371  1.00  0.00     0.133 A   
ATOM     12  C6  UNL     1      -2.737  -0.052   2.837  1.00  0.00     0.044 A   
BRANCH   9  13
ATOM     13  C4  UNL     1      -3.729  -2.424   0.285  1.00  0.00     0.135 C   
BRANCH  13  14
ATOM     14  C2  UNL     1      -5.260  -2.554   0.241  1.00  0.00     0.002 C   
ATOM     15  C1  UNL     1      -5.800  -3.385   1.408  1.00  0.00     0.009 C   
ATOM     16  C3  UNL     1      -5.685  -3.187  -1.085  1.00  0.00     0.009 C   
ENDBRANCH  13  14
ENDBRANCH   9  13
ENDBRANCH   7   8
ENDBRANCH   1   7
BRANCH   3  17
ATOM     17  C11 UNL     1       1.097   1.400  -1.516  1.00  0.00     0.117 C   
BRANCH  17  18
ATOM     18  N4  UNL     1       1.692   0.268  -2.321  1.00  0.00     0.249 N   
ATOM     19  H16 UNL     1       2.646   0.497  -2.610  1.00  0.00     0.199 HD  
ATOM     20  H17 UNL     1       1.123   0.181  -3.174  1.00  0.00     0.199 HD  
BRANCH  18  21
ATOM     21  C12 UNL     1       1.695  -1.081  -1.671  1.00  0.00     0.164 C   
BRANCH  21  22
ATOM     22  C13 UNL     1       2.457  -1.122  -0.376  1.00  0.00    -0.002 A   
ATOM     23  C14 UNL     1       1.768  -1.302   0.848  1.00  0.00     0.012 A   
ATOM     24  C18 UNL     1       3.853  -0.956  -0.367  1.00  0.00     0.045 A   
ATOM     25  C15 UNL     1       2.455  -1.308   2.066  1.00  0.00     0.037 A   
ATOM     26  C17 UNL     1       4.499  -0.964   0.852  1.00  0.00     0.109 A   
ATOM     27  C16 UNL     1       3.821  -1.134   2.035  1.00  0.00     0.108 A   
ATOM     28  O1  UNL     1       5.836  -0.809   1.038  1.00  0.00    -0.316 OA  
ATOM     29  O2  UNL     1       4.646  -1.108   3.113  1.00  0.00    -0.316 OA  
ATOM     30  C19 UNL     1       5.930  -0.934   2.476  1.00  0.00     0.337 C   
ENDBRANCH  21  22
ENDBRANCH  18  21
ENDBRANCH  17  18
BRANCH  17  31
ATOM     31  C20 UNL     1       1.356   2.759  -2.221  1.00  0.00     0.037 C   
ATOM     32  C21 UNL     1       2.840   3.144  -2.179  1.00  0.00     0.014 C   
ATOM     33  C22 UNL     1       0.849   2.828  -3.666  1.00  0.00     0.014 C   
ENDBRANCH  17  31
ENDBRANCH   3  17
TORSDOF 9
