REMARK SMILES Cc1cc(CCn2cc([C@@H]([NH2+]Cc3ccc4c(c3)OCO4)C(C)(C)C)nn2)no1
REMARK SMILES IDX 7 1 8 2 9 3 26 4 27 5 6 7 5 8 4 9 2 10 3 11 29 12 28 13 1 14
REMARK SMILES IDX 10 15 11 16 12 19 13 20 14 21 18 22 15 23 17 24 16 25 19 26
REMARK SMILES IDX 21 27 20 28 22 29 23 30 24 31 25 32
REMARK H PARENT 8 6 11 17 11 18
ROOT
ATOM     1   N1  UNL     1      -0.398   2.282  -2.332  1.00  0.00    -0.212 N   
ATOM     2   C7  UNL     1      -1.301   1.282  -2.103  1.00  0.00     0.045 A   
ATOM     3   C8  UNL     1      -1.399   1.240  -0.731  1.00  0.00     0.127 A   
ATOM     4   N3  UNL     1      -0.640   2.247  -0.192  1.00  0.00    -0.132 NA  
ATOM     5   N4  UNL     1      -0.058   2.898  -1.185  1.00  0.00    -0.076 NA  
ATOM     6   H9  UNL     1      -1.678   0.650  -2.896  1.00  0.00     0.083 HD  
ENDROOT
BRANCH   1   7
ATOM     7   C6  UNL     1       0.280   2.598  -3.571  1.00  0.00     0.140 C   
BRANCH   7   8
ATOM     8   C5  UNL     1       1.805   2.489  -3.483  1.00  0.00     0.080 C   
BRANCH   8   9
ATOM     9   C4  UNL     1       2.356   1.121  -3.223  1.00  0.00     0.072 A   
ATOM     10  C2  UNL     1       3.706  -0.603  -2.957  1.00  0.00     0.084 A   
ATOM     11  C3  UNL     1       3.714   0.727  -3.297  1.00  0.00     0.057 A   
ATOM     12  O3  UNL     1       2.430  -0.988  -2.693  1.00  0.00    -0.219 OA  
ATOM     13  N5  UNL     1       1.580   0.090  -2.857  1.00  0.00    -0.134 NA  
ATOM     14  C1  UNL     1       4.747  -1.639  -2.834  1.00  0.00     0.075 C   
ENDBRANCH   8   9
ENDBRANCH   7   8
ENDBRANCH   1   7
BRANCH   3  15
ATOM     15  C9  UNL     1      -2.000   0.206   0.169  1.00  0.00     0.120 C   
BRANCH  15  16
ATOM     16  N2  UNL     1      -0.919  -0.249   1.123  1.00  0.00     0.250 N   
ATOM     17  H11 UNL     1      -0.432   0.605   1.435  1.00  0.00     0.199 HD  
ATOM     18  H12 UNL     1      -1.291  -0.691   1.967  1.00  0.00     0.199 HD  
BRANCH  16  19
ATOM     19  C10 UNL     1       0.110  -1.143   0.514  1.00  0.00     0.164 C   
BRANCH  19  20
ATOM     20  C11 UNL     1       1.273  -1.326   1.445  1.00  0.00    -0.002 A   
ATOM     21  C12 UNL     1       2.393  -0.465   1.351  1.00  0.00     0.012 A   
ATOM     22  C16 UNL     1       1.238  -2.313   2.444  1.00  0.00     0.045 A   
ATOM     23  C13 UNL     1       3.477  -0.596   2.226  1.00  0.00     0.037 A   
ATOM     24  C15 UNL     1       2.322  -2.413   3.292  1.00  0.00     0.109 A   
ATOM     25  C14 UNL     1       3.411  -1.582   3.184  1.00  0.00     0.108 A   
ATOM     26  O1  UNL     1       2.450  -3.309   4.306  1.00  0.00    -0.316 OA  
ATOM     27  O2  UNL     1       4.365  -1.855   4.112  1.00  0.00    -0.316 OA  
ATOM     28  C17 UNL     1       3.751  -2.951   4.825  1.00  0.00     0.337 C   
ENDBRANCH  19  20
ENDBRANCH  16  19
ENDBRANCH  15  16
BRANCH  15  29
ATOM     29  C18 UNL     1      -3.275   0.673   0.948  1.00  0.00     0.010 C   
ATOM     30  C19 UNL     1      -2.988   1.789   1.971  1.00  0.00     0.017 C   
ATOM     31  C20 UNL     1      -4.339   1.186  -0.050  1.00  0.00     0.017 C   
ATOM     32  C21 UNL     1      -3.902  -0.523   1.704  1.00  0.00     0.017 C   
ENDBRANCH  15  29
ENDBRANCH   3  15
TORSDOF 8
