REMARK SMILES CCc1[nH]nc(C)c1Cn1cc([C@@H]([NH2+]Cc2ccc3c(c2)OCO3)C2CCCCC2)nn1
REMARK SMILES IDX 10 1 11 2 12 3 31 4 32 5 9 7 8 8 3 9 4 10 5 11 6 12 7 14
REMARK SMILES IDX 2 15 1 16 13 17 14 18 15 21 16 22 17 23 21 24 18 25 20 26
REMARK SMILES IDX 19 27 22 28 24 29 23 30 25 31 26 32 30 33 27 34 29 35 28 36
REMARK H PARENT 11 6 4 13 14 19 14 20
ROOT
ATOM     1   N3  UNL     1      -0.893  -2.184   1.620  1.00  0.00    -0.208 N   
ATOM     2   C8  UNL     1       0.096  -1.286   1.313  1.00  0.00     0.046 A   
ATOM     3   C9  UNL     1      -0.576  -0.240   0.723  1.00  0.00     0.127 A   
ATOM     4   N5  UNL     1      -1.918  -0.520   0.702  1.00  0.00    -0.132 NA  
ATOM     5   N6  UNL     1      -2.101  -1.706   1.258  1.00  0.00    -0.076 NA  
ATOM     6   H12 UNL     1       1.139  -1.483   1.519  1.00  0.00     0.083 HD  
ENDROOT
BRANCH   1   7
ATOM     7   C7  UNL     1      -0.765  -3.489   2.252  1.00  0.00     0.173 C   
BRANCH   7   8
ATOM     8   C6  UNL     1      -0.148  -4.468   1.312  1.00  0.00     0.013 A   
ATOM     9   C3  UNL     1      -0.729  -5.093   0.218  1.00  0.00     0.031 A   
ATOM     10  N1  UNL     1       0.237  -5.913  -0.301  1.00  0.00    -0.242 N   
ATOM     11  N2  UNL     1       1.409  -5.829   0.339  1.00  0.00    -0.189 NA  
ATOM     12  C4  UNL     1       1.178  -4.988   1.351  1.00  0.00     0.062 A   
ATOM     13  H6  UNL     1       0.169  -6.544  -1.095  1.00  0.00     0.175 HD  
ATOM     14  C5  UNL     1       2.257  -4.705   2.331  1.00  0.00     0.069 C   
BRANCH   9  15
ATOM     15  C2  UNL     1      -2.095  -5.018  -0.377  1.00  0.00     0.050 C   
ATOM     16  C1  UNL     1      -2.104  -4.205  -1.662  1.00  0.00     0.010 C   
ENDBRANCH   9  15
ENDBRANCH   7   8
ENDBRANCH   1   7
BRANCH   3  17
ATOM     17  C10 UNL     1      -0.087   1.035   0.112  1.00  0.00     0.117 C   
BRANCH  17  18
ATOM     18  N4  UNL     1      -1.079   1.505  -0.924  1.00  0.00     0.249 N   
ATOM     19  H14 UNL     1      -2.007   1.246  -0.556  1.00  0.00     0.199 HD  
ATOM     20  H15 UNL     1      -1.079   2.523  -1.018  1.00  0.00     0.199 HD  
BRANCH  18  21
ATOM     21  C11 UNL     1      -0.946   0.880  -2.272  1.00  0.00     0.164 C   
BRANCH  21  22
ATOM     22  C12 UNL     1       0.127   1.548  -3.087  1.00  0.00    -0.002 A   
ATOM     23  C13 UNL     1       1.390   0.932  -3.260  1.00  0.00     0.012 A   
ATOM     24  C17 UNL     1      -0.107   2.817  -3.648  1.00  0.00     0.045 A   
ATOM     25  C14 UNL     1       2.410   1.574  -3.973  1.00  0.00     0.037 A   
ATOM     26  C16 UNL     1       0.920   3.421  -4.347  1.00  0.00     0.109 A   
ATOM     27  C15 UNL     1       2.145   2.820  -4.501  1.00  0.00     0.108 A   
ATOM     28  O1  UNL     1       0.860   4.642  -4.944  1.00  0.00    -0.316 OA  
ATOM     29  O2  UNL     1       3.013   3.588  -5.210  1.00  0.00    -0.316 OA  
ATOM     30  C18 UNL     1       2.177   4.720  -5.539  1.00  0.00     0.337 C   
ENDBRANCH  21  22
ENDBRANCH  18  21
ENDBRANCH  17  18
BRANCH  17  31
ATOM     31  C19 UNL     1       0.166   2.141   1.170  1.00  0.00     0.043 C   
ATOM     32  C20 UNL     1       0.992   3.302   0.582  1.00  0.00     0.010 C   
ATOM     33  C24 UNL     1      -1.115   2.680   1.838  1.00  0.00     0.010 C   
ATOM     34  C21 UNL     1       1.307   4.357   1.638  1.00  0.00     0.001 C   
ATOM     35  C23 UNL     1      -0.798   3.746   2.886  1.00  0.00     0.001 C   
ATOM     36  C22 UNL     1       0.039   4.880   2.303  1.00  0.00     0.000 C   
ENDBRANCH  17  31
ENDBRANCH   3  17
TORSDOF 8
