REMARK SMILES Cn1cc(-n2cc([C@@H]([NH2+]Cc3ccc4c(c3)OCO4)C3CCCC3)nn2)ccc1=O
REMARK SMILES IDX 8 1 7 2 5 3 6 4 26 5 25 6 4 7 2 8 3 9 29 10 28 11 27 12 1 13
REMARK SMILES IDX 30 14 9 15 10 18 11 19 12 20 16 21 13 22 15 23 14 24 17 25
REMARK SMILES IDX 19 26 18 27 20 28 21 29 24 30 22 31 23 32
REMARK H PARENT 9 16 9 17
ROOT
ATOM     1   C6  UNL     1       1.602  -1.093   0.316  1.00  0.00     0.117 C   
ENDROOT
BRANCH   1   2
ATOM     2   C5  UNL     1       0.131  -0.949   0.071  1.00  0.00     0.127 A   
ATOM     3   N2  UNL     1      -2.027  -1.162  -0.403  1.00  0.00    -0.179 N   
ATOM     4   C4  UNL     1      -0.808  -1.845  -0.381  1.00  0.00     0.135 A   
ATOM     5   N5  UNL     1      -1.755   0.124  -0.003  1.00  0.00    -0.071 NA  
ATOM     6   N4  UNL     1      -0.476   0.247   0.298  1.00  0.00    -0.131 NA  
BRANCH   3   7
ATOM     7   C3  UNL     1      -3.297  -1.671  -0.767  1.00  0.00     0.072 A   
ATOM     8   N1  UNL     1      -5.652  -1.324  -1.101  1.00  0.00    -0.276 N   
ATOM     9   C2  UNL     1      -4.386  -0.873  -0.759  1.00  0.00     0.103 A   
ATOM     10  C22 UNL     1      -5.898  -2.634  -1.496  1.00  0.00     0.242 A   
ATOM     11  C21 UNL     1      -4.712  -3.527  -1.501  1.00  0.00     0.071 A   
ATOM     12  C20 UNL     1      -3.502  -3.063  -1.160  1.00  0.00     0.033 A   
ATOM     13  C1  UNL     1      -6.759  -0.378  -1.084  1.00  0.00     0.139 C   
ATOM     14  O3  UNL     1      -6.987  -3.086  -1.832  1.00  0.00    -0.272 OA  
ENDBRANCH   3   7
ENDBRANCH   1   2
BRANCH   1  15
ATOM     15  N3  UNL     1       2.262   0.258   0.363  1.00  0.00     0.249 N   
ATOM     16  H7  UNL     1       1.627   0.886   0.879  1.00  0.00     0.199 HD  
ATOM     17  H8  UNL     1       3.137   0.245   0.897  1.00  0.00     0.199 HD  
BRANCH  15  18
ATOM     18  C7  UNL     1       2.516   0.892  -0.960  1.00  0.00     0.164 C   
BRANCH  18  19
ATOM     19  C8  UNL     1       3.144   2.245  -0.777  1.00  0.00    -0.002 A   
ATOM     20  C9  UNL     1       2.330   3.394  -0.638  1.00  0.00     0.012 A   
ATOM     21  C13 UNL     1       4.540   2.368  -0.678  1.00  0.00     0.045 A   
ATOM     22  C10 UNL     1       2.898   4.653  -0.416  1.00  0.00     0.037 A   
ATOM     23  C12 UNL     1       5.067   3.623  -0.455  1.00  0.00     0.109 A   
ATOM     24  C11 UNL     1       4.270   4.734  -0.329  1.00  0.00     0.108 A   
ATOM     25  O1  UNL     1       6.387   3.915  -0.326  1.00  0.00    -0.316 OA  
ATOM     26  O2  UNL     1       4.988   5.866  -0.110  1.00  0.00    -0.316 OA  
ATOM     27  C14 UNL     1       6.335   5.347  -0.133  1.00  0.00     0.337 C   
ENDBRANCH  18  19
ENDBRANCH  15  18
ENDBRANCH   1  15
BRANCH   1  28
ATOM     28  C15 UNL     1       1.888  -1.875   1.613  1.00  0.00     0.043 C   
ATOM     29  C16 UNL     1       3.361  -2.277   1.806  1.00  0.00     0.010 C   
ATOM     30  C19 UNL     1       1.514  -1.170   2.922  1.00  0.00     0.010 C   
ATOM     31  C17 UNL     1       3.623  -2.227   3.313  1.00  0.00     0.001 C   
ATOM     32  C18 UNL     1       2.268  -1.982   3.963  1.00  0.00     0.001 C   
ENDBRANCH   1  28
TORSDOF 6
