REMARK SMILES c1cc(Cn2cc([C@@H]([NH2+]Cc3ccc4c(c3)OCO4)C3CCCCC3)nn2)ccn1
REMARK SMILES IDX 8 1 7 2 5 3 6 4 27 5 26 6 4 8 3 9 1 10 2 11 30 12 29 13
REMARK SMILES IDX 28 14 9 15 10 18 11 19 12 20 16 21 13 22 15 23 14 24 17 25
REMARK SMILES IDX 19 26 18 27 20 28 21 29 25 30 22 31 24 32 23 33
REMARK H PARENT 6 7 9 16 9 17
ROOT
ATOM     1   C7  UNL     1       0.481  -0.132   1.140  1.00  0.00     0.117 C   
ENDROOT
BRANCH   1   2
ATOM     2   C6  UNL     1       0.726   1.029   0.229  1.00  0.00     0.127 A   
ATOM     3   N1  UNL     1       0.705   2.817  -0.994  1.00  0.00    -0.208 N   
ATOM     4   C5  UNL     1      -0.026   2.150  -0.048  1.00  0.00     0.046 A   
ATOM     5   N4  UNL     1       1.837   2.146  -1.281  1.00  0.00    -0.076 NA  
ATOM     6   N3  UNL     1       1.863   1.053  -0.537  1.00  0.00    -0.132 NA  
ATOM     7   H5  UNL     1      -0.981   2.510   0.306  1.00  0.00     0.083 HD  
BRANCH   3   8
ATOM     8   C4  UNL     1       0.429   4.102  -1.623  1.00  0.00     0.169 C   
BRANCH   8   9
ATOM     9   C3  UNL     1      -0.966   4.166  -2.187  1.00  0.00    -0.026 A   
ATOM     10  C1  UNL     1      -3.206   5.013  -2.155  1.00  0.00     0.111 A   
ATOM     11  C2  UNL     1      -1.930   5.003  -1.615  1.00  0.00     0.025 A   
ATOM     12  N5  UNL     1      -3.576   4.252  -3.203  1.00  0.00    -0.265 NA  
ATOM     13  C23 UNL     1      -2.630   3.471  -3.762  1.00  0.00     0.111 A   
ATOM     14  C22 UNL     1      -1.328   3.393  -3.296  1.00  0.00     0.025 A   
ENDBRANCH   8   9
ENDBRANCH   3   8
ENDBRANCH   1   2
BRANCH   1  15
ATOM     15  N2  UNL     1       1.166  -1.364   0.596  1.00  0.00     0.249 N   
ATOM     16  H7  UNL     1       2.111  -1.074   0.304  1.00  0.00     0.199 HD  
ATOM     17  H8  UNL     1       1.294  -2.077   1.321  1.00  0.00     0.199 HD  
BRANCH  15  18
ATOM     18  C8  UNL     1       0.517  -1.986  -0.592  1.00  0.00     0.164 C   
BRANCH  18  19
ATOM     19  C9  UNL     1       1.349  -3.130  -1.103  1.00  0.00    -0.002 A   
ATOM     20  C10 UNL     1       2.410  -2.885  -2.008  1.00  0.00     0.012 A   
ATOM     21  C14 UNL     1       1.116  -4.436  -0.646  1.00  0.00     0.045 A   
ATOM     22  C11 UNL     1       3.219  -3.929  -2.466  1.00  0.00     0.037 A   
ATOM     23  C13 UNL     1       1.933  -5.442  -1.118  1.00  0.00     0.109 A   
ATOM     24  C12 UNL     1       2.953  -5.196  -2.004  1.00  0.00     0.108 A   
ATOM     25  O1  UNL     1       1.844  -6.754  -0.780  1.00  0.00    -0.316 OA  
ATOM     26  O2  UNL     1       3.631  -6.323  -2.341  1.00  0.00    -0.316 OA  
ATOM     27  C15 UNL     1       2.908  -7.315  -1.582  1.00  0.00     0.337 C   
ENDBRANCH  18  19
ENDBRANCH  15  18
ENDBRANCH   1  15
BRANCH   1  28
ATOM     28  C16 UNL     1       0.969   0.088   2.598  1.00  0.00     0.043 C   
ATOM     29  C17 UNL     1       0.158   1.185   3.314  1.00  0.00     0.010 C   
ATOM     30  C21 UNL     1       2.477   0.379   2.717  1.00  0.00     0.010 C   
ATOM     31  C18 UNL     1       0.592   1.355   4.767  1.00  0.00     0.001 C   
ATOM     32  C20 UNL     1       2.905   0.545   4.174  1.00  0.00     0.001 C   
ATOM     33  C19 UNL     1       2.089   1.620   4.880  1.00  0.00     0.000 C   
ENDBRANCH   1  28
TORSDOF 7
