REMARK SMILES c1cc2c(s1)CCN[C@@H]2Cn1cc([C@@H]([NH2+]Cc2ccc3c(c2)OCO3)C2CCCC2)nn1
REMARK SMILES IDX 11 1 12 2 13 3 31 4 32 5 10 7 9 8 1 9 2 10 5 11 3 12 4 13
REMARK SMILES IDX 6 14 8 15 7 16 14 18 15 19 16 22 17 23 18 24 22 25 19 26
REMARK SMILES IDX 21 27 20 28 23 29 25 30 24 31 26 32 27 33 30 34 28 35 29 36
REMARK H PARENT 12 6 8 17 15 20 15 21
ROOT
ATOM     1   N2  UNL     1      -2.042   1.512  -0.584  1.00  0.00    -0.210 N   
ATOM     2   C9  UNL     1      -2.129   0.151  -0.483  1.00  0.00     0.045 A   
ATOM     3   C10 UNL     1      -0.817  -0.258  -0.404  1.00  0.00     0.127 A   
ATOM     4   N4  UNL     1       0.003   0.839  -0.492  1.00  0.00    -0.132 NA  
ATOM     5   N5  UNL     1      -0.758   1.912  -0.621  1.00  0.00    -0.076 NA  
ATOM     6   H11 UNL     1      -3.076  -0.370  -0.450  1.00  0.00     0.083 HD  
ENDROOT
BRANCH   1   7
ATOM     7   C8  UNL     1      -3.124   2.473  -0.665  1.00  0.00     0.157 C   
BRANCH   7   8
ATOM     8   C7  UNL     1      -3.285   3.317   0.615  1.00  0.00     0.104 C   
ATOM     9   C1  UNL     1      -3.381   1.059   3.659  1.00  0.00     0.046 A   
ATOM     10  C2  UNL     1      -2.734   1.737   2.648  1.00  0.00     0.013 A   
ATOM     11  S1  UNL     1      -5.067   1.349   3.651  1.00  0.00    -0.102 S   
ATOM     12  C3  UNL     1      -3.640   2.488   1.831  1.00  0.00    -0.019 A   
ATOM     13  C4  UNL     1      -4.931   2.390   2.316  1.00  0.00    -0.005 A   
ATOM     14  C5  UNL     1      -6.093   3.160   1.777  1.00  0.00     0.058 C   
ATOM     15  N1  UNL     1      -4.319   4.371   0.439  1.00  0.00    -0.308 NA  
ATOM     16  C6  UNL     1      -5.699   3.838   0.451  1.00  0.00     0.087 C   
ATOM     17  H7  UNL     1      -4.228   5.024   1.222  1.00  0.00     0.123 HD  
ENDBRANCH   7   8
ENDBRANCH   1   7
BRANCH   3  18
ATOM     18  C11 UNL     1      -0.215  -1.619  -0.264  1.00  0.00     0.117 C   
BRANCH  18  19
ATOM     19  N3  UNL     1       1.169  -1.634  -0.854  1.00  0.00     0.249 N   
ATOM     20  H13 UNL     1       1.631  -0.765  -0.548  1.00  0.00     0.199 HD  
ATOM     21  H14 UNL     1       1.740  -2.403  -0.494  1.00  0.00     0.199 HD  
BRANCH  19  22
ATOM     22  C12 UNL     1       1.222  -1.645  -2.343  1.00  0.00     0.164 C   
BRANCH  22  23
ATOM     23  C13 UNL     1       2.647  -1.606  -2.816  1.00  0.00    -0.002 A   
ATOM     24  C14 UNL     1       3.334  -0.371  -2.899  1.00  0.00     0.012 A   
ATOM     25  C18 UNL     1       3.322  -2.798  -3.126  1.00  0.00     0.045 A   
ATOM     26  C15 UNL     1       4.675  -0.321  -3.298  1.00  0.00     0.037 A   
ATOM     27  C17 UNL     1       4.643  -2.713  -3.515  1.00  0.00     0.109 A   
ATOM     28  C16 UNL     1       5.301  -1.510  -3.598  1.00  0.00     0.108 A   
ATOM     29  O1  UNL     1       5.436  -3.764  -3.848  1.00  0.00    -0.316 OA  
ATOM     30  O2  UNL     1       6.592  -1.652  -3.994  1.00  0.00    -0.316 OA  
ATOM     31  C19 UNL     1       6.667  -3.083  -4.181  1.00  0.00     0.337 C   
ENDBRANCH  22  23
ENDBRANCH  19  22
ENDBRANCH  18  19
BRANCH  18  32
ATOM     32  C20 UNL     1      -0.191  -2.076   1.208  1.00  0.00     0.043 C   
ATOM     33  C21 UNL     1       0.744  -1.301   2.152  1.00  0.00     0.010 C   
ATOM     34  C24 UNL     1       0.195  -3.543   1.419  1.00  0.00     0.010 C   
ATOM     35  C22 UNL     1       1.245  -2.316   3.182  1.00  0.00     0.001 C   
ATOM     36  C23 UNL     1       0.477  -3.602   2.912  1.00  0.00     0.001 C   
ENDBRANCH  18  32
ENDBRANCH   3  18
TORSDOF 7
