REMARK SMILES c1cc2c(s1)CCN[C@H]2Cn1cc([C@@H]([NH2+]Cc2ccc3c(c2)OCO3)C2CCCC2)nn1
REMARK SMILES IDX 11 1 12 2 13 3 31 4 32 5 10 7 9 8 1 9 2 10 5 11 3 12 4 13
REMARK SMILES IDX 6 14 8 15 7 16 14 18 15 19 16 22 17 23 18 24 22 25 19 26
REMARK SMILES IDX 21 27 20 28 23 29 25 30 24 31 26 32 27 33 30 34 28 35 29 36
REMARK H PARENT 12 6 8 17 15 20 15 21
ROOT
ATOM     1   N2  UNL     1      -2.604  -1.188   1.185  1.00  0.00    -0.210 N   
ATOM     2   C9  UNL     1      -2.166  -0.154   0.408  1.00  0.00     0.045 A   
ATOM     3   C10 UNL     1      -0.927  -0.558  -0.027  1.00  0.00     0.127 A   
ATOM     4   N4  UNL     1      -0.684  -1.825   0.435  1.00  0.00    -0.132 NA  
ATOM     5   N5  UNL     1      -1.710  -2.197   1.179  1.00  0.00    -0.076 NA  
ATOM     6   H11 UNL     1      -2.734   0.756   0.276  1.00  0.00     0.083 HD  
ENDROOT
BRANCH   1   7
ATOM     7   C8  UNL     1      -3.809  -1.299   1.982  1.00  0.00     0.157 C   
BRANCH   7   8
ATOM     8   C7  UNL     1      -4.139  -0.077   2.868  1.00  0.00     0.104 C   
ATOM     9   C1  UNL     1      -1.002   0.482   4.944  1.00  0.00     0.046 A   
ATOM     10  C2  UNL     1      -1.964  -0.312   4.356  1.00  0.00     0.013 A   
ATOM     11  S1  UNL     1      -1.275   2.143   4.651  1.00  0.00    -0.102 S   
ATOM     12  C3  UNL     1      -2.943   0.453   3.641  1.00  0.00    -0.019 A   
ATOM     13  C4  UNL     1      -2.688   1.804   3.775  1.00  0.00    -0.005 A   
ATOM     14  C5  UNL     1      -3.554   2.876   3.197  1.00  0.00     0.058 C   
ATOM     15  N1  UNL     1      -4.742   1.008   2.041  1.00  0.00    -0.308 NA  
ATOM     16  C6  UNL     1      -4.908   2.262   2.801  1.00  0.00     0.087 C   
ATOM     17  H7  UNL     1      -5.668   0.700   1.735  1.00  0.00     0.123 HD  
ENDBRANCH   7   8
ENDBRANCH   1   7
BRANCH   3  18
ATOM     18  C11 UNL     1       0.124   0.160  -0.812  1.00  0.00     0.117 C   
BRANCH  18  19
ATOM     19  N3  UNL     1       1.472  -0.430  -0.475  1.00  0.00     0.249 N   
ATOM     20  H13 UNL     1       1.342  -1.454  -0.455  1.00  0.00     0.199 HD  
ATOM     21  H14 UNL     1       2.178  -0.245  -1.193  1.00  0.00     0.199 HD  
BRANCH  19  22
ATOM     22  C12 UNL     1       2.022  -0.037   0.853  1.00  0.00     0.164 C   
BRANCH  22  23
ATOM     23  C13 UNL     1       3.228  -0.870   1.179  1.00  0.00    -0.002 A   
ATOM     24  C14 UNL     1       3.070  -2.114   1.839  1.00  0.00     0.012 A   
ATOM     25  C18 UNL     1       4.508  -0.457   0.777  1.00  0.00     0.045 A   
ATOM     26  C15 UNL     1       4.174  -2.929   2.107  1.00  0.00     0.037 A   
ATOM     27  C17 UNL     1       5.574  -1.286   1.056  1.00  0.00     0.109 A   
ATOM     28  C16 UNL     1       5.413  -2.487   1.703  1.00  0.00     0.108 A   
ATOM     29  O1  UNL     1       6.870  -1.041   0.732  1.00  0.00    -0.316 OA  
ATOM     30  O2  UNL     1       6.589  -3.145   1.876  1.00  0.00    -0.316 OA  
ATOM     31  C19 UNL     1       7.514  -2.218   1.269  1.00  0.00     0.337 C   
ENDBRANCH  22  23
ENDBRANCH  19  22
ENDBRANCH  18  19
BRANCH  18  32
ATOM     32  C20 UNL     1      -0.098   0.054  -2.333  1.00  0.00     0.043 C   
ATOM     33  C21 UNL     1       0.982   0.751  -3.177  1.00  0.00     0.010 C   
ATOM     34  C24 UNL     1      -1.385   0.739  -2.810  1.00  0.00     0.010 C   
ATOM     35  C22 UNL     1       0.299   1.187  -4.473  1.00  0.00     0.001 C   
ATOM     36  C23 UNL     1      -1.178   0.859  -4.311  1.00  0.00     0.001 C   
ENDBRANCH  18  32
ENDBRANCH   3  18
TORSDOF 7
