REMARK SMILES [O-]N([O-])c1cc(-n2cc([C@@H]([NH2+]Cc3ccc4c(c3)OCO4)C3CCCCC3)nn2)ccc1F
REMARK SMILES IDX 7 1 8 2 9 3 28 4 29 5 6 6 4 7 5 8 32 9 31 10 30 11 33 12
REMARK SMILES IDX 2 13 1 14 3 15 10 16 11 17 12 20 13 21 14 22 18 23 15 24
REMARK SMILES IDX 17 25 16 26 19 27 21 28 20 29 22 30 23 31 27 32 24 33 26 34
REMARK SMILES IDX 25 35
REMARK H PARENT 11 18 11 19
ROOT
ATOM     1   N2  UNL     1      -2.493   2.332  -0.619  1.00  0.00    -0.181 N   
ATOM     2   C4  UNL     1      -1.199   1.848  -0.637  1.00  0.00     0.135 A   
ATOM     3   C5  UNL     1      -1.329   0.476  -0.615  1.00  0.00     0.127 A   
ATOM     4   N4  UNL     1      -2.656   0.158  -0.545  1.00  0.00    -0.131 NA  
ATOM     5   N5  UNL     1      -3.349   1.283  -0.535  1.00  0.00    -0.071 NA  
ENDROOT
BRANCH   1   6
ATOM     6   C3  UNL     1      -2.955   3.673  -0.657  1.00  0.00     0.060 A   
ATOM     7   C1  UNL     1      -4.791   5.254  -0.655  1.00  0.00     0.155 A   
ATOM     8   C2  UNL     1      -4.337   3.927  -0.620  1.00  0.00     0.060 A   
ATOM     9   C23 UNL     1      -3.903   6.317  -0.735  1.00  0.00     0.151 A   
ATOM     10  C22 UNL     1      -2.534   6.065  -0.773  1.00  0.00     0.043 A   
ATOM     11  C21 UNL     1      -2.055   4.749  -0.733  1.00  0.00     0.029 A   
ATOM     12  F1  UNL     1      -4.324   7.585  -0.805  1.00  0.00    -0.205 F   
BRANCH   7  13
ATOM     13  N1  UNL     1      -6.214   5.516  -0.611  1.00  0.00     0.095 N   
ATOM     14  O1  UNL     1      -6.933   4.802  -1.323  1.00  0.00    -0.138 OA  
ATOM     15  O2  UNL     1      -6.612   6.396   0.161  1.00  0.00    -0.138 OA  
ENDBRANCH   7  13
ENDBRANCH   1   6
BRANCH   3  16
ATOM     16  C6  UNL     1      -0.309  -0.619  -0.609  1.00  0.00     0.117 C   
BRANCH  16  17
ATOM     17  N3  UNL     1      -0.842  -1.828   0.136  1.00  0.00     0.249 N   
ATOM     18  H4  UNL     1      -1.792  -2.000  -0.224  1.00  0.00     0.199 HD  
ATOM     19  H5  UNL     1      -0.282  -2.657  -0.086  1.00  0.00     0.199 HD  
BRANCH  17  20
ATOM     20  C7  UNL     1      -0.954  -1.700   1.620  1.00  0.00     0.164 C   
BRANCH  20  21
ATOM     21  C8  UNL     1       0.380  -1.579   2.301  1.00  0.00    -0.002 A   
ATOM     22  C9  UNL     1       0.764  -0.357   2.905  1.00  0.00     0.012 A   
ATOM     23  C13 UNL     1       1.268  -2.668   2.322  1.00  0.00     0.045 A   
ATOM     24  C10 UNL     1       2.016  -0.217   3.513  1.00  0.00     0.037 A   
ATOM     25  C12 UNL     1       2.495  -2.495   2.929  1.00  0.00     0.109 A   
ATOM     26  C11 UNL     1       2.860  -1.305   3.506  1.00  0.00     0.108 A   
ATOM     27  O3  UNL     1       3.466  -3.440   3.030  1.00  0.00    -0.316 OA  
ATOM     28  O4  UNL     1       4.106  -1.349   4.044  1.00  0.00    -0.316 OA  
ATOM     29  C14 UNL     1       4.477  -2.717   3.769  1.00  0.00     0.337 C   
ENDBRANCH  20  21
ENDBRANCH  17  20
ENDBRANCH  16  17
BRANCH  16  30
ATOM     30  C15 UNL     1       0.137  -1.084  -2.023  1.00  0.00     0.043 C   
ATOM     31  C16 UNL     1       0.914   0.019  -2.767  1.00  0.00     0.010 C   
ATOM     32  C20 UNL     1      -1.010  -1.615  -2.907  1.00  0.00     0.010 C   
ATOM     33  C17 UNL     1       1.425  -0.468  -4.122  1.00  0.00     0.001 C   
ATOM     34  C19 UNL     1      -0.499  -2.091  -4.266  1.00  0.00     0.001 C   
ATOM     35  C18 UNL     1       0.290  -1.004  -4.988  1.00  0.00     0.000 C   
ENDBRANCH  16  30
ENDBRANCH   3  16
TORSDOF 7
