REMARK SMILES CC(C)[C@H]([NH2+]Cc1ccc2c(c1)OCO2)c1cn(Cc2cccnc2F)nn1
REMARK SMILES IDX 16 1 17 2 18 3 27 4 28 5 4 7 2 8 1 9 3 10 5 11 6 14 7 15
REMARK SMILES IDX 8 16 12 17 9 18 11 19 10 20 13 21 15 22 14 23 19 24 20 25
REMARK SMILES IDX 21 26 25 27 22 28 24 29 23 30 26 31
REMARK H PARENT 17 6 5 12 5 13
ROOT
ATOM     1   C13 UNL     1      -1.756   0.114   0.588  1.00  0.00     0.127 A   
ATOM     2   C14 UNL     1      -0.551   0.557   1.085  1.00  0.00     0.046 A   
ATOM     3   N2  UNL     1      -0.002  -0.557   1.659  1.00  0.00    -0.208 N   
ATOM     4   N4  UNL     1      -0.827  -1.617   1.540  1.00  0.00    -0.076 NA  
ATOM     5   N5  UNL     1      -1.902  -1.219   0.881  1.00  0.00    -0.132 NA  
ATOM     6   H18 UNL     1      -0.042   1.511   1.066  1.00  0.00     0.083 HD  
ENDROOT
BRANCH   1   7
ATOM     7   C4  UNL     1      -2.818   0.808  -0.205  1.00  0.00     0.117 C   
BRANCH   7   8
ATOM     8   C2  UNL     1      -3.858   1.520   0.700  1.00  0.00     0.037 C   
ATOM     9   C1  UNL     1      -4.776   2.438  -0.116  1.00  0.00     0.014 C   
ATOM     10  C3  UNL     1      -4.703   0.570   1.558  1.00  0.00     0.014 C   
ENDBRANCH   7   8
BRANCH   7  11
ATOM     11  N1  UNL     1      -3.499  -0.189  -1.117  1.00  0.00     0.249 N   
ATOM     12  H9  UNL     1      -3.326  -1.116  -0.696  1.00  0.00     0.199 HD  
ATOM     13  H10 UNL     1      -4.515  -0.067  -1.109  1.00  0.00     0.199 HD  
BRANCH  11  14
ATOM     14  C5  UNL     1      -3.027  -0.223  -2.530  1.00  0.00     0.164 C   
BRANCH  14  15
ATOM     15  C6  UNL     1      -1.568  -0.545  -2.689  1.00  0.00    -0.002 A   
ATOM     16  C7  UNL     1      -1.082  -1.845  -2.412  1.00  0.00     0.012 A   
ATOM     17  C11 UNL     1      -0.667   0.454  -3.096  1.00  0.00     0.045 A   
ATOM     18  C8  UNL     1       0.280  -2.147  -2.534  1.00  0.00     0.037 A   
ATOM     19  C10 UNL     1       0.667   0.124  -3.207  1.00  0.00     0.109 A   
ATOM     20  C9  UNL     1       1.128  -1.140  -2.937  1.00  0.00     0.108 A   
ATOM     21  O1  UNL     1       1.659   0.971  -3.586  1.00  0.00    -0.316 OA  
ATOM     22  O2  UNL     1       2.469  -1.254  -3.122  1.00  0.00    -0.316 OA  
ATOM     23  C12 UNL     1       2.806   0.092  -3.526  1.00  0.00     0.337 C   
ENDBRANCH  14  15
ENDBRANCH  11  14
ENDBRANCH   7  11
ENDBRANCH   1   7
BRANCH   3  24
ATOM     24  C15 UNL     1       1.266  -0.680   2.354  1.00  0.00     0.174 C   
BRANCH  24  25
ATOM     25  C16 UNL     1       2.366  -1.064   1.414  1.00  0.00     0.027 A   
ATOM     26  C17 UNL     1       2.767  -2.391   1.240  1.00  0.00     0.012 A   
ATOM     27  C20 UNL     1       3.012  -0.095   0.655  1.00  0.00     0.217 A   
ATOM     28  C18 UNL     1       3.792  -2.684   0.346  1.00  0.00     0.021 A   
ATOM     29  N3  UNL     1       4.006  -0.348  -0.219  1.00  0.00    -0.228 NA  
ATOM     30  C19 UNL     1       4.378  -1.639  -0.350  1.00  0.00     0.114 A   
ATOM     31  F1  UNL     1       2.624   1.183   0.782  1.00  0.00    -0.185 F   
ENDBRANCH  24  25
ENDBRANCH   3  24
TORSDOF 7
