REMARK SMILES Cc1c(F)cccc1[C@H](CO)n1cc([C@@H]([NH2+]Cc2ccc3c(c2)OCO3)C(C)(C)C)nn1
REMARK SMILES IDX 12 1 13 2 14 3 31 4 32 5 9 7 8 8 2 9 3 10 5 11 7 12 6 13
REMARK SMILES IDX 1 14 4 15 10 16 11 17 15 19 16 20 17 23 18 24 19 25 23 26
REMARK SMILES IDX 20 27 22 28 21 29 24 30 26 31 25 32 27 33 28 34 29 35 30 36
REMARK H PARENT 13 6 11 18 16 21 16 22
ROOT
ATOM     1   N1  UNL     1       0.770  -0.885  -1.451  1.00  0.00    -0.202 N   
ATOM     2   C10 UNL     1       1.109  -0.442  -0.200  1.00  0.00     0.046 A   
ATOM     3   C11 UNL     1       0.034  -0.789   0.585  1.00  0.00     0.127 A   
ATOM     4   N3  UNL     1      -0.930  -1.365  -0.204  1.00  0.00    -0.132 NA  
ATOM     5   N4  UNL     1      -0.476  -1.407  -1.446  1.00  0.00    -0.075 NA  
ATOM     6   H11 UNL     1       2.053   0.045   0.002  1.00  0.00     0.083 HD  
ENDROOT
BRANCH   1   7
ATOM     7   C8  UNL     1       1.551  -0.855  -2.689  1.00  0.00     0.155 C   
BRANCH   7   8
ATOM     8   C7  UNL     1       2.991  -1.316  -2.440  1.00  0.00    -0.017 A   
ATOM     9   C2  UNL     1       3.301  -2.692  -2.273  1.00  0.00    -0.010 A   
ATOM     10  C3  UNL     1       4.630  -3.068  -2.019  1.00  0.00     0.126 A   
ATOM     11  C4  UNL     1       5.651  -2.133  -1.929  1.00  0.00     0.039 A   
ATOM     12  C6  UNL     1       4.044  -0.383  -2.340  1.00  0.00     0.006 A   
ATOM     13  C5  UNL     1       5.359  -0.786  -2.090  1.00  0.00     0.003 A   
ATOM     14  C1  UNL     1       2.257  -3.775  -2.360  1.00  0.00     0.048 C   
ATOM     15  F1  UNL     1       4.938  -4.362  -1.851  1.00  0.00    -0.207 F   
ENDBRANCH   7   8
BRANCH   7  16
ATOM     16  C9  UNL     1       1.347   0.487  -3.425  1.00  0.00     0.185 C   
BRANCH  16  17
ATOM     17  O1  UNL     1       1.649   1.625  -2.614  1.00  0.00    -0.394 OA  
ATOM     18  H10 UNL     1       1.532   2.412  -3.179  1.00  0.00     0.210 HD  
ENDBRANCH  16  17
ENDBRANCH   7  16
ENDBRANCH   1   7
BRANCH   3  19
ATOM     19  C12 UNL     1      -0.233  -0.573   2.043  1.00  0.00     0.120 C   
BRANCH  19  20
ATOM     20  N2  UNL     1      -1.707  -0.293   2.226  1.00  0.00     0.250 N   
ATOM     21  H13 UNL     1      -2.209  -0.983   1.647  1.00  0.00     0.199 HD  
ATOM     22  H14 UNL     1      -2.021  -0.445   3.187  1.00  0.00     0.199 HD  
BRANCH  20  23
ATOM     23  C13 UNL     1      -2.154   1.058   1.784  1.00  0.00     0.164 C   
BRANCH  23  24
ATOM     24  C14 UNL     1      -3.640   1.199   1.953  1.00  0.00    -0.002 A   
ATOM     25  C15 UNL     1      -4.179   1.759   3.136  1.00  0.00     0.012 A   
ATOM     26  C19 UNL     1      -4.508   0.724   0.954  1.00  0.00     0.045 A   
ATOM     27  C16 UNL     1      -5.562   1.857   3.318  1.00  0.00     0.037 A   
ATOM     28  C18 UNL     1      -5.866   0.836   1.165  1.00  0.00     0.109 A   
ATOM     29  C17 UNL     1      -6.379   1.387   2.313  1.00  0.00     0.108 A   
ATOM     30  O2  UNL     1      -6.836   0.431   0.305  1.00  0.00    -0.316 OA  
ATOM     31  O3  UNL     1      -7.737   1.399   2.321  1.00  0.00    -0.316 OA  
ATOM     32  C20 UNL     1      -8.025   0.814   1.033  1.00  0.00     0.337 C   
ENDBRANCH  23  24
ENDBRANCH  20  23
ENDBRANCH  19  20
BRANCH  19  33
ATOM     33  C21 UNL     1       0.215  -1.764   2.960  1.00  0.00     0.010 C   
ATOM     34  C22 UNL     1       0.043  -1.388   4.450  1.00  0.00     0.017 C   
ATOM     35  C23 UNL     1      -0.584  -3.055   2.691  1.00  0.00     0.017 C   
ATOM     36  C24 UNL     1       1.716  -2.070   2.746  1.00  0.00     0.017 C   
ENDBRANCH  19  33
ENDBRANCH   3  19
TORSDOF 9
