REMARK SMILES CC(C)[C@H]([NH2+]Cc1ccc2c(c1)OCO2)c1cn(Cc2cncc(F)c2)nn1
REMARK SMILES IDX 16 1 17 2 18 3 27 4 28 5 4 7 2 8 1 9 3 10 5 11 6 14 7 15
REMARK SMILES IDX 8 16 12 17 9 18 11 19 10 20 13 21 15 22 14 23 19 24 20 25
REMARK SMILES IDX 21 26 26 27 22 28 24 29 23 30 25 31
REMARK H PARENT 17 6 5 12 5 13
ROOT
ATOM     1   C13 UNL     1      -1.048   0.022  -1.010  1.00  0.00     0.127 A   
ATOM     2   C14 UNL     1      -0.051  -0.134  -1.947  1.00  0.00     0.046 A   
ATOM     3   N2  UNL     1       0.624   1.056  -1.909  1.00  0.00    -0.208 N   
ATOM     4   N4  UNL     1       0.068   1.897  -1.016  1.00  0.00    -0.076 NA  
ATOM     5   N5  UNL     1      -0.950   1.272  -0.450  1.00  0.00    -0.132 NA  
ATOM     6   H18 UNL     1       0.241  -0.948  -2.595  1.00  0.00     0.083 HD  
ENDROOT
BRANCH   1   7
ATOM     7   C4  UNL     1      -2.100  -0.916  -0.509  1.00  0.00     0.117 C   
BRANCH   7   8
ATOM     8   C2  UNL     1      -3.418  -0.814  -1.322  1.00  0.00     0.037 C   
ATOM     9   C1  UNL     1      -4.379  -1.958  -0.977  1.00  0.00     0.014 C   
ATOM     10  C3  UNL     1      -4.142   0.531  -1.187  1.00  0.00     0.014 C   
ENDBRANCH   7   8
BRANCH   7  11
ATOM     11  N1  UNL     1      -2.356  -0.651   0.958  1.00  0.00     0.249 N   
ATOM     12  H9  UNL     1      -3.357  -0.657   1.169  1.00  0.00     0.199 HD  
ATOM     13  H10 UNL     1      -2.044   0.320   1.125  1.00  0.00     0.199 HD  
BRANCH  11  14
ATOM     14  C5  UNL     1      -1.654  -1.540   1.926  1.00  0.00     0.164 C   
BRANCH  14  15
ATOM     15  C6  UNL     1      -0.155  -1.509   1.817  1.00  0.00    -0.002 A   
ATOM     16  C7  UNL     1       0.576  -0.381   2.260  1.00  0.00     0.012 A   
ATOM     17  C11 UNL     1       0.532  -2.595   1.247  1.00  0.00     0.045 A   
ATOM     18  C8  UNL     1       1.970  -0.334   2.140  1.00  0.00     0.037 A   
ATOM     19  C10 UNL     1       1.905  -2.513   1.139  1.00  0.00     0.109 A   
ATOM     20  C9  UNL     1       2.604  -1.417   1.577  1.00  0.00     0.108 A   
ATOM     21  O1  UNL     1       2.711  -3.468   0.606  1.00  0.00    -0.316 OA  
ATOM     22  O2  UNL     1       3.943  -1.550   1.393  1.00  0.00    -0.316 OA  
ATOM     23  C12 UNL     1       4.010  -2.854   0.776  1.00  0.00     0.337 C   
ENDBRANCH  14  15
ENDBRANCH  11  14
ENDBRANCH   7  11
ENDBRANCH   1   7
BRANCH   3  24
ATOM     24  C15 UNL     1       1.772   1.468  -2.698  1.00  0.00     0.171 C   
BRANCH  24  25
ATOM     25  C16 UNL     1       3.058   1.109  -2.013  1.00  0.00    -0.007 A   
ATOM     26  C17 UNL     1       3.785  -0.020  -2.389  1.00  0.00     0.116 A   
ATOM     27  C20 UNL     1       3.567   1.883  -0.962  1.00  0.00     0.048 A   
ATOM     28  N3  UNL     1       4.943  -0.407  -1.808  1.00  0.00    -0.261 NA  
ATOM     29  C19 UNL     1       4.757   1.509  -0.356  1.00  0.00     0.141 A   
ATOM     30  C18 UNL     1       5.409   0.376  -0.804  1.00  0.00     0.150 A   
ATOM     31  F1  UNL     1       5.256   2.235   0.651  1.00  0.00    -0.205 F   
ENDBRANCH  24  25
ENDBRANCH   3  24
TORSDOF 7
