REMARK SMILES COc1ccc(Cn2cc([C@@H]([NH2+]Cc3ccc4c(c3)OCO4)C(C)C)nn2)cc1
REMARK SMILES IDX 8 1 9 2 10 3 26 4 27 5 7 7 6 8 3 9 4 10 29 11 5 12 28 13
REMARK SMILES IDX 2 14 1 15 11 16 12 17 13 20 14 21 15 22 19 23 16 24 18 25
REMARK SMILES IDX 17 26 20 27 22 28 21 29 23 30 24 31 25 32
REMARK H PARENT 9 6 12 18 12 19
ROOT
ATOM     1   N1  UNL     1       0.339   2.869  -0.237  1.00  0.00    -0.208 N   
ATOM     2   C7  UNL     1       0.434   1.937   0.761  1.00  0.00     0.046 A   
ATOM     3   C8  UNL     1       1.598   1.260   0.472  1.00  0.00     0.127 A   
ATOM     4   N3  UNL     1       2.194   1.834  -0.621  1.00  0.00    -0.132 NA  
ATOM     5   N4  UNL     1       1.412   2.812  -1.050  1.00  0.00    -0.076 NA  
ATOM     6   H8  UNL     1      -0.342   1.799   1.500  1.00  0.00     0.083 HD  
ENDROOT
BRANCH   1   7
ATOM     7   C6  UNL     1      -0.797   3.718  -0.559  1.00  0.00     0.169 C   
BRANCH   7   8
ATOM     8   C5  UNL     1      -1.928   2.876  -1.101  1.00  0.00    -0.028 A   
ATOM     9   C2  UNL     1      -3.957   1.184  -2.078  1.00  0.00     0.075 A   
ATOM     10  C3  UNL     1      -2.891   1.545  -2.899  1.00  0.00     0.034 A   
ATOM     11  C22 UNL     1      -4.009   1.676  -0.773  1.00  0.00     0.034 A   
ATOM     12  C4  UNL     1      -1.882   2.386  -2.414  1.00  0.00     0.008 A   
ATOM     13  C21 UNL     1      -3.008   2.518  -0.285  1.00  0.00     0.008 A   
BRANCH   9  14
ATOM     14  O1  UNL     1      -4.992   0.359  -2.418  1.00  0.00    -0.349 OA  
ATOM     15  C1  UNL     1      -5.075  -0.046  -3.779  1.00  0.00     0.203 C   
ENDBRANCH   9  14
ENDBRANCH   7   8
ENDBRANCH   1   7
BRANCH   3  16
ATOM     16  C9  UNL     1       2.167   0.015   1.068  1.00  0.00     0.117 C   
BRANCH  16  17
ATOM     17  N2  UNL     1       2.748  -0.882  -0.002  1.00  0.00     0.249 N   
ATOM     18  H10 UNL     1       3.474  -0.337  -0.484  1.00  0.00     0.199 HD  
ATOM     19  H11 UNL     1       3.202  -1.694   0.424  1.00  0.00     0.199 HD  
BRANCH  17  20
ATOM     20  C10 UNL     1       1.803  -1.358  -1.063  1.00  0.00     0.164 C   
BRANCH  20  21
ATOM     21  C11 UNL     1       0.611  -2.099  -0.527  1.00  0.00    -0.002 A   
ATOM     22  C12 UNL     1      -0.679  -1.516  -0.600  1.00  0.00     0.012 A   
ATOM     23  C16 UNL     1       0.766  -3.361   0.070  1.00  0.00     0.045 A   
ATOM     24  C13 UNL     1      -1.797  -2.173  -0.077  1.00  0.00     0.037 A   
ATOM     25  C15 UNL     1      -0.358  -3.981   0.576  1.00  0.00     0.109 A   
ATOM     26  C14 UNL     1      -1.603  -3.404   0.508  1.00  0.00     0.108 A   
ATOM     27  O2  UNL     1      -0.379  -5.195   1.186  1.00  0.00    -0.316 OA  
ATOM     28  O3  UNL     1      -2.564  -4.182   1.069  1.00  0.00    -0.316 OA  
ATOM     29  C17 UNL     1      -1.791  -5.331   1.474  1.00  0.00     0.337 C   
ENDBRANCH  20  21
ENDBRANCH  17  20
ENDBRANCH  16  17
BRANCH  16  30
ATOM     30  C18 UNL     1       3.226   0.308   2.165  1.00  0.00     0.037 C   
ATOM     31  C19 UNL     1       3.557  -0.948   2.981  1.00  0.00     0.014 C   
ATOM     32  C20 UNL     1       4.523   0.934   1.641  1.00  0.00     0.014 C   
ENDBRANCH  16  30
ENDBRANCH   3  16
TORSDOF 8
