REMARK SMILES COc1c(F)cc(F)cc1Cn1cc([C@@H]([NH2+]Cc2ccc3c(c2)OCO3)C(C)C)nn1
REMARK SMILES IDX 12 1 13 2 14 3 30 4 31 5 11 7 10 8 3 9 4 10 6 11 9 12 7 13
REMARK SMILES IDX 5 14 8 15 2 16 1 17 15 18 16 19 17 22 18 23 19 24 23 25
REMARK SMILES IDX 20 26 22 27 21 28 24 29 26 30 25 31 27 32 28 33 29 34
REMARK H PARENT 13 6 16 20 16 21
ROOT
ATOM     1   N1  UNL     1       0.767  -1.948   1.200  1.00  0.00    -0.208 N   
ATOM     2   C9  UNL     1       1.267  -1.394   0.053  1.00  0.00     0.046 A   
ATOM     3   C10 UNL     1       0.172  -0.804  -0.537  1.00  0.00     0.127 A   
ATOM     4   N3  UNL     1      -0.938  -1.046   0.232  1.00  0.00    -0.132 NA  
ATOM     5   N4  UNL     1      -0.566  -1.762   1.280  1.00  0.00    -0.076 NA  
ATOM     6   H8  UNL     1       2.316  -1.450  -0.203  1.00  0.00     0.083 HD  
ENDROOT
BRANCH   1   7
ATOM     7   C8  UNL     1       1.477  -2.680   2.235  1.00  0.00     0.172 C   
BRANCH   7   8
ATOM     8   C7  UNL     1       2.054  -1.737   3.264  1.00  0.00     0.008 A   
ATOM     9   C2  UNL     1       3.352  -1.203   3.130  1.00  0.00     0.115 A   
ATOM     10  C3  UNL     1       3.826  -0.312   4.106  1.00  0.00     0.156 A   
ATOM     11  C4  UNL     1       3.046   0.046   5.200  1.00  0.00     0.081 A   
ATOM     12  C6  UNL     1       1.269  -1.363   4.370  1.00  0.00     0.047 A   
ATOM     13  C5  UNL     1       1.772  -0.483   5.321  1.00  0.00     0.126 A   
ATOM     14  F1  UNL     1       5.043   0.243   4.011  1.00  0.00    -0.204 F   
ATOM     15  F2  UNL     1       1.009  -0.137   6.365  1.00  0.00    -0.207 F   
BRANCH   9  16
ATOM     16  O1  UNL     1       4.035  -1.603   2.009  1.00  0.00    -0.346 OA  
ATOM     17  C1  UNL     1       5.430  -1.313   1.960  1.00  0.00     0.203 C   
ENDBRANCH   9  16
ENDBRANCH   7   8
ENDBRANCH   1   7
BRANCH   3  18
ATOM     18  C11 UNL     1       0.036  -0.014  -1.801  1.00  0.00     0.117 C   
BRANCH  18  19
ATOM     19  N2  UNL     1      -1.398  -0.001  -2.259  1.00  0.00     0.249 N   
ATOM     20  H10 UNL     1      -1.601   0.783  -2.885  1.00  0.00     0.199 HD  
ATOM     21  H11 UNL     1      -1.975   0.146  -1.417  1.00  0.00     0.199 HD  
BRANCH  19  22
ATOM     22  C12 UNL     1      -1.872  -1.262  -2.895  1.00  0.00     0.164 C   
BRANCH  22  23
ATOM     23  C13 UNL     1      -3.338  -1.169  -3.209  1.00  0.00    -0.002 A   
ATOM     24  C14 UNL     1      -4.297  -1.504  -2.222  1.00  0.00     0.012 A   
ATOM     25  C18 UNL     1      -3.768  -0.694  -4.460  1.00  0.00     0.045 A   
ATOM     26  C15 UNL     1      -5.666  -1.381  -2.481  1.00  0.00     0.037 A   
ATOM     27  C17 UNL     1      -5.125  -0.585  -4.681  1.00  0.00     0.109 A   
ATOM     28  C16 UNL     1      -6.048  -0.918  -3.720  1.00  0.00     0.108 A   
ATOM     29  O2  UNL     1      -5.704  -0.146  -5.829  1.00  0.00    -0.316 OA  
ATOM     30  O3  UNL     1      -7.325  -0.734  -4.143  1.00  0.00    -0.316 OA  
ATOM     31  C19 UNL     1      -7.106  -0.265  -5.491  1.00  0.00     0.337 C   
ENDBRANCH  22  23
ENDBRANCH  19  22
ENDBRANCH  18  19
BRANCH  18  32
ATOM     32  C20 UNL     1       0.561   1.438  -1.641  1.00  0.00     0.037 C   
ATOM     33  C21 UNL     1      -0.288   2.305  -0.704  1.00  0.00     0.014 C   
ATOM     34  C22 UNL     1       0.715   2.138  -2.996  1.00  0.00     0.014 C   
ENDBRANCH  18  32
ENDBRANCH   3  18
TORSDOF 8
