REMARK SMILES c1ccc2[nH]c(Cn3cc([C@@H]([NH2+]Cc4ccc5c(c4)OCO5)C4CCCC4)nn3)cc2c1
REMARK SMILES IDX 8 1 9 2 10 3 28 4 29 5 7 7 6 8 1 9 2 10 32 11 3 12 31 13
REMARK SMILES IDX 4 14 30 15 5 16 11 18 12 19 13 22 14 23 15 24 19 25 16 26
REMARK SMILES IDX 18 27 17 28 20 29 22 30 21 31 23 32 24 33 27 34 25 35 26 36
REMARK H PARENT 9 6 5 17 12 20 12 21
ROOT
ATOM     1   N2  UNL     1      -1.607  -2.282  -1.475  1.00  0.00    -0.206 N   
ATOM     2   C7  UNL     1      -0.819  -1.491  -2.266  1.00  0.00     0.046 A   
ATOM     3   C8  UNL     1       0.237  -1.154  -1.449  1.00  0.00     0.127 A   
ATOM     4   N4  UNL     1       0.068  -1.748  -0.224  1.00  0.00    -0.132 NA  
ATOM     5   N5  UNL     1      -1.067  -2.428  -0.248  1.00  0.00    -0.076 NA  
ATOM     6   H7  UNL     1      -1.093  -1.233  -3.279  1.00  0.00     0.083 HD  
ENDROOT
BRANCH   1   7
ATOM     7   C6  UNL     1      -2.905  -2.859  -1.790  1.00  0.00     0.185 C   
BRANCH   7   8
ATOM     8   C5  UNL     1      -3.983  -1.869  -1.503  1.00  0.00     0.027 A   
ATOM     9   C1  UNL     1      -7.265   1.302  -0.781  1.00  0.00     0.001 A   
ATOM     10  C2  UNL     1      -7.024   0.922   0.538  1.00  0.00     0.002 A   
ATOM     11  C25 UNL     1      -6.559   0.710  -1.834  1.00  0.00     0.010 A   
ATOM     12  C3  UNL     1      -6.074  -0.057   0.844  1.00  0.00     0.024 A   
ATOM     13  C24 UNL     1      -5.597  -0.277  -1.549  1.00  0.00    -0.003 A   
ATOM     14  C4  UNL     1      -5.377  -0.637  -0.221  1.00  0.00     0.037 A   
ATOM     15  C23 UNL     1      -4.722  -1.064  -2.347  1.00  0.00     0.031 A   
ATOM     16  N1  UNL     1      -4.409  -1.615  -0.219  1.00  0.00    -0.316 N   
ATOM     17  H4  UNL     1      -4.057  -2.062   0.618  1.00  0.00     0.153 HD  
ENDBRANCH   7   8
ENDBRANCH   1   7
BRANCH   3  18
ATOM     18  C9  UNL     1       1.408  -0.252  -1.674  1.00  0.00     0.117 C   
BRANCH  18  19
ATOM     19  N3  UNL     1       1.800   0.410  -0.381  1.00  0.00     0.249 N   
ATOM     20  H9  UNL     1       1.776  -0.321   0.346  1.00  0.00     0.199 HD  
ATOM     21  H10 UNL     1       2.759   0.766  -0.397  1.00  0.00     0.199 HD  
BRANCH  19  22
ATOM     22  C10 UNL     1       0.886   1.497   0.073  1.00  0.00     0.164 C   
BRANCH  22  23
ATOM     23  C11 UNL     1       1.323   2.023   1.411  1.00  0.00    -0.002 A   
ATOM     24  C12 UNL     1       0.912   1.370   2.598  1.00  0.00     0.012 A   
ATOM     25  C16 UNL     1       2.183   3.130   1.491  1.00  0.00     0.045 A   
ATOM     26  C13 UNL     1       1.341   1.820   3.851  1.00  0.00     0.037 A   
ATOM     27  C15 UNL     1       2.586   3.549   2.743  1.00  0.00     0.109 A   
ATOM     28  C14 UNL     1       2.178   2.913   3.889  1.00  0.00     0.108 A   
ATOM     29  O1  UNL     1       3.410   4.599   2.996  1.00  0.00    -0.316 OA  
ATOM     30  O2  UNL     1       2.693   3.483   5.009  1.00  0.00    -0.316 OA  
ATOM     31  C17 UNL     1       3.448   4.574   4.442  1.00  0.00     0.337 C   
ENDBRANCH  22  23
ENDBRANCH  19  22
ENDBRANCH  18  19
BRANCH  18  32
ATOM     32  C18 UNL     1       2.601  -1.009  -2.289  1.00  0.00     0.043 C   
ATOM     33  C19 UNL     1       3.286  -2.057  -1.395  1.00  0.00     0.010 C   
ATOM     34  C22 UNL     1       3.751  -0.115  -2.762  1.00  0.00     0.010 C   
ATOM     35  C20 UNL     1       4.763  -2.060  -1.802  1.00  0.00     0.001 C   
ATOM     36  C21 UNL     1       4.876  -1.112  -2.988  1.00  0.00     0.001 C   
ENDBRANCH  18  32
ENDBRANCH   3  18
TORSDOF 7
