REMARK SMILES COc1ccc(CCn2cc([C@@H]([NH2+]Cc3ccc4c(c3)OCO4)C(C)C)nn2)c(O)c1
REMARK SMILES IDX 9 1 10 2 11 3 27 4 28 5 8 7 7 8 6 9 3 10 4 11 31 12 5 13
REMARK SMILES IDX 29 14 2 15 1 16 30 17 12 19 13 20 14 23 15 24 16 25 20 26
REMARK SMILES IDX 17 27 19 28 18 29 21 30 23 31 22 32 24 33 25 34 26 35
REMARK H PARENT 10 6 30 18 13 21 13 22
ROOT
ATOM     1   N1  UNL     1      -1.412  -0.941  -3.686  1.00  0.00    -0.212 N   
ATOM     2   C8  UNL     1      -1.141   0.302  -3.185  1.00  0.00     0.045 A   
ATOM     3   C9  UNL     1       0.102   0.150  -2.611  1.00  0.00     0.127 A   
ATOM     4   N3  UNL     1       0.589  -1.100  -2.907  1.00  0.00    -0.132 NA  
ATOM     5   N4  UNL     1      -0.348  -1.758  -3.567  1.00  0.00    -0.076 NA  
ATOM     6   H10 UNL     1      -1.890   1.083  -3.136  1.00  0.00     0.083 HD  
ENDROOT
BRANCH   1   7
ATOM     7   C7  UNL     1      -2.721  -1.508  -3.939  1.00  0.00     0.139 C   
BRANCH   7   8
ATOM     8   C6  UNL     1      -3.195  -2.388  -2.770  1.00  0.00     0.059 C   
BRANCH   8   9
ATOM     9   C5  UNL     1      -3.418  -1.624  -1.478  1.00  0.00    -0.016 A   
ATOM     10  C2  UNL     1      -3.994  -0.129   0.855  1.00  0.00     0.077 A   
ATOM     11  C3  UNL     1      -4.977  -0.327  -0.108  1.00  0.00     0.034 A   
ATOM     12  C23 UNL     1      -2.724  -0.671   0.652  1.00  0.00     0.066 A   
ATOM     13  C4  UNL     1      -4.690  -1.066  -1.261  1.00  0.00     0.009 A   
ATOM     14  C22 UNL     1      -2.437  -1.407  -0.498  1.00  0.00     0.077 A   
BRANCH  10  15
ATOM     15  O1  UNL     1      -4.138   0.585   2.012  1.00  0.00    -0.349 OA  
ATOM     16  C1  UNL     1      -5.463   0.935   2.386  1.00  0.00     0.203 C   
ENDBRANCH  10  15
BRANCH  14  17
ATOM     17  O4  UNL     1      -1.140  -1.846  -0.594  1.00  0.00    -0.361 OA  
ATOM     18  H28 UNL     1      -1.056  -2.428  -1.379  1.00  0.00     0.218 HD  
ENDBRANCH  14  17
ENDBRANCH   8   9
ENDBRANCH   7   8
ENDBRANCH   1   7
BRANCH   3  19
ATOM     19  C10 UNL     1       0.799   0.988  -1.587  1.00  0.00     0.117 C   
BRANCH  19  20
ATOM     20  N2  UNL     1       1.131   0.085  -0.427  1.00  0.00     0.249 N   
ATOM     21  H12 UNL     1       1.897  -0.543  -0.704  1.00  0.00     0.199 HD  
ATOM     22  H13 UNL     1       0.337  -0.572  -0.310  1.00  0.00     0.199 HD  
BRANCH  20  23
ATOM     23  C11 UNL     1       1.400   0.711   0.885  1.00  0.00     0.164 C   
BRANCH  23  24
ATOM     24  C12 UNL     1       2.393  -0.096   1.671  1.00  0.00    -0.002 A   
ATOM     25  C13 UNL     1       1.980  -1.218   2.424  1.00  0.00     0.012 A   
ATOM     26  C17 UNL     1       3.757   0.229   1.608  1.00  0.00     0.045 A   
ATOM     27  C14 UNL     1       2.914  -1.997   3.116  1.00  0.00     0.037 A   
ATOM     28  C16 UNL     1       4.649  -0.555   2.303  1.00  0.00     0.109 A   
ATOM     29  C15 UNL     1       4.240  -1.637   3.037  1.00  0.00     0.108 A   
ATOM     30  O2  UNL     1       5.993  -0.370   2.348  1.00  0.00    -0.316 OA  
ATOM     31  O3  UNL     1       5.278  -2.269   3.642  1.00  0.00    -0.316 OA  
ATOM     32  C18 UNL     1       6.388  -1.450   3.218  1.00  0.00     0.337 C   
ENDBRANCH  23  24
ENDBRANCH  20  23
ENDBRANCH  19  20
BRANCH  19  33
ATOM     33  C19 UNL     1       2.059   1.720  -2.109  1.00  0.00     0.037 C   
ATOM     34  C20 UNL     1       3.133   0.806  -2.705  1.00  0.00     0.014 C   
ATOM     35  C21 UNL     1       1.683   2.796  -3.133  1.00  0.00     0.014 C   
ENDBRANCH  19  33
ENDBRANCH   3  19
TORSDOF 10
