REMARK SMILES Fc1cccnc1CCn1cc([C@@H]([NH2+]Cc2ccc3c(c2)OCO3)C2CCCC2)nn1
REMARK SMILES IDX 10 1 11 2 12 3 30 4 31 5 9 7 8 8 7 9 2 10 3 11 4 12 6 13
REMARK SMILES IDX 5 14 1 15 13 16 14 17 15 20 16 21 17 22 21 23 18 24 20 25
REMARK SMILES IDX 19 26 22 27 24 28 23 29 25 30 26 31 29 32 27 33 28 34
REMARK H PARENT 11 6 14 18 14 19
ROOT
ATOM     1   N2  UNL     1       2.740  -0.000  -2.191  1.00  0.00    -0.212 N   
ATOM     2   C8  UNL     1       2.445  -0.454  -0.937  1.00  0.00     0.045 A   
ATOM     3   C9  UNL     1       1.334  -1.244  -1.124  1.00  0.00     0.127 A   
ATOM     4   N4  UNL     1       1.017  -1.270  -2.458  1.00  0.00    -0.132 NA  
ATOM     5   N5  UNL     1       1.886  -0.506  -3.100  1.00  0.00    -0.076 NA  
ATOM     6   H8  UNL     1       3.005  -0.146  -0.065  1.00  0.00     0.083 HD  
ENDROOT
BRANCH   1   7
ATOM     7   C7  UNL     1       3.794   0.909  -2.591  1.00  0.00     0.140 C   
BRANCH   7   8
ATOM     8   C6  UNL     1       3.271   2.272  -3.043  1.00  0.00     0.081 C   
BRANCH   8   9
ATOM     9   C5  UNL     1       2.641   3.107  -1.954  1.00  0.00     0.078 A   
ATOM     10  C1  UNL     1       1.936   4.256  -2.303  1.00  0.00     0.144 A   
ATOM     11  C2  UNL     1       1.393   5.059  -1.310  1.00  0.00     0.043 A   
ATOM     12  C3  UNL     1       1.578   4.701   0.020  1.00  0.00     0.023 A   
ATOM     13  N1  UNL     1       2.825   2.739  -0.658  1.00  0.00    -0.258 NA  
ATOM     14  C4  UNL     1       2.299   3.549   0.294  1.00  0.00     0.111 A   
ATOM     15  F1  UNL     1       1.780   4.599  -3.589  1.00  0.00    -0.205 F   
ENDBRANCH   8   9
ENDBRANCH   7   8
ENDBRANCH   1   7
BRANCH   3  16
ATOM     16  C10 UNL     1       0.458  -1.944  -0.141  1.00  0.00     0.117 C   
BRANCH  16  17
ATOM     17  N3  UNL     1      -0.989  -1.861  -0.572  1.00  0.00     0.249 N   
ATOM     18  H10 UNL     1      -1.020  -2.196  -1.544  1.00  0.00     0.199 HD  
ATOM     19  H11 UNL     1      -1.575  -2.486  -0.014  1.00  0.00     0.199 HD  
BRANCH  17  20
ATOM     20  C11 UNL     1      -1.598  -0.496  -0.584  1.00  0.00     0.164 C   
BRANCH  20  21
ATOM     21  C12 UNL     1      -1.649   0.148   0.773  1.00  0.00    -0.002 A   
ATOM     22  C13 UNL     1      -2.562  -0.306   1.753  1.00  0.00     0.012 A   
ATOM     23  C17 UNL     1      -0.760   1.194   1.086  1.00  0.00     0.045 A   
ATOM     24  C14 UNL     1      -2.590   0.268   3.029  1.00  0.00     0.037 A   
ATOM     25  C16 UNL     1      -0.813   1.737   2.352  1.00  0.00     0.109 A   
ATOM     26  C15 UNL     1      -1.702   1.286   3.296  1.00  0.00     0.108 A   
ATOM     27  O1  UNL     1      -0.025   2.742   2.817  1.00  0.00    -0.316 OA  
ATOM     28  O2  UNL     1      -1.590   1.952   4.474  1.00  0.00    -0.316 OA  
ATOM     29  C18 UNL     1      -0.535   2.888   4.163  1.00  0.00     0.337 C   
ENDBRANCH  20  21
ENDBRANCH  17  20
ENDBRANCH  16  17
BRANCH  16  30
ATOM     30  C19 UNL     1       0.884  -3.413   0.065  1.00  0.00     0.043 C   
ATOM     31  C20 UNL     1       0.211  -4.101   1.261  1.00  0.00     0.010 C   
ATOM     32  C23 UNL     1       0.667  -4.370  -1.125  1.00  0.00     0.010 C   
ATOM     33  C21 UNL     1       0.352  -5.580   0.945  1.00  0.00     0.001 C   
ATOM     34  C22 UNL     1       0.050  -5.640  -0.542  1.00  0.00     0.001 C   
ENDBRANCH  16  30
ENDBRANCH   3  16
TORSDOF 8
