REMARK SMILES Cc1cccc(F)c1[C@@H](CO)n1cc([C@@H]([NH2+]Cc2ccc3c(c2)OCO3)C(C)C)nn1
REMARK SMILES IDX 12 1 13 2 14 3 30 4 31 5 9 7 8 8 2 9 3 10 4 11 6 12 5 13
REMARK SMILES IDX 1 14 7 15 10 16 11 17 15 19 16 20 17 23 18 24 19 25 23 26
REMARK SMILES IDX 20 27 22 28 21 29 24 30 26 31 25 32 27 33 28 34 29 35
REMARK H PARENT 13 6 11 18 16 21 16 22
ROOT
ATOM     1   N1  UNL     1      -1.125  -1.473  -1.379  1.00  0.00    -0.202 N   
ATOM     2   C10 UNL     1      -0.653  -2.148  -0.284  1.00  0.00     0.046 A   
ATOM     3   C11 UNL     1      -0.759  -1.241   0.747  1.00  0.00     0.127 A   
ATOM     4   N3  UNL     1      -1.288  -0.074   0.264  1.00  0.00    -0.132 NA  
ATOM     5   N4  UNL     1      -1.515  -0.228  -1.029  1.00  0.00    -0.075 NA  
ATOM     6   H11 UNL     1      -0.282  -3.163  -0.339  1.00  0.00     0.083 HD  
ENDROOT
BRANCH   1   7
ATOM     7   C8  UNL     1      -1.253  -1.914  -2.770  1.00  0.00     0.158 C   
BRANCH   7   8
ATOM     8   C7  UNL     1       0.039  -1.640  -3.534  1.00  0.00     0.016 A   
ATOM     9   C2  UNL     1       0.122  -0.654  -4.546  1.00  0.00    -0.043 A   
ATOM     10  C3  UNL     1       1.344  -0.451  -5.215  1.00  0.00     0.004 A   
ATOM     11  C4  UNL     1       2.475  -1.201  -4.899  1.00  0.00     0.003 A   
ATOM     12  C6  UNL     1       1.199  -2.377  -3.240  1.00  0.00     0.128 A   
ATOM     13  C5  UNL     1       2.402  -2.168  -3.907  1.00  0.00     0.039 A   
ATOM     14  C1  UNL     1      -1.059   0.188  -4.951  1.00  0.00     0.045 C   
ATOM     15  F1  UNL     1       1.173  -3.312  -2.279  1.00  0.00    -0.207 F   
ENDBRANCH   7   8
BRANCH   7  16
ATOM     16  C9  UNL     1      -1.760  -3.365  -2.891  1.00  0.00     0.186 C   
BRANCH  16  17
ATOM     17  O1  UNL     1      -2.240  -3.613  -4.212  1.00  0.00    -0.394 OA  
ATOM     18  H10 UNL     1      -2.514  -4.545  -4.262  1.00  0.00     0.210 HD  
ENDBRANCH  16  17
ENDBRANCH   7  16
ENDBRANCH   1   7
BRANCH   3  19
ATOM     19  C12 UNL     1      -0.345  -1.317   2.182  1.00  0.00     0.117 C   
BRANCH  19  20
ATOM     20  N2  UNL     1       0.096   0.047   2.654  1.00  0.00     0.249 N   
ATOM     21  H13 UNL     1       0.078   0.121   3.676  1.00  0.00     0.199 HD  
ATOM     22  H14 UNL     1      -0.601   0.720   2.300  1.00  0.00     0.199 HD  
BRANCH  20  23
ATOM     23  C13 UNL     1       1.425   0.493   2.150  1.00  0.00     0.164 C   
BRANCH  23  24
ATOM     24  C14 UNL     1       1.698   1.908   2.572  1.00  0.00    -0.002 A   
ATOM     25  C15 UNL     1       2.430   2.180   3.752  1.00  0.00     0.012 A   
ATOM     26  C19 UNL     1       1.179   2.974   1.816  1.00  0.00     0.045 A   
ATOM     27  C16 UNL     1       2.655   3.496   4.169  1.00  0.00     0.037 A   
ATOM     28  C18 UNL     1       1.418   4.259   2.256  1.00  0.00     0.109 A   
ATOM     29  C17 UNL     1       2.137   4.513   3.398  1.00  0.00     0.108 A   
ATOM     30  O2  UNL     1       0.992   5.396   1.646  1.00  0.00    -0.316 OA  
ATOM     31  O3  UNL     1       2.257   5.843   3.649  1.00  0.00    -0.316 OA  
ATOM     32  C20 UNL     1       1.541   6.402   2.527  1.00  0.00     0.337 C   
ENDBRANCH  23  24
ENDBRANCH  20  23
ENDBRANCH  19  20
BRANCH  19  33
ATOM     33  C21 UNL     1      -1.451  -1.834   3.137  1.00  0.00     0.037 C   
ATOM     34  C22 UNL     1      -1.821  -3.291   2.837  1.00  0.00     0.014 C   
ATOM     35  C23 UNL     1      -2.718  -0.972   3.159  1.00  0.00     0.014 C   
ENDBRANCH  19  33
ENDBRANCH   3  19
TORSDOF 9
