REMARK SMILES Cc1cccc(Cn2cc([C@@H]([NH2+]Cc3ccc4c(c3)OCO4)C(C)C)nn2)c1F
REMARK SMILES IDX 8 1 9 2 10 3 26 4 27 5 7 7 6 8 2 9 3 10 28 11 4 12 5 13 1 14
REMARK SMILES IDX 29 15 11 16 12 17 13 20 14 21 15 22 19 23 16 24 18 25 17 26
REMARK SMILES IDX 20 27 22 28 21 29 23 30 24 31 25 32
REMARK H PARENT 9 6 12 18 12 19
ROOT
ATOM     1   N1  UNL     1       0.898  -2.652   1.064  1.00  0.00    -0.208 N   
ATOM     2   C8  UNL     1       1.013  -2.408  -0.278  1.00  0.00     0.046 A   
ATOM     3   C9  UNL     1       1.181  -1.044  -0.356  1.00  0.00     0.127 A   
ATOM     4   N3  UNL     1       1.165  -0.516   0.911  1.00  0.00    -0.132 NA  
ATOM     5   N4  UNL     1       0.992  -1.508   1.769  1.00  0.00    -0.076 NA  
ATOM     6   H9  UNL     1       0.950  -3.197  -1.015  1.00  0.00     0.083 HD  
ENDROOT
BRANCH   1   7
ATOM     7   C7  UNL     1       0.706  -3.927   1.734  1.00  0.00     0.172 C   
BRANCH   7   8
ATOM     8   C6  UNL     1      -0.756  -4.248   1.872  1.00  0.00     0.007 A   
ATOM     9   C2  UNL     1      -2.809  -5.149   0.901  1.00  0.00    -0.015 A   
ATOM     10  C3  UNL     1      -3.492  -4.831   2.079  1.00  0.00     0.006 A   
ATOM     11  C22 UNL     1      -1.450  -4.838   0.810  1.00  0.00     0.130 A   
ATOM     12  C4  UNL     1      -2.818  -4.232   3.146  1.00  0.00     0.001 A   
ATOM     13  C5  UNL     1      -1.457  -3.941   3.045  1.00  0.00     0.008 A   
ATOM     14  C1  UNL     1      -3.528  -5.764  -0.261  1.00  0.00     0.047 C   
ATOM     15  F1  UNL     1      -0.790  -5.099  -0.330  1.00  0.00    -0.206 F   
ENDBRANCH   7   8
ENDBRANCH   1   7
BRANCH   3  16
ATOM     16  C10 UNL     1       1.297  -0.127  -1.529  1.00  0.00     0.117 C   
BRANCH  16  17
ATOM     17  N2  UNL     1       0.668   1.205  -1.199  1.00  0.00     0.249 N   
ATOM     18  H11 UNL     1       0.998   1.462  -0.256  1.00  0.00     0.199 HD  
ATOM     19  H12 UNL     1       0.991   1.944  -1.831  1.00  0.00     0.199 HD  
BRANCH  17  20
ATOM     20  C11 UNL     1      -0.821   1.211  -1.155  1.00  0.00     0.164 C   
BRANCH  20  21
ATOM     21  C12 UNL     1      -1.327   2.565  -0.746  1.00  0.00    -0.002 A   
ATOM     22  C13 UNL     1      -1.709   3.515  -1.722  1.00  0.00     0.012 A   
ATOM     23  C17 UNL     1      -1.376   2.913   0.616  1.00  0.00     0.045 A   
ATOM     24  C14 UNL     1      -2.144   4.792  -1.349  1.00  0.00     0.037 A   
ATOM     25  C16 UNL     1      -1.806   4.180   0.948  1.00  0.00     0.109 A   
ATOM     26  C15 UNL     1      -2.180   5.093  -0.006  1.00  0.00     0.108 A   
ATOM     27  O1  UNL     1      -1.911   4.674   2.209  1.00  0.00    -0.316 OA  
ATOM     28  O2  UNL     1      -2.569   6.277   0.534  1.00  0.00    -0.316 OA  
ATOM     29  C18 UNL     1      -2.416   6.002   1.943  1.00  0.00     0.337 C   
ENDBRANCH  20  21
ENDBRANCH  17  20
ENDBRANCH  16  17
BRANCH  16  30
ATOM     30  C19 UNL     1       2.753   0.123  -2.002  1.00  0.00     0.037 C   
ATOM     31  C20 UNL     1       3.663   0.742  -0.935  1.00  0.00     0.014 C   
ATOM     32  C21 UNL     1       3.396  -1.155  -2.552  1.00  0.00     0.014 C   
ENDBRANCH  16  30
ENDBRANCH   3  16
TORSDOF 7
