REMARK SMILES [O-][S+]([O-])c1ccccc1Cn1cc([C@@H]([NH2+]Cc2ccc3c(c2)OCO3)C2CCCC2)nn1
REMARK SMILES IDX 11 1 12 2 13 3 31 4 32 5 10 7 9 8 4 9 5 10 6 11 8 12 7 13
REMARK SMILES IDX 2 14 1 15 3 16 14 17 15 18 16 21 17 22 18 23 22 24 19 25
REMARK SMILES IDX 21 26 20 27 23 28 25 29 24 30 26 31 27 32 30 33 28 34 29 35
REMARK H PARENT 12 6 15 19 15 20
ROOT
ATOM     1   N1  UNL     1       2.365  -1.298   2.040  1.00  0.00    -0.208 N   
ATOM     2   C8  UNL     1       2.485  -0.803   0.772  1.00  0.00     0.046 A   
ATOM     3   C9  UNL     1       1.342  -1.278   0.164  1.00  0.00     0.127 A   
ATOM     4   N3  UNL     1       0.835  -2.309   0.908  1.00  0.00    -0.132 NA  
ATOM     5   N4  UNL     1       1.508  -2.346   2.050  1.00  0.00    -0.076 NA  
ATOM     6   H7  UNL     1       3.141   0.021   0.531  1.00  0.00     0.083 HD  
ENDROOT
BRANCH   1   7
ATOM     7   C7  UNL     1       2.842  -0.741   3.299  1.00  0.00     0.174 C   
BRANCH   7   8
ATOM     8   C6  UNL     1       3.693   0.506   3.176  1.00  0.00     0.028 A   
ATOM     9   C1  UNL     1       3.206   1.779   2.800  1.00  0.00     0.172 A   
ATOM     10  C2  UNL     1       4.092   2.868   2.734  1.00  0.00     0.063 A   
ATOM     11  C3  UNL     1       5.443   2.720   3.042  1.00  0.00     0.005 A   
ATOM     12  C5  UNL     1       5.067   0.381   3.479  1.00  0.00     0.011 A   
ATOM     13  C4  UNL     1       5.931   1.474   3.413  1.00  0.00     0.001 A   
BRANCH   9  14
ATOM     14  S1  UNL     1       1.483   2.156   2.302  1.00  0.00     0.041 S   
ATOM     15  O1  UNL     1       1.446   2.177   0.788  1.00  0.00    -0.672 OA  
ATOM     16  O2  UNL     1       0.555   1.122   2.884  1.00  0.00    -0.672 OA  
ENDBRANCH   9  14
ENDBRANCH   7   8
ENDBRANCH   1   7
BRANCH   3  17
ATOM     17  C10 UNL     1       0.544  -0.651  -0.930  1.00  0.00     0.117 C   
BRANCH  17  18
ATOM     18  N2  UNL     1      -0.189   0.545  -0.389  1.00  0.00     0.249 N   
ATOM     19  H9  UNL     1       0.511   1.116   0.149  1.00  0.00     0.199 HD  
ATOM     20  H10 UNL     1      -0.513   1.189  -1.105  1.00  0.00     0.199 HD  
BRANCH  18  21
ATOM     21  C11 UNL     1      -1.275   0.289   0.597  1.00  0.00     0.164 C   
BRANCH  21  22
ATOM     22  C12 UNL     1      -2.491  -0.323  -0.053  1.00  0.00    -0.002 A   
ATOM     23  C13 UNL     1      -2.769  -1.700   0.117  1.00  0.00     0.012 A   
ATOM     24  C17 UNL     1      -3.332   0.459  -0.864  1.00  0.00     0.045 A   
ATOM     25  C14 UNL     1      -3.864  -2.297  -0.515  1.00  0.00     0.037 A   
ATOM     26  C16 UNL     1      -4.403  -0.160  -1.474  1.00  0.00     0.109 A   
ATOM     27  C15 UNL     1      -4.661  -1.499  -1.306  1.00  0.00     0.108 A   
ATOM     28  O3  UNL     1      -5.304   0.445  -2.292  1.00  0.00    -0.316 OA  
ATOM     29  O4  UNL     1      -5.757  -1.907  -1.998  1.00  0.00    -0.316 OA  
ATOM     30  C18 UNL     1      -6.166  -0.668  -2.615  1.00  0.00     0.337 C   
ENDBRANCH  21  22
ENDBRANCH  18  21
ENDBRANCH  17  18
BRANCH  17  31
ATOM     31  C19 UNL     1       1.396  -0.209  -2.135  1.00  0.00     0.043 C   
ATOM     32  C20 UNL     1       2.114  -1.375  -2.822  1.00  0.00     0.010 C   
ATOM     33  C23 UNL     1       0.584   0.382  -3.293  1.00  0.00     0.010 C   
ATOM     34  C21 UNL     1       2.539  -0.797  -4.164  1.00  0.00     0.001 C   
ATOM     35  C22 UNL     1       1.469   0.227  -4.528  1.00  0.00     0.001 C   
ENDBRANCH  17  31
ENDBRANCH   3  17
TORSDOF 8
