REMARK SMILES CC(C)C[C@H]([NH2+]Cc1ccc2c(c1)OCO2)c1cn(CC(=O)c2ccc(Cl)cc2)nn1
REMARK SMILES IDX 17 1 18 2 19 3 30 4 31 5 5 7 4 8 2 9 1 10 3 11 6 12 7 15
REMARK SMILES IDX 8 16 9 17 13 18 10 19 12 20 11 21 14 22 16 23 15 24 20 25
REMARK SMILES IDX 21 26 22 27 23 28 24 29 29 30 25 31 28 32 26 33 27 34
REMARK H PARENT 18 6 6 13 6 14
ROOT
ATOM     1   C14 UNL     1       0.148   1.182   0.622  1.00  0.00     0.127 A   
ATOM     2   C15 UNL     1      -0.402   0.455   1.655  1.00  0.00     0.046 A   
ATOM     3   N2  UNL     1       0.183   0.975   2.774  1.00  0.00    -0.204 N   
ATOM     4   N3  UNL     1       0.987   2.006   2.458  1.00  0.00    -0.076 NA  
ATOM     5   N4  UNL     1       0.987   2.134   1.142  1.00  0.00    -0.132 NA  
ATOM     6   H20 UNL     1      -1.095  -0.376   1.698  1.00  0.00     0.083 HD  
ENDROOT
BRANCH   1   7
ATOM     7   C5  UNL     1      -0.055   1.101  -0.854  1.00  0.00     0.114 C   
BRANCH   7   8
ATOM     8   C4  UNL     1       1.022   0.249  -1.552  1.00  0.00     0.064 C   
BRANCH   8   9
ATOM     9   C2  UNL     1       1.043  -1.245  -1.158  1.00  0.00    -0.012 C   
ATOM     10  C1  UNL     1      -0.285  -1.947  -1.462  1.00  0.00     0.007 C   
ATOM     11  C3  UNL     1       2.182  -1.958  -1.896  1.00  0.00     0.007 C   
ENDBRANCH   8   9
ENDBRANCH   7   8
BRANCH   7  12
ATOM     12  N1  UNL     1       0.021   2.488  -1.463  1.00  0.00     0.249 N   
ATOM     13  H11 UNL     1       0.879   2.917  -1.092  1.00  0.00     0.199 HD  
ATOM     14  H12 UNL     1       0.129   2.421  -2.480  1.00  0.00     0.199 HD  
BRANCH  12  15
ATOM     15  C6  UNL     1      -1.112   3.408  -1.155  1.00  0.00     0.164 C   
BRANCH  15  16
ATOM     16  C7  UNL     1      -2.393   2.990  -1.820  1.00  0.00    -0.002 A   
ATOM     17  C8  UNL     1      -2.591   3.228  -3.201  1.00  0.00     0.012 A   
ATOM     18  C12 UNL     1      -3.386   2.322  -1.084  1.00  0.00     0.045 A   
ATOM     19  C9  UNL     1      -3.760   2.803  -3.842  1.00  0.00     0.037 A   
ATOM     20  C11 UNL     1      -4.521   1.911  -1.748  1.00  0.00     0.109 A   
ATOM     21  C10 UNL     1      -4.704   2.144  -3.087  1.00  0.00     0.108 A   
ATOM     22  O1  UNL     1      -5.564   1.243  -1.190  1.00  0.00    -0.316 OA  
ATOM     23  O2  UNL     1      -5.887   1.657  -3.542  1.00  0.00    -0.316 OA  
ATOM     24  C13 UNL     1      -6.448   1.116  -2.329  1.00  0.00     0.337 C   
ENDBRANCH  15  16
ENDBRANCH  12  15
ENDBRANCH   7  12
ENDBRANCH   1   7
BRANCH   3  25
ATOM     25  C16 UNL     1       0.041   0.541   4.144  1.00  0.00     0.214 C   
BRANCH  25  26
ATOM     26  C17 UNL     1       0.664  -0.817   4.328  1.00  0.00     0.182 C   
ATOM     27  O3  UNL     1      -0.003  -1.833   4.129  1.00  0.00    -0.292 OA  
BRANCH  26  28
ATOM     28  C18 UNL     1       2.104  -0.947   4.700  1.00  0.00     0.019 A   
ATOM     29  C19 UNL     1       2.964   0.151   4.821  1.00  0.00     0.013 A   
ATOM     30  C23 UNL     1       2.610  -2.239   4.914  1.00  0.00     0.013 A   
ATOM     31  C20 UNL     1       4.310  -0.044   5.152  1.00  0.00     0.021 A   
ATOM     32  C22 UNL     1       3.954  -2.432   5.244  1.00  0.00     0.021 A   
ATOM     33  C21 UNL     1       4.798  -1.333   5.362  1.00  0.00     0.041 A   
ATOM     34  CL1 UNL     1       6.455  -1.568   5.762  1.00  0.00    -0.084 Cl  
ENDBRANCH  26  28
ENDBRANCH  25  26
ENDBRANCH   3  25
TORSDOF 9
