REMARK SMILES Cc1ccc(C)c([C@H](CO)n2cc([C@@H]([NH2+]Cc3ccc4c(c3)OCO4)C3CCCC3)nn2)c1
REMARK SMILES IDX 11 1 12 2 13 3 31 4 32 5 8 7 7 8 2 9 3 10 33 11 4 12 5 13
REMARK SMILES IDX 1 14 6 15 9 16 10 17 14 19 15 20 16 23 17 24 18 25 22 26
REMARK SMILES IDX 19 27 21 28 20 29 23 30 25 31 24 32 26 33 27 34 30 35 28 36
REMARK SMILES IDX 29 37
REMARK H PARENT 12 6 10 18 15 21 15 22
ROOT
ATOM     1   N1  UNL     1      -0.426  -1.196   1.412  1.00  0.00    -0.202 N   
ATOM     2   C10 UNL     1       0.007  -1.045   0.120  1.00  0.00     0.046 A   
ATOM     3   C11 UNL     1       0.841   0.049   0.171  1.00  0.00     0.127 A   
ATOM     4   N3  UNL     1       0.840   0.557   1.444  1.00  0.00    -0.132 NA  
ATOM     5   N4  UNL     1       0.049  -0.196   2.188  1.00  0.00    -0.075 NA  
ATOM     6   H13 UNL     1      -0.283  -1.727  -0.666  1.00  0.00     0.083 HD  
ENDROOT
BRANCH   1   7
ATOM     7   C8  UNL     1      -1.312  -2.239   1.939  1.00  0.00     0.155 C   
BRANCH   7   8
ATOM     8   C7  UNL     1      -2.762  -1.762   1.911  1.00  0.00    -0.020 A   
ATOM     9   C2  UNL     1      -4.489  -0.260   2.806  1.00  0.00    -0.051 A   
ATOM     10  C3  UNL     1      -5.417  -0.820   1.930  1.00  0.00     0.004 A   
ATOM     11  C26 UNL     1      -3.168  -0.727   2.782  1.00  0.00     0.009 A   
ATOM     12  C4  UNL     1      -5.040  -1.846   1.065  1.00  0.00     0.004 A   
ATOM     13  C5  UNL     1      -3.721  -2.330   1.042  1.00  0.00    -0.046 A   
ATOM     14  C1  UNL     1      -4.881   0.867   3.715  1.00  0.00     0.044 C   
ATOM     15  C6  UNL     1      -3.394  -3.452   0.092  1.00  0.00     0.045 C   
ENDBRANCH   7   8
BRANCH   7  16
ATOM     16  C9  UNL     1      -0.874  -2.753   3.324  1.00  0.00     0.185 C   
BRANCH  16  17
ATOM     17  O1  UNL     1       0.316  -3.538   3.203  1.00  0.00    -0.394 OA  
ATOM     18  H12 UNL     1       0.560  -3.824   4.103  1.00  0.00     0.210 HD  
ENDBRANCH  16  17
ENDBRANCH   7  16
ENDBRANCH   1   7
BRANCH   3  19
ATOM     19  C12 UNL     1       1.657   0.725  -0.883  1.00  0.00     0.117 C   
BRANCH  19  20
ATOM     20  N2  UNL     1       1.754   2.201  -0.560  1.00  0.00     0.249 N   
ATOM     21  H15 UNL     1       2.554   2.634  -1.027  1.00  0.00     0.199 HD  
ATOM     22  H16 UNL     1       1.932   2.253   0.454  1.00  0.00     0.199 HD  
BRANCH  20  23
ATOM     23  C13 UNL     1       0.535   3.013  -0.847  1.00  0.00     0.164 C   
BRANCH  23  24
ATOM     24  C14 UNL     1       0.367   3.277  -2.318  1.00  0.00    -0.002 A   
ATOM     25  C15 UNL     1       1.179   4.240  -2.968  1.00  0.00     0.012 A   
ATOM     26  C19 UNL     1      -0.559   2.535  -3.070  1.00  0.00     0.045 A   
ATOM     27  C16 UNL     1       1.073   4.458  -4.346  1.00  0.00     0.037 A   
ATOM     28  C18 UNL     1      -0.633   2.769  -4.427  1.00  0.00     0.109 A   
ATOM     29  C17 UNL     1       0.161   3.702  -5.048  1.00  0.00     0.108 A   
ATOM     30  O2  UNL     1      -1.453   2.126  -5.297  1.00  0.00    -0.316 OA  
ATOM     31  O3  UNL     1      -0.069   3.771  -6.385  1.00  0.00    -0.316 OA  
ATOM     32  C20 UNL     1      -1.108   2.781  -6.539  1.00  0.00     0.337 C   
ENDBRANCH  23  24
ENDBRANCH  20  23
ENDBRANCH  19  20
BRANCH  19  33
ATOM     33  C21 UNL     1       3.083   0.140  -0.966  1.00  0.00     0.043 C   
ATOM     34  C22 UNL     1       3.990   0.802  -2.009  1.00  0.00     0.010 C   
ATOM     35  C25 UNL     1       3.103  -1.341  -1.386  1.00  0.00     0.010 C   
ATOM     36  C23 UNL     1       5.111  -0.210  -2.179  1.00  0.00     0.001 C   
ATOM     37  C24 UNL     1       4.406  -1.557  -2.154  1.00  0.00     0.001 C   
ENDBRANCH  19  33
ENDBRANCH   3  19
TORSDOF 9
