REMARK SMILES Cc1ccc(C)c([C@@H](CO)n2cc([C@@H]([NH2+]Cc3ccc4c(c3)OCO4)C3CCCC3)nn2)c1
REMARK SMILES IDX 11 1 12 2 13 3 31 4 32 5 8 7 7 8 2 9 3 10 33 11 4 12 5 13
REMARK SMILES IDX 1 14 6 15 9 16 10 17 14 19 15 20 16 23 17 24 18 25 22 26
REMARK SMILES IDX 19 27 21 28 20 29 23 30 25 31 24 32 26 33 27 34 30 35 28 36
REMARK SMILES IDX 29 37
REMARK H PARENT 12 6 10 18 15 21 15 22
ROOT
ATOM     1   N1  UNL     1       1.521   0.818   2.537  1.00  0.00    -0.202 N   
ATOM     2   C10 UNL     1       1.193   0.446   1.261  1.00  0.00     0.046 A   
ATOM     3   C11 UNL     1       0.147   1.273   0.927  1.00  0.00     0.127 A   
ATOM     4   N3  UNL     1      -0.142   2.089   1.990  1.00  0.00    -0.132 NA  
ATOM     5   N4  UNL     1       0.700   1.801   2.969  1.00  0.00    -0.075 NA  
ATOM     6   H13 UNL     1       1.730  -0.329   0.732  1.00  0.00     0.083 HD  
ENDROOT
BRANCH   1   7
ATOM     7   C8  UNL     1       2.575   0.298   3.409  1.00  0.00     0.155 C   
BRANCH   7   8
ATOM     8   C7  UNL     1       2.498  -1.228   3.506  1.00  0.00    -0.020 A   
ATOM     9   C2  UNL     1       3.252  -3.444   2.752  1.00  0.00    -0.051 A   
ATOM     10  C3  UNL     1       2.368  -4.047   3.644  1.00  0.00     0.004 A   
ATOM     11  C26 UNL     1       3.317  -2.045   2.699  1.00  0.00     0.009 A   
ATOM     12  C4  UNL     1       1.542  -3.265   4.449  1.00  0.00     0.004 A   
ATOM     13  C5  UNL     1       1.588  -1.862   4.390  1.00  0.00    -0.046 A   
ATOM     14  C1  UNL     1       4.172  -4.282   1.913  1.00  0.00     0.044 C   
ATOM     15  C6  UNL     1       0.670  -1.088   5.301  1.00  0.00     0.045 C   
ENDBRANCH   7   8
BRANCH   7  16
ATOM     16  C9  UNL     1       3.943   0.921   3.052  1.00  0.00     0.185 C   
BRANCH  16  17
ATOM     17  O1  UNL     1       4.308   0.748   1.681  1.00  0.00    -0.394 OA  
ATOM     18  H12 UNL     1       5.184   1.161   1.568  1.00  0.00     0.210 HD  
ENDBRANCH  16  17
ENDBRANCH   7  16
ENDBRANCH   1   7
BRANCH   3  19
ATOM     19  C12 UNL     1      -0.675   1.358  -0.316  1.00  0.00     0.117 C   
BRANCH  19  20
ATOM     20  N2  UNL     1      -2.118   1.637   0.054  1.00  0.00     0.249 N   
ATOM     21  H15 UNL     1      -2.651   1.938  -0.765  1.00  0.00     0.199 HD  
ATOM     22  H16 UNL     1      -2.094   2.429   0.712  1.00  0.00     0.199 HD  
BRANCH  20  23
ATOM     23  C13 UNL     1      -2.849   0.521   0.724  1.00  0.00     0.164 C   
BRANCH  23  24
ATOM     24  C14 UNL     1      -3.111  -0.636  -0.200  1.00  0.00    -0.002 A   
ATOM     25  C15 UNL     1      -2.404  -1.853  -0.039  1.00  0.00     0.012 A   
ATOM     26  C19 UNL     1      -4.038  -0.508  -1.250  1.00  0.00     0.045 A   
ATOM     27  C16 UNL     1      -2.611  -2.925  -0.914  1.00  0.00     0.037 A   
ATOM     28  C18 UNL     1      -4.213  -1.582  -2.098  1.00  0.00     0.109 A   
ATOM     29  C17 UNL     1      -3.520  -2.757  -1.935  1.00  0.00     0.108 A   
ATOM     30  O2  UNL     1      -5.053  -1.617  -3.165  1.00  0.00    -0.316 OA  
ATOM     31  O3  UNL     1      -3.844  -3.683  -2.875  1.00  0.00    -0.316 OA  
ATOM     32  C20 UNL     1      -4.816  -2.957  -3.656  1.00  0.00     0.337 C   
ENDBRANCH  23  24
ENDBRANCH  20  23
ENDBRANCH  19  20
BRANCH  19  33
ATOM     33  C21 UNL     1      -0.195   2.482  -1.256  1.00  0.00     0.043 C   
ATOM     34  C22 UNL     1       1.250   2.308  -1.735  1.00  0.00     0.010 C   
ATOM     35  C25 UNL     1      -0.984   2.572  -2.574  1.00  0.00     0.010 C   
ATOM     36  C23 UNL     1       1.333   3.253  -2.921  1.00  0.00     0.001 C   
ATOM     37  C24 UNL     1      -0.003   3.085  -3.630  1.00  0.00     0.001 C   
ENDBRANCH  19  33
ENDBRANCH   3  19
TORSDOF 9
