REMARK SMILES O=C(c1ccncc1)n1cc([C@@H]([NH2+]Cc2ccc3c(c2)OCO3)C2CCCCC2)nn1
REMARK SMILES IDX 12 1 11 2 9 3 10 4 31 5 30 6 2 7 1 8 3 9 4 10 8 11 5 12 7 13
REMARK SMILES IDX 6 14 13 15 14 18 15 19 16 20 20 21 17 22 19 23 18 24 21 25
REMARK SMILES IDX 23 26 22 27 24 28 25 29 29 30 26 31 28 32 27 33
REMARK H PARENT 13 16 13 17
ROOT
ATOM     1   C9  UNL     1       0.104  -0.613   0.681  1.00  0.00     0.117 C   
ENDROOT
BRANCH   1   2
ATOM     2   C8  UNL     1      -0.813   0.257  -0.125  1.00  0.00     0.128 A   
ATOM     3   N2  UNL     1      -1.800   1.601  -1.547  1.00  0.00    -0.143 N   
ATOM     4   C7  UNL     1      -0.589   0.991  -1.265  1.00  0.00     0.139 A   
ATOM     5   N5  UNL     1      -2.694   1.263  -0.584  1.00  0.00    -0.068 NA  
ATOM     6   N4  UNL     1      -2.111   0.438   0.271  1.00  0.00    -0.131 NA  
BRANCH   3   7
ATOM     7   C1  UNL     1      -2.106   2.483  -2.595  1.00  0.00     0.271 C   
ATOM     8   O1  UNL     1      -1.161   2.792  -3.322  1.00  0.00    -0.269 OA  
BRANCH   7   9
ATOM     9   C2  UNL     1      -3.439   3.080  -2.877  1.00  0.00     0.043 A   
ATOM     10  C3  UNL     1      -4.637   2.441  -2.556  1.00  0.00     0.034 A   
ATOM     11  C6  UNL     1      -3.477   4.317  -3.528  1.00  0.00     0.034 A   
ATOM     12  C4  UNL     1      -5.821   3.086  -2.872  1.00  0.00     0.112 A   
ATOM     13  C5  UNL     1      -4.711   4.877  -3.801  1.00  0.00     0.112 A   
ATOM     14  N1  UNL     1      -5.880   4.288  -3.478  1.00  0.00    -0.265 NA  
ENDBRANCH   7   9
ENDBRANCH   3   7
ENDBRANCH   1   2
BRANCH   1  15
ATOM     15  N3  UNL     1      -0.372  -0.699   2.111  1.00  0.00     0.249 N   
ATOM     16  H7  UNL     1       0.017  -1.522   2.579  1.00  0.00     0.199 HD  
ATOM     17  H8  UNL     1      -1.393  -0.832   2.072  1.00  0.00     0.199 HD  
BRANCH  15  18
ATOM     18  C10 UNL     1      -0.113   0.500   2.963  1.00  0.00     0.164 C   
BRANCH  18  19
ATOM     19  C11 UNL     1       1.339   0.648   3.322  1.00  0.00    -0.002 A   
ATOM     20  C12 UNL     1       1.937  -0.225   4.264  1.00  0.00     0.012 A   
ATOM     21  C16 UNL     1       2.123   1.635   2.700  1.00  0.00     0.045 A   
ATOM     22  C13 UNL     1       3.297  -0.122   4.576  1.00  0.00     0.037 A   
ATOM     23  C15 UNL     1       3.461   1.707   3.030  1.00  0.00     0.109 A   
ATOM     24  C14 UNL     1       4.032   0.853   3.940  1.00  0.00     0.108 A   
ATOM     25  O2  UNL     1       4.354   2.591   2.515  1.00  0.00    -0.316 OA  
ATOM     26  O3  UNL     1       5.356   1.094   4.117  1.00  0.00    -0.316 OA  
ATOM     27  C17 UNL     1       5.553   2.219   3.232  1.00  0.00     0.337 C   
ENDBRANCH  18  19
ENDBRANCH  15  18
ENDBRANCH   1  15
BRANCH   1  28
ATOM     28  C18 UNL     1       0.243  -2.035   0.071  1.00  0.00     0.043 C   
ATOM     29  C19 UNL     1       1.442  -2.796   0.673  1.00  0.00     0.010 C   
ATOM     30  C23 UNL     1      -1.036  -2.889   0.170  1.00  0.00     0.010 C   
ATOM     31  C20 UNL     1       1.623  -4.166   0.022  1.00  0.00     0.001 C   
ATOM     32  C22 UNL     1      -0.847  -4.261  -0.479  1.00  0.00     0.001 C   
ATOM     33  C21 UNL     1       0.350  -5.002   0.107  1.00  0.00     0.000 C   
ENDBRANCH   1  28
TORSDOF 7
