REMARK SMILES Cc1nc2ccc(-n3cc([C@@H]([NH2+]Cc4ccc5c(c4)OCO5)C4CCCC4)nn3)cc2[nH]1
REMARK SMILES IDX 11 1 10 2 8 3 9 4 29 5 28 6 7 7 2 8 3 9 32 10 4 11 31 12
REMARK SMILES IDX 5 13 30 14 6 15 1 16 12 18 13 21 14 22 15 23 19 24 16 25
REMARK SMILES IDX 18 26 17 27 20 28 22 29 21 30 23 31 24 32 27 33 25 34 26 35
REMARK H PARENT 32 17 12 19 12 20
ROOT
ATOM     1   C9  UNL     1      -0.862   1.526  -1.491  1.00  0.00     0.117 C   
ENDROOT
BRANCH   1   2
ATOM     2   C8  UNL     1      -0.843   0.862  -0.149  1.00  0.00     0.127 A   
ATOM     3   N2  UNL     1      -0.711   0.275   1.958  1.00  0.00    -0.181 N   
ATOM     4   C7  UNL     1      -0.596   1.361   1.110  1.00  0.00     0.135 A   
ATOM     5   N5  UNL     1      -0.969  -0.832   1.211  1.00  0.00    -0.071 NA  
ATOM     6   N4  UNL     1      -1.066  -0.483  -0.061  1.00  0.00    -0.131 NA  
BRANCH   3   7
ATOM     7   C6  UNL     1      -0.585   0.220   3.370  1.00  0.00     0.060 A   
ATOM     8   C2  UNL     1      -0.501  -1.475   7.590  1.00  0.00     0.096 A   
ATOM     9   N1  UNL     1      -0.277  -0.181   7.495  1.00  0.00    -0.236 NA  
ATOM     10  N6  UNL     1      -0.713  -2.026   6.350  1.00  0.00    -0.302 N   
ATOM     11  C3  UNL     1      -0.346   0.112   6.160  1.00  0.00     0.086 A   
ATOM     12  C24 UNL     1      -0.618  -1.027   5.413  1.00  0.00     0.059 A   
ATOM     13  C4  UNL     1      -0.188   1.339   5.504  1.00  0.00     0.032 A   
ATOM     14  C23 UNL     1      -0.745  -1.021   4.020  1.00  0.00     0.052 A   
ATOM     15  C5  UNL     1      -0.310   1.385   4.106  1.00  0.00     0.028 A   
ATOM     16  C1  UNL     1      -0.541  -2.282   8.831  1.00  0.00     0.085 C   
ATOM     17  H27 UNL     1      -0.908  -2.999   6.165  1.00  0.00     0.154 HD  
ENDBRANCH   3   7
ENDBRANCH   1   2
BRANCH   1  18
ATOM     18  N3  UNL     1      -0.412   0.546  -2.547  1.00  0.00     0.249 N   
ATOM     19  H8  UNL     1      -0.675   0.849  -3.490  1.00  0.00     0.199 HD  
ATOM     20  H9  UNL     1      -0.920  -0.335  -2.377  1.00  0.00     0.199 HD  
BRANCH  18  21
ATOM     21  C10 UNL     1       1.044   0.227  -2.543  1.00  0.00     0.164 C   
BRANCH  21  22
ATOM     22  C11 UNL     1       1.352  -0.824  -3.571  1.00  0.00    -0.002 A   
ATOM     23  C12 UNL     1       1.281  -2.195  -3.225  1.00  0.00     0.012 A   
ATOM     24  C16 UNL     1       1.658  -0.457  -4.892  1.00  0.00     0.045 A   
ATOM     25  C13 UNL     1       1.526  -3.190  -4.178  1.00  0.00     0.037 A   
ATOM     26  C15 UNL     1       1.893  -1.463  -5.806  1.00  0.00     0.109 A   
ATOM     27  C14 UNL     1       1.831  -2.791  -5.460  1.00  0.00     0.108 A   
ATOM     28  O1  UNL     1       2.201  -1.282  -7.118  1.00  0.00    -0.316 OA  
ATOM     29  O2  UNL     1       2.095  -3.613  -6.509  1.00  0.00    -0.316 OA  
ATOM     30  C17 UNL     1       2.358  -2.652  -7.554  1.00  0.00     0.337 C   
ENDBRANCH  21  22
ENDBRANCH  18  21
ENDBRANCH   1  18
BRANCH   1  31
ATOM     31  C18 UNL     1      -2.270   2.032  -1.866  1.00  0.00     0.043 C   
ATOM     32  C19 UNL     1      -2.808   3.107  -0.915  1.00  0.00     0.010 C   
ATOM     33  C22 UNL     1      -2.345   2.736  -3.229  1.00  0.00     0.010 C   
ATOM     34  C20 UNL     1      -3.975   3.700  -1.686  1.00  0.00     0.001 C   
ATOM     35  C21 UNL     1      -3.516   3.715  -3.138  1.00  0.00     0.001 C   
ENDBRANCH   1  31
TORSDOF 6
