REMARK SMILES COc1cccnc1Cn1cc([C@@H]([NH2+]Cc2ccc3c(c2)OCO3)C2CCCCC2)nn1
REMARK SMILES IDX 10 1 11 2 12 3 31 4 32 5 9 7 8 8 3 9 4 10 5 11 7 12 6 13
REMARK SMILES IDX 2 14 1 15 13 16 14 17 15 20 16 21 17 22 21 23 18 24 20 25
REMARK SMILES IDX 19 26 22 27 24 28 23 29 25 30 26 31 30 32 27 33 29 34 28 35
REMARK H PARENT 11 6 14 18 14 19
ROOT
ATOM     1   N2  UNL     1      -0.291  -0.928  -3.114  1.00  0.00    -0.206 N   
ATOM     2   C8  UNL     1      -0.673  -1.059  -1.804  1.00  0.00     0.046 A   
ATOM     3   C9  UNL     1      -1.181   0.177  -1.477  1.00  0.00     0.127 A   
ATOM     4   N4  UNL     1      -1.111   0.997  -2.575  1.00  0.00    -0.132 NA  
ATOM     5   N5  UNL     1      -0.569   0.312  -3.567  1.00  0.00    -0.076 NA  
ATOM     6   H9  UNL     1      -0.547  -1.986  -1.260  1.00  0.00     0.083 HD  
ENDROOT
BRANCH   1   7
ATOM     7   C7  UNL     1       0.239  -1.948  -4.001  1.00  0.00     0.192 C   
BRANCH   7   8
ATOM     8   C6  UNL     1       1.559  -2.470  -3.498  1.00  0.00     0.090 A   
ATOM     9   C2  UNL     1       2.769  -1.872  -3.874  1.00  0.00     0.098 A   
ATOM     10  C3  UNL     1       3.950  -2.426  -3.377  1.00  0.00     0.037 A   
ATOM     11  C4  UNL     1       3.896  -3.538  -2.538  1.00  0.00     0.023 A   
ATOM     12  N1  UNL     1       1.492  -3.543  -2.657  1.00  0.00    -0.257 NA  
ATOM     13  C5  UNL     1       2.658  -4.057  -2.209  1.00  0.00     0.111 A   
BRANCH   9  14
ATOM     14  O1  UNL     1       2.693  -0.782  -4.695  1.00  0.00    -0.347 OA  
ATOM     15  C1  UNL     1       3.917  -0.269  -5.211  1.00  0.00     0.203 C   
ENDBRANCH   9  14
ENDBRANCH   7   8
ENDBRANCH   1   7
BRANCH   3  16
ATOM     16  C10 UNL     1      -1.734   0.705  -0.192  1.00  0.00     0.117 C   
BRANCH  16  17
ATOM     17  N3  UNL     1      -1.730   2.216  -0.204  1.00  0.00     0.249 N   
ATOM     18  H11 UNL     1      -2.044   2.489  -1.148  1.00  0.00     0.199 HD  
ATOM     19  H12 UNL     1      -2.408   2.598   0.460  1.00  0.00     0.199 HD  
BRANCH  17  20
ATOM     20  C11 UNL     1      -0.406   2.867   0.018  1.00  0.00     0.164 C   
BRANCH  20  21
ATOM     21  C12 UNL     1       0.056   2.760   1.444  1.00  0.00    -0.002 A   
ATOM     22  C13 UNL     1       1.111   1.881   1.790  1.00  0.00     0.012 A   
ATOM     23  C17 UNL     1      -0.576   3.510   2.451  1.00  0.00     0.045 A   
ATOM     24  C14 UNL     1       1.529   1.744   3.118  1.00  0.00     0.037 A   
ATOM     25  C16 UNL     1      -0.139   3.353   3.750  1.00  0.00     0.109 A   
ATOM     26  C15 UNL     1       0.882   2.494   4.075  1.00  0.00     0.108 A   
ATOM     27  O2  UNL     1      -0.638   4.000   4.835  1.00  0.00    -0.316 OA  
ATOM     28  O3  UNL     1       1.154   2.491   5.405  1.00  0.00    -0.316 OA  
ATOM     29  C18 UNL     1       0.210   3.475   5.882  1.00  0.00     0.337 C   
ENDBRANCH  20  21
ENDBRANCH  17  20
ENDBRANCH  16  17
BRANCH  16  30
ATOM     30  C19 UNL     1      -3.164   0.172   0.098  1.00  0.00     0.043 C   
ATOM     31  C20 UNL     1      -3.576   0.416   1.563  1.00  0.00     0.010 C   
ATOM     32  C24 UNL     1      -4.242   0.718  -0.859  1.00  0.00     0.010 C   
ATOM     33  C21 UNL     1      -4.953  -0.171   1.867  1.00  0.00     0.001 C   
ATOM     34  C23 UNL     1      -5.618   0.131  -0.547  1.00  0.00     0.001 C   
ATOM     35  C22 UNL     1      -6.014   0.360   0.908  1.00  0.00     0.000 C   
ENDBRANCH  16  30
ENDBRANCH   3  16
TORSDOF 8
