REMARK SMILES COc1ccc(CCn2cc([C@H](CC(C)C)[NH2+]Cc3ccc4c(c3)OCO4)nn2)cc1F
REMARK SMILES IDX 9 1 10 2 11 3 28 4 29 5 8 7 7 8 6 9 3 10 4 11 31 12 5 13
REMARK SMILES IDX 30 14 32 15 2 16 1 17 12 18 13 19 14 20 15 21 16 22 17 23
REMARK SMILES IDX 18 26 19 27 20 28 24 29 21 30 23 31 22 32 25 33 27 34 26 35
REMARK H PARENT 10 6 17 24 17 25
ROOT
ATOM     1   N1  UNL     1       3.074   1.803   0.914  1.00  0.00    -0.212 N   
ATOM     2   C8  UNL     1       3.054   0.850  -0.067  1.00  0.00     0.045 A   
ATOM     3   C9  UNL     1       1.712   0.641  -0.299  1.00  0.00     0.127 A   
ATOM     4   N3  UNL     1       0.984   1.504   0.481  1.00  0.00    -0.132 NA  
ATOM     5   N4  UNL     1       1.829   2.220   1.206  1.00  0.00    -0.076 NA  
ATOM     6   H10 UNL     1       3.954   0.370  -0.427  1.00  0.00     0.083 HD  
ENDROOT
BRANCH   1   7
ATOM     7   C7  UNL     1       4.200   2.203   1.736  1.00  0.00     0.139 C   
BRANCH   7   8
ATOM     8   C6  UNL     1       4.170   1.573   3.137  1.00  0.00     0.057 C   
BRANCH   8   9
ATOM     9   C5  UNL     1       4.087   0.063   3.096  1.00  0.00    -0.043 A   
ATOM     10  C2  UNL     1       3.877  -2.731   2.765  1.00  0.00     0.110 A   
ATOM     11  C3  UNL     1       5.130  -2.114   2.782  1.00  0.00     0.037 A   
ATOM     12  C24 UNL     1       2.739  -1.940   2.930  1.00  0.00     0.153 A   
ATOM     13  C4  UNL     1       5.233  -0.724   2.938  1.00  0.00     0.006 A   
ATOM     14  C23 UNL     1       2.835  -0.565   3.120  1.00  0.00     0.045 A   
ATOM     15  F1  UNL     1       1.514  -2.487   2.856  1.00  0.00    -0.204 F   
BRANCH  10  16
ATOM     16  O1  UNL     1       3.652  -4.064   2.558  1.00  0.00    -0.346 OA  
ATOM     17  C1  UNL     1       4.768  -4.933   2.726  1.00  0.00     0.203 C   
ENDBRANCH  10  16
ENDBRANCH   8   9
ENDBRANCH   7   8
ENDBRANCH   1   7
BRANCH   3  18
ATOM     18  C10 UNL     1       1.019  -0.387  -1.129  1.00  0.00     0.114 C   
BRANCH  18  19
ATOM     19  C11 UNL     1       1.015  -0.080  -2.640  1.00  0.00     0.064 C   
BRANCH  19  20
ATOM     20  C12 UNL     1      -0.007   0.941  -3.190  1.00  0.00    -0.012 C   
ATOM     21  C13 UNL     1       0.193   2.358  -2.656  1.00  0.00     0.007 C   
ATOM     22  C14 UNL     1       0.081   0.964  -4.722  1.00  0.00     0.007 C   
ENDBRANCH  19  20
ENDBRANCH  18  19
BRANCH  18  23
ATOM     23  N2  UNL     1      -0.382  -0.645  -0.659  1.00  0.00     0.249 N   
ATOM     24  H21 UNL     1      -0.933  -1.131  -1.372  1.00  0.00     0.199 HD  
ATOM     25  H22 UNL     1      -0.827   0.272  -0.511  1.00  0.00     0.199 HD  
BRANCH  23  26
ATOM     26  C15 UNL     1      -0.492  -1.399   0.626  1.00  0.00     0.164 C   
BRANCH  26  27
ATOM     27  C16 UNL     1      -1.937  -1.574   1.002  1.00  0.00    -0.002 A   
ATOM     28  C17 UNL     1      -2.627  -2.764   0.671  1.00  0.00     0.012 A   
ATOM     29  C21 UNL     1      -2.626  -0.528   1.643  1.00  0.00     0.045 A   
ATOM     30  C18 UNL     1      -3.982  -2.917   0.980  1.00  0.00     0.037 A   
ATOM     31  C20 UNL     1      -3.962  -0.713   1.933  1.00  0.00     0.109 A   
ATOM     32  C19 UNL     1      -4.621  -1.873   1.610  1.00  0.00     0.108 A   
ATOM     33  O2  UNL     1      -4.770   0.192   2.545  1.00  0.00    -0.316 OA  
ATOM     34  O3  UNL     1      -5.928  -1.846   1.981  1.00  0.00    -0.316 OA  
ATOM     35  C22 UNL     1      -6.011  -0.547   2.604  1.00  0.00     0.337 C   
ENDBRANCH  26  27
ENDBRANCH  23  26
ENDBRANCH  18  23
ENDBRANCH   3  18
TORSDOF 10
