REMARK SMILES COc1c(C)cccc1CCn1cc([C@@H]([NH2+]Cc2ccc3c(c2)OCO3)C(C)C)nn1
REMARK SMILES IDX 12 1 13 2 14 3 30 4 31 5 11 7 10 8 9 9 3 10 4 11 6 12 8 13
REMARK SMILES IDX 7 14 5 15 2 16 1 17 15 18 16 19 17 22 18 23 19 24 23 25
REMARK SMILES IDX 20 26 22 27 21 28 24 29 26 30 25 31 27 32 28 33 29 34
REMARK H PARENT 13 6 16 20 16 21
ROOT
ATOM     1   N1  UNL     1       0.219  -0.114   3.419  1.00  0.00    -0.212 N   
ATOM     2   C11 UNL     1      -0.685  -0.189   2.399  1.00  0.00     0.045 A   
ATOM     3   C12 UNL     1      -0.417  -1.403   1.810  1.00  0.00     0.127 A   
ATOM     4   N3  UNL     1       0.573  -2.039   2.518  1.00  0.00    -0.132 NA  
ATOM     5   N4  UNL     1       0.958  -1.237   3.495  1.00  0.00    -0.076 NA  
ATOM     6   H14 UNL     1      -1.367   0.618   2.167  1.00  0.00     0.083 HD  
ENDROOT
BRANCH   1   7
ATOM     7   C10 UNL     1       0.441   0.976   4.346  1.00  0.00     0.139 C   
BRANCH   7   8
ATOM     8   C9  UNL     1       1.454   1.999   3.828  1.00  0.00     0.059 C   
BRANCH   8   9
ATOM     9   C8  UNL     1       0.861   2.935   2.796  1.00  0.00    -0.016 A   
ATOM     10  C2  UNL     1       0.985   2.717   1.412  1.00  0.00     0.081 A   
ATOM     11  C3  UNL     1       0.321   3.540   0.485  1.00  0.00    -0.021 A   
ATOM     12  C5  UNL     1      -0.402   4.644   0.958  1.00  0.00     0.006 A   
ATOM     13  C7  UNL     1       0.118   4.042   3.238  1.00  0.00     0.006 A   
ATOM     14  C6  UNL     1      -0.498   4.896   2.325  1.00  0.00     0.001 A   
ATOM     15  C4  UNL     1       0.387   3.288  -0.994  1.00  0.00     0.047 C   
BRANCH  10  16
ATOM     16  O1  UNL     1       1.701   1.633   0.961  1.00  0.00    -0.349 OA  
ATOM     17  C1  UNL     1       3.056   2.021   0.706  1.00  0.00     0.203 C   
ENDBRANCH  10  16
ENDBRANCH   8   9
ENDBRANCH   7   8
ENDBRANCH   1   7
BRANCH   3  18
ATOM     18  C13 UNL     1      -0.976  -2.047   0.583  1.00  0.00     0.117 C   
BRANCH  18  19
ATOM     19  N2  UNL     1      -0.025  -3.106   0.073  1.00  0.00     0.249 N   
ATOM     20  H16 UNL     1      -0.503  -3.776  -0.532  1.00  0.00     0.199 HD  
ATOM     21  H17 UNL     1       0.295  -3.618   0.908  1.00  0.00     0.199 HD  
BRANCH  19  22
ATOM     22  C14 UNL     1       1.201  -2.603  -0.615  1.00  0.00     0.164 C   
BRANCH  22  23
ATOM     23  C15 UNL     1       0.914  -2.016  -1.970  1.00  0.00    -0.002 A   
ATOM     24  C16 UNL     1       0.473  -2.838  -3.035  1.00  0.00     0.012 A   
ATOM     25  C20 UNL     1       1.073  -0.635  -2.183  1.00  0.00     0.045 A   
ATOM     26  C17 UNL     1       0.184  -2.293  -4.291  1.00  0.00     0.037 A   
ATOM     27  C19 UNL     1       0.785  -0.131  -3.434  1.00  0.00     0.109 A   
ATOM     28  C18 UNL     1       0.350  -0.936  -4.457  1.00  0.00     0.108 A   
ATOM     29  O2  UNL     1       0.886   1.172  -3.805  1.00  0.00    -0.316 OA  
ATOM     30  O3  UNL     1       0.119  -0.241  -5.601  1.00  0.00    -0.316 OA  
ATOM     31  C21 UNL     1       0.494   1.093  -5.194  1.00  0.00     0.337 C   
ENDBRANCH  22  23
ENDBRANCH  19  22
ENDBRANCH  18  19
BRANCH  18  32
ATOM     32  C22 UNL     1      -2.378  -2.664   0.829  1.00  0.00     0.037 C   
ATOM     33  C23 UNL     1      -3.075  -3.028  -0.488  1.00  0.00     0.014 C   
ATOM     34  C24 UNL     1      -2.368  -3.880   1.763  1.00  0.00     0.014 C   
ENDBRANCH  18  32
ENDBRANCH   3  18
TORSDOF 9
