REMARK SMILES COc1c(F)cccc1CCn1cc([C@H](CC(C)C)[NH2+]Cc2ccc3c(c2)OCO3)nn1
REMARK SMILES IDX 12 1 13 2 14 3 31 4 32 5 11 7 10 8 9 9 3 10 4 11 6 12 8 13
REMARK SMILES IDX 7 14 5 15 2 16 1 17 15 18 16 19 17 20 18 21 19 22 20 23
REMARK SMILES IDX 21 26 22 27 23 28 27 29 24 30 26 31 25 32 28 33 30 34 29 35
REMARK H PARENT 13 6 20 24 20 25
ROOT
ATOM     1   N1  UNL     1       0.796   0.774  -2.947  1.00  0.00    -0.212 N   
ATOM     2   C10 UNL     1       1.640  -0.001  -2.200  1.00  0.00     0.045 A   
ATOM     3   C11 UNL     1       0.838  -1.045  -1.799  1.00  0.00     0.127 A   
ATOM     4   N3  UNL     1      -0.379  -0.951  -2.423  1.00  0.00    -0.132 NA  
ATOM     5   N4  UNL     1      -0.385   0.161  -3.140  1.00  0.00    -0.076 NA  
ATOM     6   H11 UNL     1       2.627   0.331  -1.911  1.00  0.00     0.083 HD  
ENDROOT
BRANCH   1   7
ATOM     7   C9  UNL     1       0.945   2.178  -3.266  1.00  0.00     0.139 C   
BRANCH   7   8
ATOM     8   C8  UNL     1       0.339   3.077  -2.179  1.00  0.00     0.060 C   
BRANCH   8   9
ATOM     9   C7  UNL     1       1.139   3.087  -0.891  1.00  0.00    -0.013 A   
ATOM     10  C2  UNL     1       0.831   2.265   0.205  1.00  0.00     0.113 A   
ATOM     11  C3  UNL     1       1.655   2.255   1.335  1.00  0.00     0.153 A   
ATOM     12  C4  UNL     1       2.763   3.088   1.418  1.00  0.00     0.042 A   
ATOM     13  C6  UNL     1       2.264   3.925  -0.796  1.00  0.00     0.007 A   
ATOM     14  C5  UNL     1       3.065   3.930   0.351  1.00  0.00     0.004 A   
ATOM     15  F1  UNL     1       1.397   1.406   2.339  1.00  0.00    -0.204 F   
BRANCH  10  16
ATOM     16  O1  UNL     1      -0.226   1.386   0.150  1.00  0.00    -0.346 OA  
ATOM     17  C1  UNL     1      -1.354   1.948   0.836  1.00  0.00     0.203 C   
ENDBRANCH  10  16
ENDBRANCH   8   9
ENDBRANCH   7   8
ENDBRANCH   1   7
BRANCH   3  18
ATOM     18  C12 UNL     1       1.023  -2.040  -0.704  1.00  0.00     0.114 C   
BRANCH  18  19
ATOM     19  C13 UNL     1       0.877  -3.494  -1.183  1.00  0.00     0.064 C   
BRANCH  19  20
ATOM     20  C14 UNL     1       1.892  -3.919  -2.268  1.00  0.00    -0.012 C   
ATOM     21  C15 UNL     1       3.335  -3.853  -1.766  1.00  0.00     0.007 C   
ATOM     22  C16 UNL     1       1.575  -5.339  -2.747  1.00  0.00     0.007 C   
ENDBRANCH  19  20
ENDBRANCH  18  19
BRANCH  18  23
ATOM     23  N2  UNL     1      -0.040  -1.727   0.320  1.00  0.00     0.249 N   
ATOM     24  H22 UNL     1      -0.021  -0.703   0.470  1.00  0.00     0.199 HD  
ATOM     25  H23 UNL     1      -0.958  -1.877  -0.121  1.00  0.00     0.199 HD  
BRANCH  23  26
ATOM     26  C17 UNL     1       0.034  -2.394   1.637  1.00  0.00     0.164 C   
BRANCH  26  27
ATOM     27  C18 UNL     1      -1.053  -1.888   2.546  1.00  0.00    -0.002 A   
ATOM     28  C19 UNL     1      -0.812  -0.798   3.415  1.00  0.00     0.012 A   
ATOM     29  C23 UNL     1      -2.335  -2.461   2.495  1.00  0.00     0.045 A   
ATOM     30  C20 UNL     1      -1.833  -0.279   4.218  1.00  0.00     0.037 A   
ATOM     31  C22 UNL     1      -3.318  -1.928   3.303  1.00  0.00     0.109 A   
ATOM     32  C21 UNL     1      -3.077  -0.865   4.136  1.00  0.00     0.108 A   
ATOM     33  O2  UNL     1      -4.604  -2.361   3.372  1.00  0.00    -0.316 OA  
ATOM     34  O3  UNL     1      -4.182  -0.489   4.830  1.00  0.00    -0.316 OA  
ATOM     35  C24 UNL     1      -5.146  -1.454   4.358  1.00  0.00     0.337 C   
ENDBRANCH  26  27
ENDBRANCH  23  26
ENDBRANCH  18  23
ENDBRANCH   3  18
TORSDOF 10
