REMARK SMILES COc1ccc(F)cc1Cn1cc([C@@H]([NH2+]Cc2ccc3c(c2)OCO3)C2CCCCC2)nn1
REMARK SMILES IDX 11 1 12 2 13 3 32 4 33 5 10 7 9 8 3 9 4 10 5 11 8 12 6 13
REMARK SMILES IDX 7 14 2 15 1 16 14 17 15 18 16 21 17 22 18 23 22 24 19 25
REMARK SMILES IDX 21 26 20 27 23 28 25 29 24 30 26 31 27 32 31 33 28 34 30 35
REMARK SMILES IDX 29 36
REMARK H PARENT 12 6 15 19 15 20
ROOT
ATOM     1   N1  UNL     1       1.204   0.427   0.389  1.00  0.00    -0.208 N   
ATOM     2   C9  UNL     1      -0.046  -0.119   0.511  1.00  0.00     0.046 A   
ATOM     3   C10 UNL     1      -0.533  -0.130  -0.775  1.00  0.00     0.127 A   
ATOM     4   N3  UNL     1       0.392   0.439  -1.613  1.00  0.00    -0.132 NA  
ATOM     5   N4  UNL     1       1.441   0.789  -0.889  1.00  0.00    -0.076 NA  
ATOM     6   H9  UNL     1      -0.452  -0.435   1.462  1.00  0.00     0.083 HD  
ENDROOT
BRANCH   1   7
ATOM     7   C8  UNL     1       2.172   0.746   1.429  1.00  0.00     0.172 C   
BRANCH   7   8
ATOM     8   C7  UNL     1       2.277  -0.337   2.480  1.00  0.00     0.005 A   
ATOM     9   C2  UNL     1       2.881  -1.579   2.190  1.00  0.00     0.080 A   
ATOM     10  C3  UNL     1       2.958  -2.564   3.183  1.00  0.00     0.037 A   
ATOM     11  C4  UNL     1       2.435  -2.324   4.456  1.00  0.00     0.042 A   
ATOM     12  C6  UNL     1       1.760  -0.107   3.767  1.00  0.00     0.047 A   
ATOM     13  C5  UNL     1       1.842  -1.100   4.736  1.00  0.00     0.123 A   
ATOM     14  F1  UNL     1       1.333  -0.873   5.953  1.00  0.00    -0.207 F   
BRANCH   9  15
ATOM     15  O1  UNL     1       3.349  -1.724   0.909  1.00  0.00    -0.349 OA  
ATOM     16  C1  UNL     1       4.048  -2.925   0.596  1.00  0.00     0.203 C   
ENDBRANCH   9  15
ENDBRANCH   7   8
ENDBRANCH   1   7
BRANCH   3  17
ATOM     17  C11 UNL     1      -1.852  -0.556  -1.331  1.00  0.00     0.117 C   
BRANCH  17  18
ATOM     18  N2  UNL     1      -2.269   0.406  -2.427  1.00  0.00     0.249 N   
ATOM     19  H11 UNL     1      -1.389   0.778  -2.820  1.00  0.00     0.199 HD  
ATOM     20  H12 UNL     1      -2.733  -0.093  -3.191  1.00  0.00     0.199 HD  
BRANCH  18  21
ATOM     21  C12 UNL     1      -3.120   1.560  -2.012  1.00  0.00     0.164 C   
BRANCH  21  22
ATOM     22  C13 UNL     1      -2.469   2.481  -1.019  1.00  0.00    -0.002 A   
ATOM     23  C14 UNL     1      -2.839   2.443   0.347  1.00  0.00     0.012 A   
ATOM     24  C18 UNL     1      -1.454   3.362  -1.434  1.00  0.00     0.045 A   
ATOM     25  C15 UNL     1      -2.200   3.258   1.289  1.00  0.00     0.037 A   
ATOM     26  C17 UNL     1      -0.846   4.153  -0.480  1.00  0.00     0.109 A   
ATOM     27  C16 UNL     1      -1.207   4.101   0.843  1.00  0.00     0.108 A   
ATOM     28  O2  UNL     1       0.147   5.050  -0.713  1.00  0.00    -0.316 OA  
ATOM     29  O3  UNL     1      -0.482   4.954   1.614  1.00  0.00    -0.316 OA  
ATOM     30  C19 UNL     1       0.368   5.568   0.618  1.00  0.00     0.337 C   
ENDBRANCH  21  22
ENDBRANCH  18  21
ENDBRANCH  17  18
BRANCH  17  31
ATOM     31  C20 UNL     1      -1.860  -1.999  -1.905  1.00  0.00     0.043 C   
ATOM     32  C21 UNL     1      -0.853  -2.233  -3.049  1.00  0.00     0.010 C   
ATOM     33  C25 UNL     1      -1.659  -3.049  -0.794  1.00  0.00     0.010 C   
ATOM     34  C22 UNL     1      -0.933  -3.661  -3.588  1.00  0.00     0.001 C   
ATOM     35  C24 UNL     1      -1.736  -4.473  -1.341  1.00  0.00     0.001 C   
ATOM     36  C23 UNL     1      -0.745  -4.691  -2.479  1.00  0.00     0.000 C   
ENDBRANCH  17  31
ENDBRANCH   3  17
TORSDOF 8
