REMARK SMILES COc1ccc(CCn2cc([C@@H]([NH2+]Cc3ccc4c(c3)OCO4)C(C)C)nn2)c(C)c1
REMARK SMILES IDX 9 1 10 2 11 3 27 4 28 5 8 7 7 8 6 9 3 10 4 11 31 12 5 13
REMARK SMILES IDX 29 14 30 15 2 16 1 17 12 18 13 19 14 22 15 23 16 24 20 25
REMARK SMILES IDX 17 26 19 27 18 28 21 29 23 30 22 31 24 32 25 33 26 34
REMARK H PARENT 10 6 13 20 13 21
ROOT
ATOM     1   N1  UNL     1       2.023   1.956  -1.926  1.00  0.00    -0.212 N   
ATOM     2   C8  UNL     1       1.969   1.257  -0.754  1.00  0.00     0.045 A   
ATOM     3   C9  UNL     1       2.126  -0.053  -1.144  1.00  0.00     0.127 A   
ATOM     4   N3  UNL     1       2.289  -0.101  -2.505  1.00  0.00    -0.132 NA  
ATOM     5   N4  UNL     1       2.241   1.136  -2.969  1.00  0.00    -0.076 NA  
ATOM     6   H10 UNL     1       1.780   1.733   0.199  1.00  0.00     0.083 HD  
ENDROOT
BRANCH   1   7
ATOM     7   C7  UNL     1       1.786   3.371  -2.128  1.00  0.00     0.139 C   
BRANCH   7   8
ATOM     8   C6  UNL     1       0.406   3.666  -2.727  1.00  0.00     0.057 C   
BRANCH   8   9
ATOM     9   C5  UNL     1      -0.741   3.103  -1.909  1.00  0.00    -0.043 A   
ATOM     10  C2  UNL     1      -2.774   2.062  -0.248  1.00  0.00     0.075 A   
ATOM     11  C3  UNL     1      -1.972   3.104   0.204  1.00  0.00     0.034 A   
ATOM     12  C24 UNL     1      -2.575   1.558  -1.536  1.00  0.00     0.037 A   
ATOM     13  C4  UNL     1      -0.969   3.622  -0.621  1.00  0.00     0.007 A   
ATOM     14  C22 UNL     1      -1.573   2.067  -2.381  1.00  0.00    -0.045 A   
ATOM     15  C23 UNL     1      -1.438   1.485  -3.762  1.00  0.00     0.045 C   
BRANCH  10  16
ATOM     16  O1  UNL     1      -3.766   1.441   0.457  1.00  0.00    -0.349 OA  
ATOM     17  C1  UNL     1      -4.073   1.973   1.741  1.00  0.00     0.203 C   
ENDBRANCH  10  16
ENDBRANCH   8   9
ENDBRANCH   7   8
ENDBRANCH   1   7
BRANCH   3  18
ATOM     18  C10 UNL     1       2.031  -1.324  -0.368  1.00  0.00     0.117 C   
BRANCH  18  19
ATOM     19  N2  UNL     1       1.237  -2.339  -1.161  1.00  0.00     0.249 N   
ATOM     20  H12 UNL     1       1.399  -3.283  -0.799  1.00  0.00     0.199 HD  
ATOM     21  H13 UNL     1       1.613  -2.307  -2.120  1.00  0.00     0.199 HD  
BRANCH  19  22
ATOM     22  C11 UNL     1      -0.233  -2.090  -1.252  1.00  0.00     0.164 C   
BRANCH  22  23
ATOM     23  C12 UNL     1      -0.951  -2.428   0.025  1.00  0.00    -0.002 A   
ATOM     24  C13 UNL     1      -1.192  -3.779   0.374  1.00  0.00     0.012 A   
ATOM     25  C17 UNL     1      -1.359  -1.406   0.899  1.00  0.00     0.045 A   
ATOM     26  C14 UNL     1      -1.827  -4.108   1.576  1.00  0.00     0.037 A   
ATOM     27  C16 UNL     1      -1.983  -1.765   2.075  1.00  0.00     0.109 A   
ATOM     28  C15 UNL     1      -2.209  -3.078   2.405  1.00  0.00     0.108 A   
ATOM     29  O2  UNL     1      -2.432  -0.905   3.028  1.00  0.00    -0.316 OA  
ATOM     30  O3  UNL     1      -2.831  -3.211   3.605  1.00  0.00    -0.316 OA  
ATOM     31  C18 UNL     1      -3.006  -1.829   3.980  1.00  0.00     0.337 C   
ENDBRANCH  22  23
ENDBRANCH  19  22
ENDBRANCH  18  19
BRANCH  18  32
ATOM     32  C19 UNL     1       3.399  -1.948   0.010  1.00  0.00     0.037 C   
ATOM     33  C20 UNL     1       4.177  -1.045   0.975  1.00  0.00     0.014 C   
ATOM     34  C21 UNL     1       4.287  -2.312  -1.184  1.00  0.00     0.014 C   
ENDBRANCH  18  32
ENDBRANCH   3  18
TORSDOF 9
