REMARK SMILES CC(C)(C)[C@H]([NH2+]Cc1ccc2c(c1)OCO2)c1cn(CCCn2cccn2)nn1
REMARK SMILES IDX 17 1 18 2 19 3 28 4 29 5 5 7 2 8 1 9 3 10 4 11 6 12 7 15
REMARK SMILES IDX 8 16 9 17 13 18 10 19 12 20 11 21 14 22 16 23 15 24 20 25
REMARK SMILES IDX 21 26 22 27 23 28 24 29 27 30 25 31 26 32
REMARK H PARENT 18 6 6 13 6 14
ROOT
ATOM     1   C14 UNL     1      -1.032  -1.643  -0.638  1.00  0.00     0.127 A   
ATOM     2   C15 UNL     1      -2.006  -1.676  -1.613  1.00  0.00     0.045 A   
ATOM     3   N2  UNL     1      -1.505  -2.539  -2.546  1.00  0.00    -0.212 N   
ATOM     4   N5  UNL     1      -0.373  -3.112  -2.113  1.00  0.00    -0.076 NA  
ATOM     5   N6  UNL     1      -0.073  -2.574  -0.943  1.00  0.00    -0.132 NA  
ATOM     6   H20 UNL     1      -2.889  -1.086  -1.803  1.00  0.00     0.083 HD  
ENDROOT
BRANCH   1   7
ATOM     7   C5  UNL     1      -0.768  -0.669   0.469  1.00  0.00     0.120 C   
BRANCH   7   8
ATOM     8   C2  UNL     1      -1.970  -0.282   1.394  1.00  0.00     0.010 C   
ATOM     9   C1  UNL     1      -1.432   0.452   2.650  1.00  0.00     0.017 C   
ATOM     10  C3  UNL     1      -2.689  -1.555   1.895  1.00  0.00     0.017 C   
ATOM     11  C4  UNL     1      -3.007   0.640   0.726  1.00  0.00     0.017 C   
ENDBRANCH   7   8
BRANCH   7  12
ATOM     12  N1  UNL     1      -0.126   0.563  -0.131  1.00  0.00     0.250 N   
ATOM     13  H11 UNL     1      -0.559   0.733  -1.066  1.00  0.00     0.199 HD  
ATOM     14  H12 UNL     1      -0.321   1.400   0.418  1.00  0.00     0.199 HD  
BRANCH  12  15
ATOM     15  C6  UNL     1       1.344   0.484  -0.368  1.00  0.00     0.164 C   
BRANCH  15  16
ATOM     16  C7  UNL     1       2.131   0.722   0.892  1.00  0.00    -0.002 A   
ATOM     17  C8  UNL     1       2.297   2.038   1.389  1.00  0.00     0.012 A   
ATOM     18  C12 UNL     1       2.669  -0.361   1.608  1.00  0.00     0.045 A   
ATOM     19  C9  UNL     1       2.987   2.274   2.584  1.00  0.00     0.037 A   
ATOM     20  C11 UNL     1       3.339  -0.094   2.785  1.00  0.00     0.109 A   
ATOM     21  C10 UNL     1       3.493   1.185   3.260  1.00  0.00     0.108 A   
ATOM     22  O1  UNL     1       3.905  -1.022   3.600  1.00  0.00    -0.316 OA  
ATOM     23  O2  UNL     1       4.181   1.224   4.430  1.00  0.00    -0.316 OA  
ATOM     24  C13 UNL     1       4.449  -0.179   4.641  1.00  0.00     0.337 C   
ENDBRANCH  15  16
ENDBRANCH  12  15
ENDBRANCH   7  12
ENDBRANCH   1   7
BRANCH   3  25
ATOM     25  C16 UNL     1      -1.869  -2.620  -3.947  1.00  0.00     0.135 C   
BRANCH  25  26
ATOM     26  C17 UNL     1      -1.957  -1.247  -4.625  1.00  0.00     0.043 C   
BRANCH  26  27
ATOM     27  C18 UNL     1      -0.682  -0.401  -4.487  1.00  0.00     0.134 C   
BRANCH  27  28
ATOM     28  N3  UNL     1      -0.972   0.955  -4.034  1.00  0.00    -0.233 N   
ATOM     29  C19 UNL     1      -1.293   2.007  -4.842  1.00  0.00     0.097 A   
ATOM     30  N4  UNL     1      -0.993   1.271  -2.704  1.00  0.00    -0.190 NA  
ATOM     31  C20 UNL     1      -1.574   3.063  -4.013  1.00  0.00     0.039 A   
ATOM     32  C21 UNL     1      -1.384   2.557  -2.716  1.00  0.00     0.132 A   
ENDBRANCH  27  28
ENDBRANCH  26  27
ENDBRANCH  25  26
ENDBRANCH   3  25
TORSDOF 9
