REMARK SMILES O=C(Cn1cc([C@@H]([NH2+]Cc2ccc3c(c2)OCO3)C2CCCCC2)nn1)c1ccc(Cl)cc1
REMARK SMILES IDX 4 1 5 2 6 3 25 4 26 5 3 7 2 8 1 9 27 10 28 11 33 12 29 13
REMARK SMILES IDX 32 14 30 15 31 16 7 17 8 18 9 21 10 22 11 23 15 24 12 25
REMARK SMILES IDX 14 26 13 27 16 28 18 29 17 30 19 31 20 32 24 33 21 34 23 35
REMARK SMILES IDX 22 36
REMARK H PARENT 5 6 8 19 8 20
ROOT
ATOM     1   N1  UNL     1       2.692   0.670  -1.414  1.00  0.00    -0.204 N   
ATOM     2   C3  UNL     1       2.356  -0.060  -0.307  1.00  0.00     0.046 A   
ATOM     3   C4  UNL     1       0.996  -0.236  -0.422  1.00  0.00     0.127 A   
ATOM     4   N3  UNL     1       0.569   0.339  -1.593  1.00  0.00    -0.132 NA  
ATOM     5   N4  UNL     1       1.614   0.889  -2.188  1.00  0.00    -0.076 NA  
ATOM     6   H3  UNL     1       3.098  -0.351   0.429  1.00  0.00     0.083 HD  
ENDROOT
BRANCH   1   7
ATOM     7   C2  UNL     1       4.006   1.135  -1.823  1.00  0.00     0.214 C   
BRANCH   7   8
ATOM     8   C1  UNL     1       4.493   2.277  -0.958  1.00  0.00     0.182 C   
ATOM     9   O1  UNL     1       3.851   2.704   0.003  1.00  0.00    -0.292 OA  
BRANCH   8  10
ATOM     10  C20 UNL     1       5.816   2.900  -1.276  1.00  0.00     0.019 A   
ATOM     11  C21 UNL     1       6.133   4.131  -0.683  1.00  0.00     0.013 A   
ATOM     12  C25 UNL     1       6.760   2.275  -2.103  1.00  0.00     0.013 A   
ATOM     13  C22 UNL     1       7.381   4.728  -0.908  1.00  0.00     0.021 A   
ATOM     14  C24 UNL     1       8.010   2.870  -2.319  1.00  0.00     0.021 A   
ATOM     15  C23 UNL     1       8.316   4.091  -1.721  1.00  0.00     0.041 A   
ATOM     16  CL1 UNL     1       9.858   4.807  -1.980  1.00  0.00    -0.084 Cl  
ENDBRANCH   8  10
ENDBRANCH   7   8
ENDBRANCH   1   7
BRANCH   3  17
ATOM     17  C5  UNL     1       0.005  -0.896   0.484  1.00  0.00     0.117 C   
BRANCH  17  18
ATOM     18  N2  UNL     1      -1.397  -0.509   0.104  1.00  0.00     0.249 N   
ATOM     19  H5  UNL     1      -1.437  -0.508  -0.927  1.00  0.00     0.199 HD  
ATOM     20  H6  UNL     1      -2.083  -1.204   0.415  1.00  0.00     0.199 HD  
BRANCH  18  21
ATOM     21  C6  UNL     1      -1.849   0.839   0.545  1.00  0.00     0.164 C   
BRANCH  21  22
ATOM     22  C7  UNL     1      -3.304   1.012   0.207  1.00  0.00    -0.002 A   
ATOM     23  C8  UNL     1      -3.686   1.539  -1.051  1.00  0.00     0.012 A   
ATOM     24  C12 UNL     1      -4.293   0.547   1.093  1.00  0.00     0.045 A   
ATOM     25  C9  UNL     1      -5.033   1.609  -1.419  1.00  0.00     0.037 A   
ATOM     26  C11 UNL     1      -5.611   0.636   0.701  1.00  0.00     0.109 A   
ATOM     27  C10 UNL     1      -5.972   1.150  -0.519  1.00  0.00     0.108 A   
ATOM     28  O2  UNL     1      -6.681   0.233   1.436  1.00  0.00    -0.316 OA  
ATOM     29  O3  UNL     1      -7.316   1.130  -0.707  1.00  0.00    -0.316 OA  
ATOM     30  C13 UNL     1      -7.768   0.627   0.569  1.00  0.00     0.337 C   
ENDBRANCH  21  22
ENDBRANCH  18  21
ENDBRANCH  17  18
BRANCH  17  31
ATOM     31  C14 UNL     1       0.149  -2.442   0.487  1.00  0.00     0.043 C   
ATOM     32  C15 UNL     1      -0.268  -3.109  -0.841  1.00  0.00     0.010 C   
ATOM     33  C19 UNL     1      -0.614  -3.079   1.668  1.00  0.00     0.010 C   
ATOM     34  C16 UNL     1      -0.103  -4.628  -0.792  1.00  0.00     0.001 C   
ATOM     35  C18 UNL     1      -0.424  -4.593   1.706  1.00  0.00     0.001 C   
ATOM     36  C17 UNL     1      -0.844  -5.240   0.392  1.00  0.00     0.000 C   
ENDBRANCH  17  31
ENDBRANCH   3  17
TORSDOF 8
