REMARK SMILES Cc1cc(Cn2cc([C@@H]([NH2+]Cc3ccc4c(c3)OCO4)C(C)C)nn2)no1
REMARK SMILES IDX 6 1 7 2 8 3 24 4 25 5 5 7 4 8 2 9 3 10 27 11 26 12 1 13 9 14
REMARK SMILES IDX 10 15 11 18 12 19 13 20 17 21 14 22 16 23 15 24 18 25 20 26
REMARK SMILES IDX 19 27 21 28 22 29 23 30
REMARK H PARENT 7 6 10 16 10 17
ROOT
ATOM     1   N1  UNL     1       3.116  -0.158   0.628  1.00  0.00    -0.206 N   
ATOM     2   C6  UNL     1       2.090  -1.034   0.865  1.00  0.00     0.046 A   
ATOM     3   C7  UNL     1       1.195  -0.781  -0.150  1.00  0.00     0.127 A   
ATOM     4   N3  UNL     1       1.701   0.204  -0.961  1.00  0.00    -0.132 NA  
ATOM     5   N4  UNL     1       2.876   0.574  -0.478  1.00  0.00    -0.076 NA  
ATOM     6   H7  UNL     1       2.085  -1.696   1.720  1.00  0.00     0.083 HD  
ENDROOT
BRANCH   1   7
ATOM     7   C5  UNL     1       4.325   0.041   1.408  1.00  0.00     0.192 C   
BRANCH   7   8
ATOM     8   C4  UNL     1       4.065   0.991   2.520  1.00  0.00     0.090 A   
ATOM     9   C2  UNL     1       4.019   2.724   3.878  1.00  0.00     0.084 A   
ATOM     10  C3  UNL     1       4.552   2.309   2.682  1.00  0.00     0.059 A   
ATOM     11  O3  UNL     1       3.259   1.725   4.399  1.00  0.00    -0.218 OA  
ATOM     12  N5  UNL     1       3.286   0.632   3.551  1.00  0.00    -0.132 NA  
ATOM     13  C1  UNL     1       4.104   3.964   4.670  1.00  0.00     0.075 C   
ENDBRANCH   7   8
ENDBRANCH   1   7
BRANCH   3  14
ATOM     14  C8  UNL     1      -0.172  -1.323  -0.414  1.00  0.00     0.117 C   
BRANCH  14  15
ATOM     15  N2  UNL     1      -1.044  -0.241  -1.002  1.00  0.00     0.249 N   
ATOM     16  H9  UNL     1      -1.867  -0.632  -1.470  1.00  0.00     0.199 HD  
ATOM     17  H10 UNL     1      -0.486   0.227  -1.732  1.00  0.00     0.199 HD  
BRANCH  15  18
ATOM     18  C9  UNL     1      -1.479   0.813  -0.043  1.00  0.00     0.164 C   
BRANCH  18  19
ATOM     19  C10 UNL     1      -2.254   1.882  -0.761  1.00  0.00    -0.002 A   
ATOM     20  C11 UNL     1      -1.573   2.962  -1.373  1.00  0.00     0.012 A   
ATOM     21  C15 UNL     1      -3.651   1.788  -0.879  1.00  0.00     0.045 A   
ATOM     22  C12 UNL     1      -2.272   3.942  -2.083  1.00  0.00     0.037 A   
ATOM     23  C14 UNL     1      -4.310   2.772  -1.586  1.00  0.00     0.109 A   
ATOM     24  C13 UNL     1      -3.641   3.819  -2.171  1.00  0.00     0.108 A   
ATOM     25  O1  UNL     1      -5.651   2.830  -1.795  1.00  0.00    -0.316 OA  
ATOM     26  O2  UNL     1      -4.478   4.670  -2.820  1.00  0.00    -0.316 OA  
ATOM     27  C16 UNL     1      -5.756   4.053  -2.560  1.00  0.00     0.337 C   
ENDBRANCH  18  19
ENDBRANCH  15  18
ENDBRANCH  14  15
BRANCH  14  28
ATOM     28  C17 UNL     1      -0.200  -2.548  -1.364  1.00  0.00     0.037 C   
ATOM     29  C18 UNL     1       0.497  -3.762  -0.740  1.00  0.00     0.014 C   
ATOM     30  C19 UNL     1       0.379  -2.278  -2.758  1.00  0.00     0.014 C   
ENDBRANCH  14  28
ENDBRANCH   3  14
TORSDOF 7
