REMARK SMILES CC(C)C[C@H]([NH2+]Cc1ccc2c(c1)OCO2)c1cn(CCCc2ccccc2)nn1
REMARK SMILES IDX 17 1 18 2 19 3 29 4 30 5 5 7 4 8 2 9 1 10 3 11 6 12 7 15
REMARK SMILES IDX 8 16 9 17 13 18 10 19 12 20 11 21 14 22 16 23 15 24 20 25
REMARK SMILES IDX 21 26 22 27 23 28 24 29 28 30 25 31 27 32 26 33
REMARK H PARENT 18 6 6 13 6 14
ROOT
ATOM     1   C14 UNL     1      -0.586  -1.374  -0.400  1.00  0.00     0.127 A   
ATOM     2   C15 UNL     1       0.684  -1.581  -0.889  1.00  0.00     0.045 A   
ATOM     3   N2  UNL     1       0.497  -1.712  -2.237  1.00  0.00    -0.212 N   
ATOM     4   N3  UNL     1      -0.806  -1.612  -2.556  1.00  0.00    -0.076 NA  
ATOM     5   N4  UNL     1      -1.480  -1.394  -1.440  1.00  0.00    -0.132 NA  
ATOM     6   H20 UNL     1       1.660  -1.639  -0.430  1.00  0.00     0.083 HD  
ENDROOT
BRANCH   1   7
ATOM     7   C5  UNL     1      -1.078  -1.101   0.983  1.00  0.00     0.114 C   
BRANCH   7   8
ATOM     8   C4  UNL     1      -1.613  -2.390   1.639  1.00  0.00     0.064 C   
BRANCH   8   9
ATOM     9   C2  UNL     1      -2.091  -2.269   3.102  1.00  0.00    -0.012 C   
ATOM     10  C1  UNL     1      -2.558  -3.640   3.602  1.00  0.00     0.007 C   
ATOM     11  C3  UNL     1      -1.007  -1.723   4.032  1.00  0.00     0.007 C   
ENDBRANCH   8   9
ENDBRANCH   7   8
BRANCH   7  12
ATOM     12  N1  UNL     1      -2.183  -0.074   0.937  1.00  0.00     0.249 N   
ATOM     13  H11 UNL     1      -2.690  -0.033   1.823  1.00  0.00     0.199 HD  
ATOM     14  H12 UNL     1      -2.842  -0.402   0.216  1.00  0.00     0.199 HD  
BRANCH  12  15
ATOM     15  C6  UNL     1      -1.764   1.308   0.557  1.00  0.00     0.164 C   
BRANCH  15  16
ATOM     16  C7  UNL     1      -1.022   2.005   1.663  1.00  0.00    -0.002 A   
ATOM     17  C8  UNL     1      -1.726   2.552   2.763  1.00  0.00     0.012 A   
ATOM     18  C12 UNL     1       0.381   2.084   1.632  1.00  0.00     0.045 A   
ATOM     19  C9  UNL     1      -1.042   3.169   3.817  1.00  0.00     0.037 A   
ATOM     20  C11 UNL     1       1.023   2.697   2.686  1.00  0.00     0.109 A   
ATOM     21  C10 UNL     1       0.332   3.224   3.749  1.00  0.00     0.108 A   
ATOM     22  O1  UNL     1       2.367   2.851   2.812  1.00  0.00    -0.316 OA  
ATOM     23  O2  UNL     1       1.154   3.778   4.677  1.00  0.00    -0.316 OA  
ATOM     24  C13 UNL     1       2.445   3.562   4.069  1.00  0.00     0.337 C   
ENDBRANCH  15  16
ENDBRANCH  12  15
ENDBRANCH   7  12
ENDBRANCH   1   7
BRANCH   3  25
ATOM     25  C16 UNL     1       1.482  -2.025  -3.246  1.00  0.00     0.134 C   
BRANCH  25  26
ATOM     26  C17 UNL     1       2.508  -0.920  -3.503  1.00  0.00     0.026 C   
BRANCH  26  27
ATOM     27  C18 UNL     1       1.952   0.278  -4.281  1.00  0.00     0.037 C   
BRANCH  27  28
ATOM     28  C19 UNL     1       1.254   1.323  -3.444  1.00  0.00    -0.048 A   
ATOM     29  C20 UNL     1       1.975   2.099  -2.525  1.00  0.00     0.004 A   
ATOM     30  C24 UNL     1      -0.105   1.600  -3.640  1.00  0.00     0.004 A   
ATOM     31  C21 UNL     1       1.353   3.139  -1.831  1.00  0.00     0.000 A   
ATOM     32  C23 UNL     1      -0.725   2.643  -2.948  1.00  0.00     0.000 A   
ATOM     33  C22 UNL     1       0.005   3.416  -2.047  1.00  0.00     0.000 A   
ENDBRANCH  27  28
ENDBRANCH  26  27
ENDBRANCH  25  26
ENDBRANCH   3  25
TORSDOF 10
