REMARK SMILES Cc1ccc(-n2cc([C@@H]([NH2+]Cc3ccc4c(c3)OCO4)C3CCCCC3)nn2)cn1
REMARK SMILES IDX 9 1 8 2 6 3 7 4 28 5 27 6 5 7 2 8 3 9 30 10 4 11 29 12 1 13
REMARK SMILES IDX 10 14 11 17 12 18 13 19 17 20 14 21 16 22 15 23 18 24 20 25
REMARK SMILES IDX 19 26 21 27 22 28 26 29 23 30 25 31 24 32
REMARK H PARENT 10 15 10 16
ROOT
ATOM     1   C8  UNL     1       0.417  -0.661   1.047  1.00  0.00     0.117 C   
ENDROOT
BRANCH   1   2
ATOM     2   C7  UNL     1       0.219  -0.851  -0.428  1.00  0.00     0.127 A   
ATOM     3   N1  UNL     1       0.246  -1.395  -2.552  1.00  0.00    -0.179 N   
ATOM     4   C6  UNL     1       0.840  -1.680  -1.337  1.00  0.00     0.135 A   
ATOM     5   N4  UNL     1      -0.655  -0.395  -2.369  1.00  0.00    -0.071 NA  
ATOM     6   N3  UNL     1      -0.684  -0.067  -1.089  1.00  0.00    -0.131 NA  
BRANCH   3   7
ATOM     7   C5  UNL     1       0.477  -1.971  -3.817  1.00  0.00     0.076 A   
ATOM     8   C2  UNL     1       0.973  -3.134  -6.263  1.00  0.00     0.037 A   
ATOM     9   C3  UNL     1       0.045  -2.100  -6.185  1.00  0.00     0.025 A   
ATOM     10  N5  UNL     1       1.641  -3.591  -5.177  1.00  0.00    -0.260 NA  
ATOM     11  C4  UNL     1      -0.207  -1.512  -4.946  1.00  0.00     0.029 A   
ATOM     12  C23 UNL     1       1.383  -3.007  -3.985  1.00  0.00     0.137 A   
ATOM     13  C1  UNL     1       1.269  -3.786  -7.582  1.00  0.00     0.067 C   
ENDBRANCH   3   7
ENDBRANCH   1   2
BRANCH   1  14
ATOM     14  N2  UNL     1       0.055   0.763   1.387  1.00  0.00     0.249 N   
ATOM     15  H8  UNL     1      -0.946   0.909   1.196  1.00  0.00     0.199 HD  
ATOM     16  H9  UNL     1       0.502   1.367   0.684  1.00  0.00     0.199 HD  
BRANCH  14  17
ATOM     17  C9  UNL     1       0.411   1.277   2.731  1.00  0.00     0.164 C   
BRANCH  17  18
ATOM     18  C10 UNL     1       0.092   2.741   2.834  1.00  0.00    -0.002 A   
ATOM     19  C11 UNL     1      -1.180   3.164   3.290  1.00  0.00     0.012 A   
ATOM     20  C15 UNL     1       1.033   3.701   2.423  1.00  0.00     0.045 A   
ATOM     21  C12 UNL     1      -1.508   4.524   3.345  1.00  0.00     0.037 A   
ATOM     22  C14 UNL     1       0.676   5.032   2.487  1.00  0.00     0.109 A   
ATOM     23  C13 UNL     1      -0.558   5.432   2.935  1.00  0.00     0.108 A   
ATOM     24  O1  UNL     1       1.463   6.079   2.126  1.00  0.00    -0.316 OA  
ATOM     25  O2  UNL     1      -0.703   6.782   2.915  1.00  0.00    -0.316 OA  
ATOM     26  C16 UNL     1       0.583   7.192   2.404  1.00  0.00     0.337 C   
ENDBRANCH  17  18
ENDBRANCH  14  17
ENDBRANCH   1  14
BRANCH   1  27
ATOM     27  C17 UNL     1      -0.380  -1.659   1.930  1.00  0.00     0.043 C   
ATOM     28  C18 UNL     1       0.094  -3.112   1.719  1.00  0.00     0.010 C   
ATOM     29  C22 UNL     1      -1.910  -1.575   1.762  1.00  0.00     0.010 C   
ATOM     30  C19 UNL     1      -0.629  -4.083   2.652  1.00  0.00     0.001 C   
ATOM     31  C21 UNL     1      -2.636  -2.558   2.681  1.00  0.00     0.001 C   
ATOM     32  C20 UNL     1      -2.142  -3.988   2.489  1.00  0.00     0.000 C   
ENDBRANCH   1  27
TORSDOF 6
