REMARK SMILES CC(C)(C)[C@H]([NH2+]Cc1ccc2c(c1)OCO2)c1cn(CCc2cnccn2)nn1
REMARK SMILES IDX 17 1 18 2 19 3 28 4 29 5 5 7 2 8 1 9 3 10 4 11 6 12 7 15
REMARK SMILES IDX 8 16 9 17 13 18 10 19 12 20 11 21 14 22 16 23 15 24 20 25
REMARK SMILES IDX 21 26 22 27 23 28 27 29 24 30 26 31 25 32
REMARK H PARENT 18 6 6 13 6 14
ROOT
ATOM     1   C14 UNL     1       0.499  -0.699  -0.843  1.00  0.00     0.127 A   
ATOM     2   C15 UNL     1       0.997   0.383  -1.536  1.00  0.00     0.045 A   
ATOM     3   N2  UNL     1       0.412   0.283  -2.766  1.00  0.00    -0.212 N   
ATOM     4   N5  UNL     1      -0.381  -0.802  -2.837  1.00  0.00    -0.076 NA  
ATOM     5   N6  UNL     1      -0.347  -1.405  -1.660  1.00  0.00    -0.132 NA  
ATOM     6   H20 UNL     1       1.645   1.206  -1.266  1.00  0.00     0.083 HD  
ENDROOT
BRANCH   1   7
ATOM     7   C5  UNL     1       0.638  -1.092   0.596  1.00  0.00     0.120 C   
BRANCH   7   8
ATOM     8   C2  UNL     1       1.621  -2.288   0.850  1.00  0.00     0.010 C   
ATOM     9   C1  UNL     1       3.009  -1.965   0.249  1.00  0.00     0.017 C   
ATOM     10  C3  UNL     1       1.825  -2.498   2.369  1.00  0.00     0.017 C   
ATOM     11  C4  UNL     1       1.128  -3.616   0.243  1.00  0.00     0.017 C   
ENDBRANCH   7   8
BRANCH   7  12
ATOM     12  N1  UNL     1      -0.739  -1.409   1.146  1.00  0.00     0.250 N   
ATOM     13  H11 UNL     1      -0.679  -1.895   2.043  1.00  0.00     0.199 HD  
ATOM     14  H12 UNL     1      -1.174  -2.058   0.476  1.00  0.00     0.199 HD  
BRANCH  12  15
ATOM     15  C6  UNL     1      -1.670  -0.247   1.298  1.00  0.00     0.164 C   
BRANCH  15  16
ATOM     16  C7  UNL     1      -1.246   0.691   2.394  1.00  0.00    -0.002 A   
ATOM     17  C8  UNL     1      -0.624   1.923   2.078  1.00  0.00     0.012 A   
ATOM     18  C12 UNL     1      -1.429   0.334   3.741  1.00  0.00     0.045 A   
ATOM     19  C9  UNL     1      -0.188   2.789   3.086  1.00  0.00     0.037 A   
ATOM     20  C11 UNL     1      -0.987   1.211   4.710  1.00  0.00     0.109 A   
ATOM     21  C10 UNL     1      -0.384   2.403   4.393  1.00  0.00     0.108 A   
ATOM     22  O1  UNL     1      -1.081   1.017   6.052  1.00  0.00    -0.316 OA  
ATOM     23  O2  UNL     1      -0.024   3.111   5.495  1.00  0.00    -0.316 OA  
ATOM     24  C13 UNL     1      -0.493   2.241   6.548  1.00  0.00     0.337 C   
ENDBRANCH  15  16
ENDBRANCH  12  15
ENDBRANCH   7  12
ENDBRANCH   1   7
BRANCH   3  25
ATOM     25  C16 UNL     1       0.425   1.254  -3.842  1.00  0.00     0.140 C   
BRANCH  25  26
ATOM     26  C17 UNL     1      -0.959   1.836  -4.131  1.00  0.00     0.079 C   
BRANCH  26  27
ATOM     27  C18 UNL     1      -1.560   2.479  -2.911  1.00  0.00     0.060 A   
ATOM     28  C19 UNL     1      -2.545   1.835  -2.167  1.00  0.00     0.134 A   
ATOM     29  N4  UNL     1      -1.057   3.675  -2.521  1.00  0.00    -0.258 NA  
ATOM     30  N3  UNL     1      -3.054   2.345  -1.020  1.00  0.00    -0.261 NA  
ATOM     31  C21 UNL     1      -1.622   4.226  -1.421  1.00  0.00     0.131 A   
ATOM     32  C20 UNL     1      -2.600   3.576  -0.688  1.00  0.00     0.131 A   
ENDBRANCH  26  27
ENDBRANCH  25  26
ENDBRANCH   3  25
TORSDOF 8
