REMARK SMILES CC(C)[C@H]([NH2+]Cc1ccc2c(c1)OCO2)c1cn(CCc2ccncc2Cl)nn1
REMARK SMILES IDX 16 1 17 2 18 3 28 4 29 5 4 7 2 8 1 9 3 10 5 11 6 14 7 15
REMARK SMILES IDX 8 16 12 17 9 18 11 19 10 20 13 21 15 22 14 23 19 24 20 25
REMARK SMILES IDX 21 26 22 27 26 28 23 29 25 30 24 31 27 32
REMARK H PARENT 17 6 5 12 5 13
ROOT
ATOM     1   C13 UNL     1      -0.323   0.245  -2.013  1.00  0.00     0.127 A   
ATOM     2   C14 UNL     1       0.021   1.560  -1.786  1.00  0.00     0.045 A   
ATOM     3   N2  UNL     1      -0.947   2.270  -2.438  1.00  0.00    -0.212 N   
ATOM     4   N4  UNL     1      -1.831   1.449  -3.030  1.00  0.00    -0.076 NA  
ATOM     5   N5  UNL     1      -1.463   0.205  -2.776  1.00  0.00    -0.132 NA  
ATOM     6   H18 UNL     1       0.823   2.035  -1.238  1.00  0.00     0.083 HD  
ENDROOT
BRANCH   1   7
ATOM     7   C4  UNL     1       0.281  -1.037  -1.540  1.00  0.00     0.117 C   
BRANCH   7   8
ATOM     8   C2  UNL     1       1.374  -1.609  -2.481  1.00  0.00     0.037 C   
ATOM     9   C1  UNL     1       2.608  -0.701  -2.534  1.00  0.00     0.014 C   
ATOM     10  C3  UNL     1       0.888  -1.906  -3.905  1.00  0.00     0.014 C   
ENDBRANCH   7   8
BRANCH   7  11
ATOM     11  N1  UNL     1      -0.802  -2.084  -1.380  1.00  0.00     0.249 N   
ATOM     12  H9  UNL     1      -1.396  -2.006  -2.218  1.00  0.00     0.199 HD  
ATOM     13  H10 UNL     1      -0.398  -3.025  -1.379  1.00  0.00     0.199 HD  
BRANCH  11  14
ATOM     14  C5  UNL     1      -1.696  -1.930  -0.195  1.00  0.00     0.164 C   
BRANCH  14  15
ATOM     15  C6  UNL     1      -1.014  -2.297   1.093  1.00  0.00    -0.002 A   
ATOM     16  C7  UNL     1      -0.777  -3.655   1.416  1.00  0.00     0.012 A   
ATOM     17  C11 UNL     1      -0.577  -1.292   1.974  1.00  0.00     0.045 A   
ATOM     18  C8  UNL     1      -0.111  -4.009   2.594  1.00  0.00     0.037 A   
ATOM     19  C10 UNL     1       0.078  -1.675   3.126  1.00  0.00     0.109 A   
ATOM     20  C9  UNL     1       0.305  -2.995   3.428  1.00  0.00     0.108 A   
ATOM     21  O1  UNL     1       0.569  -0.833   4.072  1.00  0.00    -0.316 OA  
ATOM     22  O2  UNL     1       0.965  -3.151   4.604  1.00  0.00    -0.316 OA  
ATOM     23  C12 UNL     1       1.102  -1.778   5.029  1.00  0.00     0.337 C   
ENDBRANCH  14  15
ENDBRANCH  11  14
ENDBRANCH   7  11
ENDBRANCH   1   7
BRANCH   3  24
ATOM     24  C15 UNL     1      -1.086   3.707  -2.547  1.00  0.00     0.139 C   
BRANCH  24  25
ATOM     25  C16 UNL     1      -1.752   4.353  -1.329  1.00  0.00     0.058 C   
BRANCH  25  26
ATOM     26  C17 UNL     1      -3.216   4.010  -1.178  1.00  0.00    -0.025 A   
ATOM     27  C18 UNL     1      -4.156   4.701  -1.961  1.00  0.00     0.025 A   
ATOM     28  C21 UNL     1      -3.694   3.024  -0.305  1.00  0.00     0.062 A   
ATOM     29  C19 UNL     1      -5.503   4.388  -1.840  1.00  0.00     0.111 A   
ATOM     30  C20 UNL     1      -5.064   2.788  -0.253  1.00  0.00     0.131 A   
ATOM     31  N3  UNL     1      -5.977   3.444  -1.003  1.00  0.00    -0.263 NA  
ATOM     32  CL1 UNL     1      -2.658   2.083   0.703  1.00  0.00    -0.082 Cl  
ENDBRANCH  25  26
ENDBRANCH  24  25
ENDBRANCH   3  24
TORSDOF 8
