REMARK SMILES CC(C)[C@H]([NH2+]Cc1ccc2c(c1)OCO2)c1cn(-c2cc(N)ccn2)nn1
REMARK SMILES IDX 16 1 17 2 18 3 26 4 27 5 4 6 2 7 1 8 3 9 5 10 6 13 7 14 8 15
REMARK SMILES IDX 12 16 9 17 11 18 10 19 13 20 15 21 14 22 19 23 20 24 25 25
REMARK SMILES IDX 21 26 24 27 23 28 22 29
REMARK H PARENT 5 11 5 12 22 30 22 31
ROOT
ATOM     1   C13 UNL     1      -0.002   1.846   0.425  1.00  0.00     0.127 A   
ATOM     2   C14 UNL     1       0.191   2.756  -0.588  1.00  0.00     0.137 A   
ATOM     3   N2  UNL     1       0.718   2.021  -1.634  1.00  0.00    -0.162 N   
ATOM     4   N5  UNL     1       0.816   0.720  -1.256  1.00  0.00    -0.070 NA  
ATOM     5   N6  UNL     1       0.388   0.607  -0.008  1.00  0.00    -0.131 NA  
ENDROOT
BRANCH   1   6
ATOM     6   C4  UNL     1      -0.558   2.014   1.804  1.00  0.00     0.117 C   
BRANCH   6   7
ATOM     7   C2  UNL     1       0.497   2.575   2.794  1.00  0.00     0.037 C   
ATOM     8   C1  UNL     1      -0.149   3.052   4.101  1.00  0.00     0.014 C   
ATOM     9   C3  UNL     1       1.637   1.599   3.108  1.00  0.00     0.014 C   
ENDBRANCH   6   7
BRANCH   6  10
ATOM     10  N1  UNL     1      -1.110   0.710   2.314  1.00  0.00     0.249 N   
ATOM     11  H9  UNL     1      -0.425  -0.021   2.071  1.00  0.00     0.199 HD  
ATOM     12  H10 UNL     1      -1.191   0.698   3.335  1.00  0.00     0.199 HD  
BRANCH  10  13
ATOM     13  C5  UNL     1      -2.416   0.299   1.726  1.00  0.00     0.164 C   
BRANCH  13  14
ATOM     14  C6  UNL     1      -2.827  -1.046   2.256  1.00  0.00    -0.002 A   
ATOM     15  C7  UNL     1      -3.675  -1.145   3.384  1.00  0.00     0.012 A   
ATOM     16  C11 UNL     1      -2.323  -2.216   1.662  1.00  0.00     0.045 A   
ATOM     17  C8  UNL     1      -4.027  -2.393   3.910  1.00  0.00     0.037 A   
ATOM     18  C10 UNL     1      -2.689  -3.430   2.206  1.00  0.00     0.109 A   
ATOM     19  C9  UNL     1      -3.517  -3.516   3.298  1.00  0.00     0.108 A   
ATOM     20  O1  UNL     1      -2.293  -4.649   1.757  1.00  0.00    -0.316 OA  
ATOM     21  O2  UNL     1      -3.748  -4.801   3.672  1.00  0.00    -0.316 OA  
ATOM     22  C12 UNL     1      -2.988  -5.520   2.677  1.00  0.00     0.337 C   
ENDBRANCH  13  14
ENDBRANCH  10  13
ENDBRANCH   6  10
ENDBRANCH   1   6
BRANCH   3  23
ATOM     23  C15 UNL     1       1.094   2.507  -2.913  1.00  0.00     0.147 A   
ATOM     24  C16 UNL     1       1.600   1.620  -3.860  1.00  0.00     0.069 A   
ATOM     25  N4  UNL     1       0.922   3.834  -3.151  1.00  0.00    -0.239 NA  
ATOM     26  C17 UNL     1       1.981   2.115  -5.106  1.00  0.00     0.028 A   
ATOM     27  C19 UNL     1       1.245   4.274  -4.386  1.00  0.00     0.115 A   
ATOM     28  C18 UNL     1       1.751   3.459  -5.385  1.00  0.00     0.043 A   
BRANCH  26  29
ATOM     29  N3  UNL     1       2.369   1.239  -6.124  1.00  0.00    -0.358 N   
ATOM     30  H20 UNL     1       2.889   1.671  -6.884  1.00  0.00     0.143 HD  
ATOM     31  H21 UNL     1       2.803   0.376  -5.811  1.00  0.00     0.143 HD  
ENDBRANCH  26  29
ENDBRANCH   3  23
TORSDOF 7
