REMARK SMILES COc1ccc(C)cc1-n1cc([C@@H]([NH2+]Cc2ccc3c(c2)OCO3)C2CCCCC2)nn1
REMARK SMILES IDX 10 1 11 2 12 3 31 4 32 5 9 6 3 7 4 8 5 9 8 10 6 11 7 12 2 13
REMARK SMILES IDX 1 14 13 15 14 16 15 19 16 20 17 21 21 22 18 23 20 24 19 25
REMARK SMILES IDX 22 26 24 27 23 28 25 29 26 30 30 31 27 32 29 33 28 34
REMARK H PARENT 14 17 14 18
ROOT
ATOM     1   N1  UNL     1       2.115   1.222  -0.576  1.00  0.00    -0.178 N   
ATOM     2   C9  UNL     1       0.867   0.979  -1.121  1.00  0.00     0.135 A   
ATOM     3   C10 UNL     1       0.239   0.120  -0.251  1.00  0.00     0.127 A   
ATOM     4   N3  UNL     1       1.093  -0.181   0.768  1.00  0.00    -0.131 NA  
ATOM     5   N4  UNL     1       2.228   0.458   0.552  1.00  0.00    -0.071 NA  
ENDROOT
BRANCH   1   6
ATOM     6   C8  UNL     1       3.192   2.042  -1.020  1.00  0.00     0.088 A   
ATOM     7   C2  UNL     1       3.085   2.941  -2.102  1.00  0.00     0.098 A   
ATOM     8   C3  UNL     1       4.216   3.678  -2.481  1.00  0.00     0.036 A   
ATOM     9   C4  UNL     1       5.425   3.556  -1.789  1.00  0.00     0.006 A   
ATOM     10  C7  UNL     1       4.418   1.938  -0.326  1.00  0.00     0.032 A   
ATOM     11  C5  UNL     1       5.533   2.694  -0.699  1.00  0.00    -0.049 A   
ATOM     12  C6  UNL     1       6.840   2.555   0.029  1.00  0.00     0.044 C   
BRANCH   7  13
ATOM     13  O1  UNL     1       1.880   3.066  -2.740  1.00  0.00    -0.347 OA  
ATOM     14  C1  UNL     1       1.710   4.158  -3.644  1.00  0.00     0.203 C   
ENDBRANCH   7  13
ENDBRANCH   1   6
BRANCH   3  15
ATOM     15  C11 UNL     1      -1.106  -0.533  -0.305  1.00  0.00     0.117 C   
BRANCH  15  16
ATOM     16  N2  UNL     1      -1.063  -1.853   0.429  1.00  0.00     0.249 N   
ATOM     17  H12 UNL     1      -0.553  -1.687   1.311  1.00  0.00     0.199 HD  
ATOM     18  H13 UNL     1      -2.000  -2.174   0.695  1.00  0.00     0.199 HD  
BRANCH  16  19
ATOM     19  C12 UNL     1      -0.353  -2.953  -0.285  1.00  0.00     0.164 C   
BRANCH  19  20
ATOM     20  C13 UNL     1      -0.251  -4.171   0.589  1.00  0.00    -0.002 A   
ATOM     21  C14 UNL     1      -1.207  -5.211   0.493  1.00  0.00     0.012 A   
ATOM     22  C18 UNL     1       0.779  -4.262   1.542  1.00  0.00     0.045 A   
ATOM     23  C15 UNL     1      -1.134  -6.332   1.327  1.00  0.00     0.037 A   
ATOM     24  C17 UNL     1       0.820  -5.379   2.350  1.00  0.00     0.109 A   
ATOM     25  C16 UNL     1      -0.108  -6.385   2.246  1.00  0.00     0.108 A   
ATOM     26  O2  UNL     1       1.744  -5.623   3.317  1.00  0.00    -0.316 OA  
ATOM     27  O3  UNL     1       0.117  -7.391   3.129  1.00  0.00    -0.316 OA  
ATOM     28  C19 UNL     1       1.298  -6.908   3.805  1.00  0.00     0.337 C   
ENDBRANCH  19  20
ENDBRANCH  16  19
ENDBRANCH  15  16
BRANCH  15  29
ATOM     29  C20 UNL     1      -2.259   0.319   0.290  1.00  0.00     0.043 C   
ATOM     30  C21 UNL     1      -2.543   1.569  -0.565  1.00  0.00     0.010 C   
ATOM     31  C25 UNL     1      -2.055   0.713   1.765  1.00  0.00     0.010 C   
ATOM     32  C22 UNL     1      -3.725   2.370  -0.021  1.00  0.00     0.001 C   
ATOM     33  C24 UNL     1      -3.239   1.518   2.303  1.00  0.00     0.001 C   
ATOM     34  C23 UNL     1      -3.523   2.744   1.442  1.00  0.00     0.000 C   
ENDBRANCH  15  29
ENDBRANCH   3  15
TORSDOF 7
