REMARK SMILES COc1cnc(Cn2cc([C@@H]([NH2+]Cc3ccc4c(c3)OCO4)C(C)C)nn2)c(C)c1
REMARK SMILES IDX 8 1 9 2 10 3 26 4 27 5 7 7 6 8 3 9 4 10 30 11 5 12 28 13
REMARK SMILES IDX 29 14 2 15 1 16 11 17 12 18 13 21 14 22 15 23 19 24 16 25
REMARK SMILES IDX 18 26 17 27 20 28 22 29 21 30 23 31 24 32 25 33
REMARK H PARENT 9 6 12 19 12 20
ROOT
ATOM     1   N2  UNL     1      -0.505   0.807   2.205  1.00  0.00    -0.206 N   
ATOM     2   C6  UNL     1      -1.386   0.462   1.214  1.00  0.00     0.046 A   
ATOM     3   C7  UNL     1      -0.815  -0.644   0.628  1.00  0.00     0.127 A   
ATOM     4   N4  UNL     1       0.368  -0.929   1.264  1.00  0.00    -0.132 NA  
ATOM     5   N5  UNL     1       0.545  -0.039   2.227  1.00  0.00    -0.076 NA  
ATOM     6   H7  UNL     1      -2.288   1.030   1.028  1.00  0.00     0.083 HD  
ENDROOT
BRANCH   1   7
ATOM     7   C5  UNL     1      -0.614   1.886   3.169  1.00  0.00     0.190 C   
BRANCH   7   8
ATOM     8   C4  UNL     1      -0.304   3.208   2.516  1.00  0.00     0.063 A   
ATOM     9   C2  UNL     1       0.084   5.646   1.257  1.00  0.00     0.093 A   
ATOM     10  C3  UNL     1      -1.140   5.002   1.288  1.00  0.00     0.144 A   
ATOM     11  C22 UNL     1       1.150   5.009   1.885  1.00  0.00     0.040 A   
ATOM     12  N1  UNL     1      -1.354   3.803   1.886  1.00  0.00    -0.257 NA  
ATOM     13  C20 UNL     1       0.976   3.776   2.531  1.00  0.00    -0.025 A   
ATOM     14  C21 UNL     1       2.149   3.129   3.211  1.00  0.00     0.046 C   
BRANCH   9  15
ATOM     15  O1  UNL     1       0.375   6.840   0.670  1.00  0.00    -0.348 OA  
ATOM     16  C1  UNL     1      -0.720   7.575   0.136  1.00  0.00     0.203 C   
ENDBRANCH   9  15
ENDBRANCH   7   8
ENDBRANCH   1   7
BRANCH   3  17
ATOM     17  C8  UNL     1      -1.234  -1.471  -0.544  1.00  0.00     0.117 C   
BRANCH  17  18
ATOM     18  N3  UNL     1      -0.009  -2.022  -1.235  1.00  0.00     0.249 N   
ATOM     19  H9  UNL     1      -0.230  -2.849  -1.798  1.00  0.00     0.199 HD  
ATOM     20  H10 UNL     1       0.628  -2.339  -0.489  1.00  0.00     0.199 HD  
BRANCH  18  21
ATOM     21  C9  UNL     1       0.746  -1.046  -2.067  1.00  0.00     0.164 C   
BRANCH  21  22
ATOM     22  C10 UNL     1       2.009  -1.675  -2.584  1.00  0.00    -0.002 A   
ATOM     23  C11 UNL     1       3.196  -1.615  -1.815  1.00  0.00     0.012 A   
ATOM     24  C15 UNL     1       2.003  -2.383  -3.798  1.00  0.00     0.045 A   
ATOM     25  C12 UNL     1       4.368  -2.241  -2.253  1.00  0.00     0.037 A   
ATOM     26  C14 UNL     1       3.175  -2.991  -4.199  1.00  0.00     0.109 A   
ATOM     27  C13 UNL     1       4.323  -2.922  -3.450  1.00  0.00     0.108 A   
ATOM     28  O2  UNL     1       3.338  -3.720  -5.334  1.00  0.00    -0.316 OA  
ATOM     29  O3  UNL     1       5.356  -3.595  -4.021  1.00  0.00    -0.316 OA  
ATOM     30  C16 UNL     1       4.734  -4.084  -5.228  1.00  0.00     0.337 C   
ENDBRANCH  21  22
ENDBRANCH  18  21
ENDBRANCH  17  18
BRANCH  17  31
ATOM     31  C17 UNL     1      -2.166  -2.657  -0.188  1.00  0.00     0.037 C   
ATOM     32  C18 UNL     1      -1.559  -3.658   0.804  1.00  0.00     0.014 C   
ATOM     33  C19 UNL     1      -3.524  -2.174   0.333  1.00  0.00     0.014 C   
ENDBRANCH  17  31
ENDBRANCH   3  17
TORSDOF 8
