REMARK SMILES CC(C)C[C@H]([NH2+]Cc1ccc2c(c1)OCO2)c1cn([C@H](CO)c2cccn2C)nn1
REMARK SMILES IDX 17 1 18 2 19 3 29 4 30 5 5 7 4 8 2 9 1 10 3 11 6 12 7 15
REMARK SMILES IDX 8 16 9 17 13 18 10 19 12 20 11 21 14 22 16 23 15 24 20 25
REMARK SMILES IDX 21 26 22 27 23 29 24 30 27 31 25 32 26 33 28 34
REMARK H PARENT 18 6 6 13 6 14 22 28
ROOT
ATOM     1   C14 UNL     1       0.216   0.539  -0.184  1.00  0.00     0.127 A   
ATOM     2   C15 UNL     1      -1.155   0.424  -0.205  1.00  0.00     0.046 A   
ATOM     3   N2  UNL     1      -1.594   1.681  -0.534  1.00  0.00    -0.201 N   
ATOM     4   N4  UNL     1      -0.545   2.496  -0.784  1.00  0.00    -0.075 NA  
ATOM     5   N5  UNL     1       0.564   1.814  -0.553  1.00  0.00    -0.132 NA  
ATOM     6   H20 UNL     1      -1.840  -0.381   0.022  1.00  0.00     0.083 HD  
ENDROOT
BRANCH   1   7
ATOM     7   C5  UNL     1       1.283  -0.453   0.140  1.00  0.00     0.114 C   
BRANCH   7   8
ATOM     8   C4  UNL     1       1.649  -0.457   1.639  1.00  0.00     0.064 C   
BRANCH   8   9
ATOM     9   C2  UNL     1       0.527  -0.925   2.592  1.00  0.00    -0.012 C   
ATOM     10  C1  UNL     1       1.007  -0.819   4.043  1.00  0.00     0.007 C   
ATOM     11  C3  UNL     1       0.075  -2.357   2.303  1.00  0.00     0.007 C   
ENDBRANCH   8   9
ENDBRANCH   7   8
BRANCH   7  12
ATOM     12  N1  UNL     1       2.557  -0.121  -0.615  1.00  0.00     0.249 N   
ATOM     13  H11 UNL     1       2.735   0.879  -0.446  1.00  0.00     0.199 HD  
ATOM     14  H12 UNL     1       3.346  -0.642  -0.224  1.00  0.00     0.199 HD  
BRANCH  12  15
ATOM     15  C6  UNL     1       2.525  -0.320  -2.095  1.00  0.00     0.164 C   
BRANCH  15  16
ATOM     16  C7  UNL     1       2.410  -1.767  -2.485  1.00  0.00    -0.002 A   
ATOM     17  C8  UNL     1       3.527  -2.631  -2.380  1.00  0.00     0.012 A   
ATOM     18  C12 UNL     1       1.178  -2.282  -2.924  1.00  0.00     0.045 A   
ATOM     19  C9  UNL     1       3.418  -3.990  -2.700  1.00  0.00     0.037 A   
ATOM     20  C11 UNL     1       1.105  -3.625  -3.230  1.00  0.00     0.109 A   
ATOM     21  C10 UNL     1       2.192  -4.457  -3.118  1.00  0.00     0.108 A   
ATOM     22  O1  UNL     1      -0.007  -4.276  -3.660  1.00  0.00    -0.316 OA  
ATOM     23  O2  UNL     1       1.900  -5.738  -3.464  1.00  0.00    -0.316 OA  
ATOM     24  C13 UNL     1       0.514  -5.612  -3.849  1.00  0.00     0.337 C   
ENDBRANCH  15  16
ENDBRANCH  12  15
ENDBRANCH   7  12
ENDBRANCH   1   7
BRANCH   3  25
ATOM     25  C16 UNL     1      -2.981   2.147  -0.602  1.00  0.00     0.169 C   
BRANCH  25  26
ATOM     26  C17 UNL     1      -3.192   3.235  -1.669  1.00  0.00     0.187 C   
BRANCH  26  27
ATOM     27  O3  UNL     1      -4.554   3.233  -2.111  1.00  0.00    -0.394 OA  
ATOM     28  H24 UNL     1      -4.656   3.976  -2.735  1.00  0.00     0.210 HD  
ENDBRANCH  26  27
ENDBRANCH  25  26
BRANCH  25  29
ATOM     29  C18 UNL     1      -3.447   2.594   0.772  1.00  0.00     0.034 A   
ATOM     30  C19 UNL     1      -2.737   3.223   1.787  1.00  0.00     0.023 A   
ATOM     31  N3  UNL     1      -4.747   2.460   1.223  1.00  0.00    -0.312 N   
ATOM     32  C20 UNL     1      -3.611   3.428   2.877  1.00  0.00     0.017 A   
ATOM     33  C21 UNL     1      -4.838   2.933   2.508  1.00  0.00     0.074 A   
ATOM     34  C22 UNL     1      -5.893   1.960   0.492  1.00  0.00     0.135 C   
ENDBRANCH  25  29
ENDBRANCH   3  25
TORSDOF 10
