REMARK SMILES CC(C)C[C@H]([NH2+]Cc1ccc2c(c1)OCO2)c1cn([C@@H](CO)c2cccn2C)nn1
REMARK SMILES IDX 17 1 18 2 19 3 29 4 30 5 5 7 4 8 2 9 1 10 3 11 6 12 7 15
REMARK SMILES IDX 8 16 9 17 13 18 10 19 12 20 11 21 14 22 16 23 15 24 20 25
REMARK SMILES IDX 21 26 22 27 23 29 24 30 27 31 25 32 26 33 28 34
REMARK H PARENT 18 6 6 13 6 14 22 28
ROOT
ATOM     1   C14 UNL     1      -0.540  -0.877   1.527  1.00  0.00     0.127 A   
ATOM     2   C15 UNL     1       0.357  -1.362   0.606  1.00  0.00     0.046 A   
ATOM     3   N2  UNL     1       0.041  -2.690   0.493  1.00  0.00    -0.201 N   
ATOM     4   N4  UNL     1      -1.008  -2.995   1.289  1.00  0.00    -0.075 NA  
ATOM     5   N5  UNL     1      -1.365  -1.895   1.933  1.00  0.00    -0.132 NA  
ATOM     6   H20 UNL     1       1.156  -0.912   0.031  1.00  0.00     0.083 HD  
ENDROOT
BRANCH   1   7
ATOM     7   C5  UNL     1      -0.749   0.506   2.046  1.00  0.00     0.114 C   
BRANCH   7   8
ATOM     8   C4  UNL     1      -0.058   0.685   3.414  1.00  0.00     0.064 C   
BRANCH   8   9
ATOM     9   C2  UNL     1      -0.130   2.094   4.041  1.00  0.00    -0.012 C   
ATOM     10  C1  UNL     1       0.627   2.101   5.372  1.00  0.00     0.007 C   
ATOM     11  C3  UNL     1       0.435   3.177   3.122  1.00  0.00     0.007 C   
ENDBRANCH   8   9
ENDBRANCH   7   8
BRANCH   7  12
ATOM     12  N1  UNL     1      -2.224   0.791   2.198  1.00  0.00     0.249 N   
ATOM     13  H11 UNL     1      -2.607   0.034   2.779  1.00  0.00     0.199 HD  
ATOM     14  H12 UNL     1      -2.371   1.670   2.699  1.00  0.00     0.199 HD  
BRANCH  12  15
ATOM     15  C6  UNL     1      -3.018   0.829   0.932  1.00  0.00     0.164 C   
BRANCH  15  16
ATOM     16  C7  UNL     1      -2.638   1.977   0.040  1.00  0.00    -0.002 A   
ATOM     17  C8  UNL     1      -1.879   1.748  -1.134  1.00  0.00     0.012 A   
ATOM     18  C12 UNL     1      -2.999   3.291   0.385  1.00  0.00     0.045 A   
ATOM     19  C9  UNL     1      -1.479   2.812  -1.950  1.00  0.00     0.037 A   
ATOM     20  C11 UNL     1      -2.587   4.316  -0.441  1.00  0.00     0.109 A   
ATOM     21  C10 UNL     1      -1.848   4.085  -1.574  1.00  0.00     0.108 A   
ATOM     22  O1  UNL     1      -2.845   5.636  -0.249  1.00  0.00    -0.316 OA  
ATOM     23  O2  UNL     1      -1.547   5.230  -2.239  1.00  0.00    -0.316 OA  
ATOM     24  C13 UNL     1      -2.205   6.212  -1.411  1.00  0.00     0.337 C   
ENDBRANCH  15  16
ENDBRANCH  12  15
ENDBRANCH   7  12
ENDBRANCH   1   7
BRANCH   3  25
ATOM     25  C16 UNL     1       0.661  -3.719  -0.340  1.00  0.00     0.169 C   
BRANCH  25  26
ATOM     26  C17 UNL     1       0.151  -3.649  -1.793  1.00  0.00     0.187 C   
BRANCH  26  27
ATOM     27  O3  UNL     1       0.335  -2.364  -2.396  1.00  0.00    -0.394 OA  
ATOM     28  H24 UNL     1       0.192  -2.482  -3.354  1.00  0.00     0.210 HD  
ENDBRANCH  26  27
ENDBRANCH  25  26
BRANCH  25  29
ATOM     29  C18 UNL     1       2.170  -3.685  -0.205  1.00  0.00     0.034 A   
ATOM     30  C19 UNL     1       3.127  -3.055  -0.989  1.00  0.00     0.023 A   
ATOM     31  N3  UNL     1       2.852  -4.326   0.814  1.00  0.00    -0.312 N   
ATOM     32  C20 UNL     1       4.397  -3.318  -0.431  1.00  0.00     0.017 A   
ATOM     33  C21 UNL     1       4.198  -4.103   0.680  1.00  0.00     0.074 A   
ATOM     34  C22 UNL     1       2.271  -5.120   1.878  1.00  0.00     0.135 C   
ENDBRANCH  25  29
ENDBRANCH   3  25
TORSDOF 10
