REMARK SMILES Cc1n[nH]c(C(C)C)c1Cn1cc([C@@H]([NH2+]Cc2ccc3c(c2)OCO3)C2CCCC2)nn1
REMARK SMILES IDX 11 1 12 2 13 3 31 4 32 5 10 7 9 8 2 9 3 10 4 11 5 12 1 13
REMARK SMILES IDX 6 15 7 16 8 17 14 18 15 19 16 22 17 23 18 24 22 25 19 26
REMARK SMILES IDX 21 27 20 28 23 29 25 30 24 31 26 32 27 33 30 34 28 35 29 36
REMARK H PARENT 12 6 4 14 15 20 15 21
ROOT
ATOM     1   N3  UNL     1      -0.650  -0.644   1.481  1.00  0.00    -0.208 N   
ATOM     2   C9  UNL     1      -0.873  -0.801   0.140  1.00  0.00     0.046 A   
ATOM     3   C10 UNL     1       0.336  -1.247  -0.345  1.00  0.00     0.127 A   
ATOM     4   N5  UNL     1       1.225  -1.365   0.692  1.00  0.00    -0.132 NA  
ATOM     5   N6  UNL     1       0.609  -1.004   1.805  1.00  0.00    -0.076 NA  
ATOM     6   H14 UNL     1      -1.814  -0.542  -0.325  1.00  0.00     0.083 HD  
ENDROOT
BRANCH   1   7
ATOM     7   C8  UNL     1      -1.555  -0.115   2.490  1.00  0.00     0.173 C   
BRANCH   7   8
ATOM     8   C7  UNL     1      -1.603   1.372   2.399  1.00  0.00     0.013 A   
ATOM     9   C2  UNL     1      -0.631   2.288   2.895  1.00  0.00     0.062 A   
ATOM     10  N1  UNL     1      -0.957   3.552   2.614  1.00  0.00    -0.189 NA  
ATOM     11  N2  UNL     1      -2.138   3.464   1.992  1.00  0.00    -0.242 N   
ATOM     12  C3  UNL     1      -2.578   2.176   1.826  1.00  0.00     0.034 A   
ATOM     13  C1  UNL     1       0.633   1.998   3.620  1.00  0.00     0.069 C   
ATOM     14  H4  UNL     1      -2.589   4.326   1.699  1.00  0.00     0.175 HD  
BRANCH  12  15
ATOM     15  C4  UNL     1      -3.883   1.855   1.157  1.00  0.00     0.029 C   
ATOM     16  C5  UNL     1      -5.065   2.357   1.985  1.00  0.00     0.014 C   
ATOM     17  C6  UNL     1      -3.939   2.409  -0.267  1.00  0.00     0.014 C   
ENDBRANCH  12  15
ENDBRANCH   7   8
ENDBRANCH   1   7
BRANCH   3  18
ATOM     18  C11 UNL     1       0.818  -1.490  -1.738  1.00  0.00     0.117 C   
BRANCH  18  19
ATOM     19  N4  UNL     1       2.200  -0.875  -1.864  1.00  0.00     0.249 N   
ATOM     20  H16 UNL     1       2.489  -0.631  -0.902  1.00  0.00     0.199 HD  
ATOM     21  H17 UNL     1       2.885  -1.577  -2.160  1.00  0.00     0.199 HD  
BRANCH  19  22
ATOM     22  C12 UNL     1       2.318   0.338  -2.716  1.00  0.00     0.164 C   
BRANCH  22  23
ATOM     23  C13 UNL     1       1.396   1.463  -2.330  1.00  0.00    -0.002 A   
ATOM     24  C14 UNL     1       1.488   2.080  -1.060  1.00  0.00     0.012 A   
ATOM     25  C18 UNL     1       0.427   1.915  -3.244  1.00  0.00     0.045 A   
ATOM     26  C15 UNL     1       0.620   3.119  -0.698  1.00  0.00     0.037 A   
ATOM     27  C17 UNL     1      -0.407   2.943  -2.858  1.00  0.00     0.109 A   
ATOM     28  C16 UNL     1      -0.317   3.527  -1.620  1.00  0.00     0.108 A   
ATOM     29  O1  UNL     1      -1.389   3.490  -3.622  1.00  0.00    -0.316 OA  
ATOM     30  O2  UNL     1      -1.237   4.513  -1.445  1.00  0.00    -0.316 OA  
ATOM     31  C19 UNL     1      -1.862   4.537  -2.746  1.00  0.00     0.337 C   
ENDBRANCH  22  23
ENDBRANCH  19  22
ENDBRANCH  18  19
BRANCH  18  32
ATOM     32  C20 UNL     1       0.903  -2.988  -2.080  1.00  0.00     0.043 C   
ATOM     33  C21 UNL     1       1.359  -3.273  -3.514  1.00  0.00     0.010 C   
ATOM     34  C24 UNL     1      -0.455  -3.705  -2.009  1.00  0.00     0.010 C   
ATOM     35  C22 UNL     1       0.962  -4.726  -3.716  1.00  0.00     0.001 C   
ATOM     36  C23 UNL     1      -0.382  -4.857  -3.013  1.00  0.00     0.001 C   
ENDBRANCH  18  32
ENDBRANCH   3  18
TORSDOF 8
