REMARK SMILES CC(C)[C@H]([NH2+]Cc1ccc2c(c1)OCO2)c1cn(C[C@H](O)c2ccccc2)nn1
REMARK SMILES IDX 16 1 17 2 18 3 28 4 29 5 4 7 2 8 1 9 3 10 5 11 6 14 7 15
REMARK SMILES IDX 8 16 12 17 9 18 11 19 10 20 13 21 15 22 14 23 19 24 20 25
REMARK SMILES IDX 21 26 22 28 23 29 27 30 24 31 26 32 25 33
REMARK H PARENT 17 6 5 12 5 13 21 27
ROOT
ATOM     1   C13 UNL     1       0.099   1.279  -0.904  1.00  0.00     0.127 A   
ATOM     2   C14 UNL     1      -1.170   1.417  -0.388  1.00  0.00     0.045 A   
ATOM     3   N2  UNL     1      -1.433   0.199   0.172  1.00  0.00    -0.209 N   
ATOM     4   N3  UNL     1      -0.366  -0.616   0.074  1.00  0.00    -0.076 NA  
ATOM     5   N4  UNL     1       0.574   0.027  -0.598  1.00  0.00    -0.132 NA  
ATOM     6   H18 UNL     1      -1.893   2.222  -0.386  1.00  0.00     0.083 HD  
ENDROOT
BRANCH   1   7
ATOM     7   C4  UNL     1       0.986   2.238  -1.631  1.00  0.00     0.117 C   
BRANCH   7   8
ATOM     8   C2  UNL     1       0.767   2.271  -3.165  1.00  0.00     0.037 C   
ATOM     9   C1  UNL     1       0.954   0.915  -3.856  1.00  0.00     0.014 C   
ATOM     10  C3  UNL     1      -0.605   2.853  -3.530  1.00  0.00     0.014 C   
ENDBRANCH   7   8
BRANCH   7  11
ATOM     11  N1  UNL     1       2.433   1.895  -1.365  1.00  0.00     0.249 N   
ATOM     12  H9  UNL     1       3.054   2.288  -2.078  1.00  0.00     0.199 HD  
ATOM     13  H10 UNL     1       2.512   0.868  -1.444  1.00  0.00     0.199 HD  
BRANCH  11  14
ATOM     14  C5  UNL     1       2.936   2.266  -0.013  1.00  0.00     0.164 C   
BRANCH  14  15
ATOM     15  C6  UNL     1       4.347   1.783   0.171  1.00  0.00    -0.002 A   
ATOM     16  C7  UNL     1       5.442   2.622  -0.152  1.00  0.00     0.012 A   
ATOM     17  C11 UNL     1       4.584   0.469   0.611  1.00  0.00     0.045 A   
ATOM     18  C8  UNL     1       6.757   2.162  -0.030  1.00  0.00     0.037 A   
ATOM     19  C10 UNL     1       5.893   0.047   0.718  1.00  0.00     0.109 A   
ATOM     20  C9  UNL     1       6.949   0.869   0.407  1.00  0.00     0.108 A   
ATOM     21  O1  UNL     1       6.297  -1.185   1.123  1.00  0.00    -0.316 OA  
ATOM     22  O2  UNL     1       8.149   0.258   0.579  1.00  0.00    -0.316 OA  
ATOM     23  C12 UNL     1       7.733  -1.041   1.052  1.00  0.00     0.337 C   
ENDBRANCH  14  15
ENDBRANCH  11  14
ENDBRANCH   7  11
ENDBRANCH   1   7
BRANCH   3  24
ATOM     24  C15 UNL     1      -2.637  -0.244   0.847  1.00  0.00     0.170 C   
BRANCH  24  25
ATOM     25  C16 UNL     1      -3.437  -1.222  -0.018  1.00  0.00     0.164 C   
BRANCH  25  26
ATOM     26  O3  UNL     1      -4.054  -0.512  -1.102  1.00  0.00    -0.387 OA  
ATOM     27  H22 UNL     1      -4.729  -1.109  -1.472  1.00  0.00     0.211 HD  
ENDBRANCH  25  26
BRANCH  25  28
ATOM     28  C17 UNL     1      -4.497  -1.923   0.805  1.00  0.00    -0.018 A   
ATOM     29  C18 UNL     1      -5.713  -1.296   1.119  1.00  0.00     0.006 A   
ATOM     30  C22 UNL     1      -4.253  -3.213   1.303  1.00  0.00     0.006 A   
ATOM     31  C19 UNL     1      -6.665  -1.949   1.902  1.00  0.00     0.000 A   
ATOM     32  C21 UNL     1      -5.204  -3.862   2.090  1.00  0.00     0.000 A   
ATOM     33  C20 UNL     1      -6.410  -3.230   2.388  1.00  0.00     0.000 A   
ENDBRANCH  25  28
ENDBRANCH  24  25
ENDBRANCH   3  24
TORSDOF 9
