REMARK SMILES CC(C)[C@H]([NH2+]Cc1ccc2c(c1)OCO2)c1cn(C[C@@H](O)c2ccccc2)nn1
REMARK SMILES IDX 16 1 17 2 18 3 28 4 29 5 4 7 2 8 1 9 3 10 5 11 6 14 7 15
REMARK SMILES IDX 8 16 12 17 9 18 11 19 10 20 13 21 15 22 14 23 19 24 20 25
REMARK SMILES IDX 21 26 22 28 23 29 27 30 24 31 26 32 25 33
REMARK H PARENT 17 6 5 12 5 13 21 27
ROOT
ATOM     1   C13 UNL     1       1.968  -0.135  -0.063  1.00  0.00     0.127 A   
ATOM     2   C14 UNL     1       0.806  -0.431   0.612  1.00  0.00     0.045 A   
ATOM     3   N2  UNL     1       0.195   0.782   0.761  1.00  0.00    -0.209 N   
ATOM     4   N3  UNL     1       0.942   1.769   0.232  1.00  0.00    -0.076 NA  
ATOM     5   N4  UNL     1       2.031   1.219  -0.280  1.00  0.00    -0.132 NA  
ATOM     6   H18 UNL     1       0.347  -1.352   0.946  1.00  0.00     0.083 HD  
ENDROOT
BRANCH   1   7
ATOM     7   C4  UNL     1       3.034  -1.011  -0.630  1.00  0.00     0.117 C   
BRANCH   7   8
ATOM     8   C2  UNL     1       4.274  -1.175   0.287  1.00  0.00     0.037 C   
ATOM     9   C1  UNL     1       4.979   0.140   0.639  1.00  0.00     0.014 C   
ATOM     10  C3  UNL     1       3.923  -1.933   1.573  1.00  0.00     0.014 C   
ENDBRANCH   7   8
BRANCH   7  11
ATOM     11  N1  UNL     1       3.487  -0.445  -1.964  1.00  0.00     0.249 N   
ATOM     12  H9  UNL     1       3.288   0.568  -1.919  1.00  0.00     0.199 HD  
ATOM     13  H10 UNL     1       4.502  -0.528  -2.065  1.00  0.00     0.199 HD  
BRANCH  11  14
ATOM     14  C5  UNL     1       2.831  -1.002  -3.180  1.00  0.00     0.164 C   
BRANCH  14  15
ATOM     15  C6  UNL     1       1.345  -0.782  -3.249  1.00  0.00    -0.002 A   
ATOM     16  C7  UNL     1       0.453  -1.864  -3.055  1.00  0.00     0.012 A   
ATOM     17  C11 UNL     1       0.827   0.503  -3.491  1.00  0.00     0.045 A   
ATOM     18  C8  UNL     1      -0.932  -1.674  -3.096  1.00  0.00     0.037 A   
ATOM     19  C10 UNL     1      -0.544   0.655  -3.533  1.00  0.00     0.109 A   
ATOM     20  C9  UNL     1      -1.399  -0.402  -3.341  1.00  0.00     0.108 A   
ATOM     21  O1  UNL     1      -1.205   1.822  -3.753  1.00  0.00    -0.316 OA  
ATOM     22  O2  UNL     1      -2.705  -0.032  -3.412  1.00  0.00    -0.316 OA  
ATOM     23  C12 UNL     1      -2.576   1.366  -3.745  1.00  0.00     0.337 C   
ENDBRANCH  14  15
ENDBRANCH  11  14
ENDBRANCH   7  11
ENDBRANCH   1   7
BRANCH   3  24
ATOM     24  C15 UNL     1      -1.106   1.069   1.334  1.00  0.00     0.170 C   
BRANCH  24  25
ATOM     25  C16 UNL     1      -2.194   0.977   0.265  1.00  0.00     0.164 C   
BRANCH  25  26
ATOM     26  O3  UNL     1      -2.431  -0.399  -0.062  1.00  0.00    -0.387 OA  
ATOM     27  H22 UNL     1      -3.250  -0.422  -0.593  1.00  0.00     0.211 HD  
ENDBRANCH  25  26
BRANCH  25  28
ATOM     28  C17 UNL     1      -3.490   1.607   0.724  1.00  0.00    -0.018 A   
ATOM     29  C18 UNL     1      -3.889   2.850   0.207  1.00  0.00     0.006 A   
ATOM     30  C22 UNL     1      -4.302   0.981   1.683  1.00  0.00     0.006 A   
ATOM     31  C19 UNL     1      -5.077   3.446   0.634  1.00  0.00     0.000 A   
ATOM     32  C21 UNL     1      -5.489   1.580   2.107  1.00  0.00     0.000 A   
ATOM     33  C20 UNL     1      -5.875   2.812   1.584  1.00  0.00     0.000 A   
ENDBRANCH  25  28
ENDBRANCH  24  25
ENDBRANCH   3  24
TORSDOF 9
