REMARK SMILES Cc1cccc([C@H](CO)n2cc([C@@H]([NH2+]Cc3ccc4c(c3)OCO4)C(C)C)nn2)n1
REMARK SMILES IDX 10 1 11 2 12 3 28 4 29 5 7 7 6 8 2 9 3 10 30 11 4 12 5 13
REMARK SMILES IDX 1 14 8 15 9 16 13 18 14 19 15 22 16 23 17 24 21 25 18 26
REMARK SMILES IDX 20 27 19 28 22 29 24 30 23 31 25 32 26 33 27 34
REMARK H PARENT 11 6 9 17 14 20 14 21
ROOT
ATOM     1   N1  UNL     1      -0.784   1.786  -0.583  1.00  0.00    -0.201 N   
ATOM     2   C9  UNL     1       0.321   1.019  -0.326  1.00  0.00     0.046 A   
ATOM     3   C10 UNL     1      -0.118  -0.274  -0.488  1.00  0.00     0.127 A   
ATOM     4   N3  UNL     1      -1.445  -0.258  -0.833  1.00  0.00    -0.132 NA  
ATOM     5   N4  UNL     1      -1.841   1.004  -0.889  1.00  0.00    -0.075 NA  
ATOM     6   H11 UNL     1       1.268   1.455  -0.036  1.00  0.00     0.083 HD  
ENDROOT
BRANCH   1   7
ATOM     7   C7  UNL     1      -0.946   3.234  -0.492  1.00  0.00     0.174 C   
BRANCH   7   8
ATOM     8   C6  UNL     1       0.158   3.946  -1.254  1.00  0.00     0.066 A   
ATOM     9   C2  UNL     1       2.278   4.921  -1.236  1.00  0.00     0.038 A   
ATOM     10  C3  UNL     1       2.199   5.207  -2.593  1.00  0.00     0.023 A   
ATOM     11  N5  UNL     1       1.282   4.290  -0.564  1.00  0.00    -0.256 NA  
ATOM     12  C4  UNL     1       1.055   4.837  -3.291  1.00  0.00     0.004 A   
ATOM     13  C5  UNL     1       0.020   4.196  -2.618  1.00  0.00     0.026 A   
ATOM     14  C1  UNL     1       3.501   5.307  -0.456  1.00  0.00     0.067 C   
ENDBRANCH   7   8
BRANCH   7  15
ATOM     15  C8  UNL     1      -1.068   3.688   0.973  1.00  0.00     0.187 C   
BRANCH  15  16
ATOM     16  O1  UNL     1       0.094   3.393   1.755  1.00  0.00    -0.394 OA  
ATOM     17  H10 UNL     1       0.832   3.875   1.321  1.00  0.00     0.210 HD  
ENDBRANCH  15  16
ENDBRANCH   7  15
ENDBRANCH   1   7
BRANCH   3  18
ATOM     18  C11 UNL     1       0.584  -1.575  -0.281  1.00  0.00     0.117 C   
BRANCH  18  19
ATOM     19  N2  UNL     1      -0.369  -2.606   0.260  1.00  0.00     0.249 N   
ATOM     20  H13 UNL     1      -0.003  -3.556   0.156  1.00  0.00     0.199 HD  
ATOM     21  H14 UNL     1      -1.224  -2.557  -0.314  1.00  0.00     0.199 HD  
BRANCH  19  22
ATOM     22  C12 UNL     1      -0.781  -2.402   1.677  1.00  0.00     0.164 C   
BRANCH  22  23
ATOM     23  C13 UNL     1      -1.676  -3.522   2.125  1.00  0.00    -0.002 A   
ATOM     24  C14 UNL     1      -3.071  -3.455   1.895  1.00  0.00     0.012 A   
ATOM     25  C18 UNL     1      -1.127  -4.670   2.721  1.00  0.00     0.045 A   
ATOM     26  C15 UNL     1      -3.912  -4.511   2.264  1.00  0.00     0.037 A   
ATOM     27  C17 UNL     1      -1.984  -5.692   3.072  1.00  0.00     0.109 A   
ATOM     28  C16 UNL     1      -3.336  -5.616   2.850  1.00  0.00     0.108 A   
ATOM     29  O2  UNL     1      -1.617  -6.864   3.653  1.00  0.00    -0.316 OA  
ATOM     30  O3  UNL     1      -3.993  -6.731   3.265  1.00  0.00    -0.316 OA  
ATOM     31  C19 UNL     1      -2.903  -7.510   3.801  1.00  0.00     0.337 C   
ENDBRANCH  22  23
ENDBRANCH  19  22
ENDBRANCH  18  19
BRANCH  18  32
ATOM     32  C20 UNL     1       1.264  -2.091  -1.577  1.00  0.00     0.037 C   
ATOM     33  C21 UNL     1       2.243  -3.235  -1.285  1.00  0.00     0.014 C   
ATOM     34  C22 UNL     1       0.281  -2.522  -2.671  1.00  0.00     0.014 C   
ENDBRANCH  18  32
ENDBRANCH   3  18
TORSDOF 9
