REMARK SMILES Cc1cccc([C@@H](CO)n2cc([C@@H]([NH2+]Cc3ccc4c(c3)OCO4)C(C)C)nn2)n1
REMARK SMILES IDX 10 1 11 2 12 3 28 4 29 5 7 7 6 8 2 9 3 10 30 11 4 12 5 13
REMARK SMILES IDX 1 14 8 15 9 16 13 18 14 19 15 22 16 23 17 24 21 25 18 26
REMARK SMILES IDX 20 27 19 28 22 29 24 30 23 31 25 32 26 33 27 34
REMARK H PARENT 11 6 9 17 14 20 14 21
ROOT
ATOM     1   N1  UNL     1       0.576  -1.857   1.595  1.00  0.00    -0.201 N   
ATOM     2   C9  UNL     1       1.089  -1.068   0.599  1.00  0.00     0.046 A   
ATOM     3   C10 UNL     1       1.590   0.030   1.259  1.00  0.00     0.127 A   
ATOM     4   N3  UNL     1       1.376  -0.116   2.604  1.00  0.00    -0.132 NA  
ATOM     5   N4  UNL     1       0.746  -1.262   2.799  1.00  0.00    -0.075 NA  
ATOM     6   H11 UNL     1       1.007  -1.331  -0.447  1.00  0.00     0.083 HD  
ENDROOT
BRANCH   1   7
ATOM     7   C7  UNL     1      -0.199  -3.088   1.491  1.00  0.00     0.174 C   
BRANCH   7   8
ATOM     8   C6  UNL     1      -1.625  -2.734   1.118  1.00  0.00     0.066 A   
ATOM     9   C2  UNL     1      -3.134  -2.010  -0.507  1.00  0.00     0.038 A   
ATOM     10  C3  UNL     1      -4.192  -2.082   0.390  1.00  0.00     0.023 A   
ATOM     11  N5  UNL     1      -1.860  -2.318  -0.158  1.00  0.00    -0.256 NA  
ATOM     12  C4  UNL     1      -3.938  -2.486   1.696  1.00  0.00     0.004 A   
ATOM     13  C5  UNL     1      -2.640  -2.817   2.070  1.00  0.00     0.026 A   
ATOM     14  C1  UNL     1      -3.381  -1.592  -1.927  1.00  0.00     0.067 C   
ENDBRANCH   7   8
BRANCH   7  15
ATOM     15  C8  UNL     1       0.397  -4.102   0.502  1.00  0.00     0.187 C   
BRANCH  15  16
ATOM     16  O1  UNL     1       1.658  -4.582   0.971  1.00  0.00    -0.394 OA  
ATOM     17  H10 UNL     1       1.925  -5.316   0.386  1.00  0.00     0.210 HD  
ENDBRANCH  15  16
ENDBRANCH   7  15
ENDBRANCH   1   7
BRANCH   3  18
ATOM     18  C11 UNL     1       2.159   1.303   0.733  1.00  0.00     0.117 C   
BRANCH  18  19
ATOM     19  N2  UNL     1       1.609   2.482   1.511  1.00  0.00     0.249 N   
ATOM     20  H13 UNL     1       2.096   3.340   1.238  1.00  0.00     0.199 HD  
ATOM     21  H14 UNL     1       1.823   2.301   2.501  1.00  0.00     0.199 HD  
BRANCH  19  22
ATOM     22  C12 UNL     1       0.131   2.699   1.430  1.00  0.00     0.164 C   
BRANCH  22  23
ATOM     23  C13 UNL     1      -0.357   2.989   0.038  1.00  0.00    -0.002 A   
ATOM     24  C14 UNL     1      -1.074   2.004  -0.684  1.00  0.00     0.012 A   
ATOM     25  C18 UNL     1      -0.081   4.228  -0.566  1.00  0.00     0.045 A   
ATOM     26  C15 UNL     1      -1.507   2.245  -1.992  1.00  0.00     0.037 A   
ATOM     27  C17 UNL     1      -0.524   4.433  -1.856  1.00  0.00     0.109 A   
ATOM     28  C16 UNL     1      -1.216   3.470  -2.550  1.00  0.00     0.108 A   
ATOM     29  O2  UNL     1      -0.341   5.566  -2.582  1.00  0.00    -0.316 OA  
ATOM     30  O3  UNL     1      -1.556   3.877  -3.800  1.00  0.00    -0.316 OA  
ATOM     31  C19 UNL     1      -1.023   5.219  -3.809  1.00  0.00     0.337 C   
ENDBRANCH  22  23
ENDBRANCH  19  22
ENDBRANCH  18  19
BRANCH  18  32
ATOM     32  C20 UNL     1       3.708   1.372   0.757  1.00  0.00     0.037 C   
ATOM     33  C21 UNL     1       4.328   0.331  -0.182  1.00  0.00     0.014 C   
ATOM     34  C22 UNL     1       4.332   1.244   2.151  1.00  0.00     0.014 C   
ENDBRANCH  18  32
ENDBRANCH   3  18
TORSDOF 9
