REMARK SMILES CC(C)(C)[C@H]([NH2+]Cc1ccc2c(c1)OCO2)c1cn(Cc2ccc(F)cc2)nn1
REMARK SMILES IDX 17 1 18 2 19 3 28 4 29 5 5 7 2 8 1 9 3 10 4 11 6 12 7 15
REMARK SMILES IDX 8 16 9 17 13 18 10 19 12 20 11 21 14 22 16 23 15 24 20 25
REMARK SMILES IDX 21 26 22 27 27 28 23 29 26 30 24 31 25 32
REMARK H PARENT 18 6 6 13 6 14
ROOT
ATOM     1   C14 UNL     1       1.763   0.181   1.515  1.00  0.00     0.127 A   
ATOM     2   C15 UNL     1       2.894   0.826   1.063  1.00  0.00     0.046 A   
ATOM     3   N2  UNL     1       3.811  -0.179   0.911  1.00  0.00    -0.208 N   
ATOM     4   N3  UNL     1       3.273  -1.371   1.235  1.00  0.00    -0.076 NA  
ATOM     5   N4  UNL     1       2.021  -1.164   1.609  1.00  0.00    -0.132 NA  
ATOM     6   H20 UNL     1       3.124   1.857   0.834  1.00  0.00     0.083 HD  
ENDROOT
BRANCH   1   7
ATOM     7   C5  UNL     1       0.381   0.685   1.811  1.00  0.00     0.120 C   
BRANCH   7   8
ATOM     8   C2  UNL     1       0.158   1.110   3.304  1.00  0.00     0.010 C   
ATOM     9   C1  UNL     1       0.273  -0.074   4.284  1.00  0.00     0.017 C   
ATOM     10  C3  UNL     1      -1.240   1.749   3.477  1.00  0.00     0.017 C   
ATOM     11  C4  UNL     1       1.192   2.183   3.716  1.00  0.00     0.017 C   
ENDBRANCH   7   8
BRANCH   7  12
ATOM     12  N1  UNL     1      -0.613  -0.382   1.415  1.00  0.00     0.250 N   
ATOM     13  H11 UNL     1      -0.244  -1.276   1.774  1.00  0.00     0.199 HD  
ATOM     14  H12 UNL     1      -1.527  -0.255   1.856  1.00  0.00     0.199 HD  
BRANCH  12  15
ATOM     15  C6  UNL     1      -0.814  -0.554  -0.052  1.00  0.00     0.164 C   
BRANCH  15  16
ATOM     16  C7  UNL     1      -1.734  -1.710  -0.321  1.00  0.00    -0.002 A   
ATOM     17  C8  UNL     1      -1.210  -3.021  -0.433  1.00  0.00     0.012 A   
ATOM     18  C12 UNL     1      -3.122  -1.508  -0.403  1.00  0.00     0.045 A   
ATOM     19  C9  UNL     1      -2.055  -4.116  -0.642  1.00  0.00     0.037 A   
ATOM     20  C11 UNL     1      -3.927  -2.610  -0.609  1.00  0.00     0.109 A   
ATOM     21  C10 UNL     1      -3.409  -3.877  -0.727  1.00  0.00     0.108 A   
ATOM     22  O1  UNL     1      -5.281  -2.590  -0.717  1.00  0.00    -0.316 OA  
ATOM     23  O2  UNL     1      -4.373  -4.813  -0.925  1.00  0.00    -0.316 OA  
ATOM     24  C13 UNL     1      -5.559  -3.990  -0.949  1.00  0.00     0.337 C   
ENDBRANCH  15  16
ENDBRANCH  12  15
ENDBRANCH   7  12
ENDBRANCH   1   7
BRANCH   3  25
ATOM     25  C16 UNL     1       5.187  -0.083   0.455  1.00  0.00     0.169 C   
BRANCH  25  26
ATOM     26  C17 UNL     1       5.247   0.111  -1.041  1.00  0.00    -0.028 A   
ATOM     27  C18 UNL     1       5.512   1.377  -1.588  1.00  0.00     0.008 A   
ATOM     28  C22 UNL     1       5.018  -0.974  -1.906  1.00  0.00     0.008 A   
ATOM     29  C19 UNL     1       5.545   1.553  -2.973  1.00  0.00     0.039 A   
ATOM     30  C21 UNL     1       5.054  -0.793  -3.289  1.00  0.00     0.039 A   
ATOM     31  C20 UNL     1       5.315   0.468  -3.809  1.00  0.00     0.123 A   
ATOM     32  F1  UNL     1       5.340   0.641  -5.136  1.00  0.00    -0.207 F   
ENDBRANCH  25  26
ENDBRANCH   3  25
TORSDOF 7
