REMARK SMILES CC(C)[C@H]([NH2+]Cc1ccc2c(c1)OCO2)c1cn([C@@H](CO)c2ccccc2)nn1
REMARK SMILES IDX 16 1 17 2 18 3 28 4 29 5 4 7 2 8 1 9 3 10 5 11 6 14 7 15
REMARK SMILES IDX 8 16 12 17 9 18 11 19 10 20 13 21 15 22 14 23 19 24 20 25
REMARK SMILES IDX 21 26 22 28 23 29 27 30 24 31 26 32 25 33
REMARK H PARENT 17 6 5 12 5 13 21 27
ROOT
ATOM     1   C13 UNL     1       0.064  -0.300  -0.904  1.00  0.00     0.127 A   
ATOM     2   C14 UNL     1      -0.040   1.036  -0.593  1.00  0.00     0.046 A   
ATOM     3   N2  UNL     1      -0.074   1.663  -1.810  1.00  0.00    -0.202 N   
ATOM     4   N3  UNL     1      -0.024   0.756  -2.811  1.00  0.00    -0.075 NA  
ATOM     5   N4  UNL     1       0.070  -0.446  -2.267  1.00  0.00    -0.132 NA  
ATOM     6   H18 UNL     1      -0.099   1.582   0.338  1.00  0.00     0.083 HD  
ENDROOT
BRANCH   1   7
ATOM     7   C4  UNL     1       0.105  -1.505  -0.023  1.00  0.00     0.117 C   
BRANCH   7   8
ATOM     8   C2  UNL     1       1.552  -1.873   0.404  1.00  0.00     0.037 C   
ATOM     9   C1  UNL     1       2.432  -2.393  -0.740  1.00  0.00     0.014 C   
ATOM     10  C3  UNL     1       1.560  -2.881   1.560  1.00  0.00     0.014 C   
ENDBRANCH   7   8
BRANCH   7  11
ATOM     11  N1  UNL     1      -0.556  -2.682  -0.701  1.00  0.00     0.249 N   
ATOM     12  H9  UNL     1      -0.136  -2.745  -1.639  1.00  0.00     0.199 HD  
ATOM     13  H10 UNL     1      -0.342  -3.552  -0.209  1.00  0.00     0.199 HD  
BRANCH  11  14
ATOM     14  C5  UNL     1      -2.035  -2.583  -0.893  1.00  0.00     0.164 C   
BRANCH  14  15
ATOM     15  C6  UNL     1      -2.796  -2.597   0.403  1.00  0.00    -0.002 A   
ATOM     16  C7  UNL     1      -3.373  -1.404   0.902  1.00  0.00     0.012 A   
ATOM     17  C11 UNL     1      -2.905  -3.783   1.149  1.00  0.00     0.045 A   
ATOM     18  C8  UNL     1      -4.044  -1.387   2.131  1.00  0.00     0.037 A   
ATOM     19  C10 UNL     1      -3.574  -3.732   2.356  1.00  0.00     0.109 A   
ATOM     20  C9  UNL     1      -4.124  -2.568   2.834  1.00  0.00     0.108 A   
ATOM     21  O1  UNL     1      -3.759  -4.780   3.200  1.00  0.00    -0.316 OA  
ATOM     22  O2  UNL     1      -4.724  -2.736   4.041  1.00  0.00    -0.316 OA  
ATOM     23  C12 UNL     1      -4.511  -4.148   4.261  1.00  0.00     0.337 C   
ENDBRANCH  14  15
ENDBRANCH  11  14
ENDBRANCH   7  11
ENDBRANCH   1   7
BRANCH   3  24
ATOM     24  C15 UNL     1      -0.191   3.090  -2.114  1.00  0.00     0.155 C   
BRANCH  24  25
ATOM     25  C16 UNL     1      -1.671   3.525  -2.152  1.00  0.00     0.185 C   
BRANCH  25  26
ATOM     26  O3  UNL     1      -2.381   3.216  -0.948  1.00  0.00    -0.394 OA  
ATOM     27  H22 UNL     1      -3.268   3.615  -1.038  1.00  0.00     0.210 HD  
ENDBRANCH  25  26
ENDBRANCH  24  25
BRANCH  24  28
ATOM     28  C17 UNL     1       0.754   3.913  -1.246  1.00  0.00    -0.023 A   
ATOM     29  C18 UNL     1       0.327   4.628  -0.116  1.00  0.00     0.006 A   
ATOM     30  C22 UNL     1       2.123   3.945  -1.574  1.00  0.00     0.006 A   
ATOM     31  C19 UNL     1       1.237   5.357   0.654  1.00  0.00     0.000 A   
ATOM     32  C21 UNL     1       3.030   4.674  -0.802  1.00  0.00     0.000 A   
ATOM     33  C20 UNL     1       2.586   5.380   0.312  1.00  0.00     0.000 A   
ENDBRANCH  24  28
ENDBRANCH   3  24
TORSDOF 9
