REMARK SMILES CC(C)[C@H]([NH2+]Cc1ccc2c(c1)OCO2)c1cn([C@H](CO)c2ccccc2)nn1
REMARK SMILES IDX 16 1 17 2 18 3 28 4 29 5 4 7 2 8 1 9 3 10 5 11 6 14 7 15
REMARK SMILES IDX 8 16 12 17 9 18 11 19 10 20 13 21 15 22 14 23 19 24 20 25
REMARK SMILES IDX 21 26 22 28 23 29 27 30 24 31 26 32 25 33
REMARK H PARENT 17 6 5 12 5 13 21 27
ROOT
ATOM     1   C13 UNL     1      -0.796   1.027   0.627  1.00  0.00     0.127 A   
ATOM     2   C14 UNL     1      -1.634   0.483  -0.316  1.00  0.00     0.046 A   
ATOM     3   N2  UNL     1      -1.953   1.537  -1.131  1.00  0.00    -0.202 N   
ATOM     4   N3  UNL     1      -1.305   2.654  -0.734  1.00  0.00    -0.075 NA  
ATOM     5   N4  UNL     1      -0.592   2.353   0.336  1.00  0.00    -0.132 NA  
ATOM     6   H18 UNL     1      -2.044  -0.506  -0.470  1.00  0.00     0.083 HD  
ENDROOT
BRANCH   1   7
ATOM     7   C4  UNL     1      -0.095   0.414   1.796  1.00  0.00     0.117 C   
BRANCH   7   8
ATOM     8   C2  UNL     1      -0.892   0.494   3.126  1.00  0.00     0.037 C   
ATOM     9   C1  UNL     1      -1.198   1.921   3.591  1.00  0.00     0.014 C   
ATOM     10  C3  UNL     1      -2.187  -0.318   3.057  1.00  0.00     0.014 C   
ENDBRANCH   7   8
BRANCH   7  11
ATOM     11  N1  UNL     1       1.238   1.100   2.000  1.00  0.00     0.249 N   
ATOM     12  H9  UNL     1       1.570   0.964   2.958  1.00  0.00     0.199 HD  
ATOM     13  H10 UNL     1       1.059   2.109   1.878  1.00  0.00     0.199 HD  
BRANCH  11  14
ATOM     14  C5  UNL     1       2.318   0.718   1.044  1.00  0.00     0.164 C   
BRANCH  14  15
ATOM     15  C6  UNL     1       2.950  -0.599   1.401  1.00  0.00    -0.002 A   
ATOM     16  C7  UNL     1       2.712  -1.750   0.611  1.00  0.00     0.012 A   
ATOM     17  C11 UNL     1       3.767  -0.700   2.542  1.00  0.00     0.045 A   
ATOM     18  C8  UNL     1       3.277  -2.984   0.951  1.00  0.00     0.037 A   
ATOM     19  C10 UNL     1       4.303  -1.932   2.852  1.00  0.00     0.109 A   
ATOM     20  C9  UNL     1       4.066  -3.043   2.080  1.00  0.00     0.108 A   
ATOM     21  O1  UNL     1       5.100  -2.199   3.921  1.00  0.00    -0.316 OA  
ATOM     22  O2  UNL     1       4.687  -4.149   2.563  1.00  0.00    -0.316 OA  
ATOM     23  C12 UNL     1       5.351  -3.610   3.728  1.00  0.00     0.337 C   
ENDBRANCH  14  15
ENDBRANCH  11  14
ENDBRANCH   7  11
ENDBRANCH   1   7
BRANCH   3  24
ATOM     24  C15 UNL     1      -2.835   1.570  -2.296  1.00  0.00     0.155 C   
BRANCH  24  25
ATOM     25  C16 UNL     1      -4.319   1.455  -1.891  1.00  0.00     0.185 C   
BRANCH  25  26
ATOM     26  O3  UNL     1      -4.614   0.276  -1.139  1.00  0.00    -0.394 OA  
ATOM     27  H22 UNL     1      -5.580   0.264  -0.997  1.00  0.00     0.210 HD  
ENDBRANCH  25  26
ENDBRANCH  24  25
BRANCH  24  28
ATOM     28  C17 UNL     1      -2.331   0.618  -3.373  1.00  0.00    -0.023 A   
ATOM     29  C18 UNL     1      -1.287   1.041  -4.217  1.00  0.00     0.006 A   
ATOM     30  C22 UNL     1      -2.849  -0.673  -3.556  1.00  0.00     0.006 A   
ATOM     31  C19 UNL     1      -0.793   0.207  -5.220  1.00  0.00     0.000 A   
ATOM     32  C21 UNL     1      -2.354  -1.506  -4.561  1.00  0.00     0.000 A   
ATOM     33  C20 UNL     1      -1.329  -1.065  -5.394  1.00  0.00     0.000 A   
ENDBRANCH  24  28
ENDBRANCH   3  24
TORSDOF 9
