REMARK SMILES COc1ccc(F)cc1CCn1cc([C@H](CC(C)C)[NH2+]Cc2ccc3c(c2)OCO3)nn1
REMARK SMILES IDX 12 1 13 2 14 3 31 4 32 5 11 7 10 8 9 9 3 10 4 11 5 12 8 13
REMARK SMILES IDX 6 14 7 15 2 16 1 17 15 18 16 19 17 20 18 21 19 22 20 23
REMARK SMILES IDX 21 26 22 27 23 28 27 29 24 30 26 31 25 32 28 33 30 34 29 35
REMARK H PARENT 13 6 20 24 20 25
ROOT
ATOM     1   N1  UNL     1      -0.237  -2.440  -0.862  1.00  0.00    -0.212 N   
ATOM     2   C10 UNL     1       0.597  -1.478  -1.359  1.00  0.00     0.045 A   
ATOM     3   C11 UNL     1      -0.011  -0.294  -1.005  1.00  0.00     0.127 A   
ATOM     4   N3  UNL     1      -1.186  -0.573  -0.353  1.00  0.00    -0.132 NA  
ATOM     5   N4  UNL     1      -1.314  -1.888  -0.276  1.00  0.00    -0.076 NA  
ATOM     6   H11 UNL     1       1.516  -1.721  -1.876  1.00  0.00     0.083 HD  
ENDROOT
BRANCH   1   7
ATOM     7   C9  UNL     1      -0.078  -3.880  -0.916  1.00  0.00     0.139 C   
BRANCH   7   8
ATOM     8   C8  UNL     1       0.516  -4.458   0.369  1.00  0.00     0.060 C   
BRANCH   8   9
ATOM     9   C7  UNL     1       1.939  -4.004   0.626  1.00  0.00    -0.013 A   
ATOM     10  C2  UNL     1       3.019  -4.504  -0.129  1.00  0.00     0.078 A   
ATOM     11  C3  UNL     1       4.316  -4.038   0.118  1.00  0.00     0.037 A   
ATOM     12  C4  UNL     1       4.544  -3.082   1.111  1.00  0.00     0.042 A   
ATOM     13  C6  UNL     1       2.184  -3.051   1.626  1.00  0.00     0.045 A   
ATOM     14  C5  UNL     1       3.477  -2.598   1.854  1.00  0.00     0.123 A   
ATOM     15  F1  UNL     1       3.692  -1.664   2.790  1.00  0.00    -0.207 F   
BRANCH  10  16
ATOM     16  O1  UNL     1       2.695  -5.417  -1.097  1.00  0.00    -0.349 OA  
ATOM     17  C1  UNL     1       3.765  -6.178  -1.651  1.00  0.00     0.203 C   
ENDBRANCH  10  16
ENDBRANCH   8   9
ENDBRANCH   7   8
ENDBRANCH   1   7
BRANCH   3  18
ATOM     18  C12 UNL     1       0.388   1.125  -1.249  1.00  0.00     0.114 C   
BRANCH  18  19
ATOM     19  C13 UNL     1       1.629   1.569  -0.446  1.00  0.00     0.064 C   
BRANCH  19  20
ATOM     20  C14 UNL     1       1.452   1.968   1.038  1.00  0.00    -0.012 C   
ATOM     21  C15 UNL     1       0.919   0.843   1.921  1.00  0.00     0.007 C   
ATOM     22  C16 UNL     1       2.800   2.448   1.592  1.00  0.00     0.007 C   
ENDBRANCH  19  20
ENDBRANCH  18  19
BRANCH  18  23
ATOM     23  N2  UNL     1      -0.742   2.079  -0.997  1.00  0.00     0.249 N   
ATOM     24  H22 UNL     1      -1.192   1.784  -0.118  1.00  0.00     0.199 HD  
ATOM     25  H23 UNL     1      -0.403   3.034  -0.846  1.00  0.00     0.199 HD  
BRANCH  23  26
ATOM     26  C17 UNL     1      -1.802   2.104  -2.043  1.00  0.00     0.164 C   
BRANCH  26  27
ATOM     27  C18 UNL     1      -2.931   2.999  -1.618  1.00  0.00    -0.002 A   
ATOM     28  C19 UNL     1      -3.977   2.486  -0.813  1.00  0.00     0.012 A   
ATOM     29  C23 UNL     1      -2.926   4.361  -1.964  1.00  0.00     0.045 A   
ATOM     30  C20 UNL     1      -5.012   3.315  -0.367  1.00  0.00     0.037 A   
ATOM     31  C22 UNL     1      -3.962   5.150  -1.506  1.00  0.00     0.109 A   
ATOM     32  C21 UNL     1      -4.975   4.643  -0.730  1.00  0.00     0.108 A   
ATOM     33  O2  UNL     1      -4.107   6.479  -1.746  1.00  0.00    -0.316 OA  
ATOM     34  O3  UNL     1      -5.886   5.588  -0.385  1.00  0.00    -0.316 OA  
ATOM     35  C24 UNL     1      -5.345   6.750  -1.050  1.00  0.00     0.337 C   
ENDBRANCH  26  27
ENDBRANCH  23  26
ENDBRANCH  18  23
ENDBRANCH   3  18
TORSDOF 10
