REMARK SMILES Cc1cnn(C)c1CCn1cc([C@@H]([NH2+]Cc2ccc3c(c2)OCO3)C(C)(C)C)nn1
REMARK SMILES IDX 10 1 11 2 12 3 29 4 30 5 9 7 8 8 7 9 2 10 3 11 4 12 5 13
REMARK SMILES IDX 1 14 6 15 13 16 14 17 15 20 16 21 17 22 21 23 18 24 20 25
REMARK SMILES IDX 19 26 22 27 24 28 23 29 25 30 26 31 27 32 28 33
REMARK H PARENT 11 6 14 18 14 19
ROOT
ATOM     1   N3  UNL     1       0.992  -1.510   2.201  1.00  0.00    -0.212 N   
ATOM     2   C8  UNL     1       1.909  -0.761   1.517  1.00  0.00     0.045 A   
ATOM     3   C9  UNL     1       1.512   0.537   1.747  1.00  0.00     0.127 A   
ATOM     4   N5  UNL     1       0.416   0.531   2.574  1.00  0.00    -0.132 NA  
ATOM     5   N6  UNL     1       0.121  -0.726   2.861  1.00  0.00    -0.076 NA  
ATOM     6   H12 UNL     1       2.672  -1.207   0.894  1.00  0.00     0.083 HD  
ENDROOT
BRANCH   1   7
ATOM     7   C7  UNL     1       0.792  -2.944   2.140  1.00  0.00     0.140 C   
BRANCH   7   8
ATOM     8   C6  UNL     1      -0.432  -3.339   1.300  1.00  0.00     0.075 C   
BRANCH   8   9
ATOM     9   C5  UNL     1      -0.381  -2.764  -0.087  1.00  0.00     0.034 A   
ATOM     10  C2  UNL     1       0.401  -3.107  -1.181  1.00  0.00    -0.012 A   
ATOM     11  C3  UNL     1       0.116  -2.109  -2.139  1.00  0.00     0.136 A   
ATOM     12  N1  UNL     1      -0.756  -1.204  -1.691  1.00  0.00    -0.190 NA  
ATOM     13  N2  UNL     1      -1.164  -1.715  -0.511  1.00  0.00    -0.232 N   
ATOM     14  C1  UNL     1       1.348  -4.239  -1.322  1.00  0.00     0.048 C   
ATOM     15  C4  UNL     1      -2.288  -1.105   0.166  1.00  0.00     0.159 C   
ENDBRANCH   8   9
ENDBRANCH   7   8
ENDBRANCH   1   7
BRANCH   3  16
ATOM     16  C10 UNL     1       1.971   1.830   1.138  1.00  0.00     0.120 C   
BRANCH  16  17
ATOM     17  N4  UNL     1       0.741   2.590   0.686  1.00  0.00     0.250 N   
ATOM     18  H14 UNL     1       0.917   3.589   0.562  1.00  0.00     0.199 HD  
ATOM     19  H15 UNL     1       0.056   2.483   1.450  1.00  0.00     0.199 HD  
BRANCH  17  20
ATOM     20  C11 UNL     1       0.106   2.053  -0.556  1.00  0.00     0.164 C   
BRANCH  20  21
ATOM     21  C12 UNL     1      -1.231   2.660  -0.902  1.00  0.00    -0.002 A   
ATOM     22  C13 UNL     1      -1.848   2.240  -2.110  1.00  0.00     0.012 A   
ATOM     23  C17 UNL     1      -1.905   3.584  -0.085  1.00  0.00     0.045 A   
ATOM     24  C14 UNL     1      -3.103   2.724  -2.497  1.00  0.00     0.037 A   
ATOM     25  C16 UNL     1      -3.145   4.038  -0.493  1.00  0.00     0.109 A   
ATOM     26  C15 UNL     1      -3.728   3.621  -1.664  1.00  0.00     0.108 A   
ATOM     27  O1  UNL     1      -3.927   4.914   0.193  1.00  0.00    -0.316 OA  
ATOM     28  O2  UNL     1      -4.947   4.185  -1.866  1.00  0.00    -0.316 OA  
ATOM     29  C18 UNL     1      -5.071   5.007  -0.687  1.00  0.00     0.337 C   
ENDBRANCH  20  21
ENDBRANCH  17  20
ENDBRANCH  16  17
BRANCH  16  30
ATOM     30  C19 UNL     1       2.852   2.717   2.082  1.00  0.00     0.010 C   
ATOM     31  C20 UNL     1       3.407   3.933   1.304  1.00  0.00     0.017 C   
ATOM     32  C21 UNL     1       4.069   1.908   2.583  1.00  0.00     0.017 C   
ATOM     33  C22 UNL     1       2.081   3.243   3.308  1.00  0.00     0.017 C   
ENDBRANCH  16  30
ENDBRANCH   3  16
TORSDOF 8
