REMARK SMILES CCn1cnc(Cl)c1CCn1cc([C@@H]([NH2+]Cc2ccc3c(c2)OCO3)C2CCCC2)nn1
REMARK SMILES IDX 11 1 12 2 13 3 31 4 32 5 10 7 9 8 8 9 3 10 4 11 5 12 6 13
REMARK SMILES IDX 7 14 2 15 1 16 14 17 15 18 16 21 17 22 18 23 22 24 19 25
REMARK SMILES IDX 21 26 20 27 23 28 25 29 24 30 26 31 27 32 30 33 28 34 29 35
REMARK H PARENT 12 6 15 19 15 20
ROOT
ATOM     1   N3  UNL     1      -0.876  -1.792   2.824  1.00  0.00    -0.212 N   
ATOM     2   C8  UNL     1       0.270  -2.124   2.156  1.00  0.00     0.045 A   
ATOM     3   C9  UNL     1       0.702  -0.929   1.630  1.00  0.00     0.127 A   
ATOM     4   N5  UNL     1      -0.130   0.078   2.053  1.00  0.00    -0.132 NA  
ATOM     5   N6  UNL     1      -1.084  -0.462   2.795  1.00  0.00    -0.076 NA  
ATOM     6   H11 UNL     1       0.605  -3.147   2.048  1.00  0.00     0.083 HD  
ENDROOT
BRANCH   1   7
ATOM     7   C7  UNL     1      -1.883  -2.697   3.337  1.00  0.00     0.140 C   
BRANCH   7   8
ATOM     8   C6  UNL     1      -3.255  -2.563   2.659  1.00  0.00     0.076 C   
BRANCH   8   9
ATOM     9   C5  UNL     1      -3.208  -2.424   1.164  1.00  0.00     0.050 A   
ATOM     10  N1  UNL     1      -3.820  -1.408   0.457  1.00  0.00    -0.293 N   
ATOM     11  C3  UNL     1      -3.506  -1.572  -0.864  1.00  0.00     0.190 A   
ATOM     12  N2  UNL     1      -2.716  -2.603  -1.047  1.00  0.00    -0.227 NA  
ATOM     13  C4  UNL     1      -2.599  -3.193   0.186  1.00  0.00     0.147 A   
ATOM     14  CL1 UNL     1      -1.723  -4.636   0.397  1.00  0.00    -0.061 Cl  
BRANCH  10  15
ATOM     15  C2  UNL     1      -4.644  -0.326   0.966  1.00  0.00     0.108 C   
ATOM     16  C1  UNL     1      -6.072  -0.764   1.237  1.00  0.00     0.025 C   
ENDBRANCH  10  15
ENDBRANCH   8   9
ENDBRANCH   7   8
ENDBRANCH   1   7
BRANCH   3  17
ATOM     17  C10 UNL     1       1.771  -0.640   0.626  1.00  0.00     0.117 C   
BRANCH  17  18
ATOM     18  N4  UNL     1       1.200   0.233  -0.464  1.00  0.00     0.249 N   
ATOM     19  H13 UNL     1       1.929   0.602  -1.081  1.00  0.00     0.199 HD  
ATOM     20  H14 UNL     1       0.773   1.044   0.005  1.00  0.00     0.199 HD  
BRANCH  18  21
ATOM     21  C11 UNL     1       0.144  -0.407  -1.306  1.00  0.00     0.164 C   
BRANCH  21  22
ATOM     22  C12 UNL     1      -0.510   0.619  -2.188  1.00  0.00    -0.002 A   
ATOM     23  C13 UNL     1      -1.479   1.500  -1.646  1.00  0.00     0.012 A   
ATOM     24  C17 UNL     1      -0.138   0.741  -3.537  1.00  0.00     0.045 A   
ATOM     25  C14 UNL     1      -2.079   2.483  -2.439  1.00  0.00     0.037 A   
ATOM     26  C16 UNL     1      -0.749   1.722  -4.290  1.00  0.00     0.109 A   
ATOM     27  C15 UNL     1      -1.692   2.567  -3.758  1.00  0.00     0.108 A   
ATOM     28  O1  UNL     1      -0.505   1.975  -5.603  1.00  0.00    -0.316 OA  
ATOM     29  O2  UNL     1      -2.164   3.457  -4.670  1.00  0.00    -0.316 OA  
ATOM     30  C18 UNL     1      -1.422   3.067  -5.846  1.00  0.00     0.337 C   
ENDBRANCH  21  22
ENDBRANCH  18  21
ENDBRANCH  17  18
BRANCH  17  31
ATOM     31  C19 UNL     1       2.978   0.081   1.253  1.00  0.00     0.043 C   
ATOM     32  C20 UNL     1       3.697  -0.751   2.319  1.00  0.00     0.010 C   
ATOM     33  C23 UNL     1       4.109   0.396   0.265  1.00  0.00     0.010 C   
ATOM     34  C21 UNL     1       5.016  -0.017   2.497  1.00  0.00     0.001 C   
ATOM     35  C22 UNL     1       5.390   0.459   1.097  1.00  0.00     0.001 C   
ENDBRANCH  17  31
ENDBRANCH   3  17
TORSDOF 9
