REMARK SMILES COc1ccc(CCn2cc([C@@H]([NH2+]Cc3ccc4c(c3)OCO4)C3CCCCC3)nn2)cc1
REMARK SMILES IDX 9 1 10 2 11 3 30 4 31 5 8 7 7 8 6 9 3 10 4 11 33 12 5 13
REMARK SMILES IDX 32 14 2 15 1 16 12 17 13 18 14 21 15 22 16 23 20 24 17 25
REMARK SMILES IDX 19 26 18 27 21 28 23 29 22 30 24 31 25 32 29 33 26 34 28 35
REMARK SMILES IDX 27 36
REMARK H PARENT 10 6 13 19 13 20
ROOT
ATOM     1   N1  UNL     1       2.713   0.070   1.056  1.00  0.00    -0.212 N   
ATOM     2   C8  UNL     1       1.490   0.639   0.845  1.00  0.00     0.045 A   
ATOM     3   C9  UNL     1       0.607  -0.396   1.055  1.00  0.00     0.127 A   
ATOM     4   N3  UNL     1       1.306  -1.527   1.384  1.00  0.00    -0.132 NA  
ATOM     5   N4  UNL     1       2.593  -1.228   1.383  1.00  0.00    -0.076 NA  
ATOM     6   H10 UNL     1       1.370   1.670   0.541  1.00  0.00     0.083 HD  
ENDROOT
BRANCH   1   7
ATOM     7   C7  UNL     1       4.023   0.667   0.886  1.00  0.00     0.139 C   
BRANCH   7   8
ATOM     8   C6  UNL     1       4.709   0.225  -0.411  1.00  0.00     0.057 C   
BRANCH   8   9
ATOM     9   C5  UNL     1       3.914   0.579  -1.648  1.00  0.00    -0.046 A   
ATOM     10  C2  UNL     1       2.352   1.243  -3.896  1.00  0.00     0.075 A   
ATOM     11  C3  UNL     1       2.515  -0.090  -3.512  1.00  0.00     0.034 A   
ATOM     12  C26 UNL     1       2.982   2.247  -3.160  1.00  0.00     0.034 A   
ATOM     13  C4  UNL     1       3.290  -0.425  -2.399  1.00  0.00     0.006 A   
ATOM     14  C25 UNL     1       3.761   1.915  -2.045  1.00  0.00     0.006 A   
BRANCH  10  15
ATOM     15  O1  UNL     1       1.545   1.431  -4.984  1.00  0.00    -0.349 OA  
ATOM     16  C1  UNL     1       1.576   2.731  -5.572  1.00  0.00     0.203 C   
ENDBRANCH  10  15
ENDBRANCH   8   9
ENDBRANCH   7   8
ENDBRANCH   1   7
BRANCH   3  17
ATOM     17  C10 UNL     1      -0.877  -0.479   0.881  1.00  0.00     0.117 C   
BRANCH  17  18
ATOM     18  N2  UNL     1      -1.168  -1.732   0.078  1.00  0.00     0.249 N   
ATOM     19  H12 UNL     1      -0.583  -2.472   0.492  1.00  0.00     0.199 HD  
ATOM     20  H13 UNL     1      -2.137  -2.034   0.180  1.00  0.00     0.199 HD  
BRANCH  18  21
ATOM     21  C11 UNL     1      -0.847  -1.656  -1.381  1.00  0.00     0.164 C   
BRANCH  21  22
ATOM     22  C12 UNL     1      -1.813  -0.779  -2.133  1.00  0.00    -0.002 A   
ATOM     23  C13 UNL     1      -3.151  -1.198  -2.336  1.00  0.00     0.012 A   
ATOM     24  C17 UNL     1      -1.403   0.482  -2.605  1.00  0.00     0.045 A   
ATOM     25  C14 UNL     1      -4.071  -0.372  -2.994  1.00  0.00     0.037 A   
ATOM     26  C16 UNL     1      -2.336   1.273  -3.246  1.00  0.00     0.109 A   
ATOM     27  C15 UNL     1      -3.632   0.857  -3.435  1.00  0.00     0.108 A   
ATOM     28  O2  UNL     1      -2.110   2.515  -3.750  1.00  0.00    -0.316 OA  
ATOM     29  O3  UNL     1      -4.383   1.781  -4.089  1.00  0.00    -0.316 OA  
ATOM     30  C18 UNL     1      -3.413   2.831  -4.293  1.00  0.00     0.337 C   
ENDBRANCH  21  22
ENDBRANCH  18  21
ENDBRANCH  17  18
BRANCH  17  31
ATOM     31  C19 UNL     1      -1.638  -0.534   2.240  1.00  0.00     0.043 C   
ATOM     32  C20 UNL     1      -1.324   0.722   3.089  1.00  0.00     0.010 C   
ATOM     33  C24 UNL     1      -3.171  -0.649   2.062  1.00  0.00     0.010 C   
ATOM     34  C21 UNL     1      -2.076   0.735   4.419  1.00  0.00     0.001 C   
ATOM     35  C23 UNL     1      -3.915  -0.634   3.397  1.00  0.00     0.001 C   
ATOM     36  C22 UNL     1      -3.579   0.603   4.217  1.00  0.00     0.000 C   
ENDBRANCH  17  31
ENDBRANCH   3  17
TORSDOF 9
