REMARK SMILES c1nc(Cn2cc([C@@H]([NH2+]Cc3ccc4c(c3)OCO4)C3CCCCC3)nn2)c(C2CC2)o1
REMARK SMILES IDX 5 1 6 2 7 3 26 4 27 5 4 7 3 8 1 9 2 10 32 11 28 12 29 13
REMARK SMILES IDX 30 14 31 15 8 16 9 17 10 20 11 21 12 22 16 23 13 24 15 25
REMARK SMILES IDX 14 26 17 27 19 28 18 29 20 30 21 31 25 32 22 33 24 34 23 35
REMARK H PARENT 6 6 9 18 9 19
ROOT
ATOM     1   N2  UNL     1      -0.095  -2.030   0.785  1.00  0.00    -0.206 N   
ATOM     2   C4  UNL     1      -0.191  -1.216  -0.311  1.00  0.00     0.046 A   
ATOM     3   C5  UNL     1       0.798  -0.280  -0.117  1.00  0.00     0.127 A   
ATOM     4   N4  UNL     1       1.446  -0.546   1.062  1.00  0.00    -0.132 NA  
ATOM     5   N5  UNL     1       0.904  -1.627   1.596  1.00  0.00    -0.076 NA  
ATOM     6   H4  UNL     1      -0.943  -1.367  -1.074  1.00  0.00     0.083 HD  
ENDROOT
BRANCH   1   7
ATOM     7   C3  UNL     1      -0.874  -3.216   1.090  1.00  0.00     0.192 C   
BRANCH   7   8
ATOM     8   C2  UNL     1      -2.160  -2.833   1.716  1.00  0.00     0.089 A   
ATOM     9   C1  UNL     1      -4.142  -2.089   1.848  1.00  0.00     0.247 A   
ATOM     10  N1  UNL     1      -3.182  -2.275   0.968  1.00  0.00    -0.232 NA  
ATOM     11  O3  UNL     1      -3.844  -2.475   3.119  1.00  0.00    -0.301 OA  
ATOM     12  C21 UNL     1      -2.570  -2.957   3.029  1.00  0.00     0.087 A   
BRANCH  12  13
ATOM     13  C22 UNL     1      -1.760  -3.557   4.203  1.00  0.00     0.045 C   
ATOM     14  C23 UNL     1      -0.652  -2.739   4.814  1.00  0.00     0.011 C   
ATOM     15  C24 UNL     1      -1.917  -2.980   5.584  1.00  0.00     0.011 C   
ENDBRANCH  12  13
ENDBRANCH   7   8
ENDBRANCH   1   7
BRANCH   3  16
ATOM     16  C6  UNL     1       1.184   0.929  -0.904  1.00  0.00     0.117 C   
BRANCH  16  17
ATOM     17  N3  UNL     1       1.581   2.039   0.051  1.00  0.00     0.249 N   
ATOM     18  H6  UNL     1       2.432   2.508  -0.270  1.00  0.00     0.199 HD  
ATOM     19  H7  UNL     1       1.839   1.570   0.936  1.00  0.00     0.199 HD  
BRANCH  17  20
ATOM     20  C7  UNL     1       0.541   3.063   0.343  1.00  0.00     0.164 C   
BRANCH  20  21
ATOM     21  C8  UNL     1      -0.686   2.524   1.023  1.00  0.00    -0.002 A   
ATOM     22  C9  UNL     1      -1.911   2.428   0.319  1.00  0.00     0.012 A   
ATOM     23  C13 UNL     1      -0.629   2.105   2.364  1.00  0.00     0.045 A   
ATOM     24  C10 UNL     1      -3.063   1.932   0.940  1.00  0.00     0.037 A   
ATOM     25  C12 UNL     1      -1.783   1.626   2.948  1.00  0.00     0.109 A   
ATOM     26  C11 UNL     1      -2.966   1.546   2.257  1.00  0.00     0.108 A   
ATOM     27  O1  UNL     1      -1.901   1.202   4.233  1.00  0.00    -0.316 OA  
ATOM     28  O2  UNL     1      -3.982   1.066   3.022  1.00  0.00    -0.316 OA  
ATOM     29  C14 UNL     1      -3.309   0.885   4.287  1.00  0.00     0.337 C   
ENDBRANCH  20  21
ENDBRANCH  17  20
ENDBRANCH  16  17
BRANCH  16  30
ATOM     30  C15 UNL     1       2.349   0.693  -1.903  1.00  0.00     0.043 C   
ATOM     31  C16 UNL     1       1.933  -0.258  -3.042  1.00  0.00     0.010 C   
ATOM     32  C20 UNL     1       3.655   0.197  -1.251  1.00  0.00     0.010 C   
ATOM     33  C17 UNL     1       3.050  -0.431  -4.072  1.00  0.00     0.001 C   
ATOM     34  C19 UNL     1       4.768   0.028  -2.284  1.00  0.00     0.001 C   
ATOM     35  C18 UNL     1       4.345  -0.900  -3.418  1.00  0.00     0.000 C   
ENDBRANCH  16  30
ENDBRANCH   3  16
TORSDOF 8
