REMARK SMILES Cc1ccc([C@H](CO)n2cc([C@@H]([NH2+]Cc3ccc4c(c3)OCO4)C(C)(C)C)nn2)c(O)c1
REMARK SMILES IDX 9 1 10 2 11 3 28 4 29 5 6 7 5 8 2 9 3 10 32 11 4 12 30 13
REMARK SMILES IDX 1 14 31 15 7 17 8 18 12 20 13 21 14 24 15 25 16 26 20 27
REMARK SMILES IDX 17 28 19 29 18 30 21 31 23 32 22 33 24 34 25 35 26 36 27 37
REMARK H PARENT 10 6 31 16 8 19 13 22 13 23
ROOT
ATOM     1   N1  UNL     1      -0.977   0.819   2.413  1.00  0.00    -0.202 N   
ATOM     2   C8  UNL     1      -0.225   1.538   1.522  1.00  0.00     0.046 A   
ATOM     3   C9  UNL     1      -0.321   0.827   0.349  1.00  0.00     0.127 A   
ATOM     4   N3  UNL     1      -1.113  -0.274   0.552  1.00  0.00    -0.132 NA  
ATOM     5   N4  UNL     1      -1.508  -0.270   1.814  1.00  0.00    -0.075 NA  
ATOM     6   H10 UNL     1       0.312   2.430   1.813  1.00  0.00     0.083 HD  
ENDROOT
BRANCH   1   7
ATOM     7   C6  UNL     1      -1.184   1.052   3.844  1.00  0.00     0.158 C   
BRANCH   7   8
ATOM     8   C5  UNL     1      -1.728   2.455   4.088  1.00  0.00     0.007 A   
ATOM     9   C2  UNL     1      -2.939   4.993   4.482  1.00  0.00    -0.049 A   
ATOM     10  C3  UNL     1      -3.696   3.916   4.022  1.00  0.00     0.004 A   
ATOM     11  C24 UNL     1      -1.575   4.806   4.722  1.00  0.00     0.037 A   
ATOM     12  C4  UNL     1      -3.099   2.667   3.830  1.00  0.00     0.009 A   
ATOM     13  C23 UNL     1      -0.982   3.553   4.530  1.00  0.00     0.077 A   
ATOM     14  C1  UNL     1      -3.566   6.345   4.667  1.00  0.00     0.044 C   
BRANCH  13  15
ATOM     15  O4  UNL     1       0.357   3.424   4.775  1.00  0.00    -0.361 OA  
ATOM     16  H30 UNL     1       0.662   4.238   5.220  1.00  0.00     0.218 HD  
ENDBRANCH  13  15
ENDBRANCH   7   8
BRANCH   7  17
ATOM     17  C7  UNL     1       0.029   0.555   4.657  1.00  0.00     0.186 C   
BRANCH  17  18
ATOM     18  O1  UNL     1       1.282   1.069   4.203  1.00  0.00    -0.394 OA  
ATOM     19  H9  UNL     1       1.269   2.019   4.443  1.00  0.00     0.210 HD  
ENDBRANCH  17  18
ENDBRANCH   7  17
ENDBRANCH   1   7
BRANCH   3  20
ATOM     20  C10 UNL     1       0.363   1.015  -0.970  1.00  0.00     0.120 C   
BRANCH  20  21
ATOM     21  N2  UNL     1       0.795  -0.339  -1.484  1.00  0.00     0.250 N   
ATOM     22  H12 UNL     1      -0.020  -0.963  -1.389  1.00  0.00     0.199 HD  
ATOM     23  H13 UNL     1       1.034  -0.323  -2.478  1.00  0.00     0.199 HD  
BRANCH  21  24
ATOM     24  C11 UNL     1       1.917  -0.974  -0.734  1.00  0.00     0.164 C   
BRANCH  24  25
ATOM     25  C12 UNL     1       2.216  -2.336  -1.296  1.00  0.00    -0.002 A   
ATOM     26  C13 UNL     1       1.472  -3.460  -0.863  1.00  0.00     0.012 A   
ATOM     27  C17 UNL     1       3.196  -2.494  -2.291  1.00  0.00     0.045 A   
ATOM     28  C14 UNL     1       1.708  -4.729  -1.405  1.00  0.00     0.037 A   
ATOM     29  C16 UNL     1       3.404  -3.759  -2.802  1.00  0.00     0.109 A   
ATOM     30  C15 UNL     1       2.682  -4.845  -2.372  1.00  0.00     0.108 A   
ATOM     31  O2  UNL     1       4.310  -4.084  -3.761  1.00  0.00    -0.316 OA  
ATOM     32  O3  UNL     1       3.043  -5.992  -3.005  1.00  0.00    -0.316 OA  
ATOM     33  C18 UNL     1       4.099  -5.511  -3.864  1.00  0.00     0.337 C   
ENDBRANCH  24  25
ENDBRANCH  21  24
ENDBRANCH  20  21
BRANCH  20  34
ATOM     34  C19 UNL     1      -0.505   1.758  -2.045  1.00  0.00     0.010 C   
ATOM     35  C20 UNL     1      -0.991   3.117  -1.490  1.00  0.00     0.017 C   
ATOM     36  C21 UNL     1       0.344   2.063  -3.300  1.00  0.00     0.017 C   
ATOM     37  C22 UNL     1      -1.739   0.946  -2.484  1.00  0.00     0.017 C   
ENDBRANCH  20  34
ENDBRANCH   3  20
TORSDOF 10
