REMARK SMILES Cc1ccc([C@@H](CO)n2cc([C@@H]([NH2+]Cc3ccc4c(c3)OCO4)C(C)(C)C)nn2)c(O)c1
REMARK SMILES IDX 9 1 10 2 11 3 28 4 29 5 6 7 5 8 2 9 3 10 32 11 4 12 30 13
REMARK SMILES IDX 1 14 31 15 7 17 8 18 12 20 13 21 14 24 15 25 16 26 20 27
REMARK SMILES IDX 17 28 19 29 18 30 21 31 23 32 22 33 24 34 25 35 26 36 27 37
REMARK H PARENT 10 6 31 16 8 19 13 22 13 23
ROOT
ATOM     1   N1  UNL     1       0.318   0.949   1.535  1.00  0.00    -0.202 N   
ATOM     2   C8  UNL     1       0.762   1.557   0.390  1.00  0.00     0.046 A   
ATOM     3   C9  UNL     1       0.621   0.591  -0.580  1.00  0.00     0.127 A   
ATOM     4   N3  UNL     1       0.145  -0.560  -0.004  1.00  0.00    -0.132 NA  
ATOM     5   N4  UNL     1      -0.025  -0.336   1.288  1.00  0.00    -0.075 NA  
ATOM     6   H10 UNL     1       1.104   2.582   0.383  1.00  0.00     0.083 HD  
ENDROOT
BRANCH   1   7
ATOM     7   C6  UNL     1       0.213   1.529   2.875  1.00  0.00     0.158 C   
BRANCH   7   8
ATOM     8   C5  UNL     1      -1.252   1.721   3.235  1.00  0.00     0.007 A   
ATOM     9   C2  UNL     1      -3.985   2.099   3.868  1.00  0.00    -0.049 A   
ATOM     10  C3  UNL     1      -3.337   0.909   4.206  1.00  0.00     0.004 A   
ATOM     11  C24 UNL     1      -3.272   3.089   3.183  1.00  0.00     0.037 A   
ATOM     12  C4  UNL     1      -1.988   0.721   3.893  1.00  0.00     0.009 A   
ATOM     13  C23 UNL     1      -1.923   2.897   2.877  1.00  0.00     0.077 A   
ATOM     14  C1  UNL     1      -5.442   2.283   4.177  1.00  0.00     0.044 C   
BRANCH  13  15
ATOM     15  O4  UNL     1      -1.232   3.870   2.209  1.00  0.00    -0.361 OA  
ATOM     16  H30 UNL     1      -1.810   4.650   2.128  1.00  0.00     0.218 HD  
ENDBRANCH  13  15
ENDBRANCH   7   8
BRANCH   7  17
ATOM     17  C7  UNL     1       1.034   0.722   3.898  1.00  0.00     0.186 C   
BRANCH  17  18
ATOM     18  O1  UNL     1       2.436   0.885   3.654  1.00  0.00    -0.394 OA  
ATOM     19  H9  UNL     1       2.902   0.373   4.340  1.00  0.00     0.210 HD  
ENDBRANCH  17  18
ENDBRANCH   7  17
ENDBRANCH   1   7
BRANCH   3  20
ATOM     20  C10 UNL     1       0.951   0.591  -2.042  1.00  0.00     0.120 C   
BRANCH  20  21
ATOM     21  N2  UNL     1       1.364  -0.811  -2.429  1.00  0.00     0.250 N   
ATOM     22  H12 UNL     1       1.249  -1.005  -3.426  1.00  0.00     0.199 HD  
ATOM     23  H13 UNL     1       0.712  -1.446  -1.941  1.00  0.00     0.199 HD  
BRANCH  21  24
ATOM     24  C11 UNL     1       2.740  -1.205  -2.018  1.00  0.00     0.164 C   
BRANCH  24  25
ATOM     25  C12 UNL     1       2.979  -2.655  -2.329  1.00  0.00    -0.002 A   
ATOM     26  C13 UNL     1       3.534  -3.041  -3.572  1.00  0.00     0.012 A   
ATOM     27  C17 UNL     1       2.589  -3.642  -1.406  1.00  0.00     0.045 A   
ATOM     28  C14 UNL     1       3.710  -4.392  -3.890  1.00  0.00     0.037 A   
ATOM     29  C16 UNL     1       2.778  -4.964  -1.751  1.00  0.00     0.109 A   
ATOM     30  C15 UNL     1       3.321  -5.329  -2.958  1.00  0.00     0.108 A   
ATOM     31  O2  UNL     1       2.459  -6.037  -0.979  1.00  0.00    -0.316 OA  
ATOM     32  O3  UNL     1       3.412  -6.677  -3.099  1.00  0.00    -0.316 OA  
ATOM     33  C18 UNL     1       2.909  -7.122  -1.821  1.00  0.00     0.337 C   
ENDBRANCH  24  25
ENDBRANCH  21  24
ENDBRANCH  20  21
BRANCH  20  34
ATOM     34  C19 UNL     1      -0.213   1.091  -2.965  1.00  0.00     0.010 C   
ATOM     35  C20 UNL     1      -1.459   0.188  -2.890  1.00  0.00     0.017 C   
ATOM     36  C21 UNL     1       0.258   1.151  -4.436  1.00  0.00     0.017 C   
ATOM     37  C22 UNL     1      -0.631   2.527  -2.571  1.00  0.00     0.017 C   
ENDBRANCH  20  34
ENDBRANCH   3  20
TORSDOF 10
