REMARK SMILES CC(C)C[C@H]([NH2+]Cc1ccc2c(c1)OCO2)c1cn(Cc2nn(C)c3ccccc23)nn1
REMARK SMILES IDX 17 1 18 2 19 3 31 4 32 5 5 7 4 8 2 9 1 10 3 11 6 12 7 15
REMARK SMILES IDX 8 16 9 17 13 18 10 19 12 20 11 21 14 22 16 23 15 24 20 25
REMARK SMILES IDX 21 26 22 27 30 28 23 29 25 30 29 31 26 32 28 33 27 34 24 35
REMARK H PARENT 18 6 6 13 6 14
ROOT
ATOM     1   C14 UNL     1       0.508  -1.300   0.432  1.00  0.00     0.127 A   
ATOM     2   C15 UNL     1       1.212  -0.671  -0.570  1.00  0.00     0.046 A   
ATOM     3   N2  UNL     1       0.459  -0.898  -1.692  1.00  0.00    -0.206 N   
ATOM     4   N5  UNL     1      -0.607  -1.673  -1.405  1.00  0.00    -0.076 NA  
ATOM     5   N6  UNL     1      -0.592  -1.917  -0.106  1.00  0.00    -0.132 NA  
ATOM     6   H20 UNL     1       2.094  -0.045  -0.589  1.00  0.00     0.083 HD  
ENDROOT
BRANCH   1   7
ATOM     7   C5  UNL     1       0.674  -1.281   1.913  1.00  0.00     0.114 C   
BRANCH   7   8
ATOM     8   C4  UNL     1       1.076  -2.648   2.491  1.00  0.00     0.064 C   
BRANCH   8   9
ATOM     9   C2  UNL     1       2.443  -3.182   2.010  1.00  0.00    -0.012 C   
ATOM     10  C1  UNL     1       3.597  -2.252   2.385  1.00  0.00     0.007 C   
ATOM     11  C3  UNL     1       2.690  -4.574   2.598  1.00  0.00     0.007 C   
ENDBRANCH   8   9
ENDBRANCH   7   8
BRANCH   7  12
ATOM     12  N1  UNL     1      -0.652  -0.901   2.534  1.00  0.00     0.249 N   
ATOM     13  H11 UNL     1      -0.701  -1.167   3.522  1.00  0.00     0.199 HD  
ATOM     14  H12 UNL     1      -1.369  -1.464   2.049  1.00  0.00     0.199 HD  
BRANCH  12  15
ATOM     15  C6  UNL     1      -1.030   0.532   2.382  1.00  0.00     0.164 C   
BRANCH  15  16
ATOM     16  C7  UNL     1      -2.473   0.743   2.742  1.00  0.00    -0.002 A   
ATOM     17  C8  UNL     1      -2.849   1.039   4.073  1.00  0.00     0.012 A   
ATOM     18  C12 UNL     1      -3.465   0.599   1.755  1.00  0.00     0.045 A   
ATOM     19  C9  UNL     1      -4.196   1.202   4.417  1.00  0.00     0.037 A   
ATOM     20  C11 UNL     1      -4.781   0.768   2.128  1.00  0.00     0.109 A   
ATOM     21  C10 UNL     1      -5.137   1.060   3.421  1.00  0.00     0.108 A   
ATOM     22  O1  UNL     1      -5.856   0.669   1.303  1.00  0.00    -0.316 OA  
ATOM     23  O2  UNL     1      -6.481   1.182   3.574  1.00  0.00    -0.316 OA  
ATOM     24  C13 UNL     1      -6.935   0.950   2.223  1.00  0.00     0.337 C   
ENDBRANCH  15  16
ENDBRANCH  12  15
ENDBRANCH   7  12
ENDBRANCH   1   7
BRANCH   3  25
ATOM     25  C16 UNL     1       0.613  -0.306  -3.009  1.00  0.00     0.192 C   
BRANCH  25  26
ATOM     26  C17 UNL     1       0.255   1.140  -2.941  1.00  0.00     0.087 A   
ATOM     27  N3  UNL     1       1.211   2.078  -3.018  1.00  0.00    -0.184 NA  
ATOM     28  C24 UNL     1      -1.033   1.713  -2.743  1.00  0.00     0.022 A   
ATOM     29  N4  UNL     1       0.531   3.241  -2.949  1.00  0.00    -0.228 N   
ATOM     30  C19 UNL     1      -0.815   3.088  -2.732  1.00  0.00     0.059 A   
ATOM     31  C23 UNL     1      -2.341   1.224  -2.562  1.00  0.00     0.012 A   
ATOM     32  C20 UNL     1      -1.852   4.013  -2.546  1.00  0.00     0.026 A   
ATOM     33  C22 UNL     1      -3.386   2.134  -2.368  1.00  0.00     0.001 A   
ATOM     34  C21 UNL     1      -3.142   3.506  -2.360  1.00  0.00     0.002 A   
ATOM     35  C18 UNL     1       1.241   4.493  -3.082  1.00  0.00     0.159 C   
ENDBRANCH  25  26
ENDBRANCH   3  25
TORSDOF 8
