REMARK SMILES NC(=[NH2+])NCCC[C@@H](C(=O)O)n1cc([C@@H]([NH2+]Cc2ccc3c(c2)OCO3)C2CCCC2)nn1
REMARK SMILES IDX 7 1 6 2 5 3 4 4 2 5 1 6 3 10 8 13 9 14 10 15 11 16 12 18
REMARK SMILES IDX 13 19 33 20 14 21 32 22 15 24 16 25 17 28 18 29 19 30 23 31
REMARK SMILES IDX 20 32 22 33 21 34 24 35 26 36 25 37 27 38 28 39 31 40 29 41
REMARK SMILES IDX 30 42
REMARK H PARENT 1 7 1 8 4 9 3 11 3 12 11 17 13 23 16 26 16 27
ROOT
ATOM     1   C4  UNL     1       1.312  -1.086  -4.274  1.00  0.00     0.039 C   
ENDROOT
BRANCH   1   2
ATOM     2   C3  UNL     1       0.274  -0.120  -4.866  1.00  0.00     0.037 C   
BRANCH   2   3
ATOM     3   C2  UNL     1       0.849   0.714  -6.015  1.00  0.00     0.184 C   
BRANCH   3   4
ATOM     4   N3  UNL     1       1.869   1.666  -5.549  1.00  0.00    -0.239 N   
ATOM     5   C1  UNL     1       2.634   2.416  -6.364  1.00  0.00     0.316 C   
ATOM     6   N2  UNL     1       2.537   2.341  -7.694  1.00  0.00    -0.252 N   
ATOM     7   H3  UNL     1       1.884   1.717  -8.149  1.00  0.00     0.241 HD  
ATOM     8   H4  UNL     1       3.100   2.922  -8.303  1.00  0.00     0.241 HD  
ATOM     9   H5  UNL     1       2.020   1.772  -4.554  1.00  0.00     0.244 HD  
BRANCH   5  10
ATOM     10  N1  UNL     1       3.520   3.266  -5.836  1.00  0.00    -0.252 N   
ATOM     11  H1  UNL     1       4.122   3.831  -6.425  1.00  0.00     0.241 HD  
ATOM     12  H2  UNL     1       3.614   3.399  -4.837  1.00  0.00     0.241 HD  
ENDBRANCH   5  10
ENDBRANCH   3   4
ENDBRANCH   2   3
ENDBRANCH   1   2
BRANCH   1  13
ATOM     13  C5  UNL     1       0.726  -2.074  -3.239  1.00  0.00     0.196 C   
BRANCH  13  14
ATOM     14  C6  UNL     1       1.768  -3.074  -2.754  1.00  0.00     0.281 C   
ATOM     15  O1  UNL     1       1.874  -3.515  -1.619  1.00  0.00    -0.265 OA  
BRANCH  14  16
ATOM     16  O2  UNL     1       2.577  -3.529  -3.732  1.00  0.00    -0.330 OA  
ATOM     17  H13 UNL     1       3.157  -4.204  -3.309  1.00  0.00     0.221 HD  
ENDBRANCH  14  16
ENDBRANCH  13  14
BRANCH  13  18
ATOM     18  N4  UNL     1       0.131  -1.433  -2.074  1.00  0.00    -0.199 N   
ATOM     19  C7  UNL     1      -0.868  -1.921  -1.273  1.00  0.00     0.046 A   
ATOM     20  N7  UNL     1       0.638  -0.292  -1.563  1.00  0.00    -0.075 NA  
ATOM     21  C8  UNL     1      -0.886  -1.060  -0.197  1.00  0.00     0.127 A   
ATOM     22  N6  UNL     1       0.026  -0.057  -0.413  1.00  0.00    -0.132 NA  
ATOM     23  H14 UNL     1      -1.386  -2.846  -1.489  1.00  0.00     0.083 HD  
BRANCH  21  24
ATOM     24  C9  UNL     1      -1.603  -1.156   1.116  1.00  0.00     0.117 C   
BRANCH  24  25
ATOM     25  N5  UNL     1      -0.682  -0.743   2.237  1.00  0.00     0.249 N   
ATOM     26  H16 UNL     1      -1.201  -0.593   3.111  1.00  0.00     0.199 HD  
ATOM     27  H17 UNL     1      -0.278   0.169   1.980  1.00  0.00     0.199 HD  
BRANCH  25  28
ATOM     28  C10 UNL     1       0.455  -1.672   2.511  1.00  0.00     0.164 C   
BRANCH  28  29
ATOM     29  C11 UNL     1       1.351  -1.104   3.575  1.00  0.00    -0.002 A   
ATOM     30  C12 UNL     1       1.262  -1.559   4.912  1.00  0.00     0.012 A   
ATOM     31  C16 UNL     1       2.256  -0.077   3.252  1.00  0.00     0.045 A   
ATOM     32  C13 UNL     1       2.073  -1.010   5.911  1.00  0.00     0.037 A   
ATOM     33  C15 UNL     1       3.036   0.446   4.262  1.00  0.00     0.109 A   
ATOM     34  C14 UNL     1       2.950  -0.011   5.553  1.00  0.00     0.108 A   
ATOM     35  O3  UNL     1       3.952   1.440   4.121  1.00  0.00    -0.316 OA  
ATOM     36  O4  UNL     1       3.807   0.632   6.388  1.00  0.00    -0.316 OA  
ATOM     37  C17 UNL     1       4.455   1.542   5.474  1.00  0.00     0.337 C   
ENDBRANCH  28  29
ENDBRANCH  25  28
ENDBRANCH  24  25
BRANCH  24  38
ATOM     38  C18 UNL     1      -2.885  -0.312   1.223  1.00  0.00     0.043 C   
ATOM     39  C19 UNL     1      -3.969  -0.648   0.197  1.00  0.00     0.010 C   
ATOM     40  C22 UNL     1      -2.728   1.199   1.044  1.00  0.00     0.010 C   
ATOM     41  C20 UNL     1      -4.938   0.531   0.266  1.00  0.00     0.001 C   
ATOM     42  C21 UNL     1      -4.165   1.687   0.899  1.00  0.00     0.001 C   
ENDBRANCH  24  38
ENDBRANCH  21  24
ENDBRANCH  13  18
ENDBRANCH   1  13
TORSDOF 13
