REMARK SMILES Clc1ccc(-n2cc([C@@H]([NH2+]Cc3ccc4c(c3)OCO4)C3CCCC3)nn2)nc1
REMARK SMILES IDX 9 1 8 2 6 3 7 4 27 5 26 6 5 7 2 8 3 9 29 10 4 11 28 12 1 13
REMARK SMILES IDX 10 14 11 17 12 18 13 19 17 20 14 21 16 22 15 23 18 24 20 25
REMARK SMILES IDX 19 26 21 27 22 28 25 29 23 30 24 31
REMARK H PARENT 10 15 10 16
ROOT
ATOM     1   C7  UNL     1       0.793   0.650   0.479  1.00  0.00     0.117 C   
ENDROOT
BRANCH   1   2
ATOM     2   C6  UNL     1      -0.487   0.146  -0.110  1.00  0.00     0.128 A   
ATOM     3   N1  UNL     1      -2.475  -0.182  -0.962  1.00  0.00    -0.162 N   
ATOM     4   C5  UNL     1      -1.628   0.807  -0.499  1.00  0.00     0.137 A   
ATOM     5   N4  UNL     1      -1.870  -1.389  -0.814  1.00  0.00    -0.070 NA  
ATOM     6   N3  UNL     1      -0.661  -1.198  -0.310  1.00  0.00    -0.131 NA  
BRANCH   3   7
ATOM     7   C4  UNL     1      -3.778  -0.010  -1.498  1.00  0.00     0.146 A   
ATOM     8   C1  UNL     1      -6.292   0.357  -2.541  1.00  0.00     0.059 A   
ATOM     9   C2  UNL     1      -5.776  -0.930  -2.457  1.00  0.00     0.026 A   
ATOM     10  C21 UNL     1      -5.511   1.410  -2.090  1.00  0.00     0.133 A   
ATOM     11  C3  UNL     1      -4.498  -1.125  -1.928  1.00  0.00     0.048 A   
ATOM     12  N5  UNL     1      -4.266   1.259  -1.568  1.00  0.00    -0.238 NA  
ATOM     13  CL1 UNL     1      -7.856   0.633  -3.186  1.00  0.00    -0.083 Cl  
ENDBRANCH   3   7
ENDBRANCH   1   2
BRANCH   1  14
ATOM     14  N2  UNL     1       1.354  -0.381   1.428  1.00  0.00     0.249 N   
ATOM     15  H5  UNL     1       2.343  -0.214   1.636  1.00  0.00     0.199 HD  
ATOM     16  H6  UNL     1       1.312  -1.290   0.944  1.00  0.00     0.199 HD  
BRANCH  14  17
ATOM     17  C8  UNL     1       0.621  -0.527   2.717  1.00  0.00     0.164 C   
BRANCH  17  18
ATOM     18  C9  UNL     1       1.230  -1.623   3.545  1.00  0.00    -0.002 A   
ATOM     19  C10 UNL     1       2.217  -1.328   4.515  1.00  0.00     0.012 A   
ATOM     20  C14 UNL     1       0.858  -2.960   3.319  1.00  0.00     0.045 A   
ATOM     21  C11 UNL     1       2.817  -2.348   5.262  1.00  0.00     0.037 A   
ATOM     22  C13 UNL     1       1.470  -3.941   4.071  1.00  0.00     0.109 A   
ATOM     23  C12 UNL     1       2.421  -3.644   5.016  1.00  0.00     0.108 A   
ATOM     24  O1  UNL     1       1.228  -5.275   3.979  1.00  0.00    -0.316 OA  
ATOM     25  O2  UNL     1       2.895  -4.754   5.640  1.00  0.00    -0.316 OA  
ATOM     26  C15 UNL     1       2.122  -5.787   4.993  1.00  0.00     0.337 C   
ENDBRANCH  17  18
ENDBRANCH  14  17
ENDBRANCH   1  14
BRANCH   1  27
ATOM     27  C16 UNL     1       1.849   0.945  -0.605  1.00  0.00     0.043 C   
ATOM     28  C17 UNL     1       3.181   1.478  -0.062  1.00  0.00     0.010 C   
ATOM     29  C20 UNL     1       1.436   2.062  -1.569  1.00  0.00     0.010 C   
ATOM     30  C18 UNL     1       3.832   2.217  -1.230  1.00  0.00     0.001 C   
ATOM     31  C19 UNL     1       2.735   2.439  -2.264  1.00  0.00     0.001 C   
ENDBRANCH   1  27
TORSDOF 6
