REMARK SMILES Cc1ccccc1[C@H](CO)n1cc([C@@H]([NH2+]Cc2ccc3c(c2)OCO3)C(C)(C)C)nn1
REMARK SMILES IDX 11 1 12 2 13 3 30 4 31 5 8 7 7 8 2 9 3 10 4 11 6 12 5 13
REMARK SMILES IDX 1 14 9 15 10 16 14 18 15 19 16 22 17 23 18 24 22 25 19 26
REMARK SMILES IDX 21 27 20 28 23 29 25 30 24 31 26 32 27 33 28 34 29 35
REMARK H PARENT 12 6 10 17 15 20 15 21
ROOT
ATOM     1   N1  UNL     1       0.979   0.031  -1.749  1.00  0.00    -0.202 N   
ATOM     2   C10 UNL     1       0.731  -0.081  -0.407  1.00  0.00     0.046 A   
ATOM     3   C11 UNL     1       0.279   1.166  -0.041  1.00  0.00     0.127 A   
ATOM     4   N3  UNL     1       0.309   1.993  -1.133  1.00  0.00    -0.132 NA  
ATOM     5   N4  UNL     1       0.743   1.293  -2.169  1.00  0.00    -0.075 NA  
ATOM     6   H12 UNL     1       0.897  -1.002   0.136  1.00  0.00     0.083 HD  
ENDROOT
BRANCH   1   7
ATOM     7   C8  UNL     1       1.475  -0.977  -2.688  1.00  0.00     0.155 C   
BRANCH   7   8
ATOM     8   C7  UNL     1       0.789  -2.329  -2.465  1.00  0.00    -0.020 A   
ATOM     9   C2  UNL     1      -0.529  -2.567  -2.933  1.00  0.00    -0.046 A   
ATOM     10  C3  UNL     1      -1.135  -3.815  -2.701  1.00  0.00     0.004 A   
ATOM     11  C4  UNL     1      -0.462  -4.823  -2.016  1.00  0.00     0.000 A   
ATOM     12  C6  UNL     1       1.442  -3.365  -1.769  1.00  0.00     0.006 A   
ATOM     13  C5  UNL     1       0.825  -4.598  -1.550  1.00  0.00     0.000 A   
ATOM     14  C1  UNL     1      -1.324  -1.530  -3.685  1.00  0.00     0.045 C   
ENDBRANCH   7   8
BRANCH   7  15
ATOM     15  C9  UNL     1       3.020  -0.961  -2.732  1.00  0.00     0.185 C   
BRANCH  15  16
ATOM     16  O1  UNL     1       3.624  -1.120  -1.445  1.00  0.00    -0.394 OA  
ATOM     17  H11 UNL     1       4.583  -1.224  -1.601  1.00  0.00     0.210 HD  
ENDBRANCH  15  16
ENDBRANCH   7  15
ENDBRANCH   1   7
BRANCH   3  18
ATOM     18  C12 UNL     1      -0.106   1.710   1.298  1.00  0.00     0.120 C   
BRANCH  18  19
ATOM     19  N2  UNL     1       0.491   3.095   1.457  1.00  0.00     0.250 N   
ATOM     20  H14 UNL     1       0.107   3.567   2.277  1.00  0.00     0.199 HD  
ATOM     21  H15 UNL     1       0.201   3.628   0.626  1.00  0.00     0.199 HD  
BRANCH  19  22
ATOM     22  C13 UNL     1       1.983   3.168   1.521  1.00  0.00     0.164 C   
BRANCH  22  23
ATOM     23  C14 UNL     1       2.546   2.538   2.764  1.00  0.00    -0.002 A   
ATOM     24  C15 UNL     1       2.452   3.206   4.009  1.00  0.00     0.012 A   
ATOM     25  C19 UNL     1       3.134   1.262   2.705  1.00  0.00     0.045 A   
ATOM     26  C16 UNL     1       2.933   2.611   5.179  1.00  0.00     0.037 A   
ATOM     27  C18 UNL     1       3.593   0.702   3.879  1.00  0.00     0.109 A   
ATOM     28  C17 UNL     1       3.496   1.357   5.081  1.00  0.00     0.108 A   
ATOM     29  O2  UNL     1       4.168  -0.523   4.001  1.00  0.00    -0.316 OA  
ATOM     30  O3  UNL     1       4.003   0.630   6.110  1.00  0.00    -0.316 OA  
ATOM     31  C20 UNL     1       4.450  -0.556   5.417  1.00  0.00     0.337 C   
ENDBRANCH  22  23
ENDBRANCH  19  22
ENDBRANCH  18  19
BRANCH  18  32
ATOM     32  C21 UNL     1      -1.655   1.748   1.554  1.00  0.00     0.010 C   
ATOM     33  C22 UNL     1      -1.950   2.166   3.014  1.00  0.00     0.017 C   
ATOM     34  C23 UNL     1      -2.259   0.338   1.360  1.00  0.00     0.017 C   
ATOM     35  C24 UNL     1      -2.397   2.721   0.616  1.00  0.00     0.017 C   
ENDBRANCH  18  32
ENDBRANCH   3  18
TORSDOF 9
