REMARK SMILES Cc1ccccc1[C@@H](CO)n1cc([C@@H]([NH2+]Cc2ccc3c(c2)OCO3)C(C)(C)C)nn1
REMARK SMILES IDX 11 1 12 2 13 3 30 4 31 5 8 7 7 8 2 9 3 10 4 11 6 12 5 13
REMARK SMILES IDX 1 14 9 15 10 16 14 18 15 19 16 22 17 23 18 24 22 25 19 26
REMARK SMILES IDX 21 27 20 28 23 29 25 30 24 31 26 32 27 33 28 34 29 35
REMARK H PARENT 12 6 10 17 15 20 15 21
ROOT
ATOM     1   N1  UNL     1      -1.252  -0.285  -1.952  1.00  0.00    -0.202 N   
ATOM     2   C10 UNL     1      -1.733  -0.005  -0.700  1.00  0.00     0.046 A   
ATOM     3   C11 UNL     1      -0.818   0.877  -0.174  1.00  0.00     0.127 A   
ATOM     4   N3  UNL     1       0.187   1.079  -1.086  1.00  0.00    -0.132 NA  
ATOM     5   N4  UNL     1      -0.090   0.371  -2.168  1.00  0.00    -0.075 NA  
ATOM     6   H12 UNL     1      -2.651  -0.439  -0.327  1.00  0.00     0.083 HD  
ENDROOT
BRANCH   1   7
ATOM     7   C8  UNL     1      -1.811  -1.162  -2.981  1.00  0.00     0.155 C   
BRANCH   7   8
ATOM     8   C7  UNL     1      -2.044  -2.570  -2.425  1.00  0.00    -0.020 A   
ATOM     9   C2  UNL     1      -0.987  -3.513  -2.345  1.00  0.00    -0.046 A   
ATOM     10  C3  UNL     1      -1.234  -4.793  -1.816  1.00  0.00     0.004 A   
ATOM     11  C4  UNL     1      -2.500  -5.149  -1.360  1.00  0.00     0.000 A   
ATOM     12  C6  UNL     1      -3.314  -2.957  -1.950  1.00  0.00     0.006 A   
ATOM     13  C5  UNL     1      -3.540  -4.231  -1.427  1.00  0.00     0.000 A   
ATOM     14  C1  UNL     1       0.408  -3.212  -2.832  1.00  0.00     0.045 C   
ENDBRANCH   7   8
BRANCH   7  15
ATOM     15  C9  UNL     1      -2.991  -0.482  -3.710  1.00  0.00     0.185 C   
BRANCH  15  16
ATOM     16  O1  UNL     1      -4.028  -0.046  -2.831  1.00  0.00    -0.394 OA  
ATOM     17  H11 UNL     1      -4.717   0.365  -3.387  1.00  0.00     0.210 HD  
ENDBRANCH  15  16
ENDBRANCH   7  15
ENDBRANCH   1   7
BRANCH   3  18
ATOM     18  C12 UNL     1      -0.734   1.518   1.177  1.00  0.00     0.120 C   
BRANCH  18  19
ATOM     19  N2  UNL     1       0.718   1.551   1.597  1.00  0.00     0.250 N   
ATOM     20  H14 UNL     1       0.901   2.233   2.337  1.00  0.00     0.199 HD  
ATOM     21  H15 UNL     1       1.251   1.870   0.774  1.00  0.00     0.199 HD  
BRANCH  19  22
ATOM     22  C13 UNL     1       1.290   0.236   2.002  1.00  0.00     0.164 C   
BRANCH  22  23
ATOM     23  C14 UNL     1       2.757   0.371   2.298  1.00  0.00    -0.002 A   
ATOM     24  C15 UNL     1       3.205   0.607   3.619  1.00  0.00     0.012 A   
ATOM     25  C19 UNL     1       3.689   0.322   1.245  1.00  0.00     0.045 A   
ATOM     26  C16 UNL     1       4.567   0.774   3.893  1.00  0.00     0.037 A   
ATOM     27  C18 UNL     1       5.024   0.491   1.551  1.00  0.00     0.109 A   
ATOM     28  C17 UNL     1       5.450   0.709   2.838  1.00  0.00     0.108 A   
ATOM     29  O2  UNL     1       6.048   0.472   0.659  1.00  0.00    -0.316 OA  
ATOM     30  O3  UNL     1       6.799   0.851   2.917  1.00  0.00    -0.316 OA  
ATOM     31  C20 UNL     1       7.179   0.670   1.536  1.00  0.00     0.337 C   
ENDBRANCH  22  23
ENDBRANCH  19  22
ENDBRANCH  18  19
BRANCH  18  32
ATOM     32  C21 UNL     1      -1.359   2.954   1.250  1.00  0.00     0.010 C   
ATOM     33  C22 UNL     1      -1.367   3.464   2.711  1.00  0.00     0.017 C   
ATOM     34  C23 UNL     1      -2.833   2.919   0.781  1.00  0.00     0.017 C   
ATOM     35  C24 UNL     1      -0.600   3.980   0.385  1.00  0.00     0.017 C   
ENDBRANCH  18  32
ENDBRANCH   3  18
TORSDOF 9
