REMARK SMILES Fc1cc(F)c(Cn2cc([C@@H]([NH2+]Cc3ccc4c(c3)OCO4)C3CCCC3)nn2)cc1F
REMARK SMILES IDX 8 1 9 2 10 3 28 4 29 5 7 7 6 8 2 9 3 10 31 11 4 12 30 13
REMARK SMILES IDX 1 14 32 15 5 16 11 17 12 18 13 21 14 22 15 23 19 24 16 25
REMARK SMILES IDX 18 26 17 27 20 28 22 29 21 30 23 31 24 32 27 33 25 34 26 35
REMARK H PARENT 9 6 12 19 12 20
ROOT
ATOM     1   N1  UNL     1      -1.579  -2.618  -0.919  1.00  0.00    -0.208 N   
ATOM     2   C6  UNL     1      -0.585  -2.009  -1.635  1.00  0.00     0.046 A   
ATOM     3   C7  UNL     1      -0.201  -0.952  -0.839  1.00  0.00     0.127 A   
ATOM     4   N3  UNL     1      -0.981  -0.935   0.290  1.00  0.00    -0.132 NA  
ATOM     5   N4  UNL     1      -1.831  -1.946   0.220  1.00  0.00    -0.076 NA  
ATOM     6   H4  UNL     1      -0.242  -2.389  -2.588  1.00  0.00     0.083 HD  
ENDROOT
BRANCH   1   7
ATOM     7   C5  UNL     1      -2.334  -3.812  -1.258  1.00  0.00     0.172 C   
BRANCH   7   8
ATOM     8   C4  UNL     1      -1.658  -5.046  -0.726  1.00  0.00     0.010 A   
ATOM     9   C1  UNL     1      -0.342  -7.317   0.244  1.00  0.00     0.161 A   
ATOM     10  C2  UNL     1       0.026  -6.790  -0.987  1.00  0.00     0.082 A   
ATOM     11  C23 UNL     1      -1.351  -6.721   0.993  1.00  0.00     0.159 A   
ATOM     12  C3  UNL     1      -0.631  -5.658  -1.457  1.00  0.00     0.131 A   
ATOM     13  C22 UNL     1      -2.011  -5.588   0.519  1.00  0.00     0.051 A   
ATOM     14  F1  UNL     1       0.291  -8.401   0.709  1.00  0.00    -0.204 F   
ATOM     15  F3  UNL     1      -1.696  -7.227   2.184  1.00  0.00    -0.204 F   
ATOM     16  F2  UNL     1      -0.263  -5.135  -2.635  1.00  0.00    -0.207 F   
ENDBRANCH   7   8
ENDBRANCH   1   7
BRANCH   3  17
ATOM     17  C8  UNL     1       0.855   0.093  -1.021  1.00  0.00     0.117 C   
BRANCH  17  18
ATOM     18  N2  UNL     1       0.543   1.295  -0.171  1.00  0.00     0.249 N   
ATOM     19  H6  UNL     1       1.372   1.860   0.033  1.00  0.00     0.199 HD  
ATOM     20  H7  UNL     1       0.214   0.933   0.738  1.00  0.00     0.199 HD  
BRANCH  18  21
ATOM     21  C9  UNL     1      -0.531   2.184  -0.696  1.00  0.00     0.164 C   
BRANCH  21  22
ATOM     22  C10 UNL     1      -0.825   3.284   0.285  1.00  0.00    -0.002 A   
ATOM     23  C11 UNL     1      -0.186   4.541   0.168  1.00  0.00     0.012 A   
ATOM     24  C15 UNL     1      -1.700   3.047   1.360  1.00  0.00     0.045 A   
ATOM     25  C12 UNL     1      -0.423   5.556   1.102  1.00  0.00     0.037 A   
ATOM     26  C14 UNL     1      -1.909   4.068   2.264  1.00  0.00     0.109 A   
ATOM     27  C13 UNL     1      -1.289   5.287   2.139  1.00  0.00     0.108 A   
ATOM     28  O1  UNL     1      -2.718   4.006   3.353  1.00  0.00    -0.316 OA  
ATOM     29  O2  UNL     1      -1.632   6.147   3.132  1.00  0.00    -0.316 OA  
ATOM     30  C16 UNL     1      -2.557   5.338   3.891  1.00  0.00     0.337 C   
ENDBRANCH  21  22
ENDBRANCH  18  21
ENDBRANCH  17  18
BRANCH  17  31
ATOM     31  C17 UNL     1       2.255  -0.460  -0.691  1.00  0.00     0.043 C   
ATOM     32  C18 UNL     1       3.418   0.458  -1.083  1.00  0.00     0.010 C   
ATOM     33  C21 UNL     1       2.543  -0.742   0.785  1.00  0.00     0.010 C   
ATOM     34  C19 UNL     1       4.616  -0.065  -0.290  1.00  0.00     0.001 C   
ATOM     35  C20 UNL     1       4.050  -0.968   0.806  1.00  0.00     0.001 C   
ENDBRANCH  17  31
ENDBRANCH   3  17
TORSDOF 7
