REMARK SMILES COc1ccc([C@@H](CO)n2cc([C@@H]([NH2+]Cc3ccc4c(c3)OCO4)C(C)(C)C)nn2)cc1
REMARK SMILES IDX 10 1 11 2 12 3 29 4 30 5 7 7 6 8 3 9 4 10 32 11 5 12 31 13
REMARK SMILES IDX 2 14 1 15 8 16 9 17 13 19 14 20 15 23 16 24 17 25 21 26
REMARK SMILES IDX 18 27 20 28 19 29 22 30 24 31 23 32 25 33 26 34 27 35 28 36
REMARK H PARENT 11 6 9 18 14 21 14 22
ROOT
ATOM     1   N1  UNL     1       2.377  -1.914   1.113  1.00  0.00    -0.202 N   
ATOM     2   C8  UNL     1       1.914  -0.733   0.597  1.00  0.00     0.046 A   
ATOM     3   C9  UNL     1       1.571   0.011   1.701  1.00  0.00     0.127 A   
ATOM     4   N3  UNL     1       1.854  -0.709   2.833  1.00  0.00    -0.132 NA  
ATOM     5   N4  UNL     1       2.340  -1.884   2.463  1.00  0.00    -0.075 NA  
ATOM     6   H10 UNL     1       1.831  -0.563  -0.469  1.00  0.00     0.083 HD  
ENDROOT
BRANCH   1   7
ATOM     7   C6  UNL     1       2.698  -3.154   0.407  1.00  0.00     0.155 C   
BRANCH   7   8
ATOM     8   C5  UNL     1       1.448  -3.669  -0.302  1.00  0.00    -0.023 A   
ATOM     9   C2  UNL     1      -0.964  -4.557  -1.485  1.00  0.00     0.075 A   
ATOM     10  C3  UNL     1      -0.046  -3.802  -2.215  1.00  0.00     0.034 A   
ATOM     11  C24 UNL     1      -0.678  -4.873  -0.160  1.00  0.00     0.034 A   
ATOM     12  C4  UNL     1       1.148  -3.363  -1.636  1.00  0.00     0.008 A   
ATOM     13  C23 UNL     1       0.515  -4.431   0.426  1.00  0.00     0.008 A   
BRANCH   9  14
ATOM     14  O1  UNL     1      -2.093  -4.904  -2.170  1.00  0.00    -0.349 OA  
ATOM     15  C1  UNL     1      -2.995  -5.792  -1.522  1.00  0.00     0.203 C   
ENDBRANCH   9  14
ENDBRANCH   7   8
BRANCH   7  16
ATOM     16  C7  UNL     1       3.988  -3.032  -0.430  1.00  0.00     0.185 C   
BRANCH  16  17
ATOM     17  O2  UNL     1       3.947  -1.978  -1.392  1.00  0.00    -0.394 OA  
ATOM     18  H9  UNL     1       4.784  -2.018  -1.892  1.00  0.00     0.210 HD  
ENDBRANCH  16  17
ENDBRANCH   7  16
ENDBRANCH   1   7
BRANCH   3  19
ATOM     19  C10 UNL     1       0.863   1.325   1.795  1.00  0.00     0.120 C   
BRANCH  19  20
ATOM     20  N2  UNL     1      -0.229   1.243   2.848  1.00  0.00     0.250 N   
ATOM     21  H12 UNL     1      -0.684   2.150   2.962  1.00  0.00     0.199 HD  
ATOM     22  H13 UNL     1       0.235   1.011   3.735  1.00  0.00     0.199 HD  
BRANCH  20  23
ATOM     23  C11 UNL     1      -1.288   0.204   2.638  1.00  0.00     0.164 C   
BRANCH  23  24
ATOM     24  C12 UNL     1      -2.024   0.337   1.335  1.00  0.00    -0.002 A   
ATOM     25  C13 UNL     1      -1.865  -0.647   0.328  1.00  0.00     0.012 A   
ATOM     26  C17 UNL     1      -2.858   1.442   1.095  1.00  0.00     0.045 A   
ATOM     27  C14 UNL     1      -2.518  -0.531  -0.904  1.00  0.00     0.037 A   
ATOM     28  C16 UNL     1      -3.486   1.526  -0.131  1.00  0.00     0.109 A   
ATOM     29  C15 UNL     1      -3.321   0.569  -1.103  1.00  0.00     0.108 A   
ATOM     30  O3  UNL     1      -4.317   2.527  -0.523  1.00  0.00    -0.316 OA  
ATOM     31  O4  UNL     1      -4.027   0.848  -2.229  1.00  0.00    -0.316 OA  
ATOM     32  C18 UNL     1      -4.681   2.077  -1.849  1.00  0.00     0.337 C   
ENDBRANCH  23  24
ENDBRANCH  20  23
ENDBRANCH  19  20
BRANCH  19  33
ATOM     33  C19 UNL     1       1.807   2.547   2.076  1.00  0.00     0.010 C   
ATOM     34  C20 UNL     1       1.006   3.869   2.022  1.00  0.00     0.017 C   
ATOM     35  C21 UNL     1       2.894   2.633   0.980  1.00  0.00     0.017 C   
ATOM     36  C22 UNL     1       2.508   2.467   3.446  1.00  0.00     0.017 C   
ENDBRANCH  19  33
ENDBRANCH   3  19
TORSDOF 10
