REMARK SMILES COc1ccc([C@H](CO)n2cc([C@@H]([NH2+]Cc3ccc4c(c3)OCO4)C(C)(C)C)nn2)cc1
REMARK SMILES IDX 10 1 11 2 12 3 29 4 30 5 7 7 6 8 3 9 4 10 32 11 5 12 31 13
REMARK SMILES IDX 2 14 1 15 8 16 9 17 13 19 14 20 15 23 16 24 17 25 21 26
REMARK SMILES IDX 18 27 20 28 19 29 22 30 24 31 23 32 25 33 26 34 27 35 28 36
REMARK H PARENT 11 6 9 18 14 21 14 22
ROOT
ATOM     1   N1  UNL     1      -0.308  -2.297  -0.769  1.00  0.00    -0.202 N   
ATOM     2   C8  UNL     1       0.129  -1.017  -0.987  1.00  0.00     0.046 A   
ATOM     3   C9  UNL     1       0.712  -0.652   0.204  1.00  0.00     0.127 A   
ATOM     4   N3  UNL     1       0.569  -1.674   1.107  1.00  0.00    -0.132 NA  
ATOM     5   N4  UNL     1      -0.060  -2.671   0.505  1.00  0.00    -0.075 NA  
ATOM     6   H10 UNL     1      -0.012  -0.514  -1.934  1.00  0.00     0.083 HD  
ENDROOT
BRANCH   1   7
ATOM     7   C6  UNL     1      -0.991  -3.213  -1.686  1.00  0.00     0.155 C   
BRANCH   7   8
ATOM     8   C5  UNL     1      -0.329  -3.205  -3.060  1.00  0.00    -0.023 A   
ATOM     9   C2  UNL     1       1.014  -3.205  -5.553  1.00  0.00     0.075 A   
ATOM     10  C3  UNL     1      -0.147  -2.452  -5.366  1.00  0.00     0.034 A   
ATOM     11  C24 UNL     1       1.506  -3.962  -4.494  1.00  0.00     0.034 A   
ATOM     12  C4  UNL     1      -0.815  -2.450  -4.137  1.00  0.00     0.008 A   
ATOM     13  C23 UNL     1       0.844  -3.959  -3.259  1.00  0.00     0.008 A   
BRANCH   9  14
ATOM     14  O1  UNL     1       1.565  -3.108  -6.800  1.00  0.00    -0.349 OA  
ATOM     15  C1  UNL     1       2.697  -3.926  -7.073  1.00  0.00     0.203 C   
ENDBRANCH   9  14
ENDBRANCH   7   8
BRANCH   7  16
ATOM     16  C7  UNL     1      -2.518  -2.998  -1.645  1.00  0.00     0.185 C   
BRANCH  16  17
ATOM     17  O2  UNL     1      -2.900  -1.646  -1.910  1.00  0.00    -0.394 OA  
ATOM     18  H9  UNL     1      -3.875  -1.637  -1.965  1.00  0.00     0.210 HD  
ENDBRANCH  16  17
ENDBRANCH   7  16
ENDBRANCH   1   7
BRANCH   3  19
ATOM     19  C10 UNL     1       1.342   0.638   0.630  1.00  0.00     0.120 C   
BRANCH  19  20
ATOM     20  N2  UNL     1       0.909   0.944   2.044  1.00  0.00     0.250 N   
ATOM     21  H12 UNL     1       1.046   0.081   2.590  1.00  0.00     0.199 HD  
ATOM     22  H13 UNL     1       1.495   1.659   2.482  1.00  0.00     0.199 HD  
BRANCH  20  23
ATOM     23  C11 UNL     1      -0.519   1.339   2.200  1.00  0.00     0.164 C   
BRANCH  23  24
ATOM     24  C12 UNL     1      -0.823   1.633   3.642  1.00  0.00    -0.002 A   
ATOM     25  C13 UNL     1      -1.215   0.590   4.514  1.00  0.00     0.012 A   
ATOM     26  C17 UNL     1      -0.666   2.936   4.145  1.00  0.00     0.045 A   
ATOM     27  C14 UNL     1      -1.455   0.841   5.870  1.00  0.00     0.037 A   
ATOM     28  C16 UNL     1      -0.910   3.148   5.486  1.00  0.00     0.109 A   
ATOM     29  C15 UNL     1      -1.290   2.130   6.325  1.00  0.00     0.108 A   
ATOM     30  O3  UNL     1      -0.811   4.343   6.127  1.00  0.00    -0.316 OA  
ATOM     31  O4  UNL     1      -1.483   2.556   7.601  1.00  0.00    -0.316 OA  
ATOM     32  C18 UNL     1      -1.171   3.960   7.474  1.00  0.00     0.337 C   
ENDBRANCH  23  24
ENDBRANCH  20  23
ENDBRANCH  19  20
BRANCH  19  33
ATOM     33  C19 UNL     1       2.906   0.655   0.521  1.00  0.00     0.010 C   
ATOM     34  C20 UNL     1       3.449   2.072   0.816  1.00  0.00     0.017 C   
ATOM     35  C21 UNL     1       3.346   0.298  -0.918  1.00  0.00     0.017 C   
ATOM     36  C22 UNL     1       3.584  -0.332   1.492  1.00  0.00     0.017 C   
ENDBRANCH  19  33
ENDBRANCH   3  19
TORSDOF 10
