REMARK SMILES Cc1cc(C)n(CCn2cc([C@@H]([NH2+]Cc3ccc4c(c3)OCO4)C3CCCCC3)nn2)n1
REMARK SMILES IDX 9 1 10 2 11 3 30 4 31 5 8 7 7 8 6 9 2 10 3 11 32 12 4 13
REMARK SMILES IDX 1 14 5 15 12 16 13 17 14 20 15 21 16 22 20 23 17 24 19 25
REMARK SMILES IDX 18 26 21 27 23 28 22 29 24 30 25 31 29 32 26 33 28 34 27 35
REMARK H PARENT 10 6 13 18 13 19
ROOT
ATOM     1   N2  UNL     1       0.658   2.628  -1.034  1.00  0.00    -0.210 N   
ATOM     2   C8  UNL     1       0.856   1.285  -1.173  1.00  0.00     0.045 A   
ATOM     3   C9  UNL     1       1.167   0.864   0.099  1.00  0.00     0.127 A   
ATOM     4   N4  UNL     1       1.228   1.954   0.931  1.00  0.00    -0.132 NA  
ATOM     5   N5  UNL     1       0.923   3.030   0.222  1.00  0.00    -0.076 NA  
ATOM     6   H12 UNL     1       0.693   0.771  -2.111  1.00  0.00     0.083 HD  
ENDROOT
BRANCH   1   7
ATOM     7   C7  UNL     1       0.153   3.563  -2.017  1.00  0.00     0.155 C   
BRANCH   7   8
ATOM     8   C6  UNL     1      -1.320   3.881  -1.795  1.00  0.00     0.153 C   
BRANCH   8   9
ATOM     9   N1  UNL     1      -2.166   2.701  -1.856  1.00  0.00    -0.228 N   
ATOM     10  C2  UNL     1      -2.973   0.936  -2.712  1.00  0.00     0.057 A   
ATOM     11  C3  UNL     1      -3.636   1.124  -1.481  1.00  0.00     0.045 A   
ATOM     12  N6  UNL     1      -2.047   1.879  -2.918  1.00  0.00    -0.187 NA  
ATOM     13  C4  UNL     1      -3.082   2.262  -0.934  1.00  0.00     0.027 A   
ATOM     14  C1  UNL     1      -3.186  -0.142  -3.708  1.00  0.00     0.068 C   
ATOM     15  C5  UNL     1      -3.371   2.948   0.349  1.00  0.00     0.063 C   
ENDBRANCH   8   9
ENDBRANCH   7   8
ENDBRANCH   1   7
BRANCH   3  16
ATOM     16  C10 UNL     1       1.438  -0.500   0.642  1.00  0.00     0.117 C   
BRANCH  16  17
ATOM     17  N3  UNL     1       2.411  -0.414   1.801  1.00  0.00     0.249 N   
ATOM     18  H14 UNL     1       2.400  -1.284   2.339  1.00  0.00     0.199 HD  
ATOM     19  H15 UNL     1       2.059   0.335   2.414  1.00  0.00     0.199 HD  
BRANCH  17  20
ATOM     20  C11 UNL     1       3.821  -0.065   1.454  1.00  0.00     0.164 C   
BRANCH  20  21
ATOM     21  C12 UNL     1       4.522  -1.155   0.691  1.00  0.00    -0.002 A   
ATOM     22  C13 UNL     1       4.924  -2.345   1.344  1.00  0.00     0.012 A   
ATOM     23  C17 UNL     1       4.755  -1.010  -0.688  1.00  0.00     0.045 A   
ATOM     24  C14 UNL     1       5.544  -3.379   0.635  1.00  0.00     0.037 A   
ATOM     25  C16 UNL     1       5.366  -2.050  -1.357  1.00  0.00     0.109 A   
ATOM     26  C15 UNL     1       5.748  -3.202  -0.715  1.00  0.00     0.108 A   
ATOM     27  O1  UNL     1       5.652  -2.075  -2.684  1.00  0.00    -0.316 OA  
ATOM     28  O2  UNL     1       6.327  -4.096  -1.557  1.00  0.00    -0.316 OA  
ATOM     29  C18 UNL     1       6.285  -3.370  -2.804  1.00  0.00     0.337 C   
ENDBRANCH  20  21
ENDBRANCH  17  20
ENDBRANCH  16  17
BRANCH  16  30
ATOM     30  C19 UNL     1       0.167  -1.250   1.130  1.00  0.00     0.043 C   
ATOM     31  C20 UNL     1      -0.773  -1.595  -0.042  1.00  0.00     0.010 C   
ATOM     32  C24 UNL     1      -0.615  -0.518   2.239  1.00  0.00     0.010 C   
ATOM     33  C21 UNL     1      -1.989  -2.395   0.420  1.00  0.00     0.001 C   
ATOM     34  C23 UNL     1      -1.833  -1.321   2.696  1.00  0.00     0.001 C   
ATOM     35  C22 UNL     1      -2.748  -1.672   1.528  1.00  0.00     0.000 C   
ENDBRANCH  16  30
ENDBRANCH   3  16
TORSDOF 8
