REMARK SMILES CC(C)[C@H]([NH2+]Cc1ccc2c(c1)OCO2)c1cn(Cc2cccc(CN)c2)nn1
REMARK SMILES IDX 16 1 17 2 18 3 28 4 29 5 4 7 2 8 1 9 3 10 5 11 6 14 7 15
REMARK SMILES IDX 8 16 12 17 9 18 11 19 10 20 13 21 15 22 14 23 19 24 20 25
REMARK SMILES IDX 21 26 27 27 22 28 24 29 23 30 25 31 26 32
REMARK H PARENT 17 6 5 12 5 13 26 33 26 34
ROOT
ATOM     1   C13 UNL     1       0.504   1.986  -0.591  1.00  0.00     0.127 A   
ATOM     2   C14 UNL     1       1.575   1.125  -0.677  1.00  0.00     0.046 A   
ATOM     3   N2  UNL     1       2.314   1.417   0.440  1.00  0.00    -0.208 N   
ATOM     4   N4  UNL     1       1.796   2.475   1.094  1.00  0.00    -0.076 NA  
ATOM     5   N5  UNL     1       0.679   2.825   0.477  1.00  0.00    -0.132 NA  
ATOM     6   H18 UNL     1       1.807   0.287  -1.320  1.00  0.00     0.083 HD  
ENDROOT
BRANCH   1   7
ATOM     7   C4  UNL     1      -0.792   2.001  -1.334  1.00  0.00     0.117 C   
BRANCH   7   8
ATOM     8   C2  UNL     1      -0.997   3.310  -2.146  1.00  0.00     0.037 C   
ATOM     9   C1  UNL     1      -2.347   3.349  -2.875  1.00  0.00     0.014 C   
ATOM     10  C3  UNL     1       0.119   3.495  -3.185  1.00  0.00     0.014 C   
ENDBRANCH   7   8
BRANCH   7  11
ATOM     11  N1  UNL     1      -1.921   1.848  -0.331  1.00  0.00     0.249 N   
ATOM     12  H9  UNL     1      -1.809   2.614   0.347  1.00  0.00     0.199 HD  
ATOM     13  H10 UNL     1      -2.828   1.964  -0.783  1.00  0.00     0.199 HD  
BRANCH  11  14
ATOM     14  C5  UNL     1      -1.949   0.569   0.455  1.00  0.00     0.164 C   
BRANCH  14  15
ATOM     15  C6  UNL     1      -2.197  -0.639  -0.407  1.00  0.00    -0.002 A   
ATOM     16  C7  UNL     1      -3.461  -0.848  -1.009  1.00  0.00     0.012 A   
ATOM     17  C11 UNL     1      -1.162  -1.563  -0.634  1.00  0.00     0.045 A   
ATOM     18  C8  UNL     1      -3.689  -1.955  -1.834  1.00  0.00     0.037 A   
ATOM     19  C10 UNL     1      -1.419  -2.643  -1.453  1.00  0.00     0.109 A   
ATOM     20  C9  UNL     1      -2.647  -2.832  -2.037  1.00  0.00     0.108 A   
ATOM     21  O1  UNL     1      -0.533  -3.619  -1.778  1.00  0.00    -0.316 OA  
ATOM     22  O2  UNL     1      -2.689  -3.953  -2.803  1.00  0.00    -0.316 OA  
ATOM     23  C12 UNL     1      -1.351  -4.463  -2.620  1.00  0.00     0.337 C   
ENDBRANCH  14  15
ENDBRANCH  11  14
ENDBRANCH   7  11
ENDBRANCH   1   7
BRANCH   3  24
ATOM     24  C15 UNL     1       3.324   0.578   1.070  1.00  0.00     0.169 C   
BRANCH  24  25
ATOM     25  C16 UNL     1       2.695  -0.723   1.521  1.00  0.00    -0.028 A   
ATOM     26  C17 UNL     1       3.114  -1.946   0.983  1.00  0.00     0.005 A   
ATOM     27  C22 UNL     1       1.637  -0.716   2.449  1.00  0.00     0.010 A   
ATOM     28  C18 UNL     1       2.469  -3.130   1.342  1.00  0.00     0.001 A   
ATOM     29  C20 UNL     1       0.974  -1.899   2.804  1.00  0.00    -0.034 A   
ATOM     30  C19 UNL     1       1.399  -3.106   2.237  1.00  0.00     0.005 A   
BRANCH  29  31
ATOM     31  C21 UNL     1      -0.204  -1.857   3.741  1.00  0.00     0.113 C   
BRANCH  31  32
ATOM     32  N3  UNL     1      -1.448  -1.603   3.005  1.00  0.00    -0.327 NA  
ATOM     33  H26 UNL     1      -2.210  -1.650   3.685  1.00  0.00     0.119 HD  
ATOM     34  H27 UNL     1      -1.601  -2.409   2.393  1.00  0.00     0.119 HD  
ENDBRANCH  31  32
ENDBRANCH  29  31
ENDBRANCH  24  25
ENDBRANCH   3  24
TORSDOF 9
