REMARK SMILES O=C(O)[C@H](CS)n1cc([C@@H](NCc2ccc3c(c2)OCO3)C2CCCCC2)nn1
REMARK SMILES IDX 7 1 8 2 9 3 28 4 29 5 4 7 2 8 1 9 3 10 5 12 6 13 10 15 11 16
REMARK SMILES IDX 12 18 13 19 14 20 18 21 15 22 17 23 16 24 19 25 21 26 20 27
REMARK SMILES IDX 22 28 23 29 27 30 24 31 26 32 25 33
REMARK H PARENT 8 6 3 11 6 14 11 17
ROOT
ATOM     1   N1  UNL     1       3.186   0.032  -1.073  1.00  0.00    -0.198 N   
ATOM     2   C4  UNL     1       2.115  -0.783  -1.302  1.00  0.00     0.042 A   
ATOM     3   C5  UNL     1       1.049  -0.092  -0.766  1.00  0.00     0.098 A   
ATOM     4   N3  UNL     1       1.505   1.093  -0.243  1.00  0.00    -0.136 NA  
ATOM     5   N4  UNL     1       2.813   1.160  -0.442  1.00  0.00    -0.075 NA  
ATOM     6   H6  UNL     1       2.194  -1.737  -1.802  1.00  0.00     0.083 HD  
ENDROOT
BRANCH   1   7
ATOM     7   C2  UNL     1       4.562  -0.173  -1.474  1.00  0.00     0.205 C   
BRANCH   7   8
ATOM     8   C1  UNL     1       5.437  -0.340  -0.254  1.00  0.00     0.282 C   
ATOM     9   O1  UNL     1       6.449   0.288   0.014  1.00  0.00    -0.265 OA  
BRANCH   8  10
ATOM     10  O2  UNL     1       5.048  -1.353   0.551  1.00  0.00    -0.330 OA  
ATOM     11  H1  UNL     1       5.683  -1.332   1.301  1.00  0.00     0.221 HD  
ENDBRANCH   8  10
ENDBRANCH   7   8
BRANCH   7  12
ATOM     12  C3  UNL     1       5.104   0.955  -2.359  1.00  0.00     0.101 C   
BRANCH  12  13
ATOM     13  S1  UNL     1       4.242   1.076  -3.967  1.00  0.00    -0.177 SA  
ATOM     14  H5  UNL     1       3.107   1.618  -3.491  1.00  0.00     0.102 HD  
ENDBRANCH  12  13
ENDBRANCH   7  12
ENDBRANCH   1   7
BRANCH   3  15
ATOM     15  C6  UNL     1      -0.403  -0.475  -0.697  1.00  0.00     0.110 C   
BRANCH  15  16
ATOM     16  N2  UNL     1      -0.832  -0.473   0.713  1.00  0.00    -0.304 NA  
ATOM     17  H8  UNL     1      -0.539   0.409   1.137  1.00  0.00     0.123 HD  
BRANCH  16  18
ATOM     18  C7  UNL     1      -0.275  -1.579   1.484  1.00  0.00     0.117 C   
BRANCH  18  19
ATOM     19  C8  UNL     1      -0.785  -1.540   2.906  1.00  0.00    -0.031 A   
ATOM     20  C9  UNL     1      -2.124  -1.898   3.189  1.00  0.00     0.008 A   
ATOM     21  C13 UNL     1       0.057  -1.125   3.951  1.00  0.00     0.041 A   
ATOM     22  C10 UNL     1      -2.621  -1.860   4.495  1.00  0.00     0.037 A   
ATOM     23  C12 UNL     1      -0.461  -1.100   5.230  1.00  0.00     0.109 A   
ATOM     24  C11 UNL     1      -1.762  -1.458   5.494  1.00  0.00     0.108 A   
ATOM     25  O3  UNL     1       0.215  -0.733   6.352  1.00  0.00    -0.316 OA  
ATOM     26  O4  UNL     1      -2.069  -1.360   6.815  1.00  0.00    -0.316 OA  
ATOM     27  C14 UNL     1      -0.813  -0.895   7.351  1.00  0.00     0.337 C   
ENDBRANCH  18  19
ENDBRANCH  16  18
ENDBRANCH  15  16
BRANCH  15  28
ATOM     28  C15 UNL     1      -1.300   0.506  -1.518  1.00  0.00     0.012 C   
ATOM     29  C16 UNL     1      -0.921   0.556  -3.015  1.00  0.00     0.005 C   
ATOM     30  C20 UNL     1      -2.807   0.181  -1.405  1.00  0.00     0.005 C   
ATOM     31  C17 UNL     1      -1.291  -0.723  -3.765  1.00  0.00     0.000 C   
ATOM     32  C19 UNL     1      -3.193  -1.103  -2.138  1.00  0.00     0.000 C   
ATOM     33  C18 UNL     1      -2.769  -1.063  -3.603  1.00  0.00     0.000 C   
ENDBRANCH  15  28
ENDBRANCH   3  15
TORSDOF 10
