REMARK SMILES COc1cccc(CCn2cc([C@H](CC(C)C)[NH2+]Cc3ccc4c(c3)OCO4)nn2)n1
REMARK SMILES IDX 10 1 11 2 12 3 29 4 30 5 9 7 8 8 7 9 3 10 4 11 31 12 5 13
REMARK SMILES IDX 6 14 2 15 1 16 13 17 14 18 15 19 16 20 17 21 18 22 19 25
REMARK SMILES IDX 20 26 21 27 25 28 22 29 24 30 23 31 26 32 28 33 27 34
REMARK H PARENT 11 6 18 23 18 24
ROOT
ATOM     1   N1  UNL     1       0.081   1.252   3.206  1.00  0.00    -0.212 N   
ATOM     2   C9  UNL     1      -0.458   1.215   1.953  1.00  0.00     0.045 A   
ATOM     3   C10 UNL     1      -1.192   0.052   1.941  1.00  0.00     0.127 A   
ATOM     4   N3  UNL     1      -1.092  -0.557   3.165  1.00  0.00    -0.132 NA  
ATOM     5   N4  UNL     1      -0.309   0.186   3.930  1.00  0.00    -0.076 NA  
ATOM     6   H11 UNL     1      -0.246   1.971   1.210  1.00  0.00     0.083 HD  
ENDROOT
BRANCH   1   7
ATOM     7   C8  UNL     1       0.975   2.243   3.770  1.00  0.00     0.140 C   
BRANCH   7   8
ATOM     8   C7  UNL     1       2.384   1.704   4.018  1.00  0.00     0.077 C   
BRANCH   8   9
ATOM     9   C6  UNL     1       3.120   1.287   2.766  1.00  0.00     0.045 A   
ATOM     10  C2  UNL     1       3.495   1.548   0.499  1.00  0.00     0.166 A   
ATOM     11  C3  UNL     1       4.519   0.619   0.498  1.00  0.00     0.055 A   
ATOM     12  N5  UNL     1       2.775   1.879   1.595  1.00  0.00    -0.229 NA  
ATOM     13  C4  UNL     1       4.860   0.018   1.704  1.00  0.00     0.006 A   
ATOM     14  C5  UNL     1       4.160   0.363   2.856  1.00  0.00     0.024 A   
BRANCH  10  15
ATOM     15  O1  UNL     1       3.168   2.100  -0.723  1.00  0.00    -0.333 OA  
ATOM     16  C1  UNL     1       2.447   3.321  -0.601  1.00  0.00     0.205 C   
ENDBRANCH  10  15
ENDBRANCH   8   9
ENDBRANCH   7   8
ENDBRANCH   1   7
BRANCH   3  17
ATOM     17  C11 UNL     1      -1.944  -0.617   0.843  1.00  0.00     0.114 C   
BRANCH  17  18
ATOM     18  C12 UNL     1      -3.469  -0.430   0.964  1.00  0.00     0.064 C   
BRANCH  18  19
ATOM     19  C13 UNL     1      -3.961   1.029   0.850  1.00  0.00    -0.012 C   
ATOM     20  C14 UNL     1      -3.595   1.667  -0.491  1.00  0.00     0.007 C   
ATOM     21  C15 UNL     1      -5.479   1.077   1.045  1.00  0.00     0.007 C   
ENDBRANCH  18  19
ENDBRANCH  17  18
BRANCH  17  22
ATOM     22  N2  UNL     1      -1.682  -2.111   0.872  1.00  0.00     0.249 N   
ATOM     23  H22 UNL     1      -2.318  -2.591   0.229  1.00  0.00     0.199 HD  
ATOM     24  H23 UNL     1      -1.909  -2.425   1.826  1.00  0.00     0.199 HD  
BRANCH  22  25
ATOM     25  C16 UNL     1      -0.279  -2.541   0.587  1.00  0.00     0.164 C   
BRANCH  25  26
ATOM     26  C17 UNL     1       0.164  -2.212  -0.811  1.00  0.00    -0.002 A   
ATOM     27  C18 UNL     1       1.062  -1.141  -1.039  1.00  0.00     0.012 A   
ATOM     28  C22 UNL     1      -0.335  -2.941  -1.904  1.00  0.00     0.045 A   
ATOM     29  C19 UNL     1       1.456  -0.796  -2.336  1.00  0.00     0.037 A   
ATOM     30  C21 UNL     1       0.074  -2.574  -3.170  1.00  0.00     0.109 A   
ATOM     31  C20 UNL     1       0.943  -1.532  -3.380  1.00  0.00     0.108 A   
ATOM     32  O2  UNL     1      -0.316  -3.168  -4.328  1.00  0.00    -0.316 OA  
ATOM     33  O3  UNL     1       1.211  -1.339  -4.698  1.00  0.00    -0.316 OA  
ATOM     34  C23 UNL     1       0.433  -2.398  -5.296  1.00  0.00     0.337 C   
ENDBRANCH  25  26
ENDBRANCH  22  25
ENDBRANCH  17  22
ENDBRANCH   3  17
TORSDOF 10
