REMARK SMILES CC(C)[C@H]([NH2+]Cc1ccc2c(c1)OCO2)c1cn(C(=O)c2cccc(N([O-])[O-])c2)nn1
REMARK SMILES IDX 16 1 17 2 18 3 30 4 31 5 4 6 2 7 1 8 3 9 5 10 6 13 7 14 8 15
REMARK SMILES IDX 12 16 9 17 11 18 10 19 13 20 15 21 14 22 19 23 20 24 21 25
REMARK SMILES IDX 22 26 29 27 23 28 25 29 24 30 26 31 27 32 28 33
REMARK H PARENT 5 11 5 12
ROOT
ATOM     1   C13 UNL     1      -1.774   0.431  -0.032  1.00  0.00     0.128 A   
ATOM     2   C14 UNL     1      -2.439   1.519   0.482  1.00  0.00     0.139 A   
ATOM     3   N2  UNL     1      -2.325   1.395   1.856  1.00  0.00    -0.143 N   
ATOM     4   N4  UNL     1      -1.601   0.284   2.140  1.00  0.00    -0.068 NA  
ATOM     5   N5  UNL     1      -1.264  -0.306   1.004  1.00  0.00    -0.131 NA  
ENDROOT
BRANCH   1   6
ATOM     6   C4  UNL     1      -1.523  -0.003  -1.444  1.00  0.00     0.117 C   
BRANCH   6   7
ATOM     7   C2  UNL     1      -2.678  -0.829  -2.070  1.00  0.00     0.037 C   
ATOM     8   C1  UNL     1      -3.945   0.014  -2.256  1.00  0.00     0.014 C   
ATOM     9   C3  UNL     1      -3.017  -2.112  -1.303  1.00  0.00     0.014 C   
ENDBRANCH   6   7
BRANCH   6  10
ATOM     10  N1  UNL     1      -0.262  -0.830  -1.517  1.00  0.00     0.249 N   
ATOM     11  H9  UNL     1      -0.242  -1.413  -2.361  1.00  0.00     0.199 HD  
ATOM     12  H10 UNL     1      -0.280  -1.483  -0.719  1.00  0.00     0.199 HD  
BRANCH  10  13
ATOM     13  C5  UNL     1       1.014  -0.066  -1.432  1.00  0.00     0.164 C   
BRANCH  13  14
ATOM     14  C6  UNL     1       2.185  -1.006  -1.421  1.00  0.00    -0.002 A   
ATOM     15  C7  UNL     1       2.840  -1.353  -2.627  1.00  0.00     0.012 A   
ATOM     16  C11 UNL     1       2.600  -1.594  -0.213  1.00  0.00     0.045 A   
ATOM     17  C8  UNL     1       3.899  -2.266  -2.631  1.00  0.00     0.037 A   
ATOM     18  C10 UNL     1       3.648  -2.490  -0.254  1.00  0.00     0.109 A   
ATOM     19  C9  UNL     1       4.279  -2.818  -1.428  1.00  0.00     0.108 A   
ATOM     20  O1  UNL     1       4.169  -3.146   0.816  1.00  0.00    -0.316 OA  
ATOM     21  O2  UNL     1       5.279  -3.719  -1.246  1.00  0.00    -0.316 OA  
ATOM     22  C12 UNL     1       5.225  -3.905   0.185  1.00  0.00     0.337 C   
ENDBRANCH  13  14
ENDBRANCH  10  13
ENDBRANCH   6  10
ENDBRANCH   1   6
BRANCH   3  23
ATOM     23  C15 UNL     1      -2.865   2.217   2.858  1.00  0.00     0.271 C   
ATOM     24  O3  UNL     1      -3.597   3.126   2.470  1.00  0.00    -0.269 OA  
BRANCH  23  25
ATOM     25  C16 UNL     1      -2.634   2.062   4.320  1.00  0.00     0.042 A   
ATOM     26  C17 UNL     1      -3.672   2.416   5.197  1.00  0.00     0.014 A   
ATOM     27  C21 UNL     1      -1.411   1.623   4.840  1.00  0.00     0.045 A   
ATOM     28  C18 UNL     1      -3.503   2.305   6.580  1.00  0.00     0.003 A   
ATOM     29  C20 UNL     1      -1.250   1.514   6.230  1.00  0.00     0.118 A   
ATOM     30  C19 UNL     1      -2.293   1.850   7.102  1.00  0.00     0.031 A   
BRANCH  29  31
ATOM     31  N3  UNL     1       0.033   1.048   6.773  1.00  0.00     0.092 N   
ATOM     32  O4  UNL     1       0.939   0.803   5.963  1.00  0.00    -0.138 OA  
ATOM     33  O5  UNL     1       0.131   0.925   8.001  1.00  0.00    -0.138 OA  
ENDBRANCH  29  31
ENDBRANCH  23  25
ENDBRANCH   3  23
TORSDOF 8
