REMARK SMILES CC(C)(C)[C@H]([NH2+]Cc1ccc2c(c1)OCO2)c1cn(Cc2ccc(O)cc2F)nn1
REMARK SMILES IDX 17 1 18 2 19 3 29 4 30 5 5 7 2 8 1 9 3 10 4 11 6 12 7 15
REMARK SMILES IDX 8 16 9 17 13 18 10 19 12 20 11 21 14 22 16 23 15 24 20 25
REMARK SMILES IDX 21 26 22 27 27 28 23 29 26 30 24 31 28 32 25 33
REMARK H PARENT 18 6 6 13 6 14 25 34
ROOT
ATOM     1   C14 UNL     1       0.562  -1.527  -0.445  1.00  0.00     0.127 A   
ATOM     2   C15 UNL     1      -0.041  -2.090  -1.547  1.00  0.00     0.046 A   
ATOM     3   N2  UNL     1      -1.015  -2.893  -1.018  1.00  0.00    -0.208 N   
ATOM     4   N3  UNL     1      -1.004  -2.836   0.328  1.00  0.00    -0.076 NA  
ATOM     5   N4  UNL     1      -0.048  -2.000   0.690  1.00  0.00    -0.132 NA  
ATOM     6   H20 UNL     1       0.098  -1.978  -2.614  1.00  0.00     0.083 HD  
ENDROOT
BRANCH   1   7
ATOM     7   C5  UNL     1       1.625  -0.477  -0.319  1.00  0.00     0.120 C   
BRANCH   7   8
ATOM     8   C2  UNL     1       3.073  -1.044  -0.121  1.00  0.00     0.010 C   
ATOM     9   C1  UNL     1       4.107   0.104  -0.166  1.00  0.00     0.017 C   
ATOM     10  C3  UNL     1       3.244  -1.798   1.212  1.00  0.00     0.017 C   
ATOM     11  C4  UNL     1       3.428  -2.009  -1.275  1.00  0.00     0.017 C   
ENDBRANCH   7   8
BRANCH   7  12
ATOM     12  N1  UNL     1       1.249   0.426   0.832  1.00  0.00     0.250 N   
ATOM     13  H11 UNL     1       0.915  -0.197   1.585  1.00  0.00     0.199 HD  
ATOM     14  H12 UNL     1       2.046   0.934   1.223  1.00  0.00     0.199 HD  
BRANCH  12  15
ATOM     15  C6  UNL     1       0.149   1.390   0.551  1.00  0.00     0.164 C   
BRANCH  15  16
ATOM     16  C7  UNL     1      -0.270   2.086   1.814  1.00  0.00    -0.002 A   
ATOM     17  C8  UNL     1      -1.223   1.483   2.671  1.00  0.00     0.012 A   
ATOM     18  C12 UNL     1       0.319   3.307   2.182  1.00  0.00     0.045 A   
ATOM     19  C9  UNL     1      -1.597   2.092   3.873  1.00  0.00     0.037 A   
ATOM     20  C11 UNL     1      -0.073   3.880   3.374  1.00  0.00     0.109 A   
ATOM     21  C10 UNL     1      -1.004   3.292   4.196  1.00  0.00     0.108 A   
ATOM     22  O1  UNL     1       0.395   5.053   3.876  1.00  0.00    -0.316 OA  
ATOM     23  O2  UNL     1      -1.243   4.023   5.316  1.00  0.00    -0.316 OA  
ATOM     24  C13 UNL     1      -0.376   5.157   5.095  1.00  0.00     0.337 C   
ENDBRANCH  15  16
ENDBRANCH  12  15
ENDBRANCH   7  12
ENDBRANCH   1   7
BRANCH   3  25
ATOM     25  C16 UNL     1      -2.002  -3.695  -1.721  1.00  0.00     0.172 C   
BRANCH  25  26
ATOM     26  C17 UNL     1      -3.324  -2.980  -1.791  1.00  0.00     0.007 A   
ATOM     27  C18 UNL     1      -4.392  -3.340  -0.955  1.00  0.00     0.011 A   
ATOM     28  C22 UNL     1      -3.501  -1.912  -2.679  1.00  0.00     0.130 A   
ATOM     29  C19 UNL     1      -5.604  -2.646  -1.017  1.00  0.00     0.034 A   
ATOM     30  C21 UNL     1      -4.700  -1.214  -2.746  1.00  0.00     0.072 A   
ATOM     31  C20 UNL     1      -5.745  -1.587  -1.911  1.00  0.00     0.074 A   
ATOM     32  F1  UNL     1      -2.487  -1.541  -3.474  1.00  0.00    -0.207 F   
BRANCH  31  33
ATOM     33  O3  UNL     1      -6.905  -0.879  -1.996  1.00  0.00    -0.361 OA  
ATOM     34  H25 UNL     1      -7.585  -1.300  -1.442  1.00  0.00     0.218 HD  
ENDBRANCH  31  33
ENDBRANCH  25  26
ENDBRANCH   3  25
TORSDOF 8
