REMARK SMILES Cc1ccc([C@@H](CO)n2cc([C@H](CC(C)C)[NH2+]Cc3ccc4c(c3)OCO4)nn2)cc1O
REMARK SMILES IDX 9 1 10 2 11 3 28 4 29 5 6 7 5 8 2 9 3 10 31 11 4 12 30 13
REMARK SMILES IDX 1 14 32 15 7 17 8 18 12 20 13 21 14 22 15 23 16 24 17 25
REMARK SMILES IDX 18 28 19 29 20 30 24 31 21 32 23 33 22 34 25 35 27 36 26 37
REMARK H PARENT 10 6 32 16 8 19 17 26 17 27
ROOT
ATOM     1   N1  UNL     1      -2.133   1.022  -1.054  1.00  0.00    -0.202 N   
ATOM     2   C8  UNL     1      -1.433   0.010  -0.449  1.00  0.00     0.046 A   
ATOM     3   C9  UNL     1      -1.742   0.141   0.886  1.00  0.00     0.127 A   
ATOM     4   N3  UNL     1      -2.636   1.166   1.045  1.00  0.00    -0.132 NA  
ATOM     5   N4  UNL     1      -2.858   1.704  -0.144  1.00  0.00    -0.075 NA  
ATOM     6   H10 UNL     1      -0.763  -0.641  -0.994  1.00  0.00     0.083 HD  
ENDROOT
BRANCH   1   7
ATOM     7   C6  UNL     1      -2.097   1.450  -2.455  1.00  0.00     0.155 C   
BRANCH   7   8
ATOM     8   C5  UNL     1      -0.643   1.660  -2.870  1.00  0.00    -0.021 A   
ATOM     9   C2  UNL     1       2.110   2.057  -3.444  1.00  0.00    -0.021 A   
ATOM     10  C3  UNL     1       1.374   3.031  -2.758  1.00  0.00     0.006 A   
ATOM     11  C24 UNL     1       1.444   0.903  -3.862  1.00  0.00     0.074 A   
ATOM     12  C4  UNL     1       0.019   2.835  -2.471  1.00  0.00     0.006 A   
ATOM     13  C23 UNL     1       0.092   0.700  -3.578  1.00  0.00     0.039 A   
ATOM     14  C1  UNL     1       3.567   2.291  -3.724  1.00  0.00     0.047 C   
BRANCH  11  15
ATOM     15  O4  UNL     1       2.063  -0.097  -4.556  1.00  0.00    -0.361 OA  
ATOM     16  H31 UNL     1       2.894   0.241  -4.925  1.00  0.00     0.218 HD  
ENDBRANCH  11  15
ENDBRANCH   7   8
BRANCH   7  17
ATOM     17  C7  UNL     1      -2.946   0.494  -3.312  1.00  0.00     0.185 C   
BRANCH  17  18
ATOM     18  O1  UNL     1      -3.106   1.003  -4.632  1.00  0.00    -0.394 OA  
ATOM     19  H9  UNL     1      -3.667   0.381  -5.129  1.00  0.00     0.210 HD  
ENDBRANCH  17  18
ENDBRANCH   7  17
ENDBRANCH   1   7
BRANCH   3  20
ATOM     20  C10 UNL     1      -1.201  -0.565   2.082  1.00  0.00     0.114 C   
BRANCH  20  21
ATOM     21  C11 UNL     1      -2.187  -1.603   2.652  1.00  0.00     0.064 C   
BRANCH  21  22
ATOM     22  C12 UNL     1      -2.525  -2.773   1.704  1.00  0.00    -0.012 C   
ATOM     23  C13 UNL     1      -3.582  -3.673   2.349  1.00  0.00     0.007 C   
ATOM     24  C14 UNL     1      -1.293  -3.605   1.344  1.00  0.00     0.007 C   
ENDBRANCH  21  22
ENDBRANCH  20  21
BRANCH  20  25
ATOM     25  N2  UNL     1      -0.918   0.428   3.193  1.00  0.00     0.249 N   
ATOM     26  H21 UNL     1      -0.654  -0.072   4.046  1.00  0.00     0.199 HD  
ATOM     27  H22 UNL     1      -1.806   0.914   3.379  1.00  0.00     0.199 HD  
BRANCH  25  28
ATOM     28  C15 UNL     1       0.104   1.480   2.904  1.00  0.00     0.164 C   
BRANCH  28  29
ATOM     29  C16 UNL     1       1.472   0.928   2.621  1.00  0.00    -0.002 A   
ATOM     30  C17 UNL     1       2.252   0.375   3.664  1.00  0.00     0.012 A   
ATOM     31  C21 UNL     1       1.979   0.938   1.308  1.00  0.00     0.045 A   
ATOM     32  C18 UNL     1       3.517  -0.164   3.406  1.00  0.00     0.037 A   
ATOM     33  C20 UNL     1       3.229   0.398   1.089  1.00  0.00     0.109 A   
ATOM     34  C19 UNL     1       3.975  -0.138   2.108  1.00  0.00     0.108 A   
ATOM     35  O2  UNL     1       3.862   0.328  -0.111  1.00  0.00    -0.316 OA  
ATOM     36  O3  UNL     1       5.172  -0.616   1.677  1.00  0.00    -0.316 OA  
ATOM     37  C22 UNL     1       5.105  -0.302   0.270  1.00  0.00     0.337 C   
ENDBRANCH  28  29
ENDBRANCH  25  28
ENDBRANCH  20  25
ENDBRANCH   3  20
TORSDOF 11
