REMARK SMILES Cc1ccc([C@H](CO)n2cc([C@H](CC(C)C)[NH2+]Cc3ccc4c(c3)OCO4)nn2)cc1O
REMARK SMILES IDX 9 1 10 2 11 3 28 4 29 5 6 7 5 8 2 9 3 10 31 11 4 12 30 13
REMARK SMILES IDX 1 14 32 15 7 17 8 18 12 20 13 21 14 22 15 23 16 24 17 25
REMARK SMILES IDX 18 28 19 29 20 30 24 31 21 32 23 33 22 34 25 35 27 36 26 37
REMARK H PARENT 10 6 32 16 8 19 17 26 17 27
ROOT
ATOM     1   N1  UNL     1       0.271   1.405   1.610  1.00  0.00    -0.202 N   
ATOM     2   C8  UNL     1       0.132   1.151   0.272  1.00  0.00     0.046 A   
ATOM     3   C9  UNL     1       0.830  -0.015   0.077  1.00  0.00     0.127 A   
ATOM     4   N3  UNL     1       1.342  -0.441   1.276  1.00  0.00    -0.132 NA  
ATOM     5   N4  UNL     1       0.999   0.436   2.204  1.00  0.00    -0.075 NA  
ATOM     6   H10 UNL     1      -0.401   1.822  -0.386  1.00  0.00     0.083 HD  
ENDROOT
BRANCH   1   7
ATOM     7   C6  UNL     1      -0.230   2.534   2.390  1.00  0.00     0.155 C   
BRANCH   7   8
ATOM     8   C5  UNL     1      -1.751   2.578   2.354  1.00  0.00    -0.021 A   
ATOM     9   C2  UNL     1      -4.588   2.568   2.336  1.00  0.00    -0.021 A   
ATOM     10  C3  UNL     1      -3.875   1.780   3.248  1.00  0.00     0.006 A   
ATOM     11  C24 UNL     1      -3.864   3.353   1.434  1.00  0.00     0.074 A   
ATOM     12  C4  UNL     1      -2.478   1.782   3.255  1.00  0.00     0.006 A   
ATOM     13  C23 UNL     1      -2.468   3.358   1.436  1.00  0.00     0.039 A   
ATOM     14  C1  UNL     1      -6.090   2.542   2.360  1.00  0.00     0.047 C   
BRANCH  11  15
ATOM     15  O4  UNL     1      -4.459   4.153   0.501  1.00  0.00    -0.361 OA  
ATOM     16  H31 UNL     1      -5.418   4.176   0.664  1.00  0.00     0.218 HD  
ENDBRANCH  11  15
ENDBRANCH   7   8
BRANCH   7  17
ATOM     17  C7  UNL     1       0.522   3.841   2.057  1.00  0.00     0.185 C   
BRANCH  17  18
ATOM     18  O1  UNL     1       0.492   4.184   0.672  1.00  0.00    -0.394 OA  
ATOM     19  H9  UNL     1       1.007   5.003   0.571  1.00  0.00     0.210 HD  
ENDBRANCH  17  18
ENDBRANCH   7  17
ENDBRANCH   1   7
BRANCH   3  20
ATOM     20  C10 UNL     1       1.151  -0.780  -1.163  1.00  0.00     0.114 C   
BRANCH  20  21
ATOM     21  C11 UNL     1       0.141  -1.922  -1.381  1.00  0.00     0.064 C   
BRANCH  21  22
ATOM     22  C12 UNL     1       0.297  -2.726  -2.690  1.00  0.00    -0.012 C   
ATOM     23  C13 UNL     1       0.181  -1.843  -3.930  1.00  0.00     0.007 C   
ATOM     24  C14 UNL     1      -0.765  -3.828  -2.742  1.00  0.00     0.007 C   
ENDBRANCH  21  22
ENDBRANCH  20  21
BRANCH  20  25
ATOM     25  N2  UNL     1       2.545  -1.356  -1.030  1.00  0.00     0.249 N   
ATOM     26  H21 UNL     1       2.725  -1.398  -0.016  1.00  0.00     0.199 HD  
ATOM     27  H22 UNL     1       2.580  -2.326  -1.346  1.00  0.00     0.199 HD  
BRANCH  25  28
ATOM     28  C15 UNL     1       3.646  -0.581  -1.663  1.00  0.00     0.164 C   
BRANCH  28  29
ATOM     29  C16 UNL     1       3.799   0.821  -1.141  1.00  0.00    -0.002 A   
ATOM     30  C17 UNL     1       3.465   1.929  -1.956  1.00  0.00     0.012 A   
ATOM     31  C21 UNL     1       4.249   1.044   0.173  1.00  0.00     0.045 A   
ATOM     32  C18 UNL     1       3.562   3.237  -1.470  1.00  0.00     0.037 A   
ATOM     33  C20 UNL     1       4.333   2.345   0.622  1.00  0.00     0.109 A   
ATOM     34  C19 UNL     1       3.998   3.412  -0.175  1.00  0.00     0.108 A   
ATOM     35  O2  UNL     1       4.736   2.729   1.863  1.00  0.00    -0.316 OA  
ATOM     36  O3  UNL     1       4.144   4.601   0.466  1.00  0.00    -0.316 OA  
ATOM     37  C22 UNL     1       4.690   4.168   1.731  1.00  0.00     0.337 C   
ENDBRANCH  28  29
ENDBRANCH  25  28
ENDBRANCH  20  25
ENDBRANCH   3  20
TORSDOF 11
