REMARK SMILES CC(C)(C)[C@H]([NH2+]Cc1ccc2c(c1)OCO2)c1cn(Cc2ccc3cc[nH]c3c2)nn1
REMARK SMILES IDX 17 1 18 2 19 3 30 4 31 5 5 7 2 8 1 9 3 10 4 11 6 12 7 15
REMARK SMILES IDX 8 16 9 17 13 18 10 19 12 20 11 21 14 22 16 23 15 24 20 25
REMARK SMILES IDX 21 26 22 27 29 28 23 29 28 30 24 31 27 32 25 33 26 34
REMARK H PARENT 18 6 6 13 6 14 27 35
ROOT
ATOM     1   C14 UNL     1       1.161   1.169  -0.182  1.00  0.00     0.127 A   
ATOM     2   C15 UNL     1       1.725  -0.023   0.217  1.00  0.00     0.046 A   
ATOM     3   N2  UNL     1       2.171   0.231   1.486  1.00  0.00    -0.208 N   
ATOM     4   N4  UNL     1       1.942   1.515   1.826  1.00  0.00    -0.076 NA  
ATOM     5   N5  UNL     1       1.327   2.100   0.811  1.00  0.00    -0.132 NA  
ATOM     6   H20 UNL     1       1.785  -1.006  -0.233  1.00  0.00     0.083 HD  
ENDROOT
BRANCH   1   7
ATOM     7   C5  UNL     1       0.343   1.500  -1.391  1.00  0.00     0.120 C   
BRANCH   7   8
ATOM     8   C2  UNL     1       1.140   2.236  -2.526  1.00  0.00     0.010 C   
ATOM     9   C1  UNL     1       2.343   1.370  -2.967  1.00  0.00     0.017 C   
ATOM     10  C3  UNL     1       1.673   3.616  -2.093  1.00  0.00     0.017 C   
ATOM     11  C4  UNL     1       0.246   2.436  -3.770  1.00  0.00     0.017 C   
ENDBRANCH   7   8
BRANCH   7  12
ATOM     12  N1  UNL     1      -0.873   2.313  -0.985  1.00  0.00     0.250 N   
ATOM     13  H11 UNL     1      -1.421   2.567  -1.808  1.00  0.00     0.199 HD  
ATOM     14  H12 UNL     1      -0.524   3.179  -0.558  1.00  0.00     0.199 HD  
BRANCH  12  15
ATOM     15  C6  UNL     1      -1.798   1.688   0.018  1.00  0.00     0.164 C   
BRANCH  15  16
ATOM     16  C7  UNL     1      -2.330   0.345  -0.396  1.00  0.00    -0.002 A   
ATOM     17  C8  UNL     1      -1.957  -0.818   0.323  1.00  0.00     0.012 A   
ATOM     18  C12 UNL     1      -3.185   0.226  -1.505  1.00  0.00     0.045 A   
ATOM     19  C9  UNL     1      -2.415  -2.082  -0.059  1.00  0.00     0.037 A   
ATOM     20  C11 UNL     1      -3.616  -1.036  -1.858  1.00  0.00     0.109 A   
ATOM     21  C10 UNL     1      -3.241  -2.158  -1.159  1.00  0.00     0.108 A   
ATOM     22  O1  UNL     1      -4.436  -1.325  -2.905  1.00  0.00    -0.316 OA  
ATOM     23  O2  UNL     1      -3.779  -3.293  -1.675  1.00  0.00    -0.316 OA  
ATOM     24  C13 UNL     1      -4.562  -2.758  -2.764  1.00  0.00     0.337 C   
ENDBRANCH  15  16
ENDBRANCH  12  15
ENDBRANCH   7  12
ENDBRANCH   1   7
BRANCH   3  25
ATOM     25  C16 UNL     1       2.694  -0.719   2.454  1.00  0.00     0.169 C   
BRANCH  25  26
ATOM     26  C17 UNL     1       1.592  -1.644   2.921  1.00  0.00    -0.027 A   
ATOM     27  C18 UNL     1       0.598  -1.167   3.788  1.00  0.00     0.006 A   
ATOM     28  C24 UNL     1       1.538  -2.969   2.453  1.00  0.00     0.029 A   
ATOM     29  C19 UNL     1      -0.470  -1.980   4.186  1.00  0.00     0.010 A   
ATOM     30  C23 UNL     1       0.465  -3.769   2.869  1.00  0.00     0.037 A   
ATOM     31  C20 UNL     1      -0.541  -3.302   3.714  1.00  0.00    -0.003 A   
ATOM     32  N3  UNL     1       0.173  -5.084   2.583  1.00  0.00    -0.321 N   
ATOM     33  C21 UNL     1      -1.461  -4.369   3.901  1.00  0.00     0.025 A   
ATOM     34  C22 UNL     1      -0.996  -5.452   3.193  1.00  0.00     0.072 A   
ATOM     35  H27 UNL     1       0.745  -5.693   2.014  1.00  0.00     0.152 HD  
ENDBRANCH  25  26
ENDBRANCH   3  25
TORSDOF 7
