REMARK SMILES c1ccc2c(c1)C[C@@H](Cn1cc([C@@H]([NH2+]Cc3ccc4c(c3)OCO4)C3CCCC3)nn1)O2
REMARK SMILES IDX 13 1 12 2 10 3 11 4 31 5 30 6 9 8 8 9 1 10 2 11 6 12 3 13
REMARK SMILES IDX 5 14 4 15 7 16 32 17 14 18 15 21 16 22 17 23 21 24 18 25
REMARK SMILES IDX 20 26 19 27 22 28 24 29 23 30 25 31 26 32 29 33 27 34 28 35
REMARK H PARENT 11 7 14 19 14 20
ROOT
ATOM     1   C12 UNL     1      -1.348   1.662  -1.056  1.00  0.00     0.117 C   
ENDROOT
BRANCH   1   2
ATOM     2   C11 UNL     1      -1.447   1.016   0.287  1.00  0.00     0.127 A   
ATOM     3   N1  UNL     1      -1.345   0.393   2.353  1.00  0.00    -0.210 N   
ATOM     4   C10 UNL     1      -1.083   1.458   1.539  1.00  0.00     0.045 A   
ATOM     5   N4  UNL     1      -1.836  -0.643   1.650  1.00  0.00    -0.076 NA  
ATOM     6   N3  UNL     1      -1.911  -0.272   0.382  1.00  0.00    -0.132 NA  
ATOM     7   H10 UNL     1      -0.659   2.380   1.913  1.00  0.00     0.083 HD  
BRANCH   3   8
ATOM     8   C9  UNL     1      -1.121   0.277   3.781  1.00  0.00     0.166 C   
BRANCH   8   9
ATOM     9   C8  UNL     1       0.231  -0.381   4.077  1.00  0.00     0.149 C   
ATOM     10  C1  UNL     1       2.485   2.036   7.283  1.00  0.00     0.000 A   
ATOM     11  C2  UNL     1       2.982   2.642   6.116  1.00  0.00     0.003 A   
ATOM     12  C6  UNL     1       1.618   0.943   7.205  1.00  0.00     0.006 A   
ATOM     13  C3  UNL     1       2.614   2.163   4.857  1.00  0.00     0.034 A   
ATOM     14  C5  UNL     1       1.254   0.488   5.951  1.00  0.00    -0.015 A   
ATOM     15  C4  UNL     1       1.746   1.091   4.805  1.00  0.00     0.079 A   
ATOM     16  C7  UNL     1       0.414  -0.671   5.577  1.00  0.00     0.072 C   
ATOM     17  O3  UNL     1       1.295   0.519   3.644  1.00  0.00    -0.341 OA  
ENDBRANCH   8   9
ENDBRANCH   3   8
ENDBRANCH   1   2
BRANCH   1  18
ATOM     18  N2  UNL     1      -0.952   0.627  -2.080  1.00  0.00     0.249 N   
ATOM     19  H12 UNL     1      -1.577  -0.181  -1.937  1.00  0.00     0.199 HD  
ATOM     20  H13 UNL     1      -1.113   0.951  -3.037  1.00  0.00     0.199 HD  
BRANCH  18  21
ATOM     21  C13 UNL     1       0.449   0.129  -1.975  1.00  0.00     0.164 C   
BRANCH  21  22
ATOM     22  C14 UNL     1       0.704  -0.929  -3.011  1.00  0.00    -0.002 A   
ATOM     23  C15 UNL     1       1.291  -0.593  -4.254  1.00  0.00     0.012 A   
ATOM     24  C19 UNL     1       0.306  -2.256  -2.767  1.00  0.00     0.045 A   
ATOM     25  C16 UNL     1       1.489  -1.566  -5.240  1.00  0.00     0.037 A   
ATOM     26  C18 UNL     1       0.514  -3.190  -3.760  1.00  0.00     0.109 A   
ATOM     27  C17 UNL     1       1.089  -2.855  -4.962  1.00  0.00     0.108 A   
ATOM     28  O1  UNL     1       0.188  -4.507  -3.688  1.00  0.00    -0.316 OA  
ATOM     29  O2  UNL     1       1.199  -3.921  -5.797  1.00  0.00    -0.316 OA  
ATOM     30  C20 UNL     1       0.643  -4.973  -4.979  1.00  0.00     0.337 C   
ENDBRANCH  21  22
ENDBRANCH  18  21
ENDBRANCH   1  18
BRANCH   1  31
ATOM     31  C21 UNL     1      -2.683   2.296  -1.494  1.00  0.00     0.043 C   
ATOM     32  C22 UNL     1      -2.624   3.019  -2.844  1.00  0.00     0.010 C   
ATOM     33  C25 UNL     1      -3.158   3.419  -0.567  1.00  0.00     0.010 C   
ATOM     34  C23 UNL     1      -3.842   3.936  -2.847  1.00  0.00     0.001 C   
ATOM     35  C24 UNL     1      -4.209   4.163  -1.383  1.00  0.00     0.001 C   
ENDBRANCH   1  31
TORSDOF 7
