REMARK SMILES c1ccc2c(c1)C[C@H](Cn1cc([C@@H]([NH2+]Cc3ccc4c(c3)OCO4)C3CCCC3)nn1)O2
REMARK SMILES IDX 13 1 12 2 10 3 11 4 31 5 30 6 9 8 8 9 1 10 2 11 6 12 3 13
REMARK SMILES IDX 5 14 4 15 7 16 32 17 14 18 15 21 16 22 17 23 21 24 18 25
REMARK SMILES IDX 20 26 19 27 22 28 24 29 23 30 25 31 26 32 29 33 27 34 28 35
REMARK H PARENT 11 7 14 19 14 20
ROOT
ATOM     1   C12 UNL     1      -0.063  -1.531  -0.760  1.00  0.00     0.117 C   
ENDROOT
BRANCH   1   2
ATOM     2   C11 UNL     1      -1.287  -1.517   0.091  1.00  0.00     0.127 A   
ATOM     3   N1  UNL     1      -3.248  -1.218   0.942  1.00  0.00    -0.210 N   
ATOM     4   C10 UNL     1      -2.608  -1.348  -0.258  1.00  0.00     0.045 A   
ATOM     5   N4  UNL     1      -2.393  -1.389   1.965  1.00  0.00    -0.076 NA  
ATOM     6   N3  UNL     1      -1.186  -1.564   1.456  1.00  0.00    -0.132 NA  
ATOM     7   H10 UNL     1      -3.123  -1.232  -1.202  1.00  0.00     0.083 HD  
BRANCH   3   8
ATOM     8   C9  UNL     1      -4.625  -0.843   1.184  1.00  0.00     0.166 C   
BRANCH   8   9
ATOM     9   C8  UNL     1      -4.871   0.672   1.107  1.00  0.00     0.149 C   
ATOM     10  C1  UNL     1      -1.351   3.556   0.290  1.00  0.00     0.000 A   
ATOM     11  C2  UNL     1      -1.791   3.318  -1.023  1.00  0.00     0.003 A   
ATOM     12  C6  UNL     1      -2.012   2.980   1.379  1.00  0.00     0.006 A   
ATOM     13  C3  UNL     1      -2.897   2.499  -1.260  1.00  0.00     0.034 A   
ATOM     14  C5  UNL     1      -3.107   2.172   1.127  1.00  0.00    -0.015 A   
ATOM     15  C4  UNL     1      -3.536   1.943  -0.169  1.00  0.00     0.079 A   
ATOM     16  C7  UNL     1      -4.033   1.520   2.082  1.00  0.00     0.072 C   
ATOM     17  O3  UNL     1      -4.637   1.133  -0.256  1.00  0.00    -0.341 OA  
ENDBRANCH   8   9
ENDBRANCH   3   8
ENDBRANCH   1   2
BRANCH   1  18
ATOM     18  N2  UNL     1       0.623  -0.185  -0.743  1.00  0.00     0.249 N   
ATOM     19  H12 UNL     1       1.448  -0.205  -1.351  1.00  0.00     0.199 HD  
ATOM     20  H13 UNL     1      -0.033   0.493  -1.148  1.00  0.00     0.199 HD  
BRANCH  18  21
ATOM     21  C13 UNL     1       1.018   0.364   0.594  1.00  0.00     0.164 C   
BRANCH  21  22
ATOM     22  C14 UNL     1       1.995   1.513   0.500  1.00  0.00    -0.002 A   
ATOM     23  C15 UNL     1       2.905   1.719   1.568  1.00  0.00     0.012 A   
ATOM     24  C19 UNL     1       1.995   2.419  -0.577  1.00  0.00     0.045 A   
ATOM     25  C16 UNL     1       3.816   2.781   1.554  1.00  0.00     0.037 A   
ATOM     26  C18 UNL     1       2.906   3.455  -0.561  1.00  0.00     0.109 A   
ATOM     27  C17 UNL     1       3.795   3.630   0.470  1.00  0.00     0.108 A   
ATOM     28  O1  UNL     1       3.037   4.403  -1.529  1.00  0.00    -0.316 OA  
ATOM     29  O2  UNL     1       4.600   4.708   0.283  1.00  0.00    -0.316 OA  
ATOM     30  C20 UNL     1       4.114   5.201  -0.984  1.00  0.00     0.337 C   
ENDBRANCH  21  22
ENDBRANCH  18  21
ENDBRANCH   1  18
BRANCH   1  31
ATOM     31  C21 UNL     1       0.927  -2.657  -0.412  1.00  0.00     0.043 C   
ATOM     32  C22 UNL     1       2.182  -2.691  -1.287  1.00  0.00     0.010 C   
ATOM     33  C25 UNL     1       0.347  -4.055  -0.649  1.00  0.00     0.010 C   
ATOM     34  C23 UNL     1       2.737  -4.102  -1.116  1.00  0.00     0.001 C   
ATOM     35  C24 UNL     1       1.567  -4.966  -0.653  1.00  0.00     0.001 C   
ENDBRANCH   1  31
TORSDOF 7
