REMARK SMILES CC(C)[C@H]([NH2+]Cc1ccc2c(c1)OCO2)c1cn(CCc2ccc[nH]2)nn1
REMARK SMILES IDX 16 1 17 2 18 3 26 4 27 5 4 7 2 8 1 9 3 10 5 11 6 14 7 15
REMARK SMILES IDX 8 16 12 17 9 18 11 19 10 20 13 21 15 22 14 23 19 24 20 25
REMARK SMILES IDX 21 26 22 27 25 28 23 29 24 30
REMARK H PARENT 17 6 5 12 5 13 25 31
ROOT
ATOM     1   C13 UNL     1      -0.377  -0.861  -0.247  1.00  0.00     0.127 A   
ATOM     2   C14 UNL     1      -0.929  -1.604  -1.265  1.00  0.00     0.045 A   
ATOM     3   N2  UNL     1       0.029  -1.592  -2.240  1.00  0.00    -0.212 N   
ATOM     4   N4  UNL     1       1.129  -0.937  -1.826  1.00  0.00    -0.076 NA  
ATOM     5   N5  UNL     1       0.888  -0.471  -0.612  1.00  0.00    -0.132 NA  
ATOM     6   H18 UNL     1      -1.891  -2.080  -1.405  1.00  0.00     0.083 HD  
ENDROOT
BRANCH   1   7
ATOM     7   C4  UNL     1      -0.924  -0.456   1.085  1.00  0.00     0.117 C   
BRANCH   7   8
ATOM     8   C2  UNL     1      -1.959   0.694   0.963  1.00  0.00     0.037 C   
ATOM     9   C1  UNL     1      -1.357   2.026   0.501  1.00  0.00     0.014 C   
ATOM     10  C3  UNL     1      -2.735   0.900   2.269  1.00  0.00     0.014 C   
ENDBRANCH   7   8
BRANCH   7  11
ATOM     11  N1  UNL     1       0.195  -0.055   2.008  1.00  0.00     0.249 N   
ATOM     12  H9  UNL     1       0.851   0.509   1.447  1.00  0.00     0.199 HD  
ATOM     13  H10 UNL     1      -0.124   0.550   2.770  1.00  0.00     0.199 HD  
BRANCH  11  14
ATOM     14  C5  UNL     1       0.977  -1.184   2.584  1.00  0.00     0.164 C   
BRANCH  14  15
ATOM     15  C6  UNL     1       2.155  -0.662   3.356  1.00  0.00    -0.002 A   
ATOM     16  C7  UNL     1       3.374  -0.389   2.689  1.00  0.00     0.012 A   
ATOM     17  C11 UNL     1       2.040  -0.386   4.728  1.00  0.00     0.045 A   
ATOM     18  C8  UNL     1       4.468   0.143   3.379  1.00  0.00     0.037 A   
ATOM     19  C10 UNL     1       3.138   0.138   5.379  1.00  0.00     0.109 A   
ATOM     20  C9  UNL     1       4.318   0.395   4.724  1.00  0.00     0.108 A   
ATOM     21  O1  UNL     1       3.194   0.461   6.697  1.00  0.00    -0.316 OA  
ATOM     22  O2  UNL     1       5.266   0.912   5.549  1.00  0.00    -0.316 OA  
ATOM     23  C12 UNL     1       4.557   0.931   6.806  1.00  0.00     0.337 C   
ENDBRANCH  14  15
ENDBRANCH  11  14
ENDBRANCH   7  11
ENDBRANCH   1   7
BRANCH   3  24
ATOM     24  C15 UNL     1      -0.053  -2.139  -3.579  1.00  0.00     0.140 C   
BRANCH  24  25
ATOM     25  C16 UNL     1      -0.278  -1.063  -4.642  1.00  0.00     0.072 C   
BRANCH  25  26
ATOM     26  C17 UNL     1      -1.550  -0.302  -4.425  1.00  0.00     0.008 A   
ATOM     27  C18 UNL     1      -2.870  -0.705  -4.504  1.00  0.00     0.020 A   
ATOM     28  N3  UNL     1      -1.544   1.031  -4.088  1.00  0.00    -0.324 N   
ATOM     29  C19 UNL     1      -3.676   0.409  -4.170  1.00  0.00     0.017 A   
ATOM     30  C20 UNL     1      -2.831   1.464  -3.911  1.00  0.00     0.071 A   
ATOM     31  H26 UNL     1      -0.718   1.610  -3.993  1.00  0.00     0.152 HD  
ENDBRANCH  25  26
ENDBRANCH  24  25
ENDBRANCH   3  24
TORSDOF 8
