REMARK SMILES COc1ccc(-n2cc([C@@H]([NH2+]Cc3ccc4c(c3)OCO4)C(C)(C)C)nn2)cc1F
REMARK SMILES IDX 7 1 8 2 9 3 26 4 27 5 6 6 3 7 4 8 29 9 5 10 28 11 30 12 2 13
REMARK SMILES IDX 1 14 10 15 11 16 12 19 13 20 14 21 18 22 15 23 17 24 16 25
REMARK SMILES IDX 19 26 21 27 20 28 22 29 23 30 24 31 25 32
REMARK H PARENT 11 17 11 18
ROOT
ATOM     1   N1  UNL     1      -2.492  -0.731   0.248  1.00  0.00    -0.181 N   
ATOM     2   C6  UNL     1      -1.586  -1.377  -0.572  1.00  0.00     0.135 A   
ATOM     3   C7  UNL     1      -0.381  -1.297   0.092  1.00  0.00     0.128 A   
ATOM     4   N3  UNL     1      -0.558  -0.596   1.251  1.00  0.00    -0.131 NA  
ATOM     5   N4  UNL     1      -1.831  -0.245   1.329  1.00  0.00    -0.071 NA  
ENDROOT
BRANCH   1   6
ATOM     6   C5  UNL     1      -3.884  -0.542   0.068  1.00  0.00     0.061 A   
ATOM     7   C2  UNL     1      -6.661  -0.151  -0.247  1.00  0.00     0.110 A   
ATOM     8   C3  UNL     1      -6.001   0.364   0.870  1.00  0.00     0.038 A   
ATOM     9   C22 UNL     1      -5.914  -0.855  -1.196  1.00  0.00     0.155 A   
ATOM     10  C4  UNL     1      -4.621   0.169   1.029  1.00  0.00     0.029 A   
ATOM     11  C21 UNL     1      -4.541  -1.056  -1.053  1.00  0.00     0.068 A   
ATOM     12  F1  UNL     1      -6.514  -1.366  -2.283  1.00  0.00    -0.204 F   
BRANCH   7  13
ATOM     13  O1  UNL     1      -7.996  -0.029  -0.513  1.00  0.00    -0.346 OA  
ATOM     14  C1  UNL     1      -8.804   0.610   0.469  1.00  0.00     0.203 C   
ENDBRANCH   7  13
ENDBRANCH   1   6
BRANCH   3  15
ATOM     15  C8  UNL     1       0.994  -1.773  -0.280  1.00  0.00     0.120 C   
BRANCH  15  16
ATOM     16  N2  UNL     1       2.009  -0.805   0.283  1.00  0.00     0.250 N   
ATOM     17  H8  UNL     1       1.714  -0.590   1.249  1.00  0.00     0.199 HD  
ATOM     18  H9  UNL     1       2.944  -1.216   0.360  1.00  0.00     0.199 HD  
BRANCH  16  19
ATOM     19  C9  UNL     1       2.127   0.495  -0.437  1.00  0.00     0.164 C   
BRANCH  19  20
ATOM     20  C10 UNL     1       3.091   1.398   0.279  1.00  0.00    -0.002 A   
ATOM     21  C11 UNL     1       2.623   2.288   1.276  1.00  0.00     0.012 A   
ATOM     22  C15 UNL     1       4.468   1.319   0.009  1.00  0.00     0.045 A   
ATOM     23  C12 UNL     1       3.514   3.097   1.991  1.00  0.00     0.037 A   
ATOM     24  C14 UNL     1       5.319   2.129   0.735  1.00  0.00     0.109 A   
ATOM     25  C13 UNL     1       4.856   2.993   1.697  1.00  0.00     0.108 A   
ATOM     26  O2  UNL     1       6.672   2.172   0.602  1.00  0.00    -0.316 OA  
ATOM     27  O3  UNL     1       5.858   3.692   2.290  1.00  0.00    -0.316 OA  
ATOM     28  C16 UNL     1       7.010   3.181   1.582  1.00  0.00     0.337 C   
ENDBRANCH  19  20
ENDBRANCH  16  19
ENDBRANCH  15  16
BRANCH  15  29
ATOM     29  C17 UNL     1       1.320  -3.234   0.191  1.00  0.00     0.010 C   
ATOM     30  C18 UNL     1       0.260  -4.223  -0.347  1.00  0.00     0.017 C   
ATOM     31  C19 UNL     1       2.685  -3.689  -0.379  1.00  0.00     0.017 C   
ATOM     32  C20 UNL     1       1.367  -3.366   1.727  1.00  0.00     0.017 C   
ENDBRANCH  15  29
ENDBRANCH   3  15
TORSDOF 7
