REMARK SMILES CC(C)(C)[C@H]([NH2+]Cc1ccc2c(c1)OCO2)c1cn(CCc2ccc(Cl)nc2)nn1
REMARK SMILES IDX 17 1 18 2 19 3 29 4 30 5 5 7 2 8 1 9 3 10 4 11 6 12 7 15
REMARK SMILES IDX 8 16 9 17 13 18 10 19 12 20 11 21 14 22 16 23 15 24 20 25
REMARK SMILES IDX 21 26 22 27 23 28 28 29 24 30 27 31 25 32 26 33
REMARK H PARENT 18 6 6 13 6 14
ROOT
ATOM     1   C14 UNL     1       1.000   0.639   0.810  1.00  0.00     0.127 A   
ATOM     2   C15 UNL     1       0.434   1.304   1.875  1.00  0.00     0.045 A   
ATOM     3   N2  UNL     1       0.812   2.606   1.689  1.00  0.00    -0.212 N   
ATOM     4   N4  UNL     1       1.625   2.723   0.625  1.00  0.00    -0.076 NA  
ATOM     5   N5  UNL     1       1.733   1.529   0.065  1.00  0.00    -0.132 NA  
ATOM     6   H20 UNL     1      -0.247   1.004   2.660  1.00  0.00     0.083 HD  
ENDROOT
BRANCH   1   7
ATOM     7   C5  UNL     1       0.817  -0.763   0.313  1.00  0.00     0.120 C   
BRANCH   7   8
ATOM     8   C2  UNL     1       1.947  -1.761   0.732  1.00  0.00     0.010 C   
ATOM     9   C1  UNL     1       1.622  -3.181   0.215  1.00  0.00     0.017 C   
ATOM     10  C3  UNL     1       3.337  -1.355   0.203  1.00  0.00     0.017 C   
ATOM     11  C4  UNL     1       2.025  -1.845   2.274  1.00  0.00     0.017 C   
ENDBRANCH   7   8
BRANCH   7  12
ATOM     12  N1  UNL     1       0.662  -0.715  -1.190  1.00  0.00     0.250 N   
ATOM     13  H11 UNL     1       1.394  -1.244  -1.673  1.00  0.00     0.199 HD  
ATOM     14  H12 UNL     1       0.835   0.262  -1.480  1.00  0.00     0.199 HD  
BRANCH  12  15
ATOM     15  C6  UNL     1      -0.673  -1.104  -1.715  1.00  0.00     0.164 C   
BRANCH  15  16
ATOM     16  C7  UNL     1      -0.703  -1.002  -3.213  1.00  0.00    -0.002 A   
ATOM     17  C8  UNL     1      -0.208  -2.062  -4.012  1.00  0.00     0.012 A   
ATOM     18  C12 UNL     1      -1.175   0.168  -3.831  1.00  0.00     0.045 A   
ATOM     19  C9  UNL     1      -0.192  -1.962  -5.408  1.00  0.00     0.037 A   
ATOM     20  C11 UNL     1      -1.147   0.233  -5.209  1.00  0.00     0.109 A   
ATOM     21  C10 UNL     1      -0.669  -0.801  -5.975  1.00  0.00     0.108 A   
ATOM     22  O1  UNL     1      -1.564   1.286  -5.960  1.00  0.00    -0.316 OA  
ATOM     23  O2  UNL     1      -0.729  -0.532  -7.305  1.00  0.00    -0.316 OA  
ATOM     24  C13 UNL     1      -1.330   0.781  -7.293  1.00  0.00     0.337 C   
ENDBRANCH  15  16
ENDBRANCH  12  15
ENDBRANCH   7  12
ENDBRANCH   1   7
BRANCH   3  25
ATOM     25  C16 UNL     1       0.241   3.788   2.309  1.00  0.00     0.139 C   
BRANCH  25  26
ATOM     26  C17 UNL     1      -0.724   4.543   1.379  1.00  0.00     0.058 C   
BRANCH  26  27
ATOM     27  C18 UNL     1      -1.808   3.650   0.823  1.00  0.00    -0.028 A   
ATOM     28  C19 UNL     1      -2.975   3.373   1.538  1.00  0.00     0.008 A   
ATOM     29  C22 UNL     1      -1.619   2.984  -0.389  1.00  0.00     0.116 A   
ATOM     30  C20 UNL     1      -3.880   2.441   1.036  1.00  0.00     0.041 A   
ATOM     31  N3  UNL     1      -2.445   2.031  -0.870  1.00  0.00    -0.244 NA  
ATOM     32  C21 UNL     1      -3.565   1.804  -0.152  1.00  0.00     0.129 A   
ATOM     33  CL1 UNL     1      -4.565   0.567  -0.789  1.00  0.00    -0.062 Cl  
ENDBRANCH  26  27
ENDBRANCH  25  26
ENDBRANCH   3  25
TORSDOF 8
