REMARK SMILES CC(C)n1cc(Cn2cc([C@@H]([NH2+]Cc3ccc4c(c3)OCO4)C(C)(C)C)nn2)cn1
REMARK SMILES IDX 8 1 9 2 10 3 27 4 28 5 7 7 6 8 4 9 5 10 30 11 29 12 2 13
REMARK SMILES IDX 1 14 3 15 11 16 12 17 13 20 14 21 15 22 19 23 16 24 18 25
REMARK SMILES IDX 17 26 20 27 22 28 21 29 23 30 24 31 25 32 26 33
REMARK H PARENT 9 6 12 18 12 19
ROOT
ATOM     1   N2  UNL     1       0.756  -3.221   0.311  1.00  0.00    -0.208 N   
ATOM     2   C7  UNL     1       0.557  -2.111   1.089  1.00  0.00     0.046 A   
ATOM     3   C8  UNL     1      -0.664  -2.336   1.684  1.00  0.00     0.127 A   
ATOM     4   N4  UNL     1      -1.138  -3.561   1.289  1.00  0.00    -0.132 NA  
ATOM     5   N5  UNL     1      -0.266  -4.089   0.447  1.00  0.00    -0.076 NA  
ATOM     6   H11 UNL     1       1.244  -1.276   1.091  1.00  0.00     0.083 HD  
ENDROOT
BRANCH   1   7
ATOM     7   C6  UNL     1       1.794  -3.439  -0.685  1.00  0.00     0.172 C   
BRANCH   7   8
ATOM     8   C5  UNL     1       1.577  -2.525  -1.838  1.00  0.00     0.007 A   
ATOM     9   N1  UNL     1       1.751  -0.964  -3.385  1.00  0.00    -0.230 N   
ATOM     10  C4  UNL     1       2.409  -1.539  -2.331  1.00  0.00     0.103 A   
ATOM     11  N6  UNL     1       0.518  -1.474  -3.568  1.00  0.00    -0.190 NA  
ATOM     12  C22 UNL     1       0.441  -2.461  -2.677  1.00  0.00     0.138 A   
BRANCH   9  13
ATOM     13  C2  UNL     1       2.228   0.105  -4.260  1.00  0.00     0.091 C   
ATOM     14  C1  UNL     1       3.494  -0.308  -5.010  1.00  0.00     0.030 C   
ATOM     15  C3  UNL     1       2.435   1.406  -3.487  1.00  0.00     0.030 C   
ENDBRANCH   9  13
ENDBRANCH   7   8
ENDBRANCH   1   7
BRANCH   3  16
ATOM     16  C9  UNL     1      -1.522  -1.439   2.520  1.00  0.00     0.120 C   
BRANCH  16  17
ATOM     17  N3  UNL     1      -2.962  -1.534   2.049  1.00  0.00     0.250 N   
ATOM     18  H13 UNL     1      -3.584  -1.015   2.671  1.00  0.00     0.199 HD  
ATOM     19  H14 UNL     1      -3.224  -2.527   2.106  1.00  0.00     0.199 HD  
BRANCH  17  20
ATOM     20  C10 UNL     1      -3.236  -1.105   0.639  1.00  0.00     0.164 C   
BRANCH  20  21
ATOM     21  C11 UNL     1      -2.845   0.318   0.353  1.00  0.00    -0.002 A   
ATOM     22  C12 UNL     1      -1.818   0.596  -0.583  1.00  0.00     0.012 A   
ATOM     23  C16 UNL     1      -3.482   1.382   1.017  1.00  0.00     0.045 A   
ATOM     24  C13 UNL     1      -1.421   1.911  -0.845  1.00  0.00     0.037 A   
ATOM     25  C15 UNL     1      -3.062   2.666   0.737  1.00  0.00     0.109 A   
ATOM     26  C14 UNL     1      -2.060   2.924  -0.167  1.00  0.00     0.108 A   
ATOM     27  O1  UNL     1      -3.561   3.799   1.296  1.00  0.00    -0.316 OA  
ATOM     28  O2  UNL     1      -1.805   4.252  -0.292  1.00  0.00    -0.316 OA  
ATOM     29  C17 UNL     1      -2.782   4.808   0.613  1.00  0.00     0.337 C   
ENDBRANCH  20  21
ENDBRANCH  17  20
ENDBRANCH  16  17
BRANCH  16  30
ATOM     30  C18 UNL     1      -1.432  -1.717   4.063  1.00  0.00     0.010 C   
ATOM     31  C19 UNL     1       0.037  -1.610   4.533  1.00  0.00     0.017 C   
ATOM     32  C20 UNL     1      -1.966  -3.108   4.459  1.00  0.00     0.017 C   
ATOM     33  C21 UNL     1      -2.234  -0.652   4.848  1.00  0.00     0.017 C   
ENDBRANCH  16  30
ENDBRANCH   3  16
TORSDOF 8
