REMARK SMILES Cc1cc([C@@H](CO)n2cc([C@@H]([NH2+]Cc3ccc4c(c3)OCO4)C3CCCC3)nn2)ccc1F
REMARK SMILES IDX 8 1 9 2 10 3 28 4 29 5 5 7 4 8 2 9 3 10 32 11 31 12 30 13
REMARK SMILES IDX 1 14 33 15 6 16 7 17 11 19 12 20 13 23 14 24 15 25 19 26
REMARK SMILES IDX 16 27 18 28 17 29 20 30 22 31 21 32 23 33 24 34 27 35 25 36
REMARK SMILES IDX 26 37
REMARK H PARENT 9 6 7 18 12 21 12 22
ROOT
ATOM     1   N1  UNL     1       0.257   0.601  -2.066  1.00  0.00    -0.202 N   
ATOM     2   C7  UNL     1      -0.188   0.819  -0.789  1.00  0.00     0.046 A   
ATOM     3   C8  UNL     1       0.615   1.831  -0.316  1.00  0.00     0.127 A   
ATOM     4   N3  UNL     1       1.523   2.169  -1.287  1.00  0.00    -0.132 NA  
ATOM     5   N4  UNL     1       1.301   1.408  -2.346  1.00  0.00    -0.075 NA  
ATOM     6   H9  UNL     1      -1.013   0.261  -0.366  1.00  0.00     0.083 HD  
ENDROOT
BRANCH   1   7
ATOM     7   C5  UNL     1      -0.227  -0.354  -3.063  1.00  0.00     0.155 C   
BRANCH   7   8
ATOM     8   C4  UNL     1      -0.288  -1.762  -2.475  1.00  0.00    -0.023 A   
ATOM     9   C2  UNL     1      -1.491  -3.637  -1.462  1.00  0.00    -0.015 A   
ATOM     10  C3  UNL     1      -1.481  -2.346  -2.012  1.00  0.00     0.012 A   
ATOM     11  C25 UNL     1      -0.287  -4.333  -1.355  1.00  0.00     0.126 A   
ATOM     12  C24 UNL     1       0.905  -3.779  -1.802  1.00  0.00     0.040 A   
ATOM     13  C23 UNL     1       0.907  -2.500  -2.359  1.00  0.00     0.009 A   
ATOM     14  C1  UNL     1      -2.760  -4.244  -0.943  1.00  0.00     0.047 C   
ATOM     15  F1  UNL     1      -0.269  -5.556  -0.806  1.00  0.00    -0.207 F   
ENDBRANCH   7   8
BRANCH   7  16
ATOM     16  C6  UNL     1      -1.490   0.172  -3.774  1.00  0.00     0.185 C   
BRANCH  16  17
ATOM     17  O1  UNL     1      -2.558   0.476  -2.875  1.00  0.00    -0.394 OA  
ATOM     18  H8  UNL     1      -3.314   0.761  -3.422  1.00  0.00     0.210 HD  
ENDBRANCH  16  17
ENDBRANCH   7  16
ENDBRANCH   1   7
BRANCH   3  19
ATOM     19  C9  UNL     1       0.662   2.510   1.015  1.00  0.00     0.117 C   
BRANCH  19  20
ATOM     20  N2  UNL     1       2.068   3.006   1.299  1.00  0.00     0.249 N   
ATOM     21  H11 UNL     1       2.357   3.533   0.464  1.00  0.00     0.199 HD  
ATOM     22  H12 UNL     1       2.061   3.656   2.089  1.00  0.00     0.199 HD  
BRANCH  20  23
ATOM     23  C10 UNL     1       3.107   1.959   1.535  1.00  0.00     0.164 C   
BRANCH  23  24
ATOM     24  C11 UNL     1       2.895   1.194   2.811  1.00  0.00    -0.002 A   
ATOM     25  C12 UNL     1       3.161   1.798   4.064  1.00  0.00     0.012 A   
ATOM     26  C16 UNL     1       2.405  -0.123   2.768  1.00  0.00     0.045 A   
ATOM     27  C13 UNL     1       2.940   1.103   5.257  1.00  0.00     0.037 A   
ATOM     28  C15 UNL     1       2.200  -0.779   3.963  1.00  0.00     0.109 A   
ATOM     29  C14 UNL     1       2.458  -0.184   5.173  1.00  0.00     0.108 A   
ATOM     30  O2  UNL     1       1.728  -2.047   4.099  1.00  0.00    -0.316 OA  
ATOM     31  O3  UNL     1       2.184  -1.002   6.222  1.00  0.00    -0.316 OA  
ATOM     32  C17 UNL     1       1.765  -2.201   5.535  1.00  0.00     0.337 C   
ENDBRANCH  23  24
ENDBRANCH  20  23
ENDBRANCH  19  20
BRANCH  19  33
ATOM     33  C18 UNL     1      -0.289   3.719   1.146  1.00  0.00     0.043 C   
ATOM     34  C19 UNL     1      -0.086   4.849   0.126  1.00  0.00     0.010 C   
ATOM     35  C22 UNL     1      -1.790   3.372   1.073  1.00  0.00     0.010 C   
ATOM     36  C20 UNL     1      -1.431   5.557   0.110  1.00  0.00     0.001 C   
ATOM     37  C21 UNL     1      -2.421   4.406   0.144  1.00  0.00     0.001 C   
ENDBRANCH  19  33
ENDBRANCH   3  19
TORSDOF 9
