REMARK SMILES Cc1cc([C@H](CO)n2cc([C@@H]([NH2+]Cc3ccc4c(c3)OCO4)C3CCCC3)nn2)ccc1F
REMARK SMILES IDX 8 1 9 2 10 3 28 4 29 5 5 7 4 8 2 9 3 10 32 11 31 12 30 13
REMARK SMILES IDX 1 14 33 15 6 16 7 17 11 19 12 20 13 23 14 24 15 25 19 26
REMARK SMILES IDX 16 27 18 28 17 29 20 30 22 31 21 32 23 33 24 34 27 35 25 36
REMARK SMILES IDX 26 37
REMARK H PARENT 9 6 7 18 12 21 12 22
ROOT
ATOM     1   N1  UNL     1       1.473  -1.038  -0.492  1.00  0.00    -0.202 N   
ATOM     2   C7  UNL     1       0.304  -0.576   0.053  1.00  0.00     0.046 A   
ATOM     3   C8  UNL     1       0.125   0.658  -0.528  1.00  0.00     0.127 A   
ATOM     4   N3  UNL     1       1.180   0.919  -1.364  1.00  0.00    -0.132 NA  
ATOM     5   N4  UNL     1       1.999  -0.119  -1.331  1.00  0.00    -0.075 NA  
ATOM     6   H9  UNL     1      -0.257  -1.143   0.783  1.00  0.00     0.083 HD  
ENDROOT
BRANCH   1   7
ATOM     7   C5  UNL     1       2.175  -2.298  -0.245  1.00  0.00     0.155 C   
BRANCH   7   8
ATOM     8   C4  UNL     1       1.208  -3.481  -0.307  1.00  0.00    -0.023 A   
ATOM     9   C2  UNL     1      -0.102  -5.015  -1.707  1.00  0.00    -0.015 A   
ATOM     10  C3  UNL     1       0.794  -3.945  -1.576  1.00  0.00     0.012 A   
ATOM     11  C25 UNL     1      -0.611  -5.603  -0.549  1.00  0.00     0.126 A   
ATOM     12  C24 UNL     1      -0.222  -5.162   0.712  1.00  0.00     0.040 A   
ATOM     13  C23 UNL     1       0.685  -4.106   0.837  1.00  0.00     0.009 A   
ATOM     14  C1  UNL     1      -0.552  -5.481  -3.060  1.00  0.00     0.047 C   
ATOM     15  F1  UNL     1      -1.495  -6.606  -0.640  1.00  0.00    -0.207 F   
ENDBRANCH   7   8
BRANCH   7  16
ATOM     16  C6  UNL     1       3.079  -2.188   1.000  1.00  0.00     0.185 C   
BRANCH  16  17
ATOM     17  O1  UNL     1       2.368  -1.773   2.170  1.00  0.00    -0.394 OA  
ATOM     18  H8  UNL     1       2.986  -1.847   2.921  1.00  0.00     0.210 HD  
ENDBRANCH  16  17
ENDBRANCH   7  16
ENDBRANCH   1   7
BRANCH   3  19
ATOM     19  C9  UNL     1      -0.921   1.696  -0.299  1.00  0.00     0.117 C   
BRANCH  19  20
ATOM     20  N2  UNL     1      -0.289   3.074  -0.250  1.00  0.00     0.249 N   
ATOM     21  H11 UNL     1       0.240   3.179  -1.128  1.00  0.00     0.199 HD  
ATOM     22  H12 UNL     1      -1.018   3.793  -0.240  1.00  0.00     0.199 HD  
BRANCH  20  23
ATOM     23  C10 UNL     1       0.669   3.328   0.869  1.00  0.00     0.164 C   
BRANCH  23  24
ATOM     24  C11 UNL     1       0.033   3.254   2.230  1.00  0.00    -0.002 A   
ATOM     25  C12 UNL     1      -0.839   4.279   2.673  1.00  0.00     0.012 A   
ATOM     26  C16 UNL     1       0.273   2.143   3.058  1.00  0.00     0.045 A   
ATOM     27  C13 UNL     1      -1.469   4.198   3.920  1.00  0.00     0.037 A   
ATOM     28  C15 UNL     1      -0.362   2.095   4.282  1.00  0.00     0.109 A   
ATOM     29  C14 UNL     1      -1.210   3.093   4.699  1.00  0.00     0.108 A   
ATOM     30  O2  UNL     1      -0.247   1.096   5.197  1.00  0.00    -0.316 OA  
ATOM     31  O3  UNL     1      -1.736   2.847   5.928  1.00  0.00    -0.316 OA  
ATOM     32  C17 UNL     1      -1.078   1.606   6.267  1.00  0.00     0.337 C   
ENDBRANCH  23  24
ENDBRANCH  20  23
ENDBRANCH  19  20
BRANCH  19  33
ATOM     33  C18 UNL     1      -2.040   1.735  -1.359  1.00  0.00     0.043 C   
ATOM     34  C19 UNL     1      -2.845   0.441  -1.499  1.00  0.00     0.010 C   
ATOM     35  C22 UNL     1      -1.614   2.002  -2.805  1.00  0.00     0.010 C   
ATOM     36  C20 UNL     1      -3.618   0.611  -2.808  1.00  0.00     0.001 C   
ATOM     37  C21 UNL     1      -2.875   1.689  -3.603  1.00  0.00     0.001 C   
ENDBRANCH  19  33
ENDBRANCH   3  19
TORSDOF 9
