REMARK SMILES O[C@H](Cn1cc([C@@H]([NH2+]Cc2ccc3c(c2)OCO3)C2CCCC2)nn1)c1cccc(Cl)c1
REMARK SMILES IDX 4 1 5 2 6 3 24 4 25 5 3 7 2 8 1 9 26 11 27 12 32 13 28 14
REMARK SMILES IDX 30 15 29 16 31 17 7 18 8 19 9 22 10 23 11 24 15 25 12 26
REMARK SMILES IDX 14 27 13 28 16 29 18 30 17 31 19 32 20 33 23 34 21 35 22 36
REMARK H PARENT 5 6 1 10 8 20 8 21
ROOT
ATOM     1   N1  UNL     1       0.279  -0.144  -2.478  1.00  0.00    -0.209 N   
ATOM     2   C3  UNL     1      -0.093  -0.753  -1.312  1.00  0.00     0.045 A   
ATOM     3   C4  UNL     1       0.301   0.133  -0.333  1.00  0.00     0.127 A   
ATOM     4   N3  UNL     1       0.933   1.199  -0.925  1.00  0.00    -0.132 NA  
ATOM     5   N4  UNL     1       0.930   1.007  -2.233  1.00  0.00    -0.076 NA  
ATOM     6   H5  UNL     1      -0.625  -1.695  -1.293  1.00  0.00     0.083 HD  
ENDROOT
BRANCH   1   7
ATOM     7   C2  UNL     1      -0.011  -0.552  -3.834  1.00  0.00     0.170 C   
BRANCH   7   8
ATOM     8   C1  UNL     1      -1.032   0.360  -4.526  1.00  0.00     0.164 C   
BRANCH   8   9
ATOM     9   O1  UNL     1      -1.196  -0.078  -5.876  1.00  0.00    -0.387 OA  
ATOM     10  H1  UNL     1      -1.903   0.465  -6.271  1.00  0.00     0.211 HD  
ENDBRANCH   8   9
BRANCH   8  11
ATOM     11  C19 UNL     1      -2.378   0.367  -3.826  1.00  0.00    -0.016 A   
ATOM     12  C20 UNL     1      -3.321  -0.650  -4.037  1.00  0.00     0.006 A   
ATOM     13  C24 UNL     1      -2.676   1.383  -2.902  1.00  0.00     0.027 A   
ATOM     14  C21 UNL     1      -4.536  -0.648  -3.348  1.00  0.00     0.002 A   
ATOM     15  C23 UNL     1      -3.884   1.369  -2.204  1.00  0.00     0.041 A   
ATOM     16  C22 UNL     1      -4.817   0.360  -2.426  1.00  0.00     0.020 A   
ATOM     17  CL1 UNL     1      -4.197   2.585  -1.027  1.00  0.00    -0.084 Cl  
ENDBRANCH   8  11
ENDBRANCH   7   8
ENDBRANCH   1   7
BRANCH   3  18
ATOM     18  C5  UNL     1       0.153   0.109   1.159  1.00  0.00     0.117 C   
BRANCH  18  19
ATOM     19  N2  UNL     1       1.182   1.046   1.758  1.00  0.00     0.249 N   
ATOM     20  H7  UNL     1       0.844   1.489   2.615  1.00  0.00     0.199 HD  
ATOM     21  H8  UNL     1       1.304   1.805   1.069  1.00  0.00     0.199 HD  
BRANCH  19  22
ATOM     22  C6  UNL     1       2.523   0.449   2.016  1.00  0.00     0.164 C   
BRANCH  22  23
ATOM     23  C7  UNL     1       2.538  -0.365   3.282  1.00  0.00    -0.002 A   
ATOM     24  C8  UNL     1       2.552   0.281   4.543  1.00  0.00     0.012 A   
ATOM     25  C12 UNL     1       2.493  -1.768   3.226  1.00  0.00     0.045 A   
ATOM     26  C9  UNL     1       2.514  -0.457   5.730  1.00  0.00     0.037 A   
ATOM     27  C11 UNL     1       2.454  -2.465   4.416  1.00  0.00     0.109 A   
ATOM     28  C10 UNL     1       2.462  -1.829   5.633  1.00  0.00     0.108 A   
ATOM     29  O2  UNL     1       2.397  -3.817   4.537  1.00  0.00    -0.316 OA  
ATOM     30  O3  UNL     1       2.417  -2.700   6.673  1.00  0.00    -0.316 OA  
ATOM     31  C13 UNL     1       2.404  -3.963   5.976  1.00  0.00     0.337 C   
ENDBRANCH  22  23
ENDBRANCH  19  22
ENDBRANCH  18  19
BRANCH  18  32
ATOM     32  C14 UNL     1      -1.255   0.547   1.614  1.00  0.00     0.043 C   
ATOM     33  C15 UNL     1      -1.451   0.600   3.133  1.00  0.00     0.010 C   
ATOM     34  C18 UNL     1      -2.355  -0.437   1.183  1.00  0.00     0.010 C   
ATOM     35  C16 UNL     1      -2.964   0.628   3.291  1.00  0.00     0.001 C   
ATOM     36  C17 UNL     1      -3.491  -0.286   2.194  1.00  0.00     0.001 C   
ENDBRANCH  18  32
ENDBRANCH   3  18
TORSDOF 9
