REMARK SMILES O[C@@H](Cn1cc([C@@H]([NH2+]Cc2ccc3c(c2)OCO3)C2CCCC2)nn1)c1cccc(Cl)c1
REMARK SMILES IDX 4 1 5 2 6 3 24 4 25 5 3 7 2 8 1 9 26 11 27 12 32 13 28 14
REMARK SMILES IDX 30 15 29 16 31 17 7 18 8 19 9 22 10 23 11 24 15 25 12 26
REMARK SMILES IDX 14 27 13 28 16 29 18 30 17 31 19 32 20 33 23 34 21 35 22 36
REMARK H PARENT 5 6 1 10 8 20 8 21
ROOT
ATOM     1   N1  UNL     1       3.186  -0.244  -1.725  1.00  0.00    -0.209 N   
ATOM     2   C3  UNL     1       2.605  -1.005  -0.748  1.00  0.00     0.045 A   
ATOM     3   C4  UNL     1       1.260  -0.729  -0.867  1.00  0.00     0.127 A   
ATOM     4   N3  UNL     1       1.073   0.145  -1.910  1.00  0.00    -0.132 NA  
ATOM     5   N4  UNL     1       2.258   0.453  -2.409  1.00  0.00    -0.076 NA  
ATOM     6   H5  UNL     1       3.184  -1.617  -0.069  1.00  0.00     0.083 HD  
ENDROOT
BRANCH   1   7
ATOM     7   C2  UNL     1       4.595  -0.052  -1.988  1.00  0.00     0.170 C   
BRANCH   7   8
ATOM     8   C1  UNL     1       5.116   1.290  -1.458  1.00  0.00     0.164 C   
BRANCH   8   9
ATOM     9   O1  UNL     1       6.490   1.423  -1.825  1.00  0.00    -0.387 OA  
ATOM     10  H1  UNL     1       6.864   2.170  -1.321  1.00  0.00     0.211 HD  
ENDBRANCH   8   9
BRANCH   8  11
ATOM     11  C19 UNL     1       4.973   1.401   0.050  1.00  0.00    -0.016 A   
ATOM     12  C20 UNL     1       5.858   0.735   0.914  1.00  0.00     0.006 A   
ATOM     13  C24 UNL     1       3.893   2.112   0.601  1.00  0.00     0.027 A   
ATOM     14  C21 UNL     1       5.669   0.781   2.298  1.00  0.00     0.002 A   
ATOM     15  C23 UNL     1       3.698   2.135   1.983  1.00  0.00     0.041 A   
ATOM     16  C22 UNL     1       4.584   1.478   2.834  1.00  0.00     0.020 A   
ATOM     17  CL1 UNL     1       2.324   2.948   2.631  1.00  0.00    -0.084 Cl  
ENDBRANCH   8  11
ENDBRANCH   7   8
ENDBRANCH   1   7
BRANCH   3  18
ATOM     18  C5  UNL     1       0.084  -1.187  -0.063  1.00  0.00     0.117 C   
BRANCH  18  19
ATOM     19  N2  UNL     1      -1.093  -0.277  -0.294  1.00  0.00     0.249 N   
ATOM     20  H7  UNL     1      -1.984  -0.711  -0.040  1.00  0.00     0.199 HD  
ATOM     21  H8  UNL     1      -1.136  -0.100  -1.308  1.00  0.00     0.199 HD  
BRANCH  19  22
ATOM     22  C6  UNL     1      -1.007   1.057   0.369  1.00  0.00     0.164 C   
BRANCH  22  23
ATOM     23  C7  UNL     1      -2.086   1.965  -0.150  1.00  0.00    -0.002 A   
ATOM     24  C8  UNL     1      -1.839   2.773  -1.286  1.00  0.00     0.012 A   
ATOM     25  C12 UNL     1      -3.362   1.966   0.439  1.00  0.00     0.045 A   
ATOM     26  C9  UNL     1      -2.841   3.590  -1.818  1.00  0.00     0.037 A   
ATOM     27  C11 UNL     1      -4.333   2.771  -0.121  1.00  0.00     0.109 A   
ATOM     28  C10 UNL     1      -4.079   3.563  -1.214  1.00  0.00     0.108 A   
ATOM     29  O2  UNL     1      -5.621   2.869   0.304  1.00  0.00    -0.316 OA  
ATOM     30  O3  UNL     1      -5.168   4.275  -1.603  1.00  0.00    -0.316 OA  
ATOM     31  C13 UNL     1      -6.159   3.796  -0.667  1.00  0.00     0.337 C   
ENDBRANCH  22  23
ENDBRANCH  19  22
ENDBRANCH  18  19
BRANCH  18  32
ATOM     32  C14 UNL     1      -0.288  -2.647  -0.382  1.00  0.00     0.043 C   
ATOM     33  C15 UNL     1      -1.349  -3.260   0.551  1.00  0.00     0.010 C   
ATOM     34  C18 UNL     1      -0.807  -2.917  -1.801  1.00  0.00     0.010 C   
ATOM     35  C16 UNL     1      -2.263  -4.106  -0.337  1.00  0.00     0.001 C   
ATOM     36  C17 UNL     1      -1.520  -4.251  -1.656  1.00  0.00     0.001 C   
ENDBRANCH  18  32
ENDBRANCH   3  18
TORSDOF 9
