REMARK SMILES CC(C)[C@H]([NH2+]Cc1ccc2c(c1)OCO2)c1cn([C@@H](CO)c2cccnc2Cl)nn1
REMARK SMILES IDX 16 1 17 2 18 3 29 4 30 5 4 7 2 8 1 9 3 10 5 11 6 14 7 15
REMARK SMILES IDX 8 16 12 17 9 18 11 19 10 20 13 21 15 22 14 23 19 24 20 25
REMARK SMILES IDX 21 26 22 28 23 29 27 30 24 31 26 32 25 33 28 34
REMARK H PARENT 17 6 5 12 5 13 21 27
ROOT
ATOM     1   C13 UNL     1       1.026  -0.731  -0.646  1.00  0.00     0.127 A   
ATOM     2   C14 UNL     1       2.068  -0.398  -1.481  1.00  0.00     0.046 A   
ATOM     3   N2  UNL     1       1.472  -0.220  -2.702  1.00  0.00    -0.202 N   
ATOM     4   N4  UNL     1       0.152  -0.489  -2.629  1.00  0.00    -0.075 NA  
ATOM     5   N5  UNL     1      -0.134  -0.788  -1.373  1.00  0.00    -0.132 NA  
ATOM     6   H18 UNL     1       3.126  -0.224  -1.327  1.00  0.00     0.083 HD  
ENDROOT
BRANCH   1   7
ATOM     7   C4  UNL     1       0.975  -0.892   0.839  1.00  0.00     0.117 C   
BRANCH   7   8
ATOM     8   C2  UNL     1       0.979  -2.377   1.280  1.00  0.00     0.037 C   
ATOM     9   C1  UNL     1       1.295  -2.515   2.776  1.00  0.00     0.014 C   
ATOM     10  C3  UNL     1      -0.311  -3.137   0.955  1.00  0.00     0.014 C   
ENDBRANCH   7   8
BRANCH   7  11
ATOM     11  N1  UNL     1      -0.236  -0.179   1.385  1.00  0.00     0.249 N   
ATOM     12  H9  UNL     1      -1.041  -0.477   0.815  1.00  0.00     0.199 HD  
ATOM     13  H10 UNL     1      -0.440  -0.462   2.347  1.00  0.00     0.199 HD  
BRANCH  11  14
ATOM     14  C5  UNL     1      -0.180   1.308   1.315  1.00  0.00     0.164 C   
BRANCH  14  15
ATOM     15  C6  UNL     1      -1.456   1.920   1.819  1.00  0.00    -0.002 A   
ATOM     16  C7  UNL     1      -2.386   2.473   0.907  1.00  0.00     0.012 A   
ATOM     17  C11 UNL     1      -1.748   1.927   3.194  1.00  0.00     0.045 A   
ATOM     18  C8  UNL     1      -3.584   3.039   1.356  1.00  0.00     0.037 A   
ATOM     19  C10 UNL     1      -2.944   2.482   3.602  1.00  0.00     0.109 A   
ATOM     20  C9  UNL     1      -3.833   3.027   2.710  1.00  0.00     0.108 A   
ATOM     21  O1  UNL     1      -3.381   2.558   4.886  1.00  0.00    -0.316 OA  
ATOM     22  O2  UNL     1      -4.940   3.525   3.321  1.00  0.00    -0.316 OA  
ATOM     23  C12 UNL     1      -4.639   3.251   4.705  1.00  0.00     0.337 C   
ENDBRANCH  14  15
ENDBRANCH  11  14
ENDBRANCH   7  11
ENDBRANCH   1   7
BRANCH   3  24
ATOM     24  C15 UNL     1       2.083   0.318  -3.924  1.00  0.00     0.158 C   
BRANCH  24  25
ATOM     25  C16 UNL     1       2.490  -0.840  -4.853  1.00  0.00     0.186 C   
BRANCH  25  26
ATOM     26  O3  UNL     1       3.593  -1.552  -4.286  1.00  0.00    -0.394 OA  
ATOM     27  H22 UNL     1       3.874  -2.223  -4.941  1.00  0.00     0.210 HD  
ENDBRANCH  25  26
ENDBRANCH  24  25
BRANCH  24  28
ATOM     28  C17 UNL     1       1.200   1.399  -4.533  1.00  0.00     0.014 A   
ATOM     29  C18 UNL     1       0.450   1.192  -5.701  1.00  0.00     0.010 A   
ATOM     30  C21 UNL     1       1.048   2.646  -3.922  1.00  0.00     0.134 A   
ATOM     31  C19 UNL     1      -0.367   2.203  -6.200  1.00  0.00     0.021 A   
ATOM     32  N3  UNL     1       0.259   3.640  -4.379  1.00  0.00    -0.244 NA  
ATOM     33  C20 UNL     1      -0.427   3.400  -5.513  1.00  0.00     0.113 A   
ATOM     34  CL1 UNL     1       1.836   3.080  -2.450  1.00  0.00    -0.062 Cl  
ENDBRANCH  24  28
ENDBRANCH   3  24
TORSDOF 9
