REMARK SMILES CC(C)[C@H]([NH2+]Cc1ccc2c(c1)OCO2)c1cn([C@H](CO)c2cccnc2Cl)nn1
REMARK SMILES IDX 16 1 17 2 18 3 29 4 30 5 4 7 2 8 1 9 3 10 5 11 6 14 7 15
REMARK SMILES IDX 8 16 12 17 9 18 11 19 10 20 13 21 15 22 14 23 19 24 20 25
REMARK SMILES IDX 21 26 22 28 23 29 27 30 24 31 26 32 25 33 28 34
REMARK H PARENT 17 6 5 12 5 13 21 27
ROOT
ATOM     1   C13 UNL     1      -0.321  -0.760   1.089  1.00  0.00     0.127 A   
ATOM     2   C14 UNL     1      -0.480  -0.824   2.454  1.00  0.00     0.046 A   
ATOM     3   N2  UNL     1      -0.840   0.449   2.808  1.00  0.00    -0.202 N   
ATOM     4   N4  UNL     1      -0.963   1.231   1.714  1.00  0.00    -0.075 NA  
ATOM     5   N5  UNL     1      -0.641   0.503   0.658  1.00  0.00    -0.132 NA  
ATOM     6   H18 UNL     1      -0.352  -1.612   3.183  1.00  0.00     0.083 HD  
ENDROOT
BRANCH   1   7
ATOM     7   C4  UNL     1       0.071  -1.800   0.090  1.00  0.00     0.117 C   
BRANCH   7   8
ATOM     8   C2  UNL     1       1.599  -1.895  -0.159  1.00  0.00     0.037 C   
ATOM     9   C1  UNL     1       2.234  -0.595  -0.669  1.00  0.00     0.014 C   
ATOM     10  C3  UNL     1       2.348  -2.381   1.087  1.00  0.00     0.014 C   
ENDBRANCH   7   8
BRANCH   7  11
ATOM     11  N1  UNL     1      -0.609  -1.525  -1.228  1.00  0.00     0.249 N   
ATOM     12  H9  UNL     1      -0.518  -0.513  -1.402  1.00  0.00     0.199 HD  
ATOM     13  H10 UNL     1      -0.134  -1.997  -2.004  1.00  0.00     0.199 HD  
BRANCH  11  14
ATOM     14  C5  UNL     1      -2.062  -1.850  -1.272  1.00  0.00     0.164 C   
BRANCH  14  15
ATOM     15  C6  UNL     1      -2.653  -1.421  -2.585  1.00  0.00    -0.002 A   
ATOM     16  C7  UNL     1      -3.132  -0.098  -2.748  1.00  0.00     0.012 A   
ATOM     17  C11 UNL     1      -2.681  -2.307  -3.675  1.00  0.00     0.045 A   
ATOM     18  C8  UNL     1      -3.645   0.334  -3.975  1.00  0.00     0.037 A   
ATOM     19  C10 UNL     1      -3.192  -1.849  -4.871  1.00  0.00     0.109 A   
ATOM     20  C9  UNL     1      -3.661  -0.566  -5.018  1.00  0.00     0.108 A   
ATOM     21  O1  UNL     1      -3.290  -2.572  -6.017  1.00  0.00    -0.316 OA  
ATOM     22  O2  UNL     1      -4.116  -0.321  -6.274  1.00  0.00    -0.316 OA  
ATOM     23  C12 UNL     1      -3.898  -1.603  -6.902  1.00  0.00     0.337 C   
ENDBRANCH  14  15
ENDBRANCH  11  14
ENDBRANCH   7  11
ENDBRANCH   1   7
BRANCH   3  24
ATOM     24  C15 UNL     1      -1.052   0.982   4.156  1.00  0.00     0.158 C   
BRANCH  24  25
ATOM     25  C16 UNL     1      -2.504   1.466   4.330  1.00  0.00     0.186 C   
BRANCH  25  26
ATOM     26  O3  UNL     1      -3.395   0.347   4.340  1.00  0.00    -0.394 OA  
ATOM     27  H22 UNL     1      -4.286   0.691   4.539  1.00  0.00     0.210 HD  
ENDBRANCH  25  26
ENDBRANCH  24  25
BRANCH  24  28
ATOM     28  C17 UNL     1       0.020   2.007   4.476  1.00  0.00     0.014 A   
ATOM     29  C18 UNL     1      -0.184   3.385   4.295  1.00  0.00     0.010 A   
ATOM     30  C21 UNL     1       1.289   1.629   4.918  1.00  0.00     0.134 A   
ATOM     31  C19 UNL     1       0.837   4.290   4.579  1.00  0.00     0.021 A   
ATOM     32  N3  UNL     1       2.296   2.484   5.196  1.00  0.00    -0.244 NA  
ATOM     33  C20 UNL     1       2.048   3.797   5.026  1.00  0.00     0.113 A   
ATOM     34  CL1 UNL     1       1.755  -0.013   5.155  1.00  0.00    -0.062 Cl  
ENDBRANCH  24  28
ENDBRANCH   3  24
TORSDOF 9
