REMARK SMILES CC(C)[C@H]([NH2+]Cc1ccc2c(c1)OCO2)c1cn([C@@H](CO)c2ccoc2)nn1
REMARK SMILES IDX 16 1 17 2 18 3 27 4 28 5 4 7 2 8 1 9 3 10 5 11 6 14 7 15
REMARK SMILES IDX 8 16 12 17 9 18 11 19 10 20 13 21 15 22 14 23 19 24 20 25
REMARK SMILES IDX 21 26 22 28 23 29 26 30 24 31 25 32
REMARK H PARENT 17 6 5 12 5 13 21 27
ROOT
ATOM     1   C13 UNL     1      -0.861  -0.578  -0.448  1.00  0.00     0.127 A   
ATOM     2   C14 UNL     1      -1.907  -0.606   0.445  1.00  0.00     0.046 A   
ATOM     3   N2  UNL     1      -1.326  -0.955   1.636  1.00  0.00    -0.202 N   
ATOM     4   N3  UNL     1       0.012  -1.074   1.490  1.00  0.00    -0.075 NA  
ATOM     5   N4  UNL     1       0.305  -0.857   0.218  1.00  0.00    -0.132 NA  
ATOM     6   H18 UNL     1      -2.969  -0.425   0.354  1.00  0.00     0.083 HD  
ENDROOT
BRANCH   1   7
ATOM     7   C4  UNL     1      -0.822  -0.239  -1.903  1.00  0.00     0.117 C   
BRANCH   7   8
ATOM     8   C2  UNL     1      -0.947  -1.465  -2.845  1.00  0.00     0.037 C   
ATOM     9   C1  UNL     1       0.173  -2.501  -2.688  1.00  0.00     0.014 C   
ATOM     10  C3  UNL     1      -2.311  -2.154  -2.697  1.00  0.00     0.014 C   
ENDBRANCH   7   8
BRANCH   7  11
ATOM     11  N1  UNL     1       0.460   0.488  -2.229  1.00  0.00     0.249 N   
ATOM     12  H9  UNL     1       1.224  -0.050  -1.794  1.00  0.00     0.199 HD  
ATOM     13  H10 UNL     1       0.638   0.496  -3.238  1.00  0.00     0.199 HD  
BRANCH  11  14
ATOM     14  C5  UNL     1       0.545   1.880  -1.705  1.00  0.00     0.164 C   
BRANCH  14  15
ATOM     15  C6  UNL     1       1.883   2.485  -2.017  1.00  0.00    -0.002 A   
ATOM     16  C7  UNL     1       2.030   3.394  -3.089  1.00  0.00     0.012 A   
ATOM     17  C11 UNL     1       3.010   2.121  -1.257  1.00  0.00     0.045 A   
ATOM     18  C8  UNL     1       3.279   3.946  -3.396  1.00  0.00     0.037 A   
ATOM     19  C10 UNL     1       4.226   2.681  -1.588  1.00  0.00     0.109 A   
ATOM     20  C9  UNL     1       4.357   3.570  -2.625  1.00  0.00     0.108 A   
ATOM     21  O1  UNL     1       5.407   2.436  -0.961  1.00  0.00    -0.316 OA  
ATOM     22  O2  UNL     1       5.635   4.002  -2.778  1.00  0.00    -0.316 OA  
ATOM     23  C12 UNL     1       6.288   3.323  -1.683  1.00  0.00     0.337 C   
ENDBRANCH  14  15
ENDBRANCH  11  14
ENDBRANCH   7  11
ENDBRANCH   1   7
BRANCH   3  24
ATOM     24  C15 UNL     1      -1.945  -1.164   2.944  1.00  0.00     0.157 C   
BRANCH  24  25
ATOM     25  C16 UNL     1      -2.146   0.169   3.685  1.00  0.00     0.186 C   
BRANCH  25  26
ATOM     26  O3  UNL     1      -2.962   1.092   2.960  1.00  0.00    -0.394 OA  
ATOM     27  H22 UNL     1      -3.077   1.874   3.532  1.00  0.00     0.210 HD  
ENDBRANCH  25  26
ENDBRANCH  24  25
BRANCH  24  28
ATOM     28  C17 UNL     1      -3.173  -2.026   2.820  1.00  0.00     0.002 A   
ATOM     29  C18 UNL     1      -4.545  -1.635   2.745  1.00  0.00     0.033 A   
ATOM     30  C20 UNL     1      -3.193  -3.406   2.744  1.00  0.00     0.141 A   
ATOM     31  C19 UNL     1      -5.279  -2.789   2.625  1.00  0.00     0.136 A   
ATOM     32  O4  UNL     1      -4.460  -3.869   2.621  1.00  0.00    -0.326 OA  
ENDBRANCH  24  28
ENDBRANCH   3  24
TORSDOF 9
