REMARK SMILES CC(C)[C@H]([NH2+]Cc1ccc2c(c1)OCO2)c1cn([C@H](CO)c2ccoc2)nn1
REMARK SMILES IDX 16 1 17 2 18 3 27 4 28 5 4 7 2 8 1 9 3 10 5 11 6 14 7 15
REMARK SMILES IDX 8 16 12 17 9 18 11 19 10 20 13 21 15 22 14 23 19 24 20 25
REMARK SMILES IDX 21 26 22 28 23 29 26 30 24 31 25 32
REMARK H PARENT 17 6 5 12 5 13 21 27
ROOT
ATOM     1   C13 UNL     1      -1.094   0.293  -0.778  1.00  0.00     0.127 A   
ATOM     2   C14 UNL     1      -2.312   0.931  -0.747  1.00  0.00     0.046 A   
ATOM     3   N2  UNL     1      -3.064   0.183   0.121  1.00  0.00    -0.202 N   
ATOM     4   N3  UNL     1      -2.335  -0.842   0.614  1.00  0.00    -0.075 NA  
ATOM     5   N4  UNL     1      -1.131  -0.787   0.067  1.00  0.00    -0.132 NA  
ATOM     6   H18 UNL     1      -2.709   1.808  -1.241  1.00  0.00     0.083 HD  
ENDROOT
BRANCH   1   7
ATOM     7   C4  UNL     1       0.175   0.629  -1.493  1.00  0.00     0.117 C   
BRANCH   7   8
ATOM     8   C2  UNL     1       0.305  -0.019  -2.895  1.00  0.00     0.037 C   
ATOM     9   C1  UNL     1      -0.749   0.522  -3.869  1.00  0.00     0.014 C   
ATOM     10  C3  UNL     1       0.261  -1.552  -2.888  1.00  0.00     0.014 C   
ENDBRANCH   7   8
BRANCH   7  11
ATOM     11  N1  UNL     1       1.359   0.204  -0.659  1.00  0.00     0.249 N   
ATOM     12  H9  UNL     1       1.156  -0.748  -0.318  1.00  0.00     0.199 HD  
ATOM     13  H10 UNL     1       2.212   0.136  -1.224  1.00  0.00     0.199 HD  
BRANCH  11  14
ATOM     14  C5  UNL     1       1.629   1.048   0.538  1.00  0.00     0.164 C   
BRANCH  14  15
ATOM     15  C6  UNL     1       2.771   0.479   1.331  1.00  0.00    -0.002 A   
ATOM     16  C7  UNL     1       2.530  -0.525   2.300  1.00  0.00     0.012 A   
ATOM     17  C11 UNL     1       4.088   0.897   1.079  1.00  0.00     0.045 A   
ATOM     18  C8  UNL     1       3.585  -1.097   3.019  1.00  0.00     0.037 A   
ATOM     19  C10 UNL     1       5.104   0.312   1.806  1.00  0.00     0.109 A   
ATOM     20  C9  UNL     1       4.861  -0.656   2.749  1.00  0.00     0.108 A   
ATOM     21  O1  UNL     1       6.427   0.600   1.687  1.00  0.00    -0.316 OA  
ATOM     22  O2  UNL     1       5.999  -1.097   3.345  1.00  0.00    -0.316 OA  
ATOM     23  C12 UNL     1       6.990  -0.280   2.687  1.00  0.00     0.337 C   
ENDBRANCH  14  15
ENDBRANCH  11  14
ENDBRANCH   7  11
ENDBRANCH   1   7
BRANCH   3  24
ATOM     24  C15 UNL     1      -4.440   0.391   0.569  1.00  0.00     0.157 C   
BRANCH  24  25
ATOM     25  C16 UNL     1      -5.459   0.079  -0.541  1.00  0.00     0.186 C   
BRANCH  25  26
ATOM     26  O3  UNL     1      -5.293   0.897  -1.701  1.00  0.00    -0.394 OA  
ATOM     27  H22 UNL     1      -6.028   0.684  -2.306  1.00  0.00     0.210 HD  
ENDBRANCH  25  26
ENDBRANCH  24  25
BRANCH  24  28
ATOM     28  C17 UNL     1      -4.576   1.746   1.213  1.00  0.00     0.002 A   
ATOM     29  C18 UNL     1      -5.006   2.980   0.637  1.00  0.00     0.033 A   
ATOM     30  C20 UNL     1      -4.292   2.048   2.532  1.00  0.00     0.141 A   
ATOM     31  C19 UNL     1      -4.945   3.924   1.635  1.00  0.00     0.136 A   
ATOM     32  O4  UNL     1      -4.505   3.362   2.787  1.00  0.00    -0.326 OA  
ENDBRANCH  24  28
ENDBRANCH   3  24
TORSDOF 9
