REMARK SMILES [O-]N([O-])c1ccc(F)cc1Cn1cc([C@@H]([NH2+]Cc2ccc3c(c2)OCO3)C2CCCCC2)nn1
REMARK SMILES IDX 12 1 13 2 14 3 33 4 34 5 11 7 10 8 4 9 5 10 6 11 9 12 7 13
REMARK SMILES IDX 8 14 2 15 1 16 3 17 15 18 16 19 17 22 18 23 19 24 23 25
REMARK SMILES IDX 20 26 22 27 21 28 24 29 26 30 25 31 27 32 28 33 32 34 29 35
REMARK SMILES IDX 31 36 30 37
REMARK H PARENT 13 6 16 20 16 21
ROOT
ATOM     1   N2  UNL     1      -2.597   0.675   1.478  1.00  0.00    -0.208 N   
ATOM     2   C8  UNL     1      -1.256   0.940   1.398  1.00  0.00     0.046 A   
ATOM     3   C9  UNL     1      -0.994   0.872   0.046  1.00  0.00     0.127 A   
ATOM     4   N4  UNL     1      -2.176   0.732  -0.634  1.00  0.00    -0.132 NA  
ATOM     5   N5  UNL     1      -3.153   0.650   0.253  1.00  0.00    -0.076 NA  
ATOM     6   H6  UNL     1      -0.618   0.973   2.272  1.00  0.00     0.083 HD  
ENDROOT
BRANCH   1   7
ATOM     7   C7  UNL     1      -3.320   0.141   2.626  1.00  0.00     0.171 C   
BRANCH   7   8
ATOM     8   C6  UNL     1      -3.881  -1.248   2.362  1.00  0.00     0.003 A   
ATOM     9   C1  UNL     1      -3.126  -2.352   1.895  1.00  0.00     0.123 A   
ATOM     10  C2  UNL     1      -3.706  -3.604   1.642  1.00  0.00     0.034 A   
ATOM     11  C3  UNL     1      -5.070  -3.778   1.870  1.00  0.00     0.041 A   
ATOM     12  C5  UNL     1      -5.252  -1.464   2.590  1.00  0.00     0.047 A   
ATOM     13  C4  UNL     1      -5.827  -2.712   2.342  1.00  0.00     0.123 A   
ATOM     14  F1  UNL     1      -7.136  -2.883   2.563  1.00  0.00    -0.207 F   
BRANCH   9  15
ATOM     15  N1  UNL     1      -1.693  -2.237   1.667  1.00  0.00     0.092 N   
ATOM     16  O1  UNL     1      -0.991  -1.946   2.642  1.00  0.00    -0.138 OA  
ATOM     17  O2  UNL     1      -1.270  -2.375   0.504  1.00  0.00    -0.138 OA  
ENDBRANCH   9  15
ENDBRANCH   7   8
ENDBRANCH   1   7
BRANCH   3  18
ATOM     18  C10 UNL     1       0.304   0.681  -0.674  1.00  0.00     0.117 C   
BRANCH  18  19
ATOM     19  N3  UNL     1       0.180  -0.617  -1.440  1.00  0.00     0.249 N   
ATOM     20  H8  UNL     1      -0.196  -1.319  -0.776  1.00  0.00     0.199 HD  
ATOM     21  H9  UNL     1      -0.584  -0.512  -2.119  1.00  0.00     0.199 HD  
BRANCH  19  22
ATOM     22  C11 UNL     1       1.385  -1.196  -2.080  1.00  0.00     0.164 C   
BRANCH  22  23
ATOM     23  C12 UNL     1       2.481  -1.518  -1.102  1.00  0.00    -0.002 A   
ATOM     24  C13 UNL     1       3.674  -0.758  -1.086  1.00  0.00     0.012 A   
ATOM     25  C17 UNL     1       2.316  -2.564  -0.176  1.00  0.00     0.045 A   
ATOM     26  C14 UNL     1       4.686  -1.027  -0.158  1.00  0.00     0.037 A   
ATOM     27  C16 UNL     1       3.332  -2.803   0.725  1.00  0.00     0.109 A   
ATOM     28  C15 UNL     1       4.483  -2.055   0.736  1.00  0.00     0.108 A   
ATOM     29  O3  UNL     1       3.329  -3.766   1.683  1.00  0.00    -0.316 OA  
ATOM     30  O4  UNL     1       5.351  -2.453   1.702  1.00  0.00    -0.316 OA  
ATOM     31  C18 UNL     1       4.625  -3.554   2.288  1.00  0.00     0.337 C   
ENDBRANCH  22  23
ENDBRANCH  19  22
ENDBRANCH  18  19
BRANCH  18  32
ATOM     32  C19 UNL     1       0.723   1.855  -1.592  1.00  0.00     0.043 C   
ATOM     33  C20 UNL     1       0.934   3.147  -0.775  1.00  0.00     0.010 C   
ATOM     34  C24 UNL     1      -0.223   2.126  -2.777  1.00  0.00     0.010 C   
ATOM     35  C21 UNL     1       1.435   4.294  -1.649  1.00  0.00     0.001 C   
ATOM     36  C23 UNL     1       0.282   3.278  -3.647  1.00  0.00     0.001 C   
ATOM     37  C22 UNL     1       0.506   4.546  -2.832  1.00  0.00     0.000 C   
ENDBRANCH  18  32
ENDBRANCH   3  18
TORSDOF 8
