REMARK SMILES c1cc(Cn2cc([C@@H]([NH2+]Cc3ccc4c(c3)OCO4)C3CCCC3)nn2)cs1
REMARK SMILES IDX 8 1 7 2 5 3 6 4 26 5 25 6 4 8 3 9 1 10 2 11 28 12 27 13 9 14
REMARK SMILES IDX 10 17 11 18 12 19 16 20 13 21 15 22 14 23 17 24 19 25 18 26
REMARK SMILES IDX 20 27 21 28 24 29 22 30 23 31
REMARK H PARENT 6 7 9 15 9 16
ROOT
ATOM     1   C7  UNL     1       1.248  -1.382  -0.375  1.00  0.00     0.117 C   
ENDROOT
BRANCH   1   2
ATOM     2   C6  UNL     1       0.052  -1.790  -1.169  1.00  0.00     0.127 A   
ATOM     3   N1  UNL     1      -1.815  -1.953  -2.248  1.00  0.00    -0.208 N   
ATOM     4   C5  UNL     1      -0.892  -1.035  -1.826  1.00  0.00     0.046 A   
ATOM     5   N4  UNL     1      -1.444  -3.200  -1.897  1.00  0.00    -0.076 NA  
ATOM     6   N3  UNL     1      -0.295  -3.114  -1.246  1.00  0.00    -0.132 NA  
ATOM     7   H5  UNL     1      -1.018   0.028  -1.983  1.00  0.00     0.083 HD  
BRANCH   3   8
ATOM     8   C4  UNL     1      -3.098  -1.707  -2.888  1.00  0.00     0.170 C   
BRANCH   8   9
ATOM     9   C3  UNL     1      -4.055  -1.113  -1.897  1.00  0.00    -0.021 A   
ATOM     10  C1  UNL     1      -5.367   0.534  -0.872  1.00  0.00     0.046 A   
ATOM     11  C2  UNL     1      -4.512   0.248  -1.913  1.00  0.00     0.013 A   
ATOM     12  S1  UNL     1      -5.632  -0.823   0.131  1.00  0.00    -0.106 S   
ATOM     13  C21 UNL     1      -4.618  -1.801  -0.835  1.00  0.00     0.051 A   
ENDBRANCH   8   9
ENDBRANCH   3   8
ENDBRANCH   1   2
BRANCH   1  14
ATOM     14  N2  UNL     1       1.334  -2.184   0.909  1.00  0.00     0.249 N   
ATOM     15  H7  UNL     1       1.423  -3.171   0.633  1.00  0.00     0.199 HD  
ATOM     16  H8  UNL     1       2.180  -1.931   1.424  1.00  0.00     0.199 HD  
BRANCH  14  17
ATOM     17  C8  UNL     1       0.165  -2.094   1.840  1.00  0.00     0.164 C   
BRANCH  17  18
ATOM     18  C9  UNL     1      -0.166  -0.690   2.261  1.00  0.00    -0.002 A   
ATOM     19  C10 UNL     1      -1.372  -0.086   1.829  1.00  0.00     0.012 A   
ATOM     20  C14 UNL     1       0.725   0.043   3.064  1.00  0.00     0.045 A   
ATOM     21  C11 UNL     1      -1.685   1.230   2.182  1.00  0.00     0.037 A   
ATOM     22  C13 UNL     1       0.387   1.339   3.391  1.00  0.00     0.109 A   
ATOM     23  C12 UNL     1      -0.783   1.917   2.962  1.00  0.00     0.108 A   
ATOM     24  O1  UNL     1       1.137   2.183   4.147  1.00  0.00    -0.316 OA  
ATOM     25  O2  UNL     1      -0.916   3.198   3.393  1.00  0.00    -0.316 OA  
ATOM     26  C15 UNL     1       0.285   3.352   4.180  1.00  0.00     0.337 C   
ENDBRANCH  17  18
ENDBRANCH  14  17
ENDBRANCH   1  14
BRANCH   1  27
ATOM     27  C16 UNL     1       2.558  -1.589  -1.162  1.00  0.00     0.043 C   
ATOM     28  C17 UNL     1       3.823  -1.167  -0.407  1.00  0.00     0.010 C   
ATOM     29  C20 UNL     1       2.650  -0.721  -2.422  1.00  0.00     0.010 C   
ATOM     30  C18 UNL     1       4.884  -1.010  -1.491  1.00  0.00     0.001 C   
ATOM     31  C19 UNL     1       4.129  -0.741  -2.790  1.00  0.00     0.001 C   
ENDBRANCH   1  27
TORSDOF 7
