REMARK SMILES CC(C)(C)[C@H]([NH2+]Cc1ccc2c(c1)OCO2)c1cn(-c2ccc(CO)c(F)c2)nn1
REMARK SMILES IDX 17 1 18 2 19 3 29 4 30 5 5 6 2 7 1 8 3 9 4 10 6 11 7 14 8 15
REMARK SMILES IDX 9 16 13 17 10 18 12 19 11 20 14 21 16 22 15 23 20 24 21 25
REMARK SMILES IDX 28 26 22 27 26 28 23 29 27 30 24 31 25 32
REMARK H PARENT 6 12 6 13 25 33
ROOT
ATOM     1   C14 UNL     1      -1.315  -0.413  -0.848  1.00  0.00     0.128 A   
ATOM     2   C15 UNL     1      -0.350  -1.376  -1.045  1.00  0.00     0.135 A   
ATOM     3   N2  UNL     1       0.712  -0.702  -1.615  1.00  0.00    -0.181 N   
ATOM     4   N3  UNL     1       0.348   0.589  -1.829  1.00  0.00    -0.071 NA  
ATOM     5   N4  UNL     1      -0.870   0.777  -1.349  1.00  0.00    -0.131 NA  
ENDROOT
BRANCH   1   6
ATOM     6   C5  UNL     1      -2.610  -0.457  -0.092  1.00  0.00     0.120 C   
BRANCH   6   7
ATOM     7   C2  UNL     1      -3.883  -0.577  -0.999  1.00  0.00     0.010 C   
ATOM     8   C1  UNL     1      -4.107   0.663  -1.887  1.00  0.00     0.017 C   
ATOM     9   C3  UNL     1      -3.764  -1.816  -1.916  1.00  0.00     0.017 C   
ATOM     10  C4  UNL     1      -5.141  -0.785  -0.124  1.00  0.00     0.017 C   
ENDBRANCH   6   7
BRANCH   6  11
ATOM     11  N1  UNL     1      -2.691   0.779   0.789  1.00  0.00     0.250 N   
ATOM     12  H11 UNL     1      -2.184   1.522   0.282  1.00  0.00     0.199 HD  
ATOM     13  H12 UNL     1      -3.654   1.113   0.875  1.00  0.00     0.199 HD  
BRANCH  11  14
ATOM     14  C6  UNL     1      -2.102   0.665   2.159  1.00  0.00     0.164 C   
BRANCH  14  15
ATOM     15  C7  UNL     1      -0.615   0.441   2.167  1.00  0.00    -0.002 A   
ATOM     16  C8  UNL     1       0.268   1.501   1.851  1.00  0.00     0.012 A   
ATOM     17  C12 UNL     1      -0.091  -0.839   2.421  1.00  0.00     0.045 A   
ATOM     18  C9  UNL     1       1.648   1.288   1.763  1.00  0.00     0.037 A   
ATOM     19  C11 UNL     1       1.273  -1.018   2.313  1.00  0.00     0.109 A   
ATOM     20  C10 UNL     1       2.118   0.015   1.992  1.00  0.00     0.108 A   
ATOM     21  O1  UNL     1       1.931  -2.196   2.473  1.00  0.00    -0.316 OA  
ATOM     22  O2  UNL     1       3.416  -0.380   1.921  1.00  0.00    -0.316 OA  
ATOM     23  C13 UNL     1       3.299  -1.778   2.256  1.00  0.00     0.337 C   
ENDBRANCH  14  15
ENDBRANCH  11  14
ENDBRANCH   6  11
ENDBRANCH   1   6
BRANCH   3  24
ATOM     24  C16 UNL     1       2.016  -1.175  -1.901  1.00  0.00     0.060 A   
ATOM     25  C17 UNL     1       2.374  -2.506  -1.647  1.00  0.00     0.026 A   
ATOM     26  C22 UNL     1       2.970  -0.292  -2.421  1.00  0.00     0.065 A   
ATOM     27  C18 UNL     1       3.681  -2.940  -1.900  1.00  0.00     0.011 A   
ATOM     28  C21 UNL     1       4.267  -0.741  -2.662  1.00  0.00     0.130 A   
ATOM     29  C19 UNL     1       4.649  -2.056  -2.394  1.00  0.00     0.013 A   
ATOM     30  F1  UNL     1       5.162   0.122  -3.163  1.00  0.00    -0.207 F   
BRANCH  29  31
ATOM     31  C20 UNL     1       6.059  -2.487  -2.692  1.00  0.00     0.194 C   
BRANCH  31  32
ATOM     32  O3  UNL     1       6.391  -3.668  -1.969  1.00  0.00    -0.392 OA  
ATOM     33  H25 UNL     1       7.313  -3.879  -2.195  1.00  0.00     0.211 HD  
ENDBRANCH  31  32
ENDBRANCH  29  31
ENDBRANCH   3  24
TORSDOF 8
