REMARK SMILES Cc1cccnc1[C@@H](CO)n1cc([C@@H]([NH2+]Cc2ccc3c(c2)OCO3)C2CCCC2)nn1
REMARK SMILES IDX 11 1 12 2 13 3 31 4 32 5 8 7 7 8 2 9 3 10 4 11 6 12 5 13
REMARK SMILES IDX 1 14 9 15 10 16 14 18 15 19 16 22 17 23 18 24 22 25 19 26
REMARK SMILES IDX 21 27 20 28 23 29 25 30 24 31 26 32 27 33 30 34 28 35 29 36
REMARK H PARENT 12 6 10 17 15 20 15 21
ROOT
ATOM     1   N2  UNL     1      -1.341   1.029  -2.709  1.00  0.00    -0.201 N   
ATOM     2   C9  UNL     1      -0.789   0.144  -1.818  1.00  0.00     0.046 A   
ATOM     3   C10 UNL     1       0.495   0.611  -1.634  1.00  0.00     0.127 A   
ATOM     4   N4  UNL     1       0.699   1.695  -2.443  1.00  0.00    -0.132 NA  
ATOM     5   N5  UNL     1      -0.425   1.939  -3.099  1.00  0.00    -0.075 NA  
ATOM     6   H11 UNL     1      -1.368  -0.648  -1.363  1.00  0.00     0.083 HD  
ENDROOT
BRANCH   1   7
ATOM     7   C7  UNL     1      -2.741   1.195  -3.085  1.00  0.00     0.174 C   
BRANCH   7   8
ATOM     8   C6  UNL     1      -3.360  -0.135  -3.483  1.00  0.00     0.068 A   
ATOM     9   C2  UNL     1      -3.235  -0.650  -4.783  1.00  0.00    -0.027 A   
ATOM     10  C3  UNL     1      -3.845  -1.879  -5.061  1.00  0.00     0.007 A   
ATOM     11  C4  UNL     1      -4.537  -2.560  -4.068  1.00  0.00     0.020 A   
ATOM     12  N1  UNL     1      -4.016  -0.813  -2.495  1.00  0.00    -0.259 NA  
ATOM     13  C5  UNL     1      -4.594  -1.994  -2.811  1.00  0.00     0.111 A   
ATOM     14  C1  UNL     1      -2.495   0.063  -5.878  1.00  0.00     0.046 C   
ENDBRANCH   7   8
BRANCH   7  15
ATOM     15  C8  UNL     1      -3.507   1.919  -1.955  1.00  0.00     0.187 C   
BRANCH  15  16
ATOM     16  O1  UNL     1      -3.487   1.205  -0.710  1.00  0.00    -0.394 OA  
ATOM     17  H10 UNL     1      -3.970   0.366  -0.899  1.00  0.00     0.210 HD  
ENDBRANCH  15  16
ENDBRANCH   7  15
ENDBRANCH   1   7
BRANCH   3  18
ATOM     18  C11 UNL     1       1.531   0.213  -0.637  1.00  0.00     0.117 C   
BRANCH  18  19
ATOM     19  N3  UNL     1       1.043   0.517   0.760  1.00  0.00     0.249 N   
ATOM     20  H13 UNL     1       1.697   0.161   1.461  1.00  0.00     0.199 HD  
ATOM     21  H14 UNL     1       0.156   0.023   0.914  1.00  0.00     0.199 HD  
BRANCH  19  22
ATOM     22  C12 UNL     1       0.815   1.966   1.054  1.00  0.00     0.164 C   
BRANCH  22  23
ATOM     23  C13 UNL     1       0.142   2.112   2.391  1.00  0.00    -0.002 A   
ATOM     24  C14 UNL     1      -1.272   2.126   2.470  1.00  0.00     0.012 A   
ATOM     25  C18 UNL     1       0.902   2.155   3.571  1.00  0.00     0.045 A   
ATOM     26  C15 UNL     1      -1.922   2.192   3.706  1.00  0.00     0.037 A   
ATOM     27  C17 UNL     1       0.229   2.220   4.774  1.00  0.00     0.109 A   
ATOM     28  C16 UNL     1      -1.143   2.236   4.840  1.00  0.00     0.108 A   
ATOM     29  O2  UNL     1       0.809   2.262   6.001  1.00  0.00    -0.316 OA  
ATOM     30  O3  UNL     1      -1.600   2.290   6.117  1.00  0.00    -0.316 OA  
ATOM     31  C19 UNL     1      -0.359   2.340   6.851  1.00  0.00     0.337 C   
ENDBRANCH  22  23
ENDBRANCH  19  22
ENDBRANCH  18  19
BRANCH  18  32
ATOM     32  C20 UNL     1       1.896  -1.280  -0.719  1.00  0.00     0.043 C   
ATOM     33  C21 UNL     1       3.018  -1.706   0.236  1.00  0.00     0.010 C   
ATOM     34  C24 UNL     1       2.463  -1.691  -2.079  1.00  0.00     0.010 C   
ATOM     35  C22 UNL     1       3.633  -2.962  -0.381  1.00  0.00     0.001 C   
ATOM     36  C23 UNL     1       3.089  -3.049  -1.803  1.00  0.00     0.001 C   
ENDBRANCH  18  32
ENDBRANCH   3  18
TORSDOF 9
