REMARK SMILES Cc1cccnc1[C@H](CO)n1cc([C@@H]([NH2+]Cc2ccc3c(c2)OCO3)C2CCCC2)nn1
REMARK SMILES IDX 11 1 12 2 13 3 31 4 32 5 8 7 7 8 2 9 3 10 4 11 6 12 5 13
REMARK SMILES IDX 1 14 9 15 10 16 14 18 15 19 16 22 17 23 18 24 22 25 19 26
REMARK SMILES IDX 21 27 20 28 23 29 25 30 24 31 26 32 27 33 30 34 28 35 29 36
REMARK H PARENT 12 6 10 17 15 20 15 21
ROOT
ATOM     1   N2  UNL     1       1.188  -1.498  -1.393  1.00  0.00    -0.201 N   
ATOM     2   C9  UNL     1       0.813  -0.658  -0.378  1.00  0.00     0.046 A   
ATOM     3   C10 UNL     1      -0.556  -0.770  -0.336  1.00  0.00     0.127 A   
ATOM     4   N4  UNL     1      -0.968  -1.654  -1.300  1.00  0.00    -0.132 NA  
ATOM     5   N5  UNL     1       0.103  -2.085  -1.946  1.00  0.00    -0.075 NA  
ATOM     6   H11 UNL     1       1.531  -0.067   0.176  1.00  0.00     0.083 HD  
ENDROOT
BRANCH   1   7
ATOM     7   C7  UNL     1       2.518  -1.753  -1.937  1.00  0.00     0.174 C   
BRANCH   7   8
ATOM     8   C6  UNL     1       3.496  -2.098  -0.823  1.00  0.00     0.068 A   
ATOM     9   C2  UNL     1       3.596  -3.396  -0.297  1.00  0.00    -0.027 A   
ATOM     10  C3  UNL     1       4.521  -3.618   0.733  1.00  0.00     0.007 A   
ATOM     11  C4  UNL     1       5.301  -2.573   1.211  1.00  0.00     0.020 A   
ATOM     12  N1  UNL     1       4.246  -1.063  -0.339  1.00  0.00    -0.259 NA  
ATOM     13  C5  UNL     1       5.130  -1.324   0.650  1.00  0.00     0.111 A   
ATOM     14  C1  UNL     1       2.768  -4.546  -0.796  1.00  0.00     0.046 C   
ENDBRANCH   7   8
BRANCH   7  15
ATOM     15  C8  UNL     1       2.978  -0.580  -2.823  1.00  0.00     0.187 C   
BRANCH  15  16
ATOM     16  O1  UNL     1       3.074   0.659  -2.115  1.00  0.00    -0.394 OA  
ATOM     17  H10 UNL     1       3.750   0.506  -1.416  1.00  0.00     0.210 HD  
ENDBRANCH  15  16
ENDBRANCH   7  15
ENDBRANCH   1   7
BRANCH   3  18
ATOM     18  C11 UNL     1      -1.568  -0.056   0.496  1.00  0.00     0.117 C   
BRANCH  18  19
ATOM     19  N3  UNL     1      -2.733   0.365  -0.376  1.00  0.00     0.249 N   
ATOM     20  H13 UNL     1      -3.512   0.694   0.201  1.00  0.00     0.199 HD  
ATOM     21  H14 UNL     1      -3.050  -0.482  -0.868  1.00  0.00     0.199 HD  
BRANCH  19  22
ATOM     22  C12 UNL     1      -2.434   1.403  -1.409  1.00  0.00     0.164 C   
BRANCH  22  23
ATOM     23  C13 UNL     1      -2.132   2.746  -0.806  1.00  0.00    -0.002 A   
ATOM     24  C14 UNL     1      -0.805   3.238  -0.788  1.00  0.00     0.012 A   
ATOM     25  C18 UNL     1      -3.160   3.507  -0.221  1.00  0.00     0.045 A   
ATOM     26  C15 UNL     1      -0.500   4.463  -0.184  1.00  0.00     0.037 A   
ATOM     27  C17 UNL     1      -2.824   4.709   0.368  1.00  0.00     0.109 A   
ATOM     28  C16 UNL     1      -1.532   5.173   0.390  1.00  0.00     0.108 A   
ATOM     29  O2  UNL     1      -3.689   5.549   0.995  1.00  0.00    -0.316 OA  
ATOM     30  O3  UNL     1      -1.420   6.366   1.031  1.00  0.00    -0.316 OA  
ATOM     31  C19 UNL     1      -2.799   6.626   1.370  1.00  0.00     0.337 C   
ENDBRANCH  22  23
ENDBRANCH  19  22
ENDBRANCH  18  19
BRANCH  18  32
ATOM     32  C20 UNL     1      -2.103  -0.945   1.635  1.00  0.00     0.043 C   
ATOM     33  C21 UNL     1      -1.025  -1.357   2.642  1.00  0.00     0.010 C   
ATOM     34  C24 UNL     1      -3.147  -0.265   2.529  1.00  0.00     0.010 C   
ATOM     35  C22 UNL     1      -1.832  -1.865   3.826  1.00  0.00     0.001 C   
ATOM     36  C23 UNL     1      -3.039  -0.939   3.898  1.00  0.00     0.001 C   
ENDBRANCH  18  32
ENDBRANCH   3  18
TORSDOF 9
