REMARK SMILES c1cc(Cn2cc([C@@H]([NH2+]Cc3ccc4c(c3)OCO4)C3CCCCC3)nn2)c2cc[nH]c2c1
REMARK SMILES IDX 5 1 6 2 7 3 26 4 27 5 4 7 3 8 1 9 2 10 33 11 32 12 28 13
REMARK SMILES IDX 31 14 29 15 30 16 8 18 9 19 10 22 11 23 12 24 16 25 13 26
REMARK SMILES IDX 15 27 14 28 17 29 19 30 18 31 20 32 21 33 25 34 22 35 24 36
REMARK SMILES IDX 23 37
REMARK H PARENT 6 6 31 17 9 20 9 21
ROOT
ATOM     1   N1  UNL     1       2.607  -1.386   1.006  1.00  0.00    -0.208 N   
ATOM     2   C5  UNL     1       1.591  -1.284   0.093  1.00  0.00     0.046 A   
ATOM     3   C6  UNL     1       0.476  -1.693   0.789  1.00  0.00     0.127 A   
ATOM     4   N3  UNL     1       0.852  -2.092   2.047  1.00  0.00    -0.132 NA  
ATOM     5   N4  UNL     1       2.159  -1.923   2.159  1.00  0.00    -0.076 NA  
ATOM     6   H5  UNL     1       1.745  -0.891  -0.903  1.00  0.00     0.083 HD  
ENDROOT
BRANCH   1   7
ATOM     7   C4  UNL     1       4.006  -1.010   0.860  1.00  0.00     0.170 C   
BRANCH   7   8
ATOM     8   C3  UNL     1       4.154   0.373   0.271  1.00  0.00    -0.019 A   
ATOM     9   C1  UNL     1       4.907   1.784  -1.583  1.00  0.00     0.002 A   
ATOM     10  C2  UNL     1       4.758   0.529  -0.996  1.00  0.00     0.006 A   
ATOM     11  C26 UNL     1       4.467   2.938  -0.933  1.00  0.00     0.024 A   
ATOM     12  C25 UNL     1       3.877   2.786   0.325  1.00  0.00     0.037 A   
ATOM     13  C22 UNL     1       3.712   1.544   0.940  1.00  0.00     0.002 A   
ATOM     14  N5  UNL     1       3.376   3.740   1.183  1.00  0.00    -0.321 N   
ATOM     15  C23 UNL     1       3.084   1.790   2.197  1.00  0.00     0.025 A   
ATOM     16  C24 UNL     1       2.887   3.146   2.315  1.00  0.00     0.072 A   
ATOM     17  H29 UNL     1       3.383   4.735   1.002  1.00  0.00     0.152 HD  
ENDBRANCH   7   8
ENDBRANCH   1   7
BRANCH   3  18
ATOM     18  C7  UNL     1      -0.966  -1.745   0.396  1.00  0.00     0.117 C   
BRANCH  18  19
ATOM     19  N2  UNL     1      -1.728  -2.659   1.326  1.00  0.00     0.249 N   
ATOM     20  H7  UNL     1      -1.366  -2.464   2.271  1.00  0.00     0.199 HD  
ATOM     21  H8  UNL     1      -2.725  -2.433   1.336  1.00  0.00     0.199 HD  
BRANCH  19  22
ATOM     22  C8  UNL     1      -1.558  -4.122   1.087  1.00  0.00     0.164 C   
BRANCH  22  23
ATOM     23  C9  UNL     1      -2.234  -4.585  -0.173  1.00  0.00    -0.002 A   
ATOM     24  C10 UNL     1      -1.463  -5.000  -1.286  1.00  0.00     0.012 A   
ATOM     25  C14 UNL     1      -3.637  -4.589  -0.265  1.00  0.00     0.045 A   
ATOM     26  C11 UNL     1      -2.077  -5.403  -2.477  1.00  0.00     0.037 A   
ATOM     27  C13 UNL     1      -4.209  -4.989  -1.455  1.00  0.00     0.109 A   
ATOM     28  C12 UNL     1      -3.452  -5.383  -2.530  1.00  0.00     0.108 A   
ATOM     29  O1  UNL     1      -5.543  -5.042  -1.710  1.00  0.00    -0.316 OA  
ATOM     30  O2  UNL     1      -4.213  -5.736  -3.598  1.00  0.00    -0.316 OA  
ATOM     31  C15 UNL     1      -5.542  -5.543  -3.067  1.00  0.00     0.337 C   
ENDBRANCH  22  23
ENDBRANCH  19  22
ENDBRANCH  18  19
BRANCH  18  32
ATOM     32  C16 UNL     1      -1.611  -0.331   0.381  1.00  0.00     0.043 C   
ATOM     33  C17 UNL     1      -2.978  -0.334  -0.332  1.00  0.00     0.010 C   
ATOM     34  C21 UNL     1      -1.737   0.315   1.776  1.00  0.00     0.010 C   
ATOM     35  C18 UNL     1      -3.572   1.071  -0.411  1.00  0.00     0.001 C   
ATOM     36  C20 UNL     1      -2.336   1.718   1.691  1.00  0.00     0.001 C   
ATOM     37  C19 UNL     1      -3.679   1.715   0.968  1.00  0.00     0.000 C   
ENDBRANCH  18  32
ENDBRANCH   3  18
TORSDOF 7
