REMARK SMILES CCOc1nccc(-n2cc([C@@H]([NH2+]Cc3ccc4c(c3)OCO4)C(C)C)nn2)c1F
REMARK SMILES IDX 9 1 10 2 11 3 27 4 28 5 8 6 4 7 5 8 29 9 6 10 7 11 30 12
REMARK SMILES IDX 3 13 2 14 1 15 12 16 13 17 14 20 15 21 16 22 20 23 17 24
REMARK SMILES IDX 19 25 18 26 21 27 23 28 22 29 24 30 25 31 26 32
REMARK H PARENT 13 18 13 19
ROOT
ATOM     1   N2  UNL     1      -1.197   2.172  -0.323  1.00  0.00    -0.177 N   
ATOM     2   C7  UNL     1      -1.404   0.813  -0.463  1.00  0.00     0.135 A   
ATOM     3   C8  UNL     1      -0.588   0.221   0.475  1.00  0.00     0.127 A   
ATOM     4   N4  UNL     1       0.098   1.194   1.144  1.00  0.00    -0.131 NA  
ATOM     5   N5  UNL     1      -0.266   2.365   0.651  1.00  0.00    -0.071 NA  
ENDROOT
BRANCH   1   6
ATOM     6   C6  UNL     1      -1.776   3.261  -1.012  1.00  0.00     0.099 A   
ATOM     7   C3  UNL     1      -3.240   4.189  -2.659  1.00  0.00     0.205 A   
ATOM     8   N1  UNL     1      -2.893   5.459  -2.348  1.00  0.00    -0.230 NA  
ATOM     9   C21 UNL     1      -2.712   3.071  -2.025  1.00  0.00     0.196 A   
ATOM     10  C4  UNL     1      -1.986   5.622  -1.364  1.00  0.00     0.116 A   
ATOM     11  C5  UNL     1      -1.404   4.570  -0.674  1.00  0.00     0.049 A   
ATOM     12  F1  UNL     1      -3.110   1.847  -2.401  1.00  0.00    -0.200 F   
BRANCH   7  13
ATOM     13  O1  UNL     1      -4.164   3.958  -3.660  1.00  0.00    -0.327 OA  
BRANCH  13  14
ATOM     14  C2  UNL     1      -4.668   5.154  -4.260  1.00  0.00     0.166 C   
ATOM     15  C1  UNL     1      -5.668   4.752  -5.329  1.00  0.00     0.035 C   
ENDBRANCH  13  14
ENDBRANCH   7  13
ENDBRANCH   1   6
BRANCH   3  16
ATOM     16  C9  UNL     1      -0.361  -1.221   0.814  1.00  0.00     0.117 C   
BRANCH  16  17
ATOM     17  N3  UNL     1       0.966  -1.402   1.499  1.00  0.00     0.249 N   
ATOM     18  H10 UNL     1       1.055  -0.641   2.190  1.00  0.00     0.199 HD  
ATOM     19  H11 UNL     1       1.009  -2.276   2.032  1.00  0.00     0.199 HD  
BRANCH  17  20
ATOM     20  C10 UNL     1       2.158  -1.328   0.609  1.00  0.00     0.164 C   
BRANCH  20  21
ATOM     21  C11 UNL     1       3.420  -1.421   1.418  1.00  0.00    -0.002 A   
ATOM     22  C12 UNL     1       3.993  -0.253   1.977  1.00  0.00     0.012 A   
ATOM     23  C16 UNL     1       4.007  -2.671   1.676  1.00  0.00     0.045 A   
ATOM     24  C13 UNL     1       5.142  -0.325   2.771  1.00  0.00     0.037 A   
ATOM     25  C15 UNL     1       5.138  -2.707   2.464  1.00  0.00     0.109 A   
ATOM     26  C14 UNL     1       5.691  -1.568   2.996  1.00  0.00     0.108 A   
ATOM     27  O2  UNL     1       5.825  -3.828   2.808  1.00  0.00    -0.316 OA  
ATOM     28  O3  UNL     1       6.796  -1.828   3.740  1.00  0.00    -0.316 OA  
ATOM     29  C17 UNL     1       6.894  -3.261   3.601  1.00  0.00     0.337 C   
ENDBRANCH  20  21
ENDBRANCH  17  20
ENDBRANCH  16  17
BRANCH  16  30
ATOM     30  C18 UNL     1      -1.503  -1.799   1.692  1.00  0.00     0.037 C   
ATOM     31  C19 UNL     1      -1.444  -3.330   1.762  1.00  0.00     0.014 C   
ATOM     32  C20 UNL     1      -1.551  -1.217   3.110  1.00  0.00     0.014 C   
ENDBRANCH  16  30
ENDBRANCH   3  16
TORSDOF 8
