REMARK SMILES CCc1cccc([C@H](CO)n2cc([C@@H]([NH2+]Cc3ccc4c(c3)OCO4)C3CCCC3)nn2)c1
REMARK SMILES IDX 11 1 12 2 13 3 31 4 32 5 8 7 7 8 3 9 4 10 33 11 5 12 6 13
REMARK SMILES IDX 2 14 1 15 9 16 10 17 14 19 15 20 16 23 17 24 18 25 22 26
REMARK SMILES IDX 19 27 21 28 20 29 23 30 25 31 24 32 26 33 27 34 30 35 28 36
REMARK SMILES IDX 29 37
REMARK H PARENT 12 6 10 18 15 21 15 22
ROOT
ATOM     1   N1  UNL     1      -1.865   1.150  -1.804  1.00  0.00    -0.202 N   
ATOM     2   C10 UNL     1      -1.210   1.724  -0.746  1.00  0.00     0.046 A   
ATOM     3   C11 UNL     1       0.120   1.482  -1.004  1.00  0.00     0.127 A   
ATOM     4   N3  UNL     1       0.237   0.812  -2.192  1.00  0.00    -0.132 NA  
ATOM     5   N4  UNL     1      -0.981   0.598  -2.664  1.00  0.00    -0.075 NA  
ATOM     6   H13 UNL     1      -1.737   2.190   0.076  1.00  0.00     0.083 HD  
ENDROOT
BRANCH   1   7
ATOM     7   C8  UNL     1      -3.309   0.971  -1.958  1.00  0.00     0.155 C   
BRANCH   7   8
ATOM     8   C7  UNL     1      -3.699  -0.410  -1.451  1.00  0.00    -0.023 A   
ATOM     9   C3  UNL     1      -3.811  -2.838  -1.726  1.00  0.00    -0.048 A   
ATOM     10  C4  UNL     1      -4.380  -2.947  -0.453  1.00  0.00     0.004 A   
ATOM     11  C26 UNL     1      -3.475  -1.567  -2.217  1.00  0.00     0.009 A   
ATOM     12  C5  UNL     1      -4.599  -1.810   0.321  1.00  0.00     0.001 A   
ATOM     13  C6  UNL     1      -4.261  -0.550  -0.172  1.00  0.00     0.006 A   
BRANCH   9  14
ATOM     14  C2  UNL     1      -3.592  -4.067  -2.573  1.00  0.00     0.032 C   
ATOM     15  C1  UNL     1      -4.778  -4.344  -3.484  1.00  0.00     0.009 C   
ENDBRANCH   9  14
ENDBRANCH   7   8
BRANCH   7  16
ATOM     16  C9  UNL     1      -3.795   1.283  -3.383  1.00  0.00     0.185 C   
BRANCH  16  17
ATOM     17  O1  UNL     1      -3.756   2.693  -3.614  1.00  0.00    -0.394 OA  
ATOM     18  H12 UNL     1      -4.067   2.842  -4.526  1.00  0.00     0.210 HD  
ENDBRANCH  16  17
ENDBRANCH   7  16
ENDBRANCH   1   7
BRANCH   3  19
ATOM     19  C12 UNL     1       1.332   1.740  -0.176  1.00  0.00     0.117 C   
BRANCH  19  20
ATOM     20  N2  UNL     1       2.232   0.518  -0.165  1.00  0.00     0.249 N   
ATOM     21  H15 UNL     1       3.085   0.715   0.362  1.00  0.00     0.199 HD  
ATOM     22  H16 UNL     1       2.503   0.349  -1.143  1.00  0.00     0.199 HD  
BRANCH  20  23
ATOM     23  C13 UNL     1       1.632  -0.756   0.344  1.00  0.00     0.164 C   
BRANCH  23  24
ATOM     24  C14 UNL     1       1.084  -0.649   1.740  1.00  0.00    -0.002 A   
ATOM     25  C15 UNL     1       1.951  -0.487   2.846  1.00  0.00     0.012 A   
ATOM     26  C19 UNL     1      -0.307  -0.679   1.950  1.00  0.00     0.045 A   
ATOM     27  C16 UNL     1       1.442  -0.343   4.141  1.00  0.00     0.037 A   
ATOM     28  C18 UNL     1      -0.775  -0.529   3.237  1.00  0.00     0.109 A   
ATOM     29  C17 UNL     1       0.074  -0.364   4.303  1.00  0.00     0.108 A   
ATOM     30  O2  UNL     1      -2.083  -0.515   3.608  1.00  0.00    -0.316 OA  
ATOM     31  O3  UNL     1      -0.591  -0.233   5.480  1.00  0.00    -0.316 OA  
ATOM     32  C20 UNL     1      -1.959  -0.366   5.041  1.00  0.00     0.337 C   
ENDBRANCH  23  24
ENDBRANCH  20  23
ENDBRANCH  19  20
BRANCH  19  33
ATOM     33  C21 UNL     1       2.148   2.936  -0.706  1.00  0.00     0.043 C   
ATOM     34  C22 UNL     1       3.397   3.263   0.121  1.00  0.00     0.010 C   
ATOM     35  C25 UNL     1       1.383   4.262  -0.660  1.00  0.00     0.010 C   
ATOM     36  C23 UNL     1       3.718   4.724  -0.188  1.00  0.00     0.001 C   
ATOM     37  C24 UNL     1       2.472   5.309  -0.847  1.00  0.00     0.001 C   
ENDBRANCH  19  33
ENDBRANCH   3  19
TORSDOF 10
