REMARK SMILES CCc1cccc([C@@H](CO)n2cc([C@@H]([NH2+]Cc3ccc4c(c3)OCO4)C3CCCC3)nn2)c1
REMARK SMILES IDX 11 1 12 2 13 3 31 4 32 5 8 7 7 8 3 9 4 10 33 11 5 12 6 13
REMARK SMILES IDX 2 14 1 15 9 16 10 17 14 19 15 20 16 23 17 24 18 25 22 26
REMARK SMILES IDX 19 27 21 28 20 29 23 30 25 31 24 32 26 33 27 34 30 35 28 36
REMARK SMILES IDX 29 37
REMARK H PARENT 12 6 10 18 15 21 15 22
ROOT
ATOM     1   N1  UNL     1       2.840  -0.068  -2.119  1.00  0.00    -0.202 N   
ATOM     2   C10 UNL     1       2.050  -0.219  -1.010  1.00  0.00     0.046 A   
ATOM     3   C11 UNL     1       1.014  -1.015  -1.439  1.00  0.00     0.127 A   
ATOM     4   N3  UNL     1       1.187  -1.304  -2.769  1.00  0.00    -0.132 NA  
ATOM     5   N4  UNL     1       2.302  -0.720  -3.176  1.00  0.00    -0.075 NA  
ATOM     6   H13 UNL     1       2.307   0.227  -0.059  1.00  0.00     0.083 HD  
ENDROOT
BRANCH   1   7
ATOM     7   C8  UNL     1       4.084   0.685  -2.271  1.00  0.00     0.155 C   
BRANCH   7   8
ATOM     8   C7  UNL     1       3.845   2.163  -1.978  1.00  0.00    -0.023 A   
ATOM     9   C3  UNL     1       3.012   4.332  -2.770  1.00  0.00    -0.048 A   
ATOM     10  C4  UNL     1       3.330   4.896  -1.531  1.00  0.00     0.004 A   
ATOM     11  C26 UNL     1       3.263   2.967  -2.980  1.00  0.00     0.009 A   
ATOM     12  C5  UNL     1       3.897   4.113  -0.527  1.00  0.00     0.001 A   
ATOM     13  C6  UNL     1       4.153   2.758  -0.746  1.00  0.00     0.006 A   
BRANCH   9  14
ATOM     14  C2  UNL     1       2.397   5.176  -3.859  1.00  0.00     0.032 C   
ATOM     15  C1  UNL     1       0.877   5.137  -3.819  1.00  0.00     0.009 C   
ENDBRANCH   9  14
ENDBRANCH   7   8
BRANCH   7  16
ATOM     16  C9  UNL     1       5.261  -0.003  -1.546  1.00  0.00     0.185 C   
BRANCH  16  17
ATOM     17  O1  UNL     1       5.035  -0.197  -0.148  1.00  0.00    -0.394 OA  
ATOM     18  H12 UNL     1       5.853  -0.579   0.220  1.00  0.00     0.210 HD  
ENDBRANCH  16  17
ENDBRANCH   7  16
ENDBRANCH   1   7
BRANCH   3  19
ATOM     19  C12 UNL     1      -0.196  -1.527  -0.729  1.00  0.00     0.117 C   
BRANCH  19  20
ATOM     20  N2  UNL     1      -1.375  -1.458  -1.675  1.00  0.00     0.249 N   
ATOM     21  H15 UNL     1      -1.019  -1.776  -2.588  1.00  0.00     0.199 HD  
ATOM     22  H16 UNL     1      -2.111  -2.112  -1.399  1.00  0.00     0.199 HD  
BRANCH  20  23
ATOM     23  C13 UNL     1      -1.978  -0.106  -1.863  1.00  0.00     0.164 C   
BRANCH  23  24
ATOM     24  C14 UNL     1      -2.919   0.244  -0.743  1.00  0.00    -0.002 A   
ATOM     25  C15 UNL     1      -4.230  -0.294  -0.723  1.00  0.00     0.012 A   
ATOM     26  C19 UNL     1      -2.492   1.065   0.316  1.00  0.00     0.045 A   
ATOM     27  C16 UNL     1      -5.101  -0.025   0.339  1.00  0.00     0.037 A   
ATOM     28  C18 UNL     1      -3.374   1.306   1.350  1.00  0.00     0.109 A   
ATOM     29  C17 UNL     1      -4.640   0.775   1.364  1.00  0.00     0.108 A   
ATOM     30  O2  UNL     1      -3.114   2.056   2.454  1.00  0.00    -0.316 OA  
ATOM     31  O3  UNL     1      -5.343   1.135   2.469  1.00  0.00    -0.316 OA  
ATOM     32  C20 UNL     1      -4.369   1.947   3.163  1.00  0.00     0.337 C   
ENDBRANCH  23  24
ENDBRANCH  20  23
ENDBRANCH  19  20
BRANCH  19  33
ATOM     33  C21 UNL     1      -0.023  -2.988  -0.268  1.00  0.00     0.043 C   
ATOM     34  C22 UNL     1      -1.213  -3.539   0.528  1.00  0.00     0.010 C   
ATOM     35  C25 UNL     1       1.125  -3.177   0.731  1.00  0.00     0.010 C   
ATOM     36  C23 UNL     1      -0.657  -4.753   1.263  1.00  0.00     0.001 C   
ATOM     37  C24 UNL     1       0.849  -4.531   1.373  1.00  0.00     0.001 C   
ENDBRANCH  19  33
ENDBRANCH   3  19
TORSDOF 10
