REMARK SMILES COc1cc(CCn2cc([C@@H]([NH2+]Cc3ccc4c(c3)OCO4)C(C)C)nn2)cc(C)n1
REMARK SMILES IDX 8 1 9 2 10 3 26 4 27 5 7 7 6 8 5 9 3 10 4 11 31 12 29 13
REMARK SMILES IDX 28 14 30 15 2 16 1 17 11 18 12 19 13 22 14 23 15 24 19 25
REMARK SMILES IDX 16 26 18 27 17 28 20 29 22 30 21 31 23 32 24 33 25 34
REMARK H PARENT 9 6 12 20 12 21
ROOT
ATOM     1   N1  UNL     1      -1.808  -0.621   4.078  1.00  0.00    -0.212 N   
ATOM     2   C7  UNL     1      -1.185   0.494   3.590  1.00  0.00     0.045 A   
ATOM     3   C8  UNL     1      -1.792   0.705   2.373  1.00  0.00     0.127 A   
ATOM     4   N3  UNL     1      -2.773  -0.236   2.189  1.00  0.00    -0.132 NA  
ATOM     5   N4  UNL     1      -2.774  -1.040   3.241  1.00  0.00    -0.076 NA  
ATOM     6   H9  UNL     1      -0.359   0.969   4.102  1.00  0.00     0.083 HD  
ENDROOT
BRANCH   1   7
ATOM     7   C6  UNL     1      -1.433  -1.412   5.234  1.00  0.00     0.139 C   
BRANCH   7   8
ATOM     8   C5  UNL     1      -0.712  -2.714   4.859  1.00  0.00     0.057 C   
BRANCH   8   9
ATOM     9   C4  UNL     1       0.503  -2.481   3.992  1.00  0.00    -0.040 A   
ATOM     10  C2  UNL     1       1.518  -2.321   1.831  1.00  0.00     0.167 A   
ATOM     11  C3  UNL     1       0.417  -2.640   2.606  1.00  0.00     0.058 A   
ATOM     12  N5  UNL     1       2.672  -1.841   2.332  1.00  0.00    -0.230 NA  
ATOM     13  C22 UNL     1       2.768  -1.735   3.679  1.00  0.00     0.041 A   
ATOM     14  C21 UNL     1       1.710  -2.036   4.536  1.00  0.00     0.027 A   
ATOM     15  C23 UNL     1       4.076  -1.258   4.239  1.00  0.00     0.067 C   
BRANCH  10  16
ATOM     16  O1  UNL     1       1.356  -2.415   0.463  1.00  0.00    -0.333 OA  
ATOM     17  C1  UNL     1       2.605  -2.469  -0.225  1.00  0.00     0.205 C   
ENDBRANCH  10  16
ENDBRANCH   8   9
ENDBRANCH   7   8
ENDBRANCH   1   7
BRANCH   3  18
ATOM     18  C9  UNL     1      -1.478   1.676   1.280  1.00  0.00     0.117 C   
BRANCH  18  19
ATOM     19  N2  UNL     1      -1.703   1.045  -0.067  1.00  0.00     0.249 N   
ATOM     20  H11 UNL     1      -1.733   1.741  -0.817  1.00  0.00     0.199 HD  
ATOM     21  H12 UNL     1      -2.631   0.598  -0.042  1.00  0.00     0.199 HD  
BRANCH  19  22
ATOM     22  C10 UNL     1      -0.722  -0.019  -0.434  1.00  0.00     0.164 C   
BRANCH  22  23
ATOM     23  C11 UNL     1      -1.018  -0.552  -1.808  1.00  0.00    -0.002 A   
ATOM     24  C12 UNL     1      -1.920  -1.631  -1.971  1.00  0.00     0.012 A   
ATOM     25  C16 UNL     1      -0.443   0.050  -2.940  1.00  0.00     0.045 A   
ATOM     26  C13 UNL     1      -2.240  -2.111  -3.245  1.00  0.00     0.037 A   
ATOM     27  C15 UNL     1      -0.780  -0.449  -4.181  1.00  0.00     0.109 A   
ATOM     28  C14 UNL     1      -1.654  -1.498  -4.330  1.00  0.00     0.108 A   
ATOM     29  O2  UNL     1      -0.317   0.015  -5.371  1.00  0.00    -0.316 OA  
ATOM     30  O3  UNL     1      -1.850  -1.826  -5.634  1.00  0.00    -0.316 OA  
ATOM     31  C17 UNL     1      -0.976  -0.885  -6.291  1.00  0.00     0.337 C   
ENDBRANCH  22  23
ENDBRANCH  19  22
ENDBRANCH  18  19
BRANCH  18  32
ATOM     32  C18 UNL     1      -2.290   2.991   1.407  1.00  0.00     0.037 C   
ATOM     33  C19 UNL     1      -3.792   2.829   1.143  1.00  0.00     0.014 C   
ATOM     34  C20 UNL     1      -1.726   4.093   0.501  1.00  0.00     0.014 C   
ENDBRANCH  18  32
ENDBRANCH   3  18
TORSDOF 9
