REMARK SMILES CC(C)C[C@H]([NH2+]Cc1ccc2c(c1)OCO2)c1cn(Cc2csc(Cl)n2)nn1
REMARK SMILES IDX 17 1 18 2 19 3 27 4 28 5 5 7 4 8 2 9 1 10 3 11 6 12 7 15
REMARK SMILES IDX 8 16 9 17 13 18 10 19 12 20 11 21 14 22 16 23 15 24 20 25
REMARK SMILES IDX 21 26 22 27 26 28 23 29 24 30 25 31
REMARK H PARENT 18 6 6 13 6 14
ROOT
ATOM     1   C14 UNL     1      -0.610   0.162   1.143  1.00  0.00     0.127 A   
ATOM     2   C15 UNL     1      -0.963   0.158   2.473  1.00  0.00     0.046 A   
ATOM     3   N2  UNL     1      -0.909  -1.163   2.827  1.00  0.00    -0.206 N   
ATOM     4   N4  UNL     1      -0.556  -1.928   1.774  1.00  0.00    -0.076 NA  
ATOM     5   N5  UNL     1      -0.370  -1.127   0.737  1.00  0.00    -0.132 NA  
ATOM     6   H20 UNL     1      -1.204   0.935   3.187  1.00  0.00     0.083 HD  
ENDROOT
BRANCH   1   7
ATOM     7   C5  UNL     1      -0.389   1.285   0.186  1.00  0.00     0.114 C   
BRANCH   7   8
ATOM     8   C4  UNL     1      -1.564   1.473  -0.790  1.00  0.00     0.064 C   
BRANCH   8   9
ATOM     9   C2  UNL     1      -2.904   1.875  -0.136  1.00  0.00    -0.012 C   
ATOM     10  C1  UNL     1      -2.813   3.212   0.602  1.00  0.00     0.007 C   
ATOM     11  C3  UNL     1      -3.998   1.950  -1.206  1.00  0.00     0.007 C   
ENDBRANCH   8   9
ENDBRANCH   7   8
BRANCH   7  12
ATOM     12  N1  UNL     1       0.837   0.999  -0.649  1.00  0.00     0.249 N   
ATOM     13  H11 UNL     1       0.744   0.031  -0.993  1.00  0.00     0.199 HD  
ATOM     14  H12 UNL     1       0.872   1.599  -1.480  1.00  0.00     0.199 HD  
BRANCH  12  15
ATOM     15  C6  UNL     1       2.136   1.092   0.075  1.00  0.00     0.164 C   
BRANCH  15  16
ATOM     16  C7  UNL     1       3.269   0.699  -0.829  1.00  0.00    -0.002 A   
ATOM     17  C8  UNL     1       3.666  -0.657  -0.920  1.00  0.00     0.012 A   
ATOM     18  C12 UNL     1       3.902   1.661  -1.633  1.00  0.00     0.045 A   
ATOM     19  C9  UNL     1       4.691  -1.049  -1.787  1.00  0.00     0.037 A   
ATOM     20  C11 UNL     1       4.908   1.240  -2.478  1.00  0.00     0.109 A   
ATOM     21  C10 UNL     1       5.293  -0.076  -2.553  1.00  0.00     0.108 A   
ATOM     22  O1  UNL     1       5.618   2.038  -3.318  1.00  0.00    -0.316 OA  
ATOM     23  O2  UNL     1       6.296  -0.273  -3.447  1.00  0.00    -0.316 OA  
ATOM     24  C13 UNL     1       6.513   1.074  -3.919  1.00  0.00     0.337 C   
ENDBRANCH  15  16
ENDBRANCH  12  15
ENDBRANCH   7  12
ENDBRANCH   1   7
BRANCH   3  25
ATOM     25  C16 UNL     1      -1.151  -1.755   4.131  1.00  0.00     0.190 C   
BRANCH  25  26
ATOM     26  C17 UNL     1       0.101  -1.719   4.945  1.00  0.00     0.069 A   
ATOM     27  C18 UNL     1       0.838  -2.810   5.377  1.00  0.00     0.074 A   
ATOM     28  N3  UNL     1       0.613  -0.484   5.338  1.00  0.00    -0.232 NA  
ATOM     29  S1  UNL     1       2.194  -2.283   6.291  1.00  0.00    -0.064 S   
ATOM     30  C19 UNL     1       1.698  -0.679   6.049  1.00  0.00     0.167 A   
ATOM     31  CL1 UNL     1       2.614   0.617   6.692  1.00  0.00    -0.054 Cl  
ENDBRANCH  25  26
ENDBRANCH   3  25
TORSDOF 8
