REMARK SMILES [O-]N([O-])c1ccc(CCn2cc([C@@H]([NH2+]Cc3ccc4c(c3)OCO4)C3CCCC3)nn2)cc1
REMARK SMILES IDX 10 1 11 2 12 3 30 4 31 5 9 7 8 8 7 9 4 10 5 11 33 12 6 13
REMARK SMILES IDX 32 14 2 15 1 16 3 17 13 18 14 19 15 22 16 23 17 24 21 25
REMARK SMILES IDX 18 26 20 27 19 28 22 29 24 30 23 31 25 32 26 33 29 34 27 35
REMARK SMILES IDX 28 36
REMARK H PARENT 11 6 14 20 14 21
ROOT
ATOM     1   N2  UNL     1       4.192  -0.473   0.387  1.00  0.00    -0.212 N   
ATOM     2   C7  UNL     1       3.024  -0.685  -0.290  1.00  0.00     0.045 A   
ATOM     3   C8  UNL     1       2.515   0.581  -0.479  1.00  0.00     0.127 A   
ATOM     4   N4  UNL     1       3.373   1.497   0.076  1.00  0.00    -0.132 NA  
ATOM     5   N5  UNL     1       4.391   0.839   0.607  1.00  0.00    -0.076 NA  
ATOM     6   H7  UNL     1       2.676  -1.674  -0.553  1.00  0.00     0.083 HD  
ENDROOT
BRANCH   1   7
ATOM     7   C6  UNL     1       5.131  -1.460   0.881  1.00  0.00     0.139 C   
BRANCH   7   8
ATOM     8   C5  UNL     1       5.097  -1.615   2.404  1.00  0.00     0.057 C   
BRANCH   8   9
ATOM     9   C4  UNL     1       3.738  -2.030   2.922  1.00  0.00    -0.046 A   
ATOM     10  C1  UNL     1       1.178  -2.750   3.774  1.00  0.00     0.118 A   
ATOM     11  C2  UNL     1       2.012  -3.717   3.203  1.00  0.00     0.031 A   
ATOM     12  C24 UNL     1       1.616  -1.431   3.944  1.00  0.00     0.031 A   
ATOM     13  C3  UNL     1       3.292  -3.353   2.779  1.00  0.00     0.006 A   
ATOM     14  C23 UNL     1       2.896  -1.077   3.517  1.00  0.00     0.006 A   
BRANCH  10  15
ATOM     15  N1  UNL     1      -0.188  -3.105   4.159  1.00  0.00     0.092 N   
ATOM     16  O1  UNL     1      -0.430  -4.295   4.391  1.00  0.00    -0.138 OA  
ATOM     17  O2  UNL     1      -1.021  -2.187   4.190  1.00  0.00    -0.138 OA  
ENDBRANCH  10  15
ENDBRANCH   8   9
ENDBRANCH   7   8
ENDBRANCH   1   7
BRANCH   3  18
ATOM     18  C9  UNL     1       1.250   1.048  -1.126  1.00  0.00     0.117 C   
BRANCH  18  19
ATOM     19  N3  UNL     1       0.837   2.381  -0.549  1.00  0.00     0.249 N   
ATOM     20  H9  UNL     1       0.211   2.883  -1.183  1.00  0.00     0.199 HD  
ATOM     21  H10 UNL     1       1.701   2.939  -0.478  1.00  0.00     0.199 HD  
BRANCH  19  22
ATOM     22  C10 UNL     1       0.226   2.344   0.812  1.00  0.00     0.164 C   
BRANCH  22  23
ATOM     23  C11 UNL     1      -1.140   1.718   0.823  1.00  0.00    -0.002 A   
ATOM     24  C12 UNL     1      -1.354   0.483   1.480  1.00  0.00     0.012 A   
ATOM     25  C16 UNL     1      -2.215   2.345   0.168  1.00  0.00     0.045 A   
ATOM     26  C13 UNL     1      -2.613  -0.126   1.479  1.00  0.00     0.037 A   
ATOM     27  C15 UNL     1      -3.442   1.716   0.182  1.00  0.00     0.109 A   
ATOM     28  C14 UNL     1      -3.637   0.514   0.817  1.00  0.00     0.108 A   
ATOM     29  O3  UNL     1      -4.574   2.182  -0.406  1.00  0.00    -0.316 OA  
ATOM     30  O4  UNL     1      -4.916   0.072   0.708  1.00  0.00    -0.316 OA  
ATOM     31  C17 UNL     1      -5.519   1.150  -0.038  1.00  0.00     0.337 C   
ENDBRANCH  22  23
ENDBRANCH  19  22
ENDBRANCH  18  19
BRANCH  18  32
ATOM     32  C18 UNL     1       1.399   1.142  -2.658  1.00  0.00     0.043 C   
ATOM     33  C19 UNL     1       0.081   1.342  -3.415  1.00  0.00     0.010 C   
ATOM     34  C22 UNL     1       2.272   2.280  -3.190  1.00  0.00     0.010 C   
ATOM     35  C20 UNL     1       0.477   1.920  -4.775  1.00  0.00     0.001 C   
ATOM     36  C21 UNL     1       1.959   2.276  -4.680  1.00  0.00     0.001 C   
ENDBRANCH  18  32
ENDBRANCH   3  18
TORSDOF 9
