REMARK SMILES CC(C)C[C@H]([NH2+]Cc1ccc2c(c1)OCO2)c1cn(Cc2ccccc2[S+]([O-])[O-])nn1
REMARK SMILES IDX 17 1 18 2 19 3 30 4 31 5 5 7 4 8 2 9 1 10 3 11 6 12 7 15
REMARK SMILES IDX 8 16 9 17 13 18 10 19 12 20 11 21 14 22 16 23 15 24 20 25
REMARK SMILES IDX 21 26 22 27 26 28 23 29 25 30 24 31 27 32 28 33 29 34
REMARK H PARENT 18 6 6 13 6 14
ROOT
ATOM     1   C14 UNL     1       1.585   0.959   0.812  1.00  0.00     0.127 A   
ATOM     2   C15 UNL     1       1.023   0.930   2.070  1.00  0.00     0.046 A   
ATOM     3   N2  UNL     1       1.784  -0.009   2.707  1.00  0.00    -0.208 N   
ATOM     4   N3  UNL     1       2.962  -0.169   2.059  1.00  0.00    -0.076 NA  
ATOM     5   N4  UNL     1       2.828   0.387   0.863  1.00  0.00    -0.132 NA  
ATOM     6   H20 UNL     1       0.051   1.234   2.434  1.00  0.00     0.083 HD  
ENDROOT
BRANCH   1   7
ATOM     7   C5  UNL     1       0.931   1.250  -0.498  1.00  0.00     0.114 C   
BRANCH   7   8
ATOM     8   C4  UNL     1      -0.050   2.438  -0.428  1.00  0.00     0.064 C   
BRANCH   8   9
ATOM     9   C2  UNL     1      -0.699   2.870  -1.764  1.00  0.00    -0.012 C   
ATOM     10  C1  UNL     1       0.335   3.228  -2.833  1.00  0.00     0.007 C   
ATOM     11  C3  UNL     1      -1.625   4.066  -1.520  1.00  0.00     0.007 C   
ENDBRANCH   8   9
ENDBRANCH   7   8
BRANCH   7  12
ATOM     12  N1  UNL     1       0.211   0.033  -0.990  1.00  0.00     0.249 N   
ATOM     13  H11 UNL     1      -0.465   0.219  -1.726  1.00  0.00     0.199 HD  
ATOM     14  H12 UNL     1      -0.392  -0.310  -0.196  1.00  0.00     0.199 HD  
BRANCH  12  15
ATOM     15  C6  UNL     1       1.067  -1.127  -1.350  1.00  0.00     0.164 C   
BRANCH  15  16
ATOM     16  C7  UNL     1       0.360  -2.041  -2.319  1.00  0.00    -0.002 A   
ATOM     17  C8  UNL     1      -0.312  -3.194  -1.850  1.00  0.00     0.012 A   
ATOM     18  C12 UNL     1       0.318  -1.724  -3.689  1.00  0.00     0.045 A   
ATOM     19  C9  UNL     1      -1.002  -4.036  -2.729  1.00  0.00     0.037 A   
ATOM     20  C11 UNL     1      -0.378  -2.569  -4.529  1.00  0.00     0.109 A   
ATOM     21  C10 UNL     1      -1.015  -3.696  -4.064  1.00  0.00     0.108 A   
ATOM     22  O1  UNL     1      -0.527  -2.403  -5.872  1.00  0.00    -0.316 OA  
ATOM     23  O2  UNL     1      -1.637  -4.387  -5.056  1.00  0.00    -0.316 OA  
ATOM     24  C13 UNL     1      -1.353  -3.544  -6.194  1.00  0.00     0.337 C   
ENDBRANCH  15  16
ENDBRANCH  12  15
ENDBRANCH   7  12
ENDBRANCH   1   7
BRANCH   3  25
ATOM     25  C16 UNL     1       1.416  -0.917   3.786  1.00  0.00     0.174 C   
BRANCH  25  26
ATOM     26  C17 UNL     1      -0.001  -0.758   4.301  1.00  0.00     0.028 A   
ATOM     27  C18 UNL     1      -0.162  -0.235   5.603  1.00  0.00     0.011 A   
ATOM     28  C22 UNL     1      -1.163  -1.099   3.570  1.00  0.00     0.172 A   
ATOM     29  C19 UNL     1      -1.427  -0.054   6.163  1.00  0.00     0.001 A   
ATOM     30  C21 UNL     1      -2.429  -0.894   4.144  1.00  0.00     0.063 A   
ATOM     31  C20 UNL     1      -2.561  -0.384   5.433  1.00  0.00     0.005 A   
BRANCH  28  32
ATOM     32  S1  UNL     1      -1.180  -1.753   1.861  1.00  0.00     0.041 S   
ATOM     33  O3  UNL     1       0.123  -2.454   1.585  1.00  0.00    -0.672 OA  
ATOM     34  O4  UNL     1      -1.437  -0.598   0.915  1.00  0.00    -0.672 OA  
ENDBRANCH  28  32
ENDBRANCH  25  26
ENDBRANCH   3  25
TORSDOF 9
