REMARK SMILES CC(C)[C@H]([NH2+]Cc1ccc2c(c1)OCO2)c1cn(Cc2nn(C)c3c2CCC3)nn1
REMARK SMILES IDX 16 1 17 2 18 3 29 4 30 5 4 7 2 8 1 9 3 10 5 11 6 14 7 15
REMARK SMILES IDX 8 16 12 17 9 18 11 19 10 20 13 21 15 22 14 23 19 24 20 25
REMARK SMILES IDX 21 26 25 27 22 28 24 29 26 30 28 31 27 32 23 33
REMARK H PARENT 17 6 5 12 5 13
ROOT
ATOM     1   C13 UNL     1       0.932   0.787   2.592  1.00  0.00     0.127 A   
ATOM     2   C14 UNL     1       1.561  -0.104   1.754  1.00  0.00     0.046 A   
ATOM     3   N2  UNL     1       1.433  -1.307   2.395  1.00  0.00    -0.206 N   
ATOM     4   N5  UNL     1       0.824  -1.153   3.588  1.00  0.00    -0.076 NA  
ATOM     5   N6  UNL     1       0.505   0.126   3.716  1.00  0.00    -0.132 NA  
ATOM     6   H18 UNL     1       1.996  -0.025   0.767  1.00  0.00     0.083 HD  
ENDROOT
BRANCH   1   7
ATOM     7   C4  UNL     1       0.561   2.215   2.382  1.00  0.00     0.117 C   
BRANCH   7   8
ATOM     8   C2  UNL     1       1.489   3.233   3.094  1.00  0.00     0.037 C   
ATOM     9   C1  UNL     1       2.911   3.184   2.523  1.00  0.00     0.014 C   
ATOM     10  C3  UNL     1       1.542   3.094   4.620  1.00  0.00     0.014 C   
ENDBRANCH   7   8
BRANCH   7  11
ATOM     11  N1  UNL     1      -0.864   2.452   2.840  1.00  0.00     0.249 N   
ATOM     12  H9  UNL     1      -1.074   3.453   2.828  1.00  0.00     0.199 HD  
ATOM     13  H10 UNL     1      -0.912   2.132   3.816  1.00  0.00     0.199 HD  
BRANCH  11  14
ATOM     14  C5  UNL     1      -1.930   1.708   2.098  1.00  0.00     0.164 C   
BRANCH  14  15
ATOM     15  C6  UNL     1      -2.020   2.081   0.644  1.00  0.00    -0.002 A   
ATOM     16  C7  UNL     1      -2.558   3.332   0.257  1.00  0.00     0.012 A   
ATOM     17  C11 UNL     1      -1.544   1.196  -0.341  1.00  0.00     0.045 A   
ATOM     18  C8  UNL     1      -2.617   3.701  -1.091  1.00  0.00     0.037 A   
ATOM     19  C10 UNL     1      -1.617   1.591  -1.660  1.00  0.00     0.109 A   
ATOM     20  C9  UNL     1      -2.136   2.809  -2.025  1.00  0.00     0.108 A   
ATOM     21  O1  UNL     1      -1.199   0.864  -2.730  1.00  0.00    -0.316 OA  
ATOM     22  O2  UNL     1      -2.113   3.002  -3.369  1.00  0.00    -0.316 OA  
ATOM     23  C12 UNL     1      -1.524   1.762  -3.816  1.00  0.00     0.337 C   
ENDBRANCH  14  15
ENDBRANCH  11  14
ENDBRANCH   7  11
ENDBRANCH   1   7
BRANCH   3  24
ATOM     24  C15 UNL     1       1.808  -2.621   1.904  1.00  0.00     0.192 C   
BRANCH  24  25
ATOM     25  C16 UNL     1       0.778  -3.118   0.951  1.00  0.00     0.083 A   
ATOM     26  N3  UNL     1       0.616  -2.546  -0.266  1.00  0.00    -0.185 NA  
ATOM     27  C19 UNL     1      -0.122  -4.175   1.117  1.00  0.00    -0.004 A   
ATOM     28  N4  UNL     1      -0.360  -3.280  -0.868  1.00  0.00    -0.232 N   
ATOM     29  C18 UNL     1      -0.825  -4.242  -0.047  1.00  0.00     0.033 A   
ATOM     30  C20 UNL     1      -0.544  -5.217   2.069  1.00  0.00     0.039 C   
ATOM     31  C22 UNL     1      -1.831  -5.312  -0.112  1.00  0.00     0.054 C   
ATOM     32  C21 UNL     1      -1.860  -5.752   1.394  1.00  0.00     0.011 C   
ATOM     33  C17 UNL     1      -0.763  -2.979  -2.218  1.00  0.00     0.159 C   
ENDBRANCH  24  25
ENDBRANCH   3  24
TORSDOF 7
