REMARK SMILES Cc1cnc(-n2cc([C@H](CC(C)C)[NH2+]Cc3ccc4c(c3)OCO4)nn2)s1
REMARK SMILES IDX 9 1 8 2 6 3 7 4 26 5 25 6 5 7 2 8 3 9 27 10 4 11 1 12 10 13
REMARK SMILES IDX 11 14 12 15 13 16 14 17 15 20 16 21 17 22 21 23 18 24 20 25
REMARK SMILES IDX 19 26 22 27 24 28 23 29
REMARK H PARENT 14 18 14 19
ROOT
ATOM     1   C7  UNL     1      -0.719  -0.845   1.352  1.00  0.00     0.114 C   
ENDROOT
BRANCH   1   2
ATOM     2   C6  UNL     1      -1.360  -0.670   0.007  1.00  0.00     0.127 A   
ATOM     3   N2  UNL     1      -2.593  -0.238  -1.753  1.00  0.00    -0.156 N   
ATOM     4   C5  UNL     1      -2.528  -0.057  -0.384  1.00  0.00     0.137 A   
ATOM     5   N5  UNL     1      -1.500  -0.932  -2.159  1.00  0.00    -0.069 NA  
ATOM     6   N4  UNL     1      -0.755  -1.209  -1.100  1.00  0.00    -0.131 NA  
BRANCH   3   7
ATOM     7   C4  UNL     1      -3.576   0.195  -2.637  1.00  0.00     0.185 A   
ATOM     8   C2  UNL     1      -4.938   0.688  -4.553  1.00  0.00     0.008 A   
ATOM     9   C3  UNL     1      -5.414   1.157  -3.343  1.00  0.00     0.124 A   
ATOM     10  S1  UNL     1      -3.452  -0.136  -4.301  1.00  0.00    -0.055 S   
ATOM     11  N1  UNL     1      -4.630   0.875  -2.238  1.00  0.00    -0.232 NA  
ATOM     12  C1  UNL     1      -5.521   0.820  -5.913  1.00  0.00     0.054 C   
ENDBRANCH   3   7
ENDBRANCH   1   2
BRANCH   1  13
ATOM     13  C8  UNL     1      -0.937   0.342   2.307  1.00  0.00     0.064 C   
BRANCH  13  14
ATOM     14  C9  UNL     1      -0.322   0.199   3.716  1.00  0.00    -0.012 C   
ATOM     15  C10 UNL     1      -0.572   1.478   4.519  1.00  0.00     0.007 C   
ATOM     16  C11 UNL     1      -0.882  -1.004   4.476  1.00  0.00     0.007 C   
ENDBRANCH  13  14
ENDBRANCH   1  13
BRANCH   1  17
ATOM     17  N3  UNL     1       0.743  -1.176   1.213  1.00  0.00     0.249 N   
ATOM     18  H16 UNL     1       0.793  -1.939   0.521  1.00  0.00     0.199 HD  
ATOM     19  H17 UNL     1       1.117  -1.571   2.082  1.00  0.00     0.199 HD  
BRANCH  17  20
ATOM     20  C12 UNL     1       1.657  -0.107   0.712  1.00  0.00     0.164 C   
BRANCH  20  21
ATOM     21  C13 UNL     1       3.024  -0.674   0.451  1.00  0.00    -0.002 A   
ATOM     22  C14 UNL     1       4.020  -0.637   1.455  1.00  0.00     0.012 A   
ATOM     23  C18 UNL     1       3.301  -1.296  -0.779  1.00  0.00     0.045 A   
ATOM     24  C15 UNL     1       5.280  -1.205   1.236  1.00  0.00     0.037 A   
ATOM     25  C17 UNL     1       4.553  -1.846  -0.962  1.00  0.00     0.109 A   
ATOM     26  C16 UNL     1       5.514  -1.803   0.017  1.00  0.00     0.108 A   
ATOM     27  O1  UNL     1       4.982  -2.482  -2.082  1.00  0.00    -0.316 OA  
ATOM     28  O2  UNL     1       6.670  -2.406  -0.364  1.00  0.00    -0.316 OA  
ATOM     29  C19 UNL     1       6.338  -2.813  -1.709  1.00  0.00     0.337 C   
ENDBRANCH  20  21
ENDBRANCH  17  20
ENDBRANCH   1  17
TORSDOF 7
