REMARK SMILES Cc1cccc(CCn2cc([C@@H]([NH2+]Cc3ccc4c(c3)OCO4)C3CCCC3)nn2)c1F
REMARK SMILES IDX 9 1 10 2 11 3 29 4 30 5 8 7 7 8 6 9 2 10 3 11 31 12 4 13
REMARK SMILES IDX 5 14 1 15 32 16 12 17 13 18 14 21 15 22 16 23 20 24 17 25
REMARK SMILES IDX 19 26 18 27 21 28 23 29 22 30 24 31 25 32 28 33 26 34 27 35
REMARK H PARENT 10 6 13 19 13 20
ROOT
ATOM     1   N1  UNL     1      -2.143   2.427   0.317  1.00  0.00    -0.212 N   
ATOM     2   C9  UNL     1      -1.965   1.226  -0.309  1.00  0.00     0.045 A   
ATOM     3   C10 UNL     1      -1.942   0.318   0.726  1.00  0.00     0.127 A   
ATOM     4   N3  UNL     1      -2.120   0.980   1.914  1.00  0.00    -0.132 NA  
ATOM     5   N4  UNL     1      -2.248   2.269   1.649  1.00  0.00    -0.076 NA  
ATOM     6   H11 UNL     1      -1.841   1.141  -1.380  1.00  0.00     0.083 HD  
ENDROOT
BRANCH   1   7
ATOM     7   C8  UNL     1      -2.191   3.748  -0.272  1.00  0.00     0.139 C   
BRANCH   7   8
ATOM     8   C7  UNL     1      -0.878   4.514  -0.117  1.00  0.00     0.060 C   
BRANCH   8   9
ATOM     9   C6  UNL     1       0.242   3.964  -0.967  1.00  0.00    -0.010 A   
ATOM     10  C2  UNL     1       2.311   2.676  -1.174  1.00  0.00    -0.015 A   
ATOM     11  C3  UNL     1       2.353   2.986  -2.538  1.00  0.00     0.006 A   
ATOM     12  C25 UNL     1       1.249   3.168  -0.406  1.00  0.00     0.129 A   
ATOM     13  C4  UNL     1       1.347   3.760  -3.117  1.00  0.00     0.001 A   
ATOM     14  C5  UNL     1       0.298   4.251  -2.337  1.00  0.00     0.007 A   
ATOM     15  C1  UNL     1       3.431   1.910  -0.538  1.00  0.00     0.047 C   
ATOM     16  F1  UNL     1       1.188   2.852   0.897  1.00  0.00    -0.206 F   
ENDBRANCH   8   9
ENDBRANCH   7   8
ENDBRANCH   1   7
BRANCH   3  17
ATOM     17  C11 UNL     1      -1.675  -1.149   0.746  1.00  0.00     0.117 C   
BRANCH  17  18
ATOM     18  N2  UNL     1      -0.761  -1.475   1.902  1.00  0.00     0.249 N   
ATOM     19  H13 UNL     1      -1.160  -0.991   2.720  1.00  0.00     0.199 HD  
ATOM     20  H14 UNL     1      -0.764  -2.476   2.110  1.00  0.00     0.199 HD  
BRANCH  18  21
ATOM     21  C12 UNL     1       0.651  -1.004   1.772  1.00  0.00     0.164 C   
BRANCH  21  22
ATOM     22  C13 UNL     1       1.430  -1.795   0.758  1.00  0.00    -0.002 A   
ATOM     23  C14 UNL     1       1.941  -3.074   1.085  1.00  0.00     0.012 A   
ATOM     24  C18 UNL     1       1.626  -1.284  -0.536  1.00  0.00     0.045 A   
ATOM     25  C15 UNL     1       2.640  -3.832   0.139  1.00  0.00     0.037 A   
ATOM     26  C17 UNL     1       2.321  -2.055  -1.444  1.00  0.00     0.109 A   
ATOM     27  C16 UNL     1       2.812  -3.294  -1.117  1.00  0.00     0.108 A   
ATOM     28  O1  UNL     1       2.595  -1.709  -2.729  1.00  0.00    -0.316 OA  
ATOM     29  O2  UNL     1       3.459  -3.885  -2.155  1.00  0.00    -0.316 OA  
ATOM     30  C19 UNL     1       3.343  -2.865  -3.170  1.00  0.00     0.337 C   
ENDBRANCH  21  22
ENDBRANCH  18  21
ENDBRANCH  17  18
BRANCH  17  31
ATOM     31  C20 UNL     1      -2.978  -1.969   0.823  1.00  0.00     0.043 C   
ATOM     32  C21 UNL     1      -2.796  -3.470   0.570  1.00  0.00     0.010 C   
ATOM     33  C24 UNL     1      -3.726  -1.951   2.158  1.00  0.00     0.010 C   
ATOM     34  C22 UNL     1      -4.070  -4.119   1.113  1.00  0.00     0.001 C   
ATOM     35  C23 UNL     1      -4.745  -3.072   1.998  1.00  0.00     0.001 C   
ENDBRANCH  17  31
ENDBRANCH   3  17
TORSDOF 8
