REMARK SMILES OC[C@H](c1c(F)cccc1F)n1cc([C@@H]([NH2+]Cc2ccc3c(c2)OCO3)C2CCCC2)nn1
REMARK SMILES IDX 12 1 13 2 14 3 32 4 33 5 3 7 2 8 1 9 4 11 5 12 10 13 7 14
REMARK SMILES IDX 9 15 8 16 6 17 11 18 15 19 16 20 17 23 18 24 19 25 23 26
REMARK SMILES IDX 20 27 22 28 21 29 24 30 26 31 25 32 27 33 28 34 31 35 29 36
REMARK SMILES IDX 30 37
REMARK H PARENT 13 6 1 10 16 21 16 22
ROOT
ATOM     1   N1  UNL     1       0.987  -3.150   0.234  1.00  0.00    -0.202 N   
ATOM     2   C9  UNL     1      -0.305  -2.707   0.339  1.00  0.00     0.046 A   
ATOM     3   C10 UNL     1      -0.198  -1.338   0.254  1.00  0.00     0.127 A   
ATOM     4   N3  UNL     1       1.124  -0.997   0.117  1.00  0.00    -0.132 NA  
ATOM     5   N4  UNL     1       1.840  -2.109   0.124  1.00  0.00    -0.075 NA  
ATOM     6   H8  UNL     1      -1.139  -3.386   0.455  1.00  0.00     0.083 HD  
ENDROOT
BRANCH   1   7
ATOM     7   C2  UNL     1       1.460  -4.537   0.236  1.00  0.00     0.161 C   
BRANCH   7   8
ATOM     8   C1  UNL     1       2.221  -4.840   1.539  1.00  0.00     0.186 C   
BRANCH   8   9
ATOM     9   O1  UNL     1       1.311  -4.866   2.646  1.00  0.00    -0.394 OA  
ATOM     10  H1  UNL     1       1.830  -5.133   3.427  1.00  0.00     0.210 HD  
ENDBRANCH   8   9
ENDBRANCH   7   8
BRANCH   7  11
ATOM     11  C3  UNL     1       2.174  -4.840  -1.062  1.00  0.00     0.048 A   
ATOM     12  C4  UNL     1       1.419  -5.042  -2.224  1.00  0.00     0.131 A   
ATOM     13  C8  UNL     1       3.563  -4.897  -1.186  1.00  0.00     0.131 A   
ATOM     14  C5  UNL     1       2.015  -5.305  -3.455  1.00  0.00     0.040 A   
ATOM     15  C7  UNL     1       4.178  -5.158  -2.410  1.00  0.00     0.040 A   
ATOM     16  C6  UNL     1       3.403  -5.364  -3.550  1.00  0.00     0.006 A   
ATOM     17  F1  UNL     1       0.081  -4.970  -2.160  1.00  0.00    -0.207 F   
ATOM     18  F2  UNL     1       4.345  -4.704  -0.117  1.00  0.00    -0.207 F   
ENDBRANCH   7  11
ENDBRANCH   1   7
BRANCH   3  19
ATOM     19  C11 UNL     1      -1.234  -0.263   0.312  1.00  0.00     0.117 C   
BRANCH  19  20
ATOM     20  N2  UNL     1      -0.626   1.016   0.823  1.00  0.00     0.249 N   
ATOM     21  H10 UNL     1       0.283   1.124   0.348  1.00  0.00     0.199 HD  
ATOM     22  H11 UNL     1      -1.181   1.838   0.572  1.00  0.00     0.199 HD  
BRANCH  20  23
ATOM     23  C12 UNL     1      -0.347   1.046   2.287  1.00  0.00     0.164 C   
BRANCH  23  24
ATOM     24  C13 UNL     1       0.221   2.383   2.675  1.00  0.00    -0.002 A   
ATOM     25  C14 UNL     1       1.604   2.641   2.518  1.00  0.00     0.012 A   
ATOM     26  C18 UNL     1      -0.628   3.405   3.130  1.00  0.00     0.045 A   
ATOM     27  C15 UNL     1       2.138   3.900   2.818  1.00  0.00     0.037 A   
ATOM     28  C17 UNL     1      -0.069   4.633   3.415  1.00  0.00     0.109 A   
ATOM     29  C16 UNL     1       1.275   4.875   3.263  1.00  0.00     0.108 A   
ATOM     30  O2  UNL     1      -0.746   5.725   3.857  1.00  0.00    -0.316 OA  
ATOM     31  O3  UNL     1       1.614   6.149   3.590  1.00  0.00    -0.316 OA  
ATOM     32  C19 UNL     1       0.329   6.687   3.973  1.00  0.00     0.337 C   
ENDBRANCH  23  24
ENDBRANCH  20  23
ENDBRANCH  19  20
BRANCH  19  33
ATOM     33  C20 UNL     1      -1.898  -0.037  -1.061  1.00  0.00     0.043 C   
ATOM     34  C21 UNL     1      -1.001   0.563  -2.162  1.00  0.00     0.010 C   
ATOM     35  C24 UNL     1      -3.141   0.865  -1.022  1.00  0.00     0.010 C   
ATOM     36  C22 UNL     1      -1.830   1.655  -2.839  1.00  0.00     0.001 C   
ATOM     37  C23 UNL     1      -3.268   1.352  -2.456  1.00  0.00     0.001 C   
ENDBRANCH  19  33
ENDBRANCH   3  19
TORSDOF 9
