REMARK SMILES FC(F)c1cc(Cn2cc([C@@H]([NH2+]Cc3ccc4c(c3)OCO4)C3CCCC3)nn2)no1
REMARK SMILES IDX 8 1 9 2 10 3 28 4 29 5 7 7 6 8 4 9 5 10 31 11 30 12 2 13
REMARK SMILES IDX 1 14 3 15 11 16 12 17 13 20 14 21 15 22 19 23 16 24 18 25
REMARK SMILES IDX 17 26 20 27 22 28 21 29 23 30 24 31 27 32 25 33 26 34
REMARK H PARENT 9 6 12 18 12 19
ROOT
ATOM     1   N1  UNL     1       2.793   0.476   1.797  1.00  0.00    -0.206 N   
ATOM     2   C6  UNL     1       1.765   0.081   0.985  1.00  0.00     0.046 A   
ATOM     3   C7  UNL     1       0.681   0.792   1.449  1.00  0.00     0.127 A   
ATOM     4   N3  UNL     1       1.061   1.523   2.546  1.00  0.00    -0.132 NA  
ATOM     5   N4  UNL     1       2.349   1.307   2.760  1.00  0.00    -0.076 NA  
ATOM     6   H5  UNL     1       1.912  -0.601   0.157  1.00  0.00     0.083 HD  
ENDROOT
BRANCH   1   7
ATOM     7   C5  UNL     1       4.195   0.099   1.727  1.00  0.00     0.192 C   
BRANCH   7   8
ATOM     8   C4  UNL     1       4.848   0.798   0.591  1.00  0.00     0.090 A   
ATOM     9   C2  UNL     1       5.920   2.213  -0.714  1.00  0.00     0.153 A   
ATOM     10  C3  UNL     1       5.540   2.032   0.595  1.00  0.00     0.066 A   
ATOM     11  O3  UNL     1       5.490   1.157  -1.454  1.00  0.00    -0.212 OA  
ATOM     12  N5  UNL     1       4.819   0.264  -0.638  1.00  0.00    -0.132 NA  
BRANCH   9  13
ATOM     13  C1  UNL     1       6.650   3.272  -1.437  1.00  0.00     0.398 C   
ATOM     14  F1  UNL     1       5.782   4.185  -1.950  1.00  0.00    -0.203 F   
ATOM     15  F2  UNL     1       7.463   3.960  -0.591  1.00  0.00    -0.203 F   
ENDBRANCH   9  13
ENDBRANCH   7   8
ENDBRANCH   1   7
BRANCH   3  16
ATOM     16  C8  UNL     1      -0.736   0.851   0.975  1.00  0.00     0.117 C   
BRANCH  16  17
ATOM     17  N2  UNL     1      -1.663   1.036   2.158  1.00  0.00     0.249 N   
ATOM     18  H7  UNL     1      -1.281   1.825   2.700  1.00  0.00     0.199 HD  
ATOM     19  H8  UNL     1      -2.599   1.308   1.847  1.00  0.00     0.199 HD  
BRANCH  17  20
ATOM     20  C9  UNL     1      -1.790  -0.127   3.086  1.00  0.00     0.164 C   
BRANCH  20  21
ATOM     21  C10 UNL     1      -2.479  -1.303   2.452  1.00  0.00    -0.002 A   
ATOM     22  C11 UNL     1      -1.744  -2.468   2.122  1.00  0.00     0.012 A   
ATOM     23  C15 UNL     1      -3.852  -1.246   2.157  1.00  0.00     0.045 A   
ATOM     24  C12 UNL     1      -2.364  -3.557   1.500  1.00  0.00     0.037 A   
ATOM     25  C14 UNL     1      -4.431  -2.337   1.542  1.00  0.00     0.109 A   
ATOM     26  C13 UNL     1      -3.709  -3.460   1.222  1.00  0.00     0.108 A   
ATOM     27  O1  UNL     1      -5.739  -2.440   1.185  1.00  0.00    -0.316 OA  
ATOM     28  O2  UNL     1      -4.470  -4.413   0.625  1.00  0.00    -0.316 OA  
ATOM     29  C16 UNL     1      -5.766  -3.775   0.629  1.00  0.00     0.337 C   
ENDBRANCH  20  21
ENDBRANCH  17  20
ENDBRANCH  16  17
BRANCH  16  30
ATOM     30  C17 UNL     1      -0.964   2.020  -0.006  1.00  0.00     0.043 C   
ATOM     31  C18 UNL     1      -2.390   2.105  -0.564  1.00  0.00     0.010 C   
ATOM     32  C21 UNL     1      -0.139   1.904  -1.293  1.00  0.00     0.010 C   
ATOM     33  C19 UNL     1      -2.267   2.968  -1.815  1.00  0.00     0.001 C   
ATOM     34  C20 UNL     1      -0.813   2.864  -2.266  1.00  0.00     0.001 C   
ENDBRANCH  16  30
ENDBRANCH   3  16
TORSDOF 8
