REMARK SMILES c1nc(-n2cc([C@@H]([NH2+]Cc3ccc4c(c3)OCO4)C3CCCCC3)nn2)c2[nH]ccc2n1
REMARK SMILES IDX 7 1 6 2 4 3 5 4 26 5 25 6 3 7 1 8 2 9 32 10 31 11 27 12
REMARK SMILES IDX 30 13 28 14 29 15 8 17 9 20 10 21 11 22 15 23 12 24 14 25
REMARK SMILES IDX 13 26 16 27 18 28 17 29 19 30 20 31 24 32 21 33 23 34 22 35
REMARK H PARENT 28 16 8 18 8 19
ROOT
ATOM     1   C5  UNL     1      -0.135   2.050   0.011  1.00  0.00     0.117 C   
ENDROOT
BRANCH   1   2
ATOM     2   C4  UNL     1       0.126   0.692  -0.565  1.00  0.00     0.128 A   
ATOM     3   N2  UNL     1       0.682  -1.379  -0.977  1.00  0.00    -0.160 N   
ATOM     4   C3  UNL     1       0.359  -0.516   0.049  1.00  0.00     0.137 A   
ATOM     5   N5  UNL     1       0.603  -0.716  -2.162  1.00  0.00    -0.069 NA  
ATOM     6   N4  UNL     1       0.277   0.546  -1.919  1.00  0.00    -0.131 NA  
BRANCH   3   7
ATOM     7   C2  UNL     1       1.074  -2.729  -0.861  1.00  0.00     0.171 A   
ATOM     8   C1  UNL     1       1.565  -4.570   0.460  1.00  0.00     0.224 A   
ATOM     9   N1  UNL     1       1.165  -3.287   0.376  1.00  0.00    -0.217 NA  
ATOM     10  N7  UNL     1       1.910  -5.388  -0.540  1.00  0.00    -0.235 NA  
ATOM     11  C23 UNL     1       1.821  -4.824  -1.762  1.00  0.00     0.091 A   
ATOM     12  C20 UNL     1       1.410  -3.513  -1.958  1.00  0.00     0.099 A   
ATOM     13  C22 UNL     1       2.102  -5.384  -3.030  1.00  0.00     0.046 A   
ATOM     14  N6  UNL     1       1.439  -3.281  -3.316  1.00  0.00    -0.316 N   
ATOM     15  C21 UNL     1       1.855  -4.410  -3.974  1.00  0.00     0.074 A   
ATOM     16  H24 UNL     1       1.186  -2.404  -3.757  1.00  0.00     0.152 HD  
ENDBRANCH   3   7
ENDBRANCH   1   2
BRANCH   1  17
ATOM     17  N3  UNL     1       0.791   3.038  -0.682  1.00  0.00     0.249 N   
ATOM     18  H4  UNL     1       0.322   3.931  -0.859  1.00  0.00     0.199 HD  
ATOM     19  H5  UNL     1       0.983   2.644  -1.618  1.00  0.00     0.199 HD  
BRANCH  17  20
ATOM     20  C6  UNL     1       2.095   3.308  -0.004  1.00  0.00     0.164 C   
BRANCH  20  21
ATOM     21  C7  UNL     1       2.961   2.090   0.170  1.00  0.00    -0.002 A   
ATOM     22  C8  UNL     1       3.587   1.486  -0.948  1.00  0.00     0.012 A   
ATOM     23  C12 UNL     1       3.120   1.517   1.444  1.00  0.00     0.045 A   
ATOM     24  C9  UNL     1       4.347   0.320  -0.803  1.00  0.00     0.037 A   
ATOM     25  C11 UNL     1       3.873   0.366   1.551  1.00  0.00     0.109 A   
ATOM     26  C10 UNL     1       4.466  -0.218   0.459  1.00  0.00     0.108 A   
ATOM     27  O1  UNL     1       4.109  -0.317   2.701  1.00  0.00    -0.316 OA  
ATOM     28  O2  UNL     1       5.153  -1.343   0.785  1.00  0.00    -0.316 OA  
ATOM     29  C13 UNL     1       4.953  -1.386   2.215  1.00  0.00     0.337 C   
ENDBRANCH  20  21
ENDBRANCH  17  20
ENDBRANCH   1  17
BRANCH   1  30
ATOM     30  C14 UNL     1      -1.606   2.526  -0.154  1.00  0.00     0.043 C   
ATOM     31  C15 UNL     1      -1.847   3.855   0.601  1.00  0.00     0.010 C   
ATOM     32  C19 UNL     1      -2.608   1.466   0.353  1.00  0.00     0.010 C   
ATOM     33  C16 UNL     1      -3.299   4.322   0.512  1.00  0.00     0.001 C   
ATOM     34  C18 UNL     1      -4.058   1.942   0.270  1.00  0.00     0.001 C   
ATOM     35  C17 UNL     1      -4.264   3.256   1.011  1.00  0.00     0.000 C   
ENDBRANCH   1  30
TORSDOF 6
