REMARK SMILES CC(C)[C@H]([NH2+]Cc1ccc2c(c1)OCO2)c1cn(Cc2cnc3ccccc3n2)nn1
REMARK SMILES IDX 4 1 2 2 1 3 3 4 5 5 6 8 7 9 8 10 12 11 9 12 11 13 10 14
REMARK SMILES IDX 13 15 15 16 14 17 16 18 17 19 31 20 18 21 30 22 19 24 20 25
REMARK SMILES IDX 21 26 29 27 22 28 28 29 23 30 27 31 24 32 26 33 25 34
REMARK H PARENT 5 6 5 7 17 23
ROOT
ATOM     1   C4  UNL     1       2.786  -0.807   0.016  1.00  0.00     0.117 C   
ENDROOT
BRANCH   1   2
ATOM     2   C2  UNL     1       4.133  -1.390  -0.491  1.00  0.00     0.037 C   
ATOM     3   C1  UNL     1       5.209  -0.302  -0.618  1.00  0.00     0.014 C   
ATOM     4   C3  UNL     1       4.675  -2.551   0.350  1.00  0.00     0.014 C   
ENDBRANCH   1   2
BRANCH   1   5
ATOM     5   N1  UNL     1       2.913  -0.364   1.456  1.00  0.00     0.249 N   
ATOM     6   H9  UNL     1       3.773   0.175   1.591  1.00  0.00     0.199 HD  
ATOM     7   H10 UNL     1       2.993  -1.220   2.022  1.00  0.00     0.199 HD  
BRANCH   5   8
ATOM     8   C5  UNL     1       1.763   0.417   2.016  1.00  0.00     0.164 C   
BRANCH   8   9
ATOM     9   C6  UNL     1       1.504   1.705   1.281  1.00  0.00    -0.002 A   
ATOM     10  C7  UNL     1       0.351   1.841   0.467  1.00  0.00     0.012 A   
ATOM     11  C11 UNL     1       2.422   2.768   1.367  1.00  0.00     0.045 A   
ATOM     12  C8  UNL     1       0.118   3.015  -0.261  1.00  0.00     0.037 A   
ATOM     13  C10 UNL     1       2.162   3.912   0.637  1.00  0.00     0.109 A   
ATOM     14  C9  UNL     1       1.047   4.031  -0.158  1.00  0.00     0.108 A   
ATOM     15  O1  UNL     1       2.942   5.026   0.610  1.00  0.00    -0.316 OA  
ATOM     16  O2  UNL     1       0.985   5.235  -0.787  1.00  0.00    -0.316 OA  
ATOM     17  C12 UNL     1       2.168   5.881  -0.266  1.00  0.00     0.337 C   
ENDBRANCH   8   9
ENDBRANCH   5   8
ENDBRANCH   1   5
BRANCH   1  18
ATOM     18  C13 UNL     1       1.653  -1.768  -0.147  1.00  0.00     0.127 A   
ATOM     19  C14 UNL     1       0.742  -1.921  -1.169  1.00  0.00     0.046 A   
ATOM     20  N6  UNL     1       1.332  -2.626   0.875  1.00  0.00    -0.132 NA  
ATOM     21  N2  UNL     1      -0.127  -2.866  -0.697  1.00  0.00    -0.206 N   
ATOM     22  N5  UNL     1       0.238  -3.286   0.531  1.00  0.00    -0.076 NA  
ATOM     23  H18 UNL     1       0.603  -1.435  -2.127  1.00  0.00     0.083 HD  
BRANCH  21  24
ATOM     24  C15 UNL     1      -1.359  -3.335  -1.305  1.00  0.00     0.191 C   
BRANCH  24  25
ATOM     25  C16 UNL     1      -2.451  -2.336  -1.048  1.00  0.00     0.079 A   
ATOM     26  C17 UNL     1      -3.141  -2.323   0.155  1.00  0.00     0.137 A   
ATOM     27  N4  UNL     1      -2.693  -1.401  -2.004  1.00  0.00    -0.248 NA  
ATOM     28  N3  UNL     1      -4.089  -1.401   0.441  1.00  0.00    -0.253 NA  
ATOM     29  C23 UNL     1      -3.661  -0.491  -1.747  1.00  0.00     0.089 A   
ATOM     30  C18 UNL     1      -4.362  -0.490  -0.515  1.00  0.00     0.089 A   
ATOM     31  C22 UNL     1      -3.978   0.468  -2.702  1.00  0.00     0.030 A   
ATOM     32  C19 UNL     1      -5.343   0.472  -0.295  1.00  0.00     0.030 A   
ATOM     33  C21 UNL     1      -4.969   1.427  -2.471  1.00  0.00     0.002 A   
ATOM     34  C20 UNL     1      -5.653   1.430  -1.262  1.00  0.00     0.002 A   
ENDBRANCH  24  25
ENDBRANCH  21  24
ENDBRANCH   1  18
TORSDOF 7
