REMARK SMILES CC(C)[C@H]([NH2+]Cc1ccc2c(c1)OCO2)c1cn(CCc2cccc(N([O-])[O-])c2)nn1
REMARK SMILES IDX 16 1 17 2 18 3 30 4 31 5 4 7 2 8 1 9 3 10 5 11 6 14 7 15
REMARK SMILES IDX 8 16 12 17 9 18 11 19 10 20 13 21 15 22 14 23 19 24 20 25
REMARK SMILES IDX 21 26 22 27 29 28 23 29 25 30 24 31 26 32 27 33 28 34
REMARK H PARENT 17 6 5 12 5 13
ROOT
ATOM     1   C13 UNL     1      -1.662   1.313  -0.463  1.00  0.00     0.127 A   
ATOM     2   C14 UNL     1      -2.005   2.556  -0.959  1.00  0.00     0.045 A   
ATOM     3   N2  UNL     1      -2.469   2.301  -2.220  1.00  0.00    -0.212 N   
ATOM     4   N4  UNL     1      -2.470   0.982  -2.472  1.00  0.00    -0.076 NA  
ATOM     5   N5  UNL     1      -1.988   0.369  -1.404  1.00  0.00    -0.132 NA  
ATOM     6   H18 UNL     1      -1.926   3.562  -0.572  1.00  0.00     0.083 HD  
ENDROOT
BRANCH   1   7
ATOM     7   C4  UNL     1      -1.021   0.872   0.824  1.00  0.00     0.117 C   
BRANCH   7   8
ATOM     8   C2  UNL     1      -0.848   2.009   1.873  1.00  0.00     0.037 C   
ATOM     9   C1  UNL     1      -0.683   1.439   3.289  1.00  0.00     0.014 C   
ATOM     10  C3  UNL     1       0.309   2.973   1.578  1.00  0.00     0.014 C   
ENDBRANCH   7   8
BRANCH   7  11
ATOM     11  N1  UNL     1       0.309   0.191   0.595  1.00  0.00     0.249 N   
ATOM     12  H9  UNL     1       0.853   0.757  -0.082  1.00  0.00     0.199 HD  
ATOM     13  H10 UNL     1       0.860   0.183   1.455  1.00  0.00     0.199 HD  
BRANCH  11  14
ATOM     14  C5  UNL     1       0.288  -1.204   0.065  1.00  0.00     0.164 C   
BRANCH  14  15
ATOM     15  C6  UNL     1      -0.294  -2.192   1.037  1.00  0.00    -0.002 A   
ATOM     16  C7  UNL     1       0.447  -2.606   2.170  1.00  0.00     0.012 A   
ATOM     17  C11 UNL     1      -1.596  -2.685   0.843  1.00  0.00     0.045 A   
ATOM     18  C8  UNL     1      -0.100  -3.496   3.100  1.00  0.00     0.037 A   
ATOM     19  C10 UNL     1      -2.106  -3.560   1.780  1.00  0.00     0.109 A   
ATOM     20  C9  UNL     1      -1.380  -3.954   2.877  1.00  0.00     0.108 A   
ATOM     21  O1  UNL     1      -3.344  -4.120   1.749  1.00  0.00    -0.316 OA  
ATOM     22  O2  UNL     1      -2.067  -4.814   3.672  1.00  0.00    -0.316 OA  
ATOM     23  C12 UNL     1      -3.305  -4.938   2.939  1.00  0.00     0.337 C   
ENDBRANCH  14  15
ENDBRANCH  11  14
ENDBRANCH   7  11
ENDBRANCH   1   7
BRANCH   3  24
ATOM     24  C15 UNL     1      -2.777   3.251  -3.272  1.00  0.00     0.139 C   
BRANCH  24  25
ATOM     25  C16 UNL     1      -1.718   3.286  -4.384  1.00  0.00     0.057 C   
BRANCH  25  26
ATOM     26  C17 UNL     1      -0.363   3.756  -3.900  1.00  0.00    -0.044 A   
ATOM     27  C18 UNL     1       0.032   5.093  -4.044  1.00  0.00     0.004 A   
ATOM     28  C22 UNL     1       0.500   2.863  -3.249  1.00  0.00     0.035 A   
ATOM     29  C19 UNL     1       1.261   5.535  -3.540  1.00  0.00     0.002 A   
ATOM     30  C21 UNL     1       1.702   3.327  -2.704  1.00  0.00     0.118 A   
ATOM     31  C20 UNL     1       2.101   4.656  -2.856  1.00  0.00     0.031 A   
BRANCH  30  32
ATOM     32  N3  UNL     1       2.494   2.421  -1.880  1.00  0.00     0.092 N   
ATOM     33  O3  UNL     1       1.871   1.575  -1.204  1.00  0.00    -0.138 OA  
ATOM     34  O4  UNL     1       3.720   2.571  -1.859  1.00  0.00    -0.138 OA  
ENDBRANCH  30  32
ENDBRANCH  25  26
ENDBRANCH  24  25
ENDBRANCH   3  24
TORSDOF 9
