REMARK SMILES COc1cncc(Cn2cc([C@@H]([NH2+]Cc3ccc4c(c3)OCO4)C3CCCCC3)nn2)c1
REMARK SMILES IDX 9 1 10 2 11 3 30 4 31 5 8 7 7 8 3 9 4 10 32 11 5 12 6 13
REMARK SMILES IDX 2 14 1 15 12 16 13 17 14 20 15 21 16 22 20 23 17 24 19 25
REMARK SMILES IDX 18 26 21 27 23 28 22 29 24 30 25 31 29 32 26 33 28 34 27 35
REMARK H PARENT 10 6 13 18 13 19
ROOT
ATOM     1   N2  UNL     1      -3.523  -0.635  -0.220  1.00  0.00    -0.208 N   
ATOM     2   C7  UNL     1      -2.899   0.564  -0.010  1.00  0.00     0.046 A   
ATOM     3   C8  UNL     1      -2.017   0.308   1.018  1.00  0.00     0.127 A   
ATOM     4   N4  UNL     1      -2.193  -0.986   1.439  1.00  0.00    -0.132 NA  
ATOM     5   N5  UNL     1      -3.104  -1.555   0.668  1.00  0.00    -0.076 NA  
ATOM     6   H8  UNL     1      -3.104   1.435  -0.617  1.00  0.00     0.083 HD  
ENDROOT
BRANCH   1   7
ATOM     7   C6  UNL     1      -4.486  -0.984  -1.253  1.00  0.00     0.171 C   
BRANCH   7   8
ATOM     8   C5  UNL     1      -3.853  -0.928  -2.614  1.00  0.00    -0.008 A   
ATOM     9   C2  UNL     1      -3.618   0.073  -4.810  1.00  0.00     0.093 A   
ATOM     10  C3  UNL     1      -2.618  -0.857  -5.061  1.00  0.00     0.144 A   
ATOM     11  C24 UNL     1      -4.234   0.031  -3.560  1.00  0.00     0.042 A   
ATOM     12  N1  UNL     1      -2.217  -1.796  -4.168  1.00  0.00    -0.262 NA  
ATOM     13  C4  UNL     1      -2.849  -1.821  -2.977  1.00  0.00     0.116 A   
BRANCH   9  14
ATOM     14  O1  UNL     1      -4.068   1.048  -5.651  1.00  0.00    -0.348 OA  
ATOM     15  C1  UNL     1      -3.570   1.014  -6.985  1.00  0.00     0.203 C   
ENDBRANCH   9  14
ENDBRANCH   7   8
ENDBRANCH   1   7
BRANCH   3  16
ATOM     16  C9  UNL     1      -1.005   1.181   1.698  1.00  0.00     0.117 C   
BRANCH  16  17
ATOM     17  N3  UNL     1      -0.218   0.430   2.736  1.00  0.00     0.249 N   
ATOM     18  H10 UNL     1       0.217   1.069   3.410  1.00  0.00     0.199 HD  
ATOM     19  H11 UNL     1      -0.929  -0.088   3.275  1.00  0.00     0.199 HD  
BRANCH  17  20
ATOM     20  C10 UNL     1       0.771  -0.600   2.314  1.00  0.00     0.164 C   
BRANCH  20  21
ATOM     21  C11 UNL     1       1.050  -1.548   3.448  1.00  0.00    -0.002 A   
ATOM     22  C12 UNL     1       0.224  -2.684   3.636  1.00  0.00     0.012 A   
ATOM     23  C16 UNL     1       2.084  -1.284   4.360  1.00  0.00     0.045 A   
ATOM     24  C13 UNL     1       0.431  -3.551   4.713  1.00  0.00     0.037 A   
ATOM     25  C15 UNL     1       2.260  -2.160   5.410  1.00  0.00     0.109 A   
ATOM     26  C14 UNL     1       1.457  -3.261   5.583  1.00  0.00     0.108 A   
ATOM     27  O2  UNL     1       3.207  -2.051   6.378  1.00  0.00    -0.316 OA  
ATOM     28  O3  UNL     1       1.800  -3.984   6.682  1.00  0.00    -0.316 OA  
ATOM     29  C17 UNL     1       2.935  -3.236   7.163  1.00  0.00     0.337 C   
ENDBRANCH  20  21
ENDBRANCH  17  20
ENDBRANCH  16  17
BRANCH  16  30
ATOM     30  C18 UNL     1      -0.140   2.048   0.743  1.00  0.00     0.043 C   
ATOM     31  C19 UNL     1       0.848   2.955   1.500  1.00  0.00     0.010 C   
ATOM     32  C23 UNL     1       0.584   1.287  -0.386  1.00  0.00     0.010 C   
ATOM     33  C20 UNL     1       1.585   3.902   0.554  1.00  0.00     0.001 C   
ATOM     34  C22 UNL     1       1.316   2.245  -1.326  1.00  0.00     0.001 C   
ATOM     35  C21 UNL     1       2.285   3.147  -0.569  1.00  0.00     0.000 C   
ENDBRANCH  16  30
ENDBRANCH   3  16
TORSDOF 8
