REMARK SMILES CC(C)(C)[C@H]([NH2+]Cc1ccc2c(c1)OCO2)c1cn(Cc2noc3c2CCC3)nn1
REMARK SMILES IDX 5 1 2 2 1 3 3 4 4 5 6 6 7 9 8 10 9 11 13 12 10 13 12 14
REMARK SMILES IDX 11 15 14 16 16 17 15 18 17 19 18 20 30 21 19 22 29 23 20 25
REMARK SMILES IDX 21 26 22 27 25 28 23 29 24 30 26 31 28 32 27 33
REMARK H PARENT 6 7 6 8 18 24
ROOT
ATOM     1   C5  UNL     1       1.216  -0.385   2.688  1.00  0.00     0.120 C   
ENDROOT
BRANCH   1   2
ATOM     2   C2  UNL     1       2.442   0.027   3.576  1.00  0.00     0.010 C   
ATOM     3   C1  UNL     1       3.798  -0.292   2.913  1.00  0.00     0.017 C   
ATOM     4   C3  UNL     1       2.398   1.544   3.873  1.00  0.00     0.017 C   
ATOM     5   C4  UNL     1       2.380  -0.699   4.940  1.00  0.00     0.017 C   
ENDBRANCH   1   2
BRANCH   1   6
ATOM     6   N1  UNL     1       1.259  -1.873   2.382  1.00  0.00     0.250 N   
ATOM     7   H11 UNL     1       1.595  -1.948   1.408  1.00  0.00     0.199 HD  
ATOM     8   H12 UNL     1       1.961  -2.354   2.946  1.00  0.00     0.199 HD  
BRANCH   6   9
ATOM     9   C6  UNL     1      -0.033  -2.608   2.490  1.00  0.00     0.164 C   
BRANCH   9  10
ATOM     10  C7  UNL     1      -1.086  -2.150   1.523  1.00  0.00    -0.002 A   
ATOM     11  C8  UNL     1      -0.954  -2.404   0.137  1.00  0.00     0.012 A   
ATOM     12  C12 UNL     1      -2.211  -1.448   1.989  1.00  0.00     0.045 A   
ATOM     13  C9  UNL     1      -1.925  -1.967  -0.772  1.00  0.00     0.037 A   
ATOM     14  C11 UNL     1      -3.149  -1.032   1.067  1.00  0.00     0.109 A   
ATOM     15  C10 UNL     1      -3.013  -1.286  -0.274  1.00  0.00     0.108 A   
ATOM     16  O1  UNL     1      -4.289  -0.354   1.358  1.00  0.00    -0.316 OA  
ATOM     17  O2  UNL     1      -4.057  -0.806  -1.000  1.00  0.00    -0.316 OA  
ATOM     18  C13 UNL     1      -4.861  -0.204   0.040  1.00  0.00     0.337 C   
ENDBRANCH   9  10
ENDBRANCH   6   9
ENDBRANCH   1   6
BRANCH   1  19
ATOM     19  C14 UNL     1       1.123   0.355   1.388  1.00  0.00     0.127 A   
ATOM     20  C15 UNL     1       0.418   1.481   1.027  1.00  0.00     0.046 A   
ATOM     21  N5  UNL     1       1.763  -0.149   0.282  1.00  0.00    -0.132 NA  
ATOM     22  N2  UNL     1       0.673   1.618  -0.311  1.00  0.00    -0.206 N   
ATOM     23  N4  UNL     1       1.488   0.635  -0.747  1.00  0.00    -0.076 NA  
ATOM     24  H20 UNL     1      -0.231   2.162   1.562  1.00  0.00     0.083 HD  
BRANCH  22  25
ATOM     25  C16 UNL     1       0.233   2.671  -1.207  1.00  0.00     0.193 C   
BRANCH  25  26
ATOM     26  C17 UNL     1      -1.141   2.398  -1.687  1.00  0.00     0.093 A   
ATOM     27  N3  UNL     1      -2.214   2.835  -0.984  1.00  0.00    -0.132 NA  
ATOM     28  C19 UNL     1      -1.553   1.726  -2.839  1.00  0.00     0.006 A   
ATOM     29  O3  UNL     1      -3.347   2.445  -1.720  1.00  0.00    -0.218 OA  
ATOM     30  C18 UNL     1      -2.903   1.796  -2.798  1.00  0.00     0.090 A   
ATOM     31  C20 UNL     1      -1.096   1.013  -4.037  1.00  0.00     0.040 C   
ATOM     32  C22 UNL     1      -3.642   1.178  -3.896  1.00  0.00     0.065 C   
ATOM     33  C21 UNL     1      -2.451   0.429  -4.605  1.00  0.00     0.012 C   
ENDBRANCH  25  26
ENDBRANCH  22  25
ENDBRANCH   1  19
TORSDOF 7
