REMARK SMILES CC(C)(C)[C@H]([NH2+]Cc1ccc2c(c1)OCO2)c1cn(Cc2ccc[nH]2)nn1
REMARK SMILES IDX 17 1 18 2 19 3 26 4 27 5 5 7 2 8 1 9 3 10 4 11 6 12 7 15
REMARK SMILES IDX 8 16 9 17 13 18 10 19 12 20 11 21 14 22 16 23 15 24 20 25
REMARK SMILES IDX 21 26 22 27 25 28 23 29 24 30
REMARK H PARENT 18 6 6 13 6 14 25 31
ROOT
ATOM     1   C14 UNL     1       1.912   0.338   0.893  1.00  0.00     0.127 A   
ATOM     2   C15 UNL     1       2.697   1.269   0.250  1.00  0.00     0.046 A   
ATOM     3   N2  UNL     1       3.108   0.626  -0.886  1.00  0.00    -0.206 N   
ATOM     4   N4  UNL     1       2.594  -0.619  -0.948  1.00  0.00    -0.076 NA  
ATOM     5   N5  UNL     1       1.864  -0.808   0.139  1.00  0.00    -0.132 NA  
ATOM     6   H20 UNL     1       2.978   2.290   0.468  1.00  0.00     0.083 HD  
ENDROOT
BRANCH   1   7
ATOM     7   C5  UNL     1       1.094   0.428   2.147  1.00  0.00     0.120 C   
BRANCH   7   8
ATOM     8   C2  UNL     1       1.836  -0.070   3.436  1.00  0.00     0.010 C   
ATOM     9   C1  UNL     1       2.164  -1.576   3.391  1.00  0.00     0.017 C   
ATOM     10  C3  UNL     1       0.972   0.200   4.690  1.00  0.00     0.017 C   
ATOM     11  C4  UNL     1       3.157   0.709   3.627  1.00  0.00     0.017 C   
ENDBRANCH   7   8
BRANCH   7  12
ATOM     12  N1  UNL     1      -0.185  -0.349   1.942  1.00  0.00     0.250 N   
ATOM     13  H11 UNL     1      -0.647  -0.590   2.822  1.00  0.00     0.199 HD  
ATOM     14  H12 UNL     1       0.083  -1.244   1.504  1.00  0.00     0.199 HD  
BRANCH  12  15
ATOM     15  C6  UNL     1      -1.183   0.294   1.040  1.00  0.00     0.164 C   
BRANCH  15  16
ATOM     16  C7  UNL     1      -2.372  -0.605   0.852  1.00  0.00    -0.002 A   
ATOM     17  C8  UNL     1      -3.516  -0.467   1.674  1.00  0.00     0.012 A   
ATOM     18  C12 UNL     1      -2.330  -1.628  -0.112  1.00  0.00     0.045 A   
ATOM     19  C9  UNL     1      -4.609  -1.329   1.532  1.00  0.00     0.037 A   
ATOM     20  C11 UNL     1      -3.424  -2.460  -0.224  1.00  0.00     0.109 A   
ATOM     21  C10 UNL     1      -4.531  -2.316   0.574  1.00  0.00     0.108 A   
ATOM     22  O1  UNL     1      -3.545  -3.493  -1.099  1.00  0.00    -0.316 OA  
ATOM     23  O2  UNL     1      -5.491  -3.237   0.302  1.00  0.00    -0.316 OA  
ATOM     24  C13 UNL     1      -4.870  -3.972  -0.776  1.00  0.00     0.337 C   
ENDBRANCH  15  16
ENDBRANCH  12  15
ENDBRANCH   7  12
ENDBRANCH   1   7
BRANCH   3  25
ATOM     25  C16 UNL     1       3.930   1.147  -1.968  1.00  0.00     0.185 C   
BRANCH  25  26
ATOM     26  C17 UNL     1       3.079   1.868  -2.958  1.00  0.00     0.026 A   
ATOM     27  C18 UNL     1       2.891   3.220  -3.173  1.00  0.00     0.022 A   
ATOM     28  N3  UNL     1       2.304   1.192  -3.874  1.00  0.00    -0.323 N   
ATOM     29  C19 UNL     1       1.966   3.360  -4.234  1.00  0.00     0.017 A   
ATOM     30  C20 UNL     1       1.617   2.093  -4.643  1.00  0.00     0.071 A   
ATOM     31  H26 UNL     1       2.242   0.184  -3.966  1.00  0.00     0.152 HD  
ENDBRANCH  25  26
ENDBRANCH   3  25
TORSDOF 7
