REMARK SMILES CCc1n[nH]c(CC)c1Cn1cc([C@@H]([NH2+]Cc2ccc3c(c2)OCO3)C(C)(C)C)nn1
REMARK SMILES IDX 11 1 12 2 13 3 30 4 31 5 10 7 9 8 3 9 4 10 5 11 6 12 2 14
REMARK SMILES IDX 1 15 7 16 8 17 14 18 15 19 16 22 17 23 18 24 22 25 19 26
REMARK SMILES IDX 21 27 20 28 23 29 25 30 24 31 26 32 27 33 28 34 29 35
REMARK H PARENT 12 6 5 13 15 20 15 21
ROOT
ATOM     1   N3  UNL     1      -1.458   1.711  -0.198  1.00  0.00    -0.208 N   
ATOM     2   C9  UNL     1      -0.781   1.585  -1.383  1.00  0.00     0.046 A   
ATOM     3   C10 UNL     1      -0.385   0.265  -1.405  1.00  0.00     0.127 A   
ATOM     4   N5  UNL     1      -0.818  -0.350  -0.256  1.00  0.00    -0.132 NA  
ATOM     5   N6  UNL     1      -1.470   0.540   0.471  1.00  0.00    -0.076 NA  
ATOM     6   H14 UNL     1      -0.642   2.416  -2.059  1.00  0.00     0.083 HD  
ENDROOT
BRANCH   1   7
ATOM     7   C8  UNL     1      -2.124   2.884   0.350  1.00  0.00     0.173 C   
BRANCH   7   8
ATOM     8   C7  UNL     1      -1.159   3.997   0.577  1.00  0.00     0.013 A   
ATOM     9   C3  UNL     1      -0.076   4.033   1.506  1.00  0.00     0.065 A   
ATOM     10  N1  UNL     1       0.601   5.181   1.427  1.00  0.00    -0.189 NA  
ATOM     11  N2  UNL     1      -0.069   5.907   0.526  1.00  0.00    -0.242 N   
ATOM     12  C4  UNL     1      -1.129   5.244  -0.030  1.00  0.00     0.031 A   
ATOM     13  H6  UNL     1       0.250   6.854   0.340  1.00  0.00     0.175 HD  
BRANCH   9  14
ATOM     14  C2  UNL     1       0.351   2.998   2.497  1.00  0.00     0.055 C   
ATOM     15  C1  UNL     1       1.582   2.227   2.044  1.00  0.00     0.011 C   
ENDBRANCH   9  14
BRANCH  12  16
ATOM     16  C5  UNL     1      -2.003   5.894  -1.048  1.00  0.00     0.050 C   
ATOM     17  C6  UNL     1      -1.454   5.724  -2.455  1.00  0.00     0.010 C   
ENDBRANCH  12  16
ENDBRANCH   7   8
ENDBRANCH   1   7
BRANCH   3  18
ATOM     18  C11 UNL     1       0.448  -0.515  -2.381  1.00  0.00     0.120 C   
BRANCH  18  19
ATOM     19  N4  UNL     1       1.196  -1.579  -1.609  1.00  0.00     0.250 N   
ATOM     20  H16 UNL     1       1.454  -2.388  -2.179  1.00  0.00     0.199 HD  
ATOM     21  H17 UNL     1       0.532  -1.934  -0.901  1.00  0.00     0.199 HD  
BRANCH  19  22
ATOM     22  C12 UNL     1       2.398  -1.104  -0.870  1.00  0.00     0.164 C   
BRANCH  22  23
ATOM     23  C13 UNL     1       2.888  -2.174   0.064  1.00  0.00    -0.002 A   
ATOM     24  C14 UNL     1       2.373  -2.251   1.381  1.00  0.00     0.012 A   
ATOM     25  C18 UNL     1       3.801  -3.145  -0.382  1.00  0.00     0.045 A   
ATOM     26  C15 UNL     1       2.765  -3.277   2.246  1.00  0.00     0.037 A   
ATOM     27  C17 UNL     1       4.162  -4.147   0.495  1.00  0.00     0.109 A   
ATOM     28  C16 UNL     1       3.656  -4.214   1.770  1.00  0.00     0.108 A   
ATOM     29  O1  UNL     1       5.014  -5.170   0.221  1.00  0.00    -0.316 OA  
ATOM     30  O2  UNL     1       4.128  -5.285   2.460  1.00  0.00    -0.316 OA  
ATOM     31  C19 UNL     1       5.016  -5.872   1.485  1.00  0.00     0.337 C   
ENDBRANCH  22  23
ENDBRANCH  19  22
ENDBRANCH  18  19
BRANCH  18  32
ATOM     32  C20 UNL     1      -0.369  -1.167  -3.551  1.00  0.00     0.010 C   
ATOM     33  C21 UNL     1       0.588  -1.837  -4.565  1.00  0.00     0.017 C   
ATOM     34  C22 UNL     1      -1.152  -0.085  -4.328  1.00  0.00     0.017 C   
ATOM     35  C23 UNL     1      -1.371  -2.228  -3.054  1.00  0.00     0.017 C   
ENDBRANCH  18  32
ENDBRANCH   3  18
TORSDOF 9
