REMARK SMILES Cc1cc([C@H](CO)n2cc([C@@H]([NH2+]Cc3ccc4c(c3)OCO4)C(C)C)nn2)c(C)[nH]1
REMARK SMILES IDX 8 1 9 2 10 3 26 4 27 5 5 7 4 8 2 9 3 10 30 11 28 12 1 13
REMARK SMILES IDX 29 15 6 16 7 17 11 19 12 20 13 23 14 24 15 25 19 26 16 27
REMARK SMILES IDX 18 28 17 29 20 30 22 31 21 32 23 33 24 34 25 35
REMARK H PARENT 9 6 30 14 7 18 12 21 12 22
ROOT
ATOM     1   N1  UNL     1      -2.255  -0.166   1.350  1.00  0.00    -0.202 N   
ATOM     2   C7  UNL     1      -1.438  -1.133   0.824  1.00  0.00     0.046 A   
ATOM     3   C8  UNL     1      -0.168  -0.713   1.149  1.00  0.00     0.127 A   
ATOM     4   N3  UNL     1      -0.243   0.480   1.818  1.00  0.00    -0.132 NA  
ATOM     5   N4  UNL     1      -1.518   0.810   1.929  1.00  0.00    -0.075 NA  
ATOM     6   H9  UNL     1      -1.829  -1.991   0.295  1.00  0.00     0.083 HD  
ENDROOT
BRANCH   1   7
ATOM     7   C5  UNL     1      -3.717  -0.111   1.300  1.00  0.00     0.157 C   
BRANCH   7   8
ATOM     8   C4  UNL     1      -4.154   0.865   0.233  1.00  0.00    -0.005 A   
ATOM     9   C2  UNL     1      -4.593   2.805  -0.862  1.00  0.00     0.004 A   
ATOM     10  C3  UNL     1      -4.059   2.287   0.297  1.00  0.00     0.026 A   
ATOM     11  N5  UNL     1      -4.990   1.751  -1.641  1.00  0.00    -0.322 N   
ATOM     12  C21 UNL     1      -4.737   0.567  -0.992  1.00  0.00     0.009 A   
ATOM     13  C1  UNL     1      -4.764   4.212  -1.303  1.00  0.00     0.061 C   
ATOM     14  H30 UNL     1      -5.430   1.838  -2.550  1.00  0.00     0.152 HD  
ATOM     15  C22 UNL     1      -5.089  -0.738  -1.613  1.00  0.00     0.062 C   
ENDBRANCH   7   8
BRANCH   7  16
ATOM     16  C6  UNL     1      -4.337   0.179   2.675  1.00  0.00     0.186 C   
BRANCH  16  17
ATOM     17  O1  UNL     1      -4.199  -0.956   3.535  1.00  0.00    -0.394 OA  
ATOM     18  H8  UNL     1      -4.607  -0.716   4.387  1.00  0.00     0.210 HD  
ENDBRANCH  16  17
ENDBRANCH   7  16
ENDBRANCH   1   7
BRANCH   3  19
ATOM     19  C9  UNL     1       1.173  -1.293   0.842  1.00  0.00     0.117 C   
BRANCH  19  20
ATOM     20  N2  UNL     1       2.185  -0.176   0.692  1.00  0.00     0.249 N   
ATOM     21  H11 UNL     1       3.137  -0.532   0.820  1.00  0.00     0.199 HD  
ATOM     22  H12 UNL     1       1.996   0.480   1.464  1.00  0.00     0.199 HD  
BRANCH  20  23
ATOM     23  C10 UNL     1       2.111   0.608  -0.575  1.00  0.00     0.164 C   
BRANCH  23  24
ATOM     24  C11 UNL     1       2.590  -0.179  -1.766  1.00  0.00    -0.002 A   
ATOM     25  C12 UNL     1       1.666  -0.656  -2.726  1.00  0.00     0.012 A   
ATOM     26  C16 UNL     1       3.957  -0.474  -1.917  1.00  0.00     0.045 A   
ATOM     27  C13 UNL     1       2.091  -1.427  -3.816  1.00  0.00     0.037 A   
ATOM     28  C15 UNL     1       4.343  -1.235  -3.002  1.00  0.00     0.109 A   
ATOM     29  C14 UNL     1       3.437  -1.701  -3.923  1.00  0.00     0.108 A   
ATOM     30  O2  UNL     1       5.616  -1.607  -3.294  1.00  0.00    -0.316 OA  
ATOM     31  O3  UNL     1       4.025  -2.429  -4.908  1.00  0.00    -0.316 OA  
ATOM     32  C17 UNL     1       5.414  -2.341  -4.524  1.00  0.00     0.337 C   
ENDBRANCH  23  24
ENDBRANCH  20  23
ENDBRANCH  19  20
BRANCH  19  33
ATOM     33  C18 UNL     1       1.699  -2.290   1.905  1.00  0.00     0.037 C   
ATOM     34  C19 UNL     1       0.834  -3.552   1.970  1.00  0.00     0.014 C   
ATOM     35  C20 UNL     1       1.851  -1.694   3.307  1.00  0.00     0.014 C   
ENDBRANCH  19  33
ENDBRANCH   3  19
TORSDOF 9
