REMARK SMILES Cc1cc([C@@H](CO)n2cc([C@@H]([NH2+]Cc3ccc4c(c3)OCO4)C(C)C)nn2)c(C)[nH]1
REMARK SMILES IDX 8 1 9 2 10 3 26 4 27 5 5 7 4 8 2 9 3 10 30 11 28 12 1 13
REMARK SMILES IDX 29 15 6 16 7 17 11 19 12 20 13 23 14 24 15 25 19 26 16 27
REMARK SMILES IDX 18 28 17 29 20 30 22 31 21 32 23 33 24 34 25 35
REMARK H PARENT 9 6 30 14 7 18 12 21 12 22
ROOT
ATOM     1   N1  UNL     1       2.306  -0.660  -0.353  1.00  0.00    -0.202 N   
ATOM     2   C7  UNL     1       1.202  -0.821   0.442  1.00  0.00     0.046 A   
ATOM     3   C8  UNL     1       0.305  -1.493  -0.354  1.00  0.00     0.127 A   
ATOM     4   N3  UNL     1       0.872  -1.721  -1.581  1.00  0.00    -0.132 NA  
ATOM     5   N4  UNL     1       2.094  -1.211  -1.569  1.00  0.00    -0.075 NA  
ATOM     6   H9  UNL     1       1.162  -0.446   1.455  1.00  0.00     0.083 HD  
ENDROOT
BRANCH   1   7
ATOM     7   C5  UNL     1       3.550   0.051  -0.067  1.00  0.00     0.157 C   
BRANCH   7   8
ATOM     8   C4  UNL     1       3.273   1.528   0.132  1.00  0.00    -0.005 A   
ATOM     9   C2  UNL     1       2.694   3.518   1.067  1.00  0.00     0.004 A   
ATOM     10  C3  UNL     1       2.811   2.169   1.319  1.00  0.00     0.026 A   
ATOM     11  N5  UNL     1       3.081   3.728  -0.231  1.00  0.00    -0.322 N   
ATOM     12  C21 UNL     1       3.422   2.534  -0.816  1.00  0.00     0.009 A   
ATOM     13  C1  UNL     1       2.277   4.635   1.951  1.00  0.00     0.061 C   
ATOM     14  H30 UNL     1       3.121   4.633  -0.684  1.00  0.00     0.152 HD  
ATOM     15  C22 UNL     1       3.871   2.474  -2.234  1.00  0.00     0.062 C   
ENDBRANCH   7   8
BRANCH   7  16
ATOM     16  C6  UNL     1       4.370  -0.614   1.055  1.00  0.00     0.186 C   
BRANCH  16  17
ATOM     17  O1  UNL     1       3.665  -0.715   2.293  1.00  0.00    -0.394 OA  
ATOM     18  H8  UNL     1       4.303  -1.032   2.960  1.00  0.00     0.210 HD  
ENDBRANCH  16  17
ENDBRANCH   7  16
ENDBRANCH   1   7
BRANCH   3  19
ATOM     19  C9  UNL     1      -1.115  -1.873  -0.101  1.00  0.00     0.117 C   
BRANCH  19  20
ATOM     20  N2  UNL     1      -1.961  -1.629  -1.330  1.00  0.00     0.249 N   
ATOM     21  H11 UNL     1      -2.902  -2.003  -1.195  1.00  0.00     0.199 HD  
ATOM     22  H12 UNL     1      -1.522  -2.156  -2.096  1.00  0.00     0.199 HD  
BRANCH  20  23
ATOM     23  C10 UNL     1      -2.061  -0.208  -1.790  1.00  0.00     0.164 C   
BRANCH  23  24
ATOM     24  C11 UNL     1      -2.659   0.711  -0.761  1.00  0.00    -0.002 A   
ATOM     25  C12 UNL     1      -1.847   1.669  -0.107  1.00  0.00     0.012 A   
ATOM     26  C16 UNL     1      -4.017   0.601  -0.415  1.00  0.00     0.045 A   
ATOM     27  C13 UNL     1      -2.375   2.503   0.884  1.00  0.00     0.037 A   
ATOM     28  C15 UNL     1      -4.504   1.437   0.568  1.00  0.00     0.109 A   
ATOM     29  C14 UNL     1      -3.708   2.361   1.199  1.00  0.00     0.108 A   
ATOM     30  O2  UNL     1      -5.783   1.453   1.026  1.00  0.00    -0.316 OA  
ATOM     31  O3  UNL     1      -4.386   3.076   2.133  1.00  0.00    -0.316 OA  
ATOM     32  C17 UNL     1      -5.712   2.522   1.999  1.00  0.00     0.337 C   
ENDBRANCH  23  24
ENDBRANCH  20  23
ENDBRANCH  19  20
BRANCH  19  33
ATOM     33  C18 UNL     1      -1.260  -3.343   0.378  1.00  0.00     0.037 C   
ATOM     34  C19 UNL     1      -2.651  -3.605   0.972  1.00  0.00     0.014 C   
ATOM     35  C20 UNL     1      -0.956  -4.394  -0.697  1.00  0.00     0.014 C   
ENDBRANCH  19  33
ENDBRANCH   3  19
TORSDOF 9
