REMARK SMILES O=C(Cn1cc([C@@H]([NH2+]Cc2ccc3c(c2)OCO3)C2CCCC2)nn1)c1ccccc1Cl
REMARK SMILES IDX 4 1 5 2 6 3 24 4 25 5 3 7 2 8 1 9 26 10 27 11 31 12 28 13
REMARK SMILES IDX 30 14 29 15 32 16 7 17 8 18 9 21 10 22 11 23 15 24 12 25
REMARK SMILES IDX 14 26 13 27 16 28 18 29 17 30 19 31 20 32 23 33 21 34 22 35
REMARK H PARENT 5 6 8 19 8 20
ROOT
ATOM     1   N1  UNL     1       2.044  -0.983   1.818  1.00  0.00    -0.204 N   
ATOM     2   C3  UNL     1       1.101  -0.056   2.166  1.00  0.00     0.046 A   
ATOM     3   C4  UNL     1       0.230  -0.046   1.101  1.00  0.00     0.127 A   
ATOM     4   N3  UNL     1       0.639  -0.976   0.177  1.00  0.00    -0.132 NA  
ATOM     5   N4  UNL     1       1.741  -1.548   0.632  1.00  0.00    -0.076 NA  
ATOM     6   H3  UNL     1       1.156   0.509   3.085  1.00  0.00     0.083 HD  
ENDROOT
BRANCH   1   7
ATOM     7   C2  UNL     1       3.225  -1.412   2.538  1.00  0.00     0.214 C   
BRANCH   7   8
ATOM     8   C1  UNL     1       4.023  -0.256   3.090  1.00  0.00     0.183 C   
ATOM     9   O1  UNL     1       3.587   0.535   3.923  1.00  0.00    -0.292 OA  
BRANCH   8  10
ATOM     10  C19 UNL     1       5.421  -0.118   2.639  1.00  0.00     0.038 A   
ATOM     11  C20 UNL     1       6.431  -0.410   3.563  1.00  0.00     0.013 A   
ATOM     12  C24 UNL     1       5.742   0.310   1.349  1.00  0.00     0.051 A   
ATOM     13  C21 UNL     1       7.769  -0.300   3.182  1.00  0.00     0.001 A   
ATOM     14  C23 UNL     1       7.085   0.413   0.974  1.00  0.00     0.021 A   
ATOM     15  C22 UNL     1       8.095   0.103   1.888  1.00  0.00     0.002 A   
ATOM     16  CL1 UNL     1       4.539   0.763   0.201  1.00  0.00    -0.084 Cl  
ENDBRANCH   8  10
ENDBRANCH   7   8
ENDBRANCH   1   7
BRANCH   3  17
ATOM     17  C5  UNL     1      -0.976   0.794   0.823  1.00  0.00     0.117 C   
BRANCH  17  18
ATOM     18  N2  UNL     1      -1.287   0.775  -0.649  1.00  0.00     0.249 N   
ATOM     19  H5  UNL     1      -2.275   0.952  -0.847  1.00  0.00     0.199 HD  
ATOM     20  H6  UNL     1      -1.101  -0.186  -0.974  1.00  0.00     0.199 HD  
BRANCH  18  21
ATOM     21  C6  UNL     1      -0.450   1.677  -1.488  1.00  0.00     0.164 C   
BRANCH  21  22
ATOM     22  C7  UNL     1      -0.816   1.525  -2.938  1.00  0.00    -0.002 A   
ATOM     23  C8  UNL     1      -1.789   2.369  -3.524  1.00  0.00     0.012 A   
ATOM     24  C12 UNL     1      -0.237   0.499  -3.704  1.00  0.00     0.045 A   
ATOM     25  C9  UNL     1      -2.173   2.202  -4.858  1.00  0.00     0.037 A   
ATOM     26  C11 UNL     1      -0.639   0.362  -5.016  1.00  0.00     0.109 A   
ATOM     27  C10 UNL     1      -1.580   1.189  -5.576  1.00  0.00     0.108 A   
ATOM     28  O2  UNL     1      -0.185  -0.573  -5.889  1.00  0.00    -0.316 OA  
ATOM     29  O3  UNL     1      -1.835   0.881  -6.874  1.00  0.00    -0.316 OA  
ATOM     30  C13 UNL     1      -0.937  -0.231  -7.074  1.00  0.00     0.337 C   
ENDBRANCH  21  22
ENDBRANCH  18  21
ENDBRANCH  17  18
BRANCH  17  31
ATOM     31  C14 UNL     1      -2.196   0.338   1.643  1.00  0.00     0.043 C   
ATOM     32  C15 UNL     1      -3.396   1.287   1.580  1.00  0.00     0.010 C   
ATOM     33  C18 UNL     1      -2.785  -1.039   1.287  1.00  0.00     0.010 C   
ATOM     34  C16 UNL     1      -4.521   0.440   2.153  1.00  0.00     0.001 C   
ATOM     35  C17 UNL     1      -4.293  -0.932   1.534  1.00  0.00     0.001 C   
ENDBRANCH  17  31
ENDBRANCH   3  17
TORSDOF 8
