REMARK SMILES CC(C)(C)[C@H]([NH2+]Cc1ccc2c(c1)OCO2)c1cn(-c2nnc(C(F)(F)F)[nH]2)nn1
REMARK SMILES IDX 17 1 18 2 19 3 29 4 30 5 5 6 2 7 1 8 3 9 4 10 6 11 7 14 8 15
REMARK SMILES IDX 9 16 13 17 10 18 12 19 11 20 14 21 16 22 15 23 20 24 21 25
REMARK SMILES IDX 28 26 22 27 23 28 24 30 25 31 26 32 27 33
REMARK H PARENT 6 12 6 13 28 29
ROOT
ATOM     1   C14 UNL     1       0.308  -0.891  -0.369  1.00  0.00     0.128 A   
ATOM     2   C15 UNL     1       1.386  -0.427   0.351  1.00  0.00     0.138 A   
ATOM     3   N2  UNL     1       2.035   0.420  -0.512  1.00  0.00    -0.148 N   
ATOM     4   N6  UNL     1       1.441   0.393  -1.728  1.00  0.00    -0.068 NA  
ATOM     5   N7  UNL     1       0.373  -0.388  -1.645  1.00  0.00    -0.131 NA  
ENDROOT
BRANCH   1   6
ATOM     6   C5  UNL     1      -0.892  -1.680   0.069  1.00  0.00     0.120 C   
BRANCH   6   7
ATOM     7   C2  UNL     1      -0.855  -3.190  -0.354  1.00  0.00     0.010 C   
ATOM     8   C1  UNL     1      -0.939  -3.389  -1.880  1.00  0.00     0.017 C   
ATOM     9   C3  UNL     1       0.449  -3.850   0.151  1.00  0.00     0.017 C   
ATOM     10  C4  UNL     1      -2.028  -3.956   0.303  1.00  0.00     0.017 C   
ENDBRANCH   6   7
BRANCH   6  11
ATOM     11  N1  UNL     1      -2.145  -1.004  -0.466  1.00  0.00     0.250 N   
ATOM     12  H11 UNL     1      -1.889  -0.603  -1.380  1.00  0.00     0.199 HD  
ATOM     13  H12 UNL     1      -2.879  -1.690  -0.659  1.00  0.00     0.199 HD  
BRANCH  11  14
ATOM     14  C6  UNL     1      -2.735   0.084   0.377  1.00  0.00     0.164 C   
BRANCH  14  15
ATOM     15  C7  UNL     1      -1.849   1.291   0.516  1.00  0.00    -0.002 A   
ATOM     16  C8  UNL     1      -1.663   2.172  -0.577  1.00  0.00     0.012 A   
ATOM     17  C12 UNL     1      -1.136   1.511   1.707  1.00  0.00     0.045 A   
ATOM     18  C9  UNL     1      -0.750   3.230  -0.502  1.00  0.00     0.037 A   
ATOM     19  C11 UNL     1      -0.234   2.555   1.742  1.00  0.00     0.109 A   
ATOM     20  C10 UNL     1      -0.038   3.384   0.666  1.00  0.00     0.108 A   
ATOM     21  O1  UNL     1       0.576   2.861   2.788  1.00  0.00    -0.316 OA  
ATOM     22  O2  UNL     1       0.925   4.313   0.895  1.00  0.00    -0.316 OA  
ATOM     23  C13 UNL     1       1.309   3.987   2.251  1.00  0.00     0.337 C   
ENDBRANCH  14  15
ENDBRANCH  11  14
ENDBRANCH   6  11
ENDBRANCH   1   6
BRANCH   3  24
ATOM     24  C16 UNL     1       3.080   1.284  -0.282  1.00  0.00     0.233 A   
ATOM     25  N3  UNL     1       3.677   1.448   0.875  1.00  0.00    -0.114 NA  
ATOM     26  N5  UNL     1       3.611   2.132  -1.209  1.00  0.00    -0.263 N   
ATOM     27  N4  UNL     1       4.617   2.440   0.711  1.00  0.00    -0.126 NA  
ATOM     28  C17 UNL     1       4.574   2.852  -0.545  1.00  0.00     0.229 A   
ATOM     29  H21 UNL     1       3.331   2.233  -2.177  1.00  0.00     0.157 HD  
BRANCH  28  30
ATOM     30  C18 UNL     1       5.375   3.904  -1.217  1.00  0.00     0.449 C   
ATOM     31  F1  UNL     1       5.342   5.086  -0.556  1.00  0.00    -0.163 F   
ATOM     32  F2  UNL     1       4.895   4.144  -2.470  1.00  0.00    -0.163 F   
ATOM     33  F3  UNL     1       6.674   3.548  -1.362  1.00  0.00    -0.163 F   
ENDBRANCH  28  30
ENDBRANCH   3  24
TORSDOF 7
