REMARK SMILES CC(C)[C@H]([NH2+]Cc1ccc2c(c1)OCO2)c1cn(CCc2ccc(N(C)C)nc2)nn1
REMARK SMILES IDX 16 1 17 2 18 3 30 4 31 5 4 7 2 8 1 9 3 10 5 11 6 14 7 15
REMARK SMILES IDX 8 16 12 17 9 18 11 19 10 20 13 21 15 22 14 23 19 24 20 25
REMARK SMILES IDX 21 26 22 27 29 28 23 29 28 30 24 31 25 32 26 33 27 34
REMARK H PARENT 17 6 5 12 5 13
ROOT
ATOM     1   C13 UNL     1       0.857  -1.652  -0.607  1.00  0.00     0.127 A   
ATOM     2   C14 UNL     1       1.261  -2.066  -1.859  1.00  0.00     0.045 A   
ATOM     3   N2  UNL     1       2.630  -2.037  -1.796  1.00  0.00    -0.212 N   
ATOM     4   N5  UNL     1       3.045  -1.784  -0.544  1.00  0.00    -0.076 NA  
ATOM     5   N6  UNL     1       1.971  -1.553   0.195  1.00  0.00    -0.132 NA  
ATOM     6   H18 UNL     1       0.746  -2.235  -2.793  1.00  0.00     0.083 HD  
ENDROOT
BRANCH   1   7
ATOM     7   C4  UNL     1      -0.464  -1.191  -0.068  1.00  0.00     0.117 C   
BRANCH   7   8
ATOM     8   C2  UNL     1      -1.748  -1.763  -0.726  1.00  0.00     0.037 C   
ATOM     9   C1  UNL     1      -2.076  -1.229  -2.123  1.00  0.00     0.014 C   
ATOM     10  C3  UNL     1      -1.767  -3.295  -0.720  1.00  0.00     0.014 C   
ENDBRANCH   7   8
BRANCH   7  11
ATOM     11  N1  UNL     1      -0.546   0.321  -0.069  1.00  0.00     0.249 N   
ATOM     12  H9  UNL     1      -0.146   0.685  -0.955  1.00  0.00     0.199 HD  
ATOM     13  H10 UNL     1      -1.519   0.636  -0.070  1.00  0.00     0.199 HD  
BRANCH  11  14
ATOM     14  C5  UNL     1       0.184   1.033   1.018  1.00  0.00     0.164 C   
BRANCH  14  15
ATOM     15  C6  UNL     1      -0.423   0.813   2.377  1.00  0.00    -0.002 A   
ATOM     16  C7  UNL     1       0.228  -0.015   3.323  1.00  0.00     0.012 A   
ATOM     17  C11 UNL     1      -1.653   1.408   2.708  1.00  0.00     0.045 A   
ATOM     18  C8  UNL     1      -0.339  -0.255   4.579  1.00  0.00     0.037 A   
ATOM     19  C10 UNL     1      -2.183   1.152   3.955  1.00  0.00     0.109 A   
ATOM     20  C9  UNL     1      -1.546   0.343   4.864  1.00  0.00     0.108 A   
ATOM     21  O1  UNL     1      -3.358   1.641   4.430  1.00  0.00    -0.316 OA  
ATOM     22  O2  UNL     1      -2.240   0.223   6.026  1.00  0.00    -0.316 OA  
ATOM     23  C12 UNL     1      -3.376   1.072   5.758  1.00  0.00     0.337 C   
ENDBRANCH  14  15
ENDBRANCH  11  14
ENDBRANCH   7  11
ENDBRANCH   1   7
BRANCH   3  24
ATOM     24  C15 UNL     1       3.541  -1.898  -2.918  1.00  0.00     0.139 C   
BRANCH  24  25
ATOM     25  C16 UNL     1       3.899  -0.427  -3.216  1.00  0.00     0.058 C   
BRANCH  25  26
ATOM     26  C17 UNL     1       2.681   0.463  -3.279  1.00  0.00    -0.028 A   
ATOM     27  C18 UNL     1       1.849   0.506  -4.390  1.00  0.00     0.009 A   
ATOM     28  C23 UNL     1       2.251   1.145  -2.150  1.00  0.00     0.117 A   
ATOM     29  C19 UNL     1       0.628   1.184  -4.313  1.00  0.00     0.045 A   
ATOM     30  N4  UNL     1       1.037   1.742  -2.034  1.00  0.00    -0.241 NA  
ATOM     31  C20 UNL     1       0.235   1.804  -3.126  1.00  0.00     0.119 A   
BRANCH  31  32
ATOM     32  N3  UNL     1      -1.018   2.399  -2.938  1.00  0.00    -0.322 N   
ATOM     33  C21 UNL     1      -1.911   2.499  -4.096  1.00  0.00     0.131 C   
ATOM     34  C22 UNL     1      -0.921   3.647  -2.166  1.00  0.00     0.131 C   
ENDBRANCH  31  32
ENDBRANCH  25  26
ENDBRANCH  24  25
ENDBRANCH   3  24
TORSDOF 9
