REMARK SMILES CC(C)[C@H]([NH2+]Cc1ccc2c(c1)OCO2)c1cn(CCc2c(Cl)ncn2C)nn1
REMARK SMILES IDX 16 1 17 2 18 3 28 4 29 5 4 7 2 8 1 9 3 10 5 11 6 14 7 15
REMARK SMILES IDX 8 16 12 17 9 18 11 19 10 20 13 21 15 22 14 23 19 24 20 25
REMARK SMILES IDX 21 26 22 27 26 28 24 29 25 30 23 31 27 32
REMARK H PARENT 17 6 5 12 5 13
ROOT
ATOM     1   C13 UNL     1       1.421  -0.640  -1.717  1.00  0.00     0.127 A   
ATOM     2   C14 UNL     1       1.344   0.643  -2.218  1.00  0.00     0.045 A   
ATOM     3   N2  UNL     1       1.053   0.451  -3.544  1.00  0.00    -0.212 N   
ATOM     4   N5  UNL     1       1.158  -0.845  -3.875  1.00  0.00    -0.076 NA  
ATOM     5   N6  UNL     1       1.342  -1.529  -2.756  1.00  0.00    -0.132 NA  
ATOM     6   H18 UNL     1       1.303   1.616  -1.750  1.00  0.00     0.083 HD  
ENDROOT
BRANCH   1   7
ATOM     7   C4  UNL     1       1.367  -1.121  -0.298  1.00  0.00     0.117 C   
BRANCH   7   8
ATOM     8   C2  UNL     1       2.517  -2.084   0.098  1.00  0.00     0.037 C   
ATOM     9   C1  UNL     1       2.516  -3.439  -0.617  1.00  0.00     0.014 C   
ATOM     10  C3  UNL     1       3.885  -1.411  -0.070  1.00  0.00     0.014 C   
ENDBRANCH   7   8
BRANCH   7  11
ATOM     11  N1  UNL     1       0.007  -1.739  -0.078  1.00  0.00     0.249 N   
ATOM     12  H9  UNL     1      -0.706  -1.036  -0.354  1.00  0.00     0.199 HD  
ATOM     13  H10 UNL     1      -0.120  -2.481  -0.779  1.00  0.00     0.199 HD  
BRANCH  11  14
ATOM     14  C5  UNL     1      -0.373  -2.227   1.270  1.00  0.00     0.164 C   
BRANCH  14  15
ATOM     15  C6  UNL     1      -0.410  -1.143   2.312  1.00  0.00    -0.002 A   
ATOM     16  C7  UNL     1       0.621  -1.026   3.273  1.00  0.00     0.012 A   
ATOM     17  C11 UNL     1      -1.466  -0.215   2.321  1.00  0.00     0.045 A   
ATOM     18  C8  UNL     1       0.612   0.005   4.219  1.00  0.00     0.037 A   
ATOM     19  C10 UNL     1      -1.444   0.793   3.263  1.00  0.00     0.109 A   
ATOM     20  C9  UNL     1      -0.433   0.900   4.185  1.00  0.00     0.108 A   
ATOM     21  O1  UNL     1      -2.373   1.776   3.393  1.00  0.00    -0.316 OA  
ATOM     22  O2  UNL     1      -0.602   1.959   5.018  1.00  0.00    -0.316 OA  
ATOM     23  C12 UNL     1      -1.865   2.478   4.550  1.00  0.00     0.337 C   
ENDBRANCH  14  15
ENDBRANCH  11  14
ENDBRANCH   7  11
ENDBRANCH   1   7
BRANCH   3  24
ATOM     24  C15 UNL     1       0.348   1.374  -4.416  1.00  0.00     0.140 C   
BRANCH  24  25
ATOM     25  C16 UNL     1      -1.177   1.130  -4.444  1.00  0.00     0.076 C   
BRANCH  25  26
ATOM     26  C17 UNL     1      -1.756   0.940  -3.071  1.00  0.00     0.050 A   
ATOM     27  C18 UNL     1      -2.061  -0.219  -2.380  1.00  0.00     0.147 A   
ATOM     28  N4  UNL     1      -2.013   1.946  -2.171  1.00  0.00    -0.296 N   
ATOM     29  N3  UNL     1      -2.200   0.047  -1.036  1.00  0.00    -0.227 NA  
ATOM     30  C19 UNL     1      -2.253   1.361  -0.958  1.00  0.00     0.190 A   
ATOM     31  CL1 UNL     1      -2.066  -1.818  -2.960  1.00  0.00    -0.061 Cl  
ATOM     32  C20 UNL     1      -2.005   3.369  -2.419  1.00  0.00     0.137 C   
ENDBRANCH  25  26
ENDBRANCH  24  25
ENDBRANCH   3  24
TORSDOF 8
