REMARK SMILES Cn1nc(Cn2cc([C@@H]([NH2+]Cc3ccc4c(c3)OCO4)C(C)(C)C)nn2)c2ccccc21
REMARK SMILES IDX 6 1 7 2 8 3 25 4 26 5 5 7 4 8 2 9 3 10 32 11 27 12 31 13
REMARK SMILES IDX 28 14 30 15 29 16 1 17 9 18 10 19 11 22 12 23 13 24 17 25
REMARK SMILES IDX 14 26 16 27 15 28 18 29 20 30 19 31 21 32 22 33 23 34 24 35
REMARK H PARENT 7 6 10 20 10 21
ROOT
ATOM     1   N3  UNL     1       1.000   1.837  -1.986  1.00  0.00    -0.206 N   
ATOM     2   C4  UNL     1       1.075   0.572  -1.469  1.00  0.00     0.046 A   
ATOM     3   C5  UNL     1       0.008  -0.084  -2.041  1.00  0.00     0.127 A   
ATOM     4   N5  UNL     1      -0.629   0.764  -2.911  1.00  0.00    -0.132 NA  
ATOM     5   N6  UNL     1      -0.014   1.935  -2.870  1.00  0.00    -0.076 NA  
ATOM     6   H6  UNL     1       1.798   0.302  -0.711  1.00  0.00     0.083 HD  
ENDROOT
BRANCH   1   7
ATOM     7   C3  UNL     1       1.756   3.007  -1.578  1.00  0.00     0.192 C   
BRANCH   7   8
ATOM     8   C2  UNL     1       1.300   3.422  -0.221  1.00  0.00     0.087 A   
ATOM     9   N1  UNL     1       1.260   3.535   1.896  1.00  0.00    -0.228 N   
ATOM     10  N2  UNL     1       1.933   2.970   0.872  1.00  0.00    -0.184 NA  
ATOM     11  C24 UNL     1       0.182   4.290   1.504  1.00  0.00     0.059 A   
ATOM     12  C19 UNL     1       0.187   4.240   0.113  1.00  0.00     0.022 A   
ATOM     13  C23 UNL     1      -0.776   5.013   2.227  1.00  0.00     0.026 A   
ATOM     14  C20 UNL     1      -0.809   4.931  -0.604  1.00  0.00     0.012 A   
ATOM     15  C22 UNL     1      -1.753   5.695   1.498  1.00  0.00     0.002 A   
ATOM     16  C21 UNL     1      -1.772   5.657   0.104  1.00  0.00     0.001 A   
ATOM     17  C1  UNL     1       1.715   3.317   3.249  1.00  0.00     0.159 C   
ENDBRANCH   7   8
ENDBRANCH   1   7
BRANCH   3  18
ATOM     18  C6  UNL     1      -0.577  -1.425  -1.734  1.00  0.00     0.120 C   
BRANCH  18  19
ATOM     19  N4  UNL     1      -2.084  -1.295  -1.595  1.00  0.00     0.250 N   
ATOM     20  H8  UNL     1      -2.515  -2.212  -1.464  1.00  0.00     0.199 HD  
ATOM     21  H9  UNL     1      -2.428  -0.910  -2.484  1.00  0.00     0.199 HD  
BRANCH  19  22
ATOM     22  C7  UNL     1      -2.580  -0.380  -0.516  1.00  0.00     0.164 C   
BRANCH  22  23
ATOM     23  C8  UNL     1      -2.132  -0.775   0.863  1.00  0.00    -0.002 A   
ATOM     24  C9  UNL     1      -2.640  -1.945   1.477  1.00  0.00     0.012 A   
ATOM     25  C13 UNL     1      -1.181   0.009   1.544  1.00  0.00     0.045 A   
ATOM     26  C10 UNL     1      -2.202  -2.337   2.745  1.00  0.00     0.037 A   
ATOM     27  C12 UNL     1      -0.767  -0.410   2.792  1.00  0.00     0.109 A   
ATOM     28  C11 UNL     1      -1.262  -1.550   3.374  1.00  0.00     0.108 A   
ATOM     29  O1  UNL     1       0.145   0.220   3.577  1.00  0.00    -0.316 OA  
ATOM     30  O2  UNL     1      -0.725  -1.781   4.600  1.00  0.00    -0.316 OA  
ATOM     31  C14 UNL     1       0.162  -0.651   4.731  1.00  0.00     0.337 C   
ENDBRANCH  22  23
ENDBRANCH  19  22
ENDBRANCH  18  19
BRANCH  18  32
ATOM     32  C15 UNL     1      -0.212  -2.541  -2.776  1.00  0.00     0.010 C   
ATOM     33  C16 UNL     1      -0.751  -3.912  -2.304  1.00  0.00     0.017 C   
ATOM     34  C17 UNL     1       1.325  -2.673  -2.889  1.00  0.00     0.017 C   
ATOM     35  C18 UNL     1      -0.776  -2.262  -4.183  1.00  0.00     0.017 C   
ENDBRANCH  18  32
ENDBRANCH   3  18
TORSDOF 7
