REMARK SMILES Cc1cn(C)nc1CCn1cc([C@@H]([NH2+]Cc2ccc3c(c2)OCO3)C(C)(C)C)nn1
REMARK SMILES IDX 10 1 11 2 12 3 29 4 30 5 9 7 8 8 7 9 2 10 3 11 4 12 6 13
REMARK SMILES IDX 1 14 5 15 13 16 14 17 15 20 16 21 17 22 21 23 18 24 20 25
REMARK SMILES IDX 19 26 22 27 24 28 23 29 25 30 26 31 27 32 28 33
REMARK H PARENT 11 6 14 18 14 19
ROOT
ATOM     1   N3  UNL     1      -0.093  -2.451  -1.988  1.00  0.00    -0.212 N   
ATOM     2   C8  UNL     1       0.454  -1.232  -1.710  1.00  0.00     0.045 A   
ATOM     3   C9  UNL     1       1.156  -1.441  -0.545  1.00  0.00     0.127 A   
ATOM     4   N5  UNL     1       1.020  -2.753  -0.167  1.00  0.00    -0.132 NA  
ATOM     5   N6  UNL     1       0.252  -3.360  -1.056  1.00  0.00    -0.076 NA  
ATOM     6   H12 UNL     1       0.265  -0.363  -2.325  1.00  0.00     0.083 HD  
ENDROOT
BRANCH   1   7
ATOM     7   C7  UNL     1      -0.966  -2.813  -3.085  1.00  0.00     0.140 C   
BRANCH   7   8
ATOM     8   C6  UNL     1      -2.425  -2.940  -2.656  1.00  0.00     0.079 C   
BRANCH   8   9
ATOM     9   C5  UNL     1      -3.055  -1.659  -2.205  1.00  0.00     0.065 A   
ATOM     10  C2  UNL     1      -4.082  -1.488  -1.234  1.00  0.00    -0.012 A   
ATOM     11  C3  UNL     1      -4.354  -0.136  -1.260  1.00  0.00     0.100 A   
ATOM     12  N1  UNL     1      -3.546   0.401  -2.215  1.00  0.00    -0.235 N   
ATOM     13  N2  UNL     1      -2.693  -0.490  -2.752  1.00  0.00    -0.187 NA  
ATOM     14  C1  UNL     1      -4.742  -2.528  -0.411  1.00  0.00     0.048 C   
ATOM     15  C4  UNL     1      -3.534   1.768  -2.678  1.00  0.00     0.159 C   
ENDBRANCH   8   9
ENDBRANCH   7   8
ENDBRANCH   1   7
BRANCH   3  16
ATOM     16  C10 UNL     1       1.883  -0.483   0.344  1.00  0.00     0.120 C   
BRANCH  16  17
ATOM     17  N4  UNL     1       1.582  -0.824   1.792  1.00  0.00     0.250 N   
ATOM     18  H14 UNL     1       2.173  -0.285   2.427  1.00  0.00     0.199 HD  
ATOM     19  H15 UNL     1       1.821  -1.818   1.908  1.00  0.00     0.199 HD  
BRANCH  17  20
ATOM     20  C11 UNL     1       0.157  -0.676   2.225  1.00  0.00     0.164 C   
BRANCH  20  21
ATOM     21  C12 UNL     1      -0.346   0.738   2.149  1.00  0.00    -0.002 A   
ATOM     22  C13 UNL     1      -1.286   1.104   1.155  1.00  0.00     0.012 A   
ATOM     23  C17 UNL     1       0.129   1.712   3.045  1.00  0.00     0.045 A   
ATOM     24  C14 UNL     1      -1.748   2.420   1.053  1.00  0.00     0.037 A   
ATOM     25  C16 UNL     1      -0.346   3.000   2.915  1.00  0.00     0.109 A   
ATOM     26  C15 UNL     1      -1.258   3.345   1.948  1.00  0.00     0.108 A   
ATOM     27  O1  UNL     1       0.009   4.056   3.694  1.00  0.00    -0.316 OA  
ATOM     28  O2  UNL     1      -1.593   4.660   1.996  1.00  0.00    -0.316 OA  
ATOM     29  C18 UNL     1      -0.814   5.102   3.129  1.00  0.00     0.337 C   
ENDBRANCH  20  21
ENDBRANCH  17  20
ENDBRANCH  16  17
BRANCH  16  30
ATOM     30  C19 UNL     1       3.435  -0.437   0.106  1.00  0.00     0.010 C   
ATOM     31  C20 UNL     1       4.080   0.669   0.974  1.00  0.00     0.017 C   
ATOM     32  C21 UNL     1       3.732  -0.082  -1.369  1.00  0.00     0.017 C   
ATOM     33  C22 UNL     1       4.133  -1.772   0.432  1.00  0.00     0.017 C   
ENDBRANCH  16  30
ENDBRANCH   3  16
TORSDOF 8
