REMARK SMILES CC(C)[C@H]([NH2+]Cc1ccc2c(c1)OCO2)c1cn(Cc2cc(N([O-])[O-])ccc2F)nn1
REMARK SMILES IDX 16 1 17 2 18 3 30 4 31 5 4 7 2 8 1 9 3 10 5 11 6 14 7 15
REMARK SMILES IDX 8 16 12 17 9 18 11 19 10 20 13 21 15 22 14 23 19 24 20 25
REMARK SMILES IDX 21 26 28 27 22 28 27 29 26 30 29 31 23 32 24 33 25 34
REMARK H PARENT 17 6 5 12 5 13
ROOT
ATOM     1   C13 UNL     1       0.132  -0.939  -2.074  1.00  0.00     0.127 A   
ATOM     2   C14 UNL     1       1.206  -0.858  -2.933  1.00  0.00     0.046 A   
ATOM     3   N2  UNL     1       1.287   0.474  -3.237  1.00  0.00    -0.208 N   
ATOM     4   N4  UNL     1       0.329   1.171  -2.596  1.00  0.00    -0.076 NA  
ATOM     5   N5  UNL     1      -0.388   0.317  -1.887  1.00  0.00    -0.132 NA  
ATOM     6   H18 UNL     1       1.893  -1.587  -3.341  1.00  0.00     0.083 HD  
ENDROOT
BRANCH   1   7
ATOM     7   C4  UNL     1      -0.481  -2.105  -1.361  1.00  0.00     0.117 C   
BRANCH   7   8
ATOM     8   C2  UNL     1      -1.363  -2.967  -2.303  1.00  0.00     0.037 C   
ATOM     9   C1  UNL     1      -1.724  -4.315  -1.666  1.00  0.00     0.014 C   
ATOM     10  C3  UNL     1      -2.640  -2.261  -2.776  1.00  0.00     0.014 C   
ENDBRANCH   7   8
BRANCH   7  11
ATOM     11  N1  UNL     1      -1.286  -1.634  -0.180  1.00  0.00     0.249 N   
ATOM     12  H9  UNL     1      -1.813  -0.804  -0.492  1.00  0.00     0.199 HD  
ATOM     13  H10 UNL     1      -1.986  -2.322   0.114  1.00  0.00     0.199 HD  
BRANCH  11  14
ATOM     14  C5  UNL     1      -0.490  -1.221   1.009  1.00  0.00     0.164 C   
BRANCH  14  15
ATOM     15  C6  UNL     1      -1.394  -0.683   2.081  1.00  0.00    -0.002 A   
ATOM     16  C7  UNL     1      -1.760   0.684   2.081  1.00  0.00     0.012 A   
ATOM     17  C11 UNL     1      -1.930  -1.544   3.054  1.00  0.00     0.045 A   
ATOM     18  C8  UNL     1      -2.637   1.194   3.044  1.00  0.00     0.037 A   
ATOM     19  C10 UNL     1      -2.793  -1.009   3.988  1.00  0.00     0.109 A   
ATOM     20  C9  UNL     1      -3.137   0.320   3.984  1.00  0.00     0.108 A   
ATOM     21  O1  UNL     1      -3.398  -1.700   4.990  1.00  0.00    -0.316 OA  
ATOM     22  O2  UNL     1      -3.999   0.635   4.986  1.00  0.00    -0.316 OA  
ATOM     23  C12 UNL     1      -4.144  -0.644   5.638  1.00  0.00     0.337 C   
ENDBRANCH  14  15
ENDBRANCH  11  14
ENDBRANCH   7  11
ENDBRANCH   1   7
BRANCH   3  24
ATOM     24  C15 UNL     1       2.220   1.142  -4.128  1.00  0.00     0.172 C   
BRANCH  24  25
ATOM     25  C16 UNL     1       3.404   1.676  -3.369  1.00  0.00     0.009 A   
ATOM     26  C17 UNL     1       3.432   3.000  -2.901  1.00  0.00     0.039 A   
ATOM     27  C21 UNL     1       4.493   0.842  -3.092  1.00  0.00     0.128 A   
ATOM     28  C18 UNL     1       4.547   3.465  -2.183  1.00  0.00     0.118 A   
ATOM     29  C20 UNL     1       5.602   1.301  -2.385  1.00  0.00     0.042 A   
ATOM     30  C19 UNL     1       5.635   2.620  -1.927  1.00  0.00     0.034 A   
ATOM     31  F1  UNL     1       4.468  -0.433  -3.505  1.00  0.00    -0.207 F   
BRANCH  28  32
ATOM     32  N3  UNL     1       4.566   4.849  -1.687  1.00  0.00     0.092 N   
ATOM     33  O3  UNL     1       3.613   5.578  -1.992  1.00  0.00    -0.138 OA  
ATOM     34  O4  UNL     1       5.528   5.194  -0.988  1.00  0.00    -0.138 OA  
ENDBRANCH  28  32
ENDBRANCH  24  25
ENDBRANCH   3  24
TORSDOF 8
