REMARK SMILES CCc1n[nH]c(C2CC2)c1Cn1cc([C@@H]([NH2+]Cc2ccc3c(c2)OCO3)C2CCCCC2)nn1
REMARK SMILES IDX 12 1 13 2 14 3 33 4 34 5 11 7 10 8 3 9 4 10 5 11 6 12 2 14
REMARK SMILES IDX 1 15 7 16 8 17 9 18 15 19 16 20 17 23 18 24 19 25 23 26
REMARK SMILES IDX 20 27 22 28 21 29 24 30 26 31 25 32 27 33 28 34 32 35 29 36
REMARK SMILES IDX 31 37 30 38
REMARK H PARENT 13 6 5 13 16 21 16 22
ROOT
ATOM     1   N3  UNL     1       1.278   0.673   0.730  1.00  0.00    -0.208 N   
ATOM     2   C10 UNL     1      -0.029   0.269   0.691  1.00  0.00     0.046 A   
ATOM     3   C11 UNL     1       0.007  -1.032   1.139  1.00  0.00     0.127 A   
ATOM     4   N5  UNL     1       1.306  -1.378   1.410  1.00  0.00    -0.132 NA  
ATOM     5   N6  UNL     1       2.071  -0.326   1.169  1.00  0.00    -0.076 NA  
ATOM     6   H14 UNL     1      -0.825   0.924   0.370  1.00  0.00     0.083 HD  
ENDROOT
BRANCH   1   7
ATOM     7   C9  UNL     1       1.824   2.000   0.487  1.00  0.00     0.173 C   
BRANCH   7   8
ATOM     8   C8  UNL     1       1.650   2.420  -0.930  1.00  0.00     0.014 A   
ATOM     9   C3  UNL     1       2.370   1.959  -2.074  1.00  0.00     0.065 A   
ATOM     10  N1  UNL     1       1.966   2.569  -3.195  1.00  0.00    -0.189 NA  
ATOM     11  N2  UNL     1       1.050   3.454  -2.780  1.00  0.00    -0.242 N   
ATOM     12  C4  UNL     1       0.806   3.386  -1.442  1.00  0.00     0.035 A   
ATOM     13  H6  UNL     1       0.634   4.077  -3.464  1.00  0.00     0.175 HD  
BRANCH   9  14
ATOM     14  C2  UNL     1       3.468   0.947  -2.145  1.00  0.00     0.055 C   
ATOM     15  C1  UNL     1       4.823   1.530  -1.776  1.00  0.00     0.011 C   
ENDBRANCH   9  14
BRANCH  12  16
ATOM     16  C5  UNL     1      -0.176   4.284  -0.652  1.00  0.00     0.036 C   
ATOM     17  C6  UNL     1      -1.377   4.877  -1.340  1.00  0.00     0.010 C   
ATOM     18  C7  UNL     1      -1.556   3.757  -0.357  1.00  0.00     0.010 C   
ENDBRANCH  12  16
ENDBRANCH   7   8
ENDBRANCH   1   7
BRANCH   3  19
ATOM     19  C12 UNL     1      -1.074  -2.047   1.329  1.00  0.00     0.117 C   
BRANCH  19  20
ATOM     20  N4  UNL     1      -0.516  -3.436   1.087  1.00  0.00     0.249 N   
ATOM     21  H16 UNL     1       0.502  -3.363   1.244  1.00  0.00     0.199 HD  
ATOM     22  H17 UNL     1      -0.863  -4.094   1.791  1.00  0.00     0.199 HD  
BRANCH  20  23
ATOM     23  C13 UNL     1      -0.743  -4.015  -0.265  1.00  0.00     0.164 C   
BRANCH  23  24
ATOM     24  C14 UNL     1      -0.026  -3.290  -1.367  1.00  0.00    -0.002 A   
ATOM     25  C15 UNL     1       1.367  -3.464  -1.546  1.00  0.00     0.012 A   
ATOM     26  C19 UNL     1      -0.727  -2.415  -2.215  1.00  0.00     0.045 A   
ATOM     27  C16 UNL     1       2.053  -2.786  -2.558  1.00  0.00     0.037 A   
ATOM     28  C18 UNL     1      -0.019  -1.755  -3.197  1.00  0.00     0.109 A   
ATOM     29  C17 UNL     1       1.330  -1.939  -3.368  1.00  0.00     0.108 A   
ATOM     30  O1  UNL     1      -0.541  -0.873  -4.090  1.00  0.00    -0.316 OA  
ATOM     31  O2  UNL     1       1.827  -1.208  -4.397  1.00  0.00    -0.316 OA  
ATOM     32  C20 UNL     1       0.640  -0.522  -4.849  1.00  0.00     0.337 C   
ENDBRANCH  23  24
ENDBRANCH  20  23
ENDBRANCH  19  20
BRANCH  19  33
ATOM     33  C21 UNL     1      -1.725  -2.021   2.740  1.00  0.00     0.043 C   
ATOM     34  C22 UNL     1      -2.531  -0.728   2.973  1.00  0.00     0.010 C   
ATOM     35  C26 UNL     1      -0.731  -2.240   3.899  1.00  0.00     0.010 C   
ATOM     36  C23 UNL     1      -3.239  -0.743   4.327  1.00  0.00     0.001 C   
ATOM     37  C25 UNL     1      -1.441  -2.249   5.252  1.00  0.00     0.001 C   
ATOM     38  C24 UNL     1      -2.258  -0.980   5.470  1.00  0.00     0.000 C   
ENDBRANCH  19  33
ENDBRANCH   3  19
TORSDOF 9
