REMARK SMILES COc1ccc(CCn2cc([C@@H]([NH2+]Cc3ccc4c(c3)OCO4)C(C)(C)C)nn2)cc1F
REMARK SMILES IDX 9 1 10 2 11 3 28 4 29 5 8 7 7 8 6 9 3 10 4 11 31 12 5 13
REMARK SMILES IDX 30 14 32 15 2 16 1 17 12 18 13 19 14 22 15 23 16 24 20 25
REMARK SMILES IDX 17 26 19 27 18 28 21 29 23 30 22 31 24 32 25 33 26 34 27 35
REMARK H PARENT 10 6 13 20 13 21
ROOT
ATOM     1   N1  UNL     1      -2.164  -0.036  -1.840  1.00  0.00    -0.212 N   
ATOM     2   C8  UNL     1      -1.543   1.036  -1.263  1.00  0.00     0.045 A   
ATOM     3   C9  UNL     1      -0.219   0.881  -1.613  1.00  0.00     0.127 A   
ATOM     4   N3  UNL     1      -0.086  -0.253  -2.373  1.00  0.00    -0.132 NA  
ATOM     5   N4  UNL     1      -1.285  -0.795  -2.518  1.00  0.00    -0.076 NA  
ATOM     6   H10 UNL     1      -2.071   1.757  -0.654  1.00  0.00     0.083 HD  
ENDROOT
BRANCH   1   7
ATOM     7   C7  UNL     1      -3.545  -0.452  -1.691  1.00  0.00     0.139 C   
BRANCH   7   8
ATOM     8   C6  UNL     1      -3.708  -1.733  -0.863  1.00  0.00     0.057 C   
BRANCH   8   9
ATOM     9   C5  UNL     1      -3.081  -1.626   0.508  1.00  0.00    -0.043 A   
ATOM     10  C2  UNL     1      -1.803  -1.257   2.997  1.00  0.00     0.110 A   
ATOM     11  C3  UNL     1      -3.105  -0.793   2.796  1.00  0.00     0.037 A   
ATOM     12  C24 UNL     1      -1.164  -1.926   1.951  1.00  0.00     0.153 A   
ATOM     13  C4  UNL     1      -3.737  -0.971   1.558  1.00  0.00     0.006 A   
ATOM     14  C23 UNL     1      -1.790  -2.121   0.724  1.00  0.00     0.045 A   
ATOM     15  F1  UNL     1       0.106  -2.338   2.087  1.00  0.00    -0.204 F   
BRANCH  10  16
ATOM     16  O1  UNL     1      -1.060  -1.091   4.132  1.00  0.00    -0.346 OA  
ATOM     17  C1  UNL     1      -1.697  -0.469   5.242  1.00  0.00     0.203 C   
ENDBRANCH  10  16
ENDBRANCH   8   9
ENDBRANCH   7   8
ENDBRANCH   1   7
BRANCH   3  18
ATOM     18  C10 UNL     1       1.001   1.656  -1.217  1.00  0.00     0.120 C   
BRANCH  18  19
ATOM     19  N2  UNL     1       2.098   0.676  -0.850  1.00  0.00     0.250 N   
ATOM     20  H12 UNL     1       2.090  -0.048  -1.584  1.00  0.00     0.199 HD  
ATOM     21  H13 UNL     1       3.020   1.116  -0.876  1.00  0.00     0.199 HD  
BRANCH  19  22
ATOM     22  C11 UNL     1       1.941  -0.022   0.463  1.00  0.00     0.164 C   
BRANCH  22  23
ATOM     23  C12 UNL     1       2.164   0.895   1.633  1.00  0.00    -0.002 A   
ATOM     24  C13 UNL     1       3.469   1.335   1.963  1.00  0.00     0.012 A   
ATOM     25  C17 UNL     1       1.071   1.347   2.394  1.00  0.00     0.045 A   
ATOM     26  C14 UNL     1       3.683   2.213   3.031  1.00  0.00     0.037 A   
ATOM     27  C16 UNL     1       1.316   2.210   3.441  1.00  0.00     0.109 A   
ATOM     28  C15 UNL     1       2.586   2.633   3.749  1.00  0.00     0.108 A   
ATOM     29  O2  UNL     1       0.376   2.739   4.268  1.00  0.00    -0.316 OA  
ATOM     30  O3  UNL     1       2.606   3.480   4.811  1.00  0.00    -0.316 OA  
ATOM     31  C18 UNL     1       1.206   3.517   5.161  1.00  0.00     0.337 C   
ENDBRANCH  22  23
ENDBRANCH  19  22
ENDBRANCH  18  19
BRANCH  18  32
ATOM     32  C19 UNL     1       1.508   2.665  -2.306  1.00  0.00     0.010 C   
ATOM     33  C20 UNL     1       2.022   1.967  -3.580  1.00  0.00     0.017 C   
ATOM     34  C21 UNL     1       2.652   3.535  -1.734  1.00  0.00     0.017 C   
ATOM     35  C22 UNL     1       0.368   3.630  -2.706  1.00  0.00     0.017 C   
ENDBRANCH  18  32
ENDBRANCH   3  18
TORSDOF 9
