REMARK SMILES CC(C)(C)[C@H]([NH2+]Cc1ccc2c(c1)OCO2)c1cn(CCc2cncnc2)nn1
REMARK SMILES IDX 17 1 18 2 19 3 28 4 29 5 5 7 2 8 1 9 3 10 4 11 6 12 7 15
REMARK SMILES IDX 8 16 9 17 13 18 10 19 12 20 11 21 14 22 16 23 15 24 20 25
REMARK SMILES IDX 21 26 22 27 23 28 27 29 24 30 26 31 25 32
REMARK H PARENT 18 6 6 13 6 14
ROOT
ATOM     1   C14 UNL     1      -0.680   1.733   1.118  1.00  0.00     0.127 A   
ATOM     2   C15 UNL     1      -0.455   2.871   0.375  1.00  0.00     0.045 A   
ATOM     3   N2  UNL     1       0.822   3.233   0.704  1.00  0.00    -0.212 N   
ATOM     4   N5  UNL     1       1.345   2.387   1.609  1.00  0.00    -0.076 NA  
ATOM     5   N6  UNL     1       0.436   1.462   1.870  1.00  0.00    -0.132 NA  
ATOM     6   H20 UNL     1      -1.038   3.402  -0.365  1.00  0.00     0.083 HD  
ENDROOT
BRANCH   1   7
ATOM     7   C5  UNL     1      -1.831   0.773   1.119  1.00  0.00     0.120 C   
BRANCH   7   8
ATOM     8   C2  UNL     1      -2.873   1.021   2.266  1.00  0.00     0.010 C   
ATOM     9   C1  UNL     1      -4.096   0.090   2.092  1.00  0.00     0.017 C   
ATOM     10  C3  UNL     1      -2.284   0.786   3.671  1.00  0.00     0.017 C   
ATOM     11  C4  UNL     1      -3.402   2.473   2.198  1.00  0.00     0.017 C   
ENDBRANCH   7   8
BRANCH   7  12
ATOM     12  N1  UNL     1      -1.296  -0.638   1.188  1.00  0.00     0.250 N   
ATOM     13  H11 UNL     1      -2.022  -1.316   1.431  1.00  0.00     0.199 HD  
ATOM     14  H12 UNL     1      -0.607  -0.663   1.953  1.00  0.00     0.199 HD  
BRANCH  12  15
ATOM     15  C6  UNL     1      -0.598  -1.118  -0.042  1.00  0.00     0.164 C   
BRANCH  15  16
ATOM     16  C7  UNL     1      -0.150  -2.541   0.139  1.00  0.00    -0.002 A   
ATOM     17  C8  UNL     1       1.122  -2.820   0.694  1.00  0.00     0.012 A   
ATOM     18  C12 UNL     1      -1.012  -3.601  -0.187  1.00  0.00     0.045 A   
ATOM     19  C9  UNL     1       1.536  -4.139   0.911  1.00  0.00     0.037 A   
ATOM     20  C11 UNL     1      -0.573  -4.889   0.041  1.00  0.00     0.109 A   
ATOM     21  C10 UNL     1       0.665  -5.151   0.575  1.00  0.00     0.108 A   
ATOM     22  O1  UNL     1      -1.278  -6.021  -0.215  1.00  0.00    -0.316 OA  
ATOM     23  O2  UNL     1       0.896  -6.481   0.718  1.00  0.00    -0.316 OA  
ATOM     24  C13 UNL     1      -0.329  -7.033   0.192  1.00  0.00     0.337 C   
ENDBRANCH  15  16
ENDBRANCH  12  15
ENDBRANCH   7  12
ENDBRANCH   1   7
BRANCH   3  25
ATOM     25  C16 UNL     1       1.650   4.238   0.067  1.00  0.00     0.139 C   
BRANCH  25  26
ATOM     26  C17 UNL     1       2.739   3.635  -0.831  1.00  0.00     0.060 C   
BRANCH  26  27
ATOM     27  C18 UNL     1       2.184   2.701  -1.868  1.00  0.00    -0.010 A   
ATOM     28  C19 UNL     1       2.146   1.332  -1.673  1.00  0.00     0.118 A   
ATOM     29  C21 UNL     1       1.594   3.140  -3.035  1.00  0.00     0.118 A   
ATOM     30  N3  UNL     1       1.546   0.466  -2.514  1.00  0.00    -0.245 NA  
ATOM     31  N4  UNL     1       1.005   2.318  -3.924  1.00  0.00    -0.245 NA  
ATOM     32  C20 UNL     1       1.031   1.011  -3.628  1.00  0.00     0.221 A   
ENDBRANCH  26  27
ENDBRANCH  25  26
ENDBRANCH   3  25
TORSDOF 8
