REMARK SMILES Cn1ccc2c(Cn3cc([C@@H]([NH2+]Cc4ccc5c(c4)OCO5)C4CCCCC4)nn3)cccc21
REMARK SMILES IDX 8 1 9 2 10 3 29 4 30 5 7 7 6 8 2 9 3 10 34 11 4 12 5 13
REMARK SMILES IDX 33 14 32 15 31 16 1 17 11 18 12 19 13 22 14 23 15 24 19 25
REMARK SMILES IDX 16 26 18 27 17 28 20 29 22 30 21 31 23 32 24 33 28 34 25 35
REMARK SMILES IDX 27 36 26 37
REMARK H PARENT 9 6 12 20 12 21
ROOT
ATOM     1   N2  UNL     1       0.073  -3.460  -0.634  1.00  0.00    -0.208 N   
ATOM     2   C7  UNL     1       0.290  -2.542   0.357  1.00  0.00     0.046 A   
ATOM     3   C8  UNL     1       0.837  -1.465  -0.302  1.00  0.00     0.127 A   
ATOM     4   N4  UNL     1       1.033  -1.800  -1.622  1.00  0.00    -0.132 NA  
ATOM     5   N5  UNL     1       0.583  -3.030  -1.805  1.00  0.00    -0.076 NA  
ATOM     6   H8  UNL     1      -0.021  -2.709   1.379  1.00  0.00     0.083 HD  
ENDROOT
BRANCH   1   7
ATOM     7   C6  UNL     1      -0.641  -4.722  -0.545  1.00  0.00     0.170 C   
BRANCH   7   8
ATOM     8   C5  UNL     1      -2.083  -4.539  -0.953  1.00  0.00    -0.019 A   
ATOM     9   N1  UNL     1      -5.195  -3.651   0.576  1.00  0.00    -0.310 N   
ATOM     10  C2  UNL     1      -4.428  -3.585   1.709  1.00  0.00     0.075 A   
ATOM     11  C27 UNL     1      -4.413  -3.992  -0.511  1.00  0.00     0.040 A   
ATOM     12  C3  UNL     1      -3.136  -3.909   1.362  1.00  0.00     0.026 A   
ATOM     13  C4  UNL     1      -3.107  -4.169  -0.041  1.00  0.00     0.002 A   
ATOM     14  C26 UNL     1      -4.755  -4.164  -1.861  1.00  0.00     0.024 A   
ATOM     15  C25 UNL     1      -3.744  -4.519  -2.753  1.00  0.00     0.002 A   
ATOM     16  C24 UNL     1      -2.436  -4.701  -2.312  1.00  0.00     0.006 A   
ATOM     17  C1  UNL     1      -6.620  -3.413   0.530  1.00  0.00     0.136 C   
ENDBRANCH   7   8
ENDBRANCH   1   7
BRANCH   3  18
ATOM     18  C9  UNL     1       1.233  -0.104   0.173  1.00  0.00     0.117 C   
BRANCH  18  19
ATOM     19  N3  UNL     1       2.232   0.507  -0.791  1.00  0.00     0.249 N   
ATOM     20  H10 UNL     1       2.284   1.522  -0.669  1.00  0.00     0.199 HD  
ATOM     21  H11 UNL     1       1.855   0.329  -1.733  1.00  0.00     0.199 HD  
BRANCH  19  22
ATOM     22  C10 UNL     1       3.613  -0.063  -0.760  1.00  0.00     0.164 C   
BRANCH  22  23
ATOM     23  C11 UNL     1       4.414   0.430   0.413  1.00  0.00    -0.002 A   
ATOM     24  C12 UNL     1       5.021   1.708   0.379  1.00  0.00     0.012 A   
ATOM     25  C16 UNL     1       4.546  -0.366   1.565  1.00  0.00     0.045 A   
ATOM     26  C13 UNL     1       5.746   2.189   1.475  1.00  0.00     0.037 A   
ATOM     27  C15 UNL     1       5.261   0.142   2.629  1.00  0.00     0.109 A   
ATOM     28  C14 UNL     1       5.844   1.383   2.586  1.00  0.00     0.108 A   
ATOM     29  O1  UNL     1       5.471  -0.489   3.813  1.00  0.00    -0.316 OA  
ATOM     30  O2  UNL     1       6.500   1.689   3.735  1.00  0.00    -0.316 OA  
ATOM     31  C17 UNL     1       6.282   0.487   4.505  1.00  0.00     0.337 C   
ENDBRANCH  22  23
ENDBRANCH  19  22
ENDBRANCH  18  19
BRANCH  18  32
ATOM     32  C18 UNL     1       0.041   0.883   0.323  1.00  0.00     0.043 C   
ATOM     33  C19 UNL     1      -0.796   1.059  -0.961  1.00  0.00     0.010 C   
ATOM     34  C23 UNL     1      -0.872   0.499   1.507  1.00  0.00     0.010 C   
ATOM     35  C20 UNL     1      -1.937   2.057  -0.761  1.00  0.00     0.001 C   
ATOM     36  C22 UNL     1      -2.001   1.509   1.703  1.00  0.00     0.001 C   
ATOM     37  C21 UNL     1      -2.818   1.685   0.427  1.00  0.00     0.000 C   
ENDBRANCH  18  32
ENDBRANCH   3  18
TORSDOF 7
