REMARK SMILES COc1ccc(Cn2cc([C@@H]([NH2+]Cc3ccc4c(c3)OCO4)C3CCCCC3)nn2)c(C)c1
REMARK SMILES IDX 8 1 9 2 10 3 29 4 30 5 7 7 6 8 3 9 4 10 33 11 5 12 31 13
REMARK SMILES IDX 32 14 2 15 1 16 11 17 12 18 13 21 14 22 15 23 19 24 16 25
REMARK SMILES IDX 18 26 17 27 20 28 22 29 21 30 23 31 24 32 28 33 25 34 27 35
REMARK SMILES IDX 26 36
REMARK H PARENT 9 6 12 19 12 20
ROOT
ATOM     1   N1  UNL     1      -1.321   1.529   1.720  1.00  0.00    -0.208 N   
ATOM     2   C7  UNL     1      -1.099   1.595   0.371  1.00  0.00     0.046 A   
ATOM     3   C8  UNL     1       0.124   0.985   0.204  1.00  0.00     0.127 A   
ATOM     4   N3  UNL     1       0.633   0.661   1.437  1.00  0.00    -0.132 NA  
ATOM     5   N4  UNL     1      -0.244   1.028   2.355  1.00  0.00    -0.076 NA  
ATOM     6   H8  UNL     1      -1.830   1.998  -0.315  1.00  0.00     0.083 HD  
ENDROOT
BRANCH   1   7
ATOM     7   C6  UNL     1      -2.512   1.917   2.458  1.00  0.00     0.169 C   
BRANCH   7   8
ATOM     8   C5  UNL     1      -3.688   1.038   2.090  1.00  0.00    -0.025 A   
ATOM     9   C2  UNL     1      -5.866  -0.557   1.253  1.00  0.00     0.075 A   
ATOM     10  C3  UNL     1      -5.699   0.731   0.749  1.00  0.00     0.034 A   
ATOM     11  C26 UNL     1      -4.946  -1.048   2.180  1.00  0.00     0.037 A   
ATOM     12  C4  UNL     1      -4.626   1.522   1.161  1.00  0.00     0.008 A   
ATOM     13  C24 UNL     1      -3.859  -0.263   2.615  1.00  0.00    -0.044 A   
ATOM     14  C25 UNL     1      -2.899  -0.860   3.611  1.00  0.00     0.045 C   
BRANCH   9  15
ATOM     15  O1  UNL     1      -6.950  -1.227   0.760  1.00  0.00    -0.349 OA  
ATOM     16  C1  UNL     1      -7.242  -2.496   1.337  1.00  0.00     0.203 C   
ENDBRANCH   9  15
ENDBRANCH   7   8
ENDBRANCH   1   7
BRANCH   3  17
ATOM     17  C9  UNL     1       0.914   0.667  -1.025  1.00  0.00     0.117 C   
BRANCH  17  18
ATOM     18  N2  UNL     1       2.375   0.508  -0.674  1.00  0.00     0.249 N   
ATOM     19  H10 UNL     1       2.411  -0.051   0.191  1.00  0.00     0.199 HD  
ATOM     20  H11 UNL     1       2.879  -0.026  -1.389  1.00  0.00     0.199 HD  
BRANCH  18  21
ATOM     21  C10 UNL     1       3.110   1.775  -0.405  1.00  0.00     0.164 C   
BRANCH  21  22
ATOM     22  C11 UNL     1       4.547   1.481  -0.078  1.00  0.00    -0.002 A   
ATOM     23  C12 UNL     1       5.543   1.575  -1.078  1.00  0.00     0.012 A   
ATOM     24  C16 UNL     1       4.900   1.056   1.216  1.00  0.00     0.045 A   
ATOM     25  C13 UNL     1       6.876   1.258  -0.794  1.00  0.00     0.037 A   
ATOM     26  C15 UNL     1       6.221   0.744   1.459  1.00  0.00     0.109 A   
ATOM     27  C14 UNL     1       7.181   0.842   0.483  1.00  0.00     0.108 A   
ATOM     28  O2  UNL     1       6.726   0.308   2.642  1.00  0.00    -0.316 OA  
ATOM     29  O3  UNL     1       8.413   0.489   0.930  1.00  0.00    -0.316 OA  
ATOM     30  C17 UNL     1       8.124   0.154   2.304  1.00  0.00     0.337 C   
ENDBRANCH  21  22
ENDBRANCH  18  21
ENDBRANCH  17  18
BRANCH  17  31
ATOM     31  C18 UNL     1       0.455  -0.621  -1.762  1.00  0.00     0.043 C   
ATOM     32  C19 UNL     1      -0.931  -0.448  -2.414  1.00  0.00     0.010 C   
ATOM     33  C23 UNL     1       0.477  -1.889  -0.884  1.00  0.00     0.010 C   
ATOM     34  C20 UNL     1      -1.342  -1.689  -3.203  1.00  0.00     0.001 C   
ATOM     35  C22 UNL     1       0.046  -3.129  -1.669  1.00  0.00     0.001 C   
ATOM     36  C21 UNL     1      -1.316  -2.938  -2.328  1.00  0.00     0.000 C   
ENDBRANCH  17  31
ENDBRANCH   3  17
TORSDOF 8
