REMARK SMILES CC(C)(C)[C@H]([NH2+]Cc1ccc2c(c1)OCO2)c1cn([C@H](CO)c2cc(F)ccn2)nn1
REMARK SMILES IDX 17 1 18 2 19 3 30 4 31 5 5 7 2 8 1 9 3 10 4 11 6 12 7 15
REMARK SMILES IDX 8 16 9 17 13 18 10 19 12 20 11 21 14 22 16 23 15 24 20 25
REMARK SMILES IDX 21 26 22 27 23 29 24 30 29 31 25 32 28 33 27 34 26 35
REMARK H PARENT 18 6 6 13 6 14 22 28
ROOT
ATOM     1   C14 UNL     1       0.081  -1.562   0.387  1.00  0.00     0.127 A   
ATOM     2   C15 UNL     1      -0.368  -1.898   1.644  1.00  0.00     0.046 A   
ATOM     3   N2  UNL     1       0.584  -1.398   2.492  1.00  0.00    -0.201 N   
ATOM     4   N4  UNL     1       1.536  -0.742   1.791  1.00  0.00    -0.075 NA  
ATOM     5   N5  UNL     1       1.239  -0.837   0.505  1.00  0.00    -0.132 NA  
ATOM     6   H20 UNL     1      -1.242  -2.427   1.998  1.00  0.00     0.083 HD  
ENDROOT
BRANCH   1   7
ATOM     7   C5  UNL     1      -0.537  -1.771  -0.962  1.00  0.00     0.120 C   
BRANCH   7   8
ATOM     8   C2  UNL     1       0.068  -2.967  -1.776  1.00  0.00     0.010 C   
ATOM     9   C1  UNL     1       0.018  -4.264  -0.931  1.00  0.00     0.017 C   
ATOM     10  C3  UNL     1       1.528  -2.725  -2.209  1.00  0.00     0.017 C   
ATOM     11  C4  UNL     1      -0.777  -3.227  -3.045  1.00  0.00     0.017 C   
ENDBRANCH   7   8
BRANCH   7  12
ATOM     12  N1  UNL     1      -0.425  -0.484  -1.748  1.00  0.00     0.250 N   
ATOM     13  H11 UNL     1      -0.549  -0.630  -2.753  1.00  0.00     0.199 HD  
ATOM     14  H12 UNL     1       0.540  -0.143  -1.623  1.00  0.00     0.199 HD  
BRANCH  12  15
ATOM     15  C6  UNL     1      -1.342   0.599  -1.295  1.00  0.00     0.164 C   
BRANCH  15  16
ATOM     16  C7  UNL     1      -1.124   1.853  -2.090  1.00  0.00    -0.002 A   
ATOM     17  C8  UNL     1      -1.783   2.043  -3.327  1.00  0.00     0.012 A   
ATOM     18  C12 UNL     1      -0.239   2.839  -1.615  1.00  0.00     0.045 A   
ATOM     19  C9  UNL     1      -1.588   3.213  -4.069  1.00  0.00     0.037 A   
ATOM     20  C11 UNL     1      -0.079   3.981  -2.370  1.00  0.00     0.109 A   
ATOM     21  C10 UNL     1      -0.735   4.166  -3.558  1.00  0.00     0.108 A   
ATOM     22  O1  UNL     1       0.705   5.038  -2.042  1.00  0.00    -0.316 OA  
ATOM     23  O2  UNL     1      -0.450   5.363  -4.130  1.00  0.00    -0.316 OA  
ATOM     24  C13 UNL     1       0.444   5.928  -3.151  1.00  0.00     0.337 C   
ENDBRANCH  15  16
ENDBRANCH  12  15
ENDBRANCH   7  12
ENDBRANCH   1   7
BRANCH   3  25
ATOM     25  C16 UNL     1       0.650  -1.431   3.948  1.00  0.00     0.174 C   
BRANCH  25  26
ATOM     26  C17 UNL     1       0.367  -2.828   4.544  1.00  0.00     0.187 C   
BRANCH  26  27
ATOM     27  O3  UNL     1      -0.970  -3.292   4.316  1.00  0.00    -0.394 OA  
ATOM     28  H24 UNL     1      -1.561  -2.634   4.749  1.00  0.00     0.210 HD  
ENDBRANCH  26  27
ENDBRANCH  25  26
BRANCH  25  29
ATOM     29  C18 UNL     1      -0.230  -0.336   4.526  1.00  0.00     0.068 A   
ATOM     30  C19 UNL     1       0.251   0.967   4.626  1.00  0.00     0.065 A   
ATOM     31  N3  UNL     1      -1.497  -0.663   4.907  1.00  0.00    -0.259 NA  
ATOM     32  C20 UNL     1      -0.590   1.941   5.149  1.00  0.00     0.126 A   
ATOM     33  C22 UNL     1      -2.281   0.317   5.425  1.00  0.00     0.114 A   
ATOM     34  C21 UNL     1      -1.872   1.630   5.562  1.00  0.00     0.059 A   
ATOM     35  F1  UNL     1      -0.155   3.203   5.246  1.00  0.00    -0.207 F   
ENDBRANCH  25  29
ENDBRANCH   3  25
TORSDOF 9
