REMARK SMILES CC(C)(C)[C@H]([NH2+]Cc1ccc2c(c1)OCO2)c1cn([C@@H](CO)c2cc(F)ccn2)nn1
REMARK SMILES IDX 17 1 18 2 19 3 30 4 31 5 5 7 2 8 1 9 3 10 4 11 6 12 7 15
REMARK SMILES IDX 8 16 9 17 13 18 10 19 12 20 11 21 14 22 16 23 15 24 20 25
REMARK SMILES IDX 21 26 22 27 23 29 24 30 29 31 25 32 28 33 27 34 26 35
REMARK H PARENT 18 6 6 13 6 14 22 28
ROOT
ATOM     1   C14 UNL     1      -0.876  -0.830   0.595  1.00  0.00     0.127 A   
ATOM     2   C15 UNL     1      -1.801  -1.715   0.089  1.00  0.00     0.046 A   
ATOM     3   N2  UNL     1      -2.477  -0.995  -0.860  1.00  0.00    -0.201 N   
ATOM     4   N4  UNL     1      -1.978   0.258  -0.945  1.00  0.00    -0.075 NA  
ATOM     5   N5  UNL     1      -1.008   0.372  -0.052  1.00  0.00    -0.132 NA  
ATOM     6   H20 UNL     1      -2.031  -2.751   0.298  1.00  0.00     0.083 HD  
ENDROOT
BRANCH   1   7
ATOM     7   C5  UNL     1       0.209  -1.016   1.614  1.00  0.00     0.120 C   
BRANCH   7   8
ATOM     8   C2  UNL     1      -0.232  -0.693   3.086  1.00  0.00     0.010 C   
ATOM     9   C1  UNL     1      -0.632   0.783   3.279  1.00  0.00     0.017 C   
ATOM     10  C3  UNL     1      -1.436  -1.577   3.487  1.00  0.00     0.017 C   
ATOM     11  C4  UNL     1       0.913  -1.018   4.075  1.00  0.00     0.017 C   
ENDBRANCH   7   8
BRANCH   7  12
ATOM     12  N1  UNL     1       1.394  -0.165   1.220  1.00  0.00     0.250 N   
ATOM     13  H11 UNL     1       2.051  -0.028   1.992  1.00  0.00     0.199 HD  
ATOM     14  H12 UNL     1       1.025   0.768   0.983  1.00  0.00     0.199 HD  
BRANCH  12  15
ATOM     15  C6  UNL     1       2.158  -0.647   0.035  1.00  0.00     0.164 C   
BRANCH  15  16
ATOM     16  C7  UNL     1       3.278   0.305  -0.282  1.00  0.00    -0.002 A   
ATOM     17  C8  UNL     1       3.035   1.451  -1.079  1.00  0.00     0.012 A   
ATOM     18  C12 UNL     1       4.556   0.100   0.264  1.00  0.00     0.045 A   
ATOM     19  C9  UNL     1       4.052   2.375  -1.336  1.00  0.00     0.037 A   
ATOM     20  C11 UNL     1       5.536   1.030  -0.011  1.00  0.00     0.109 A   
ATOM     21  C10 UNL     1       5.292   2.136  -0.787  1.00  0.00     0.108 A   
ATOM     22  O1  UNL     1       6.818   0.982   0.437  1.00  0.00    -0.316 OA  
ATOM     23  O2  UNL     1       6.390   2.923  -0.926  1.00  0.00    -0.316 OA  
ATOM     24  C13 UNL     1       7.364   2.179  -0.163  1.00  0.00     0.337 C   
ENDBRANCH  15  16
ENDBRANCH  12  15
ENDBRANCH   7  12
ENDBRANCH   1   7
BRANCH   3  25
ATOM     25  C16 UNL     1      -3.584  -1.404  -1.716  1.00  0.00     0.174 C   
BRANCH  25  26
ATOM     26  C17 UNL     1      -3.202  -2.563  -2.659  1.00  0.00     0.187 C   
BRANCH  26  27
ATOM     27  O3  UNL     1      -2.857  -3.769  -1.973  1.00  0.00    -0.394 OA  
ATOM     28  H24 UNL     1      -3.637  -3.994  -1.418  1.00  0.00     0.210 HD  
ENDBRANCH  26  27
ENDBRANCH  25  26
BRANCH  25  29
ATOM     29  C18 UNL     1      -4.813  -1.691  -0.871  1.00  0.00     0.068 A   
ATOM     30  C19 UNL     1      -5.688  -0.662  -0.540  1.00  0.00     0.065 A   
ATOM     31  N3  UNL     1      -5.000  -2.966  -0.427  1.00  0.00    -0.259 NA  
ATOM     32  C20 UNL     1      -6.787  -0.967   0.247  1.00  0.00     0.126 A   
ATOM     33  C22 UNL     1      -6.092  -3.218   0.335  1.00  0.00     0.114 A   
ATOM     34  C21 UNL     1      -7.010  -2.255   0.698  1.00  0.00     0.059 A   
ATOM     35  F1  UNL     1      -7.645   0.005   0.580  1.00  0.00    -0.207 F   
ENDBRANCH  25  29
ENDBRANCH   3  25
TORSDOF 9
