REMARK SMILES COc1ccc(CCn2cc([C@H](CC(C)C)[NH2+]Cc3ccc4c(c3)OCO4)nn2)cc1
REMARK SMILES IDX 9 1 10 2 11 3 28 4 29 5 8 7 7 8 6 9 3 10 4 11 31 12 5 13
REMARK SMILES IDX 30 14 2 15 1 16 12 17 13 18 14 19 15 20 16 21 17 22 18 25
REMARK SMILES IDX 19 26 20 27 24 28 21 29 23 30 22 31 25 32 27 33 26 34
REMARK H PARENT 10 6 17 23 17 24
ROOT
ATOM     1   N1  UNL     1       0.620  -1.925   1.917  1.00  0.00    -0.212 N   
ATOM     2   C8  UNL     1       0.018  -0.711   2.099  1.00  0.00     0.045 A   
ATOM     3   C9  UNL     1      -1.180  -0.834   1.433  1.00  0.00     0.127 A   
ATOM     4   N3  UNL     1      -1.280  -2.100   0.914  1.00  0.00    -0.132 NA  
ATOM     5   N4  UNL     1      -0.173  -2.758   1.219  1.00  0.00    -0.076 NA  
ATOM     6   H10 UNL     1       0.505   0.108   2.611  1.00  0.00     0.083 HD  
ENDROOT
BRANCH   1   7
ATOM     7   C7  UNL     1       1.975  -2.303   2.265  1.00  0.00     0.139 C   
BRANCH   7   8
ATOM     8   C6  UNL     1       2.912  -2.347   1.053  1.00  0.00     0.057 C   
BRANCH   8   9
ATOM     9   C5  UNL     1       2.915  -1.060   0.257  1.00  0.00    -0.046 A   
ATOM     10  C2  UNL     1       2.785   1.355  -1.181  1.00  0.00     0.075 A   
ATOM     11  C3  UNL     1       2.250   0.184  -1.717  1.00  0.00     0.034 A   
ATOM     12  C24 UNL     1       3.401   1.314   0.070  1.00  0.00     0.034 A   
ATOM     13  C4  UNL     1       2.314  -1.016  -1.007  1.00  0.00     0.006 A   
ATOM     14  C23 UNL     1       3.471   0.112   0.783  1.00  0.00     0.006 A   
BRANCH  10  15
ATOM     15  O1  UNL     1       2.620   2.468  -1.958  1.00  0.00    -0.349 OA  
ATOM     16  C1  UNL     1       3.434   3.593  -1.633  1.00  0.00     0.203 C   
ENDBRANCH  10  15
ENDBRANCH   8   9
ENDBRANCH   7   8
ENDBRANCH   1   7
BRANCH   3  17
ATOM     17  C10 UNL     1      -2.237   0.173   1.132  1.00  0.00     0.114 C   
BRANCH  17  18
ATOM     18  C11 UNL     1      -3.519  -0.044   1.956  1.00  0.00     0.064 C   
BRANCH  18  19
ATOM     19  C12 UNL     1      -3.348   0.115   3.483  1.00  0.00    -0.012 C   
ATOM     20  C13 UNL     1      -4.668  -0.208   4.188  1.00  0.00     0.007 C   
ATOM     21  C14 UNL     1      -2.888   1.520   3.873  1.00  0.00     0.007 C   
ENDBRANCH  18  19
ENDBRANCH  17  18
BRANCH  17  22
ATOM     22  N2  UNL     1      -2.620   0.084  -0.326  1.00  0.00     0.249 N   
ATOM     23  H21 UNL     1      -3.484   0.601  -0.516  1.00  0.00     0.199 HD  
ATOM     24  H22 UNL     1      -2.820  -0.907  -0.523  1.00  0.00     0.199 HD  
BRANCH  22  25
ATOM     25  C15 UNL     1      -1.565   0.528  -1.282  1.00  0.00     0.164 C   
BRANCH  25  26
ATOM     26  C16 UNL     1      -2.040   0.371  -2.699  1.00  0.00    -0.002 A   
ATOM     27  C17 UNL     1      -1.888  -0.866  -3.368  1.00  0.00     0.012 A   
ATOM     28  C21 UNL     1      -2.684   1.436  -3.350  1.00  0.00     0.045 A   
ATOM     29  C18 UNL     1      -2.358  -1.040  -4.675  1.00  0.00     0.037 A   
ATOM     30  C20 UNL     1      -3.138   1.231  -4.637  1.00  0.00     0.109 A   
ATOM     31  C19 UNL     1      -2.979   0.028  -5.281  1.00  0.00     0.108 A   
ATOM     32  O2  UNL     1      -3.777   2.151  -5.404  1.00  0.00    -0.316 OA  
ATOM     33  O3  UNL     1      -3.494   0.042  -6.539  1.00  0.00    -0.316 OA  
ATOM     34  C22 UNL     1      -3.988   1.395  -6.620  1.00  0.00     0.337 C   
ENDBRANCH  25  26
ENDBRANCH  22  25
ENDBRANCH  17  22
ENDBRANCH   3  17
TORSDOF 10
