REMARK SMILES CCc1n[nH]c(C2CC2)c1Cn1cc([C@@H]([NH2+]Cc2ccc3c(c2)OCO3)C2CCCC2)nn1
REMARK SMILES IDX 12 1 13 2 14 3 32 4 33 5 11 7 10 8 3 9 4 10 5 11 6 12 2 14
REMARK SMILES IDX 1 15 7 16 8 17 9 18 15 19 16 20 17 23 18 24 19 25 23 26
REMARK SMILES IDX 20 27 22 28 21 29 24 30 26 31 25 32 27 33 28 34 31 35 29 36
REMARK SMILES IDX 30 37
REMARK H PARENT 13 6 5 13 16 21 16 22
ROOT
ATOM     1   N3  UNL     1      -1.151  -0.297  -1.218  1.00  0.00    -0.208 N   
ATOM     2   C10 UNL     1      -0.811   1.018  -1.049  1.00  0.00     0.046 A   
ATOM     3   C11 UNL     1      -0.318   1.392  -2.279  1.00  0.00     0.127 A   
ATOM     4   N5  UNL     1      -0.369   0.321  -3.133  1.00  0.00    -0.132 NA  
ATOM     5   N6  UNL     1      -0.898  -0.700  -2.479  1.00  0.00    -0.076 NA  
ATOM     6   H14 UNL     1      -0.933   1.530  -0.105  1.00  0.00     0.083 HD  
ENDROOT
BRANCH   1   7
ATOM     7   C9  UNL     1      -1.757  -1.200  -0.254  1.00  0.00     0.173 C   
BRANCH   7   8
ATOM     8   C8  UNL     1      -0.720  -1.802   0.626  1.00  0.00     0.014 A   
ATOM     9   C3  UNL     1       0.073  -2.959   0.357  1.00  0.00     0.065 A   
ATOM     10  N1  UNL     1       0.904  -3.237   1.369  1.00  0.00    -0.189 NA  
ATOM     11  N2  UNL     1       0.653  -2.285   2.276  1.00  0.00    -0.242 N   
ATOM     12  C4  UNL     1      -0.306  -1.400   1.883  1.00  0.00     0.035 A   
ATOM     13  H6  UNL     1       1.179  -2.295   3.144  1.00  0.00     0.175 HD  
BRANCH   9  14
ATOM     14  C2  UNL     1       0.065  -3.842  -0.850  1.00  0.00     0.055 C   
ATOM     15  C1  UNL     1       1.274  -3.620  -1.747  1.00  0.00     0.011 C   
ENDBRANCH   9  14
BRANCH  12  16
ATOM     16  C5  UNL     1      -0.822  -0.187   2.704  1.00  0.00     0.036 C   
ATOM     17  C6  UNL     1       0.185   0.737   3.334  1.00  0.00     0.010 C   
ATOM     18  C7  UNL     1      -0.650  -0.163   4.199  1.00  0.00     0.010 C   
ENDBRANCH  12  16
ENDBRANCH   7   8
ENDBRANCH   1   7
BRANCH   3  19
ATOM     19  C12 UNL     1       0.271   2.676  -2.761  1.00  0.00     0.117 C   
BRANCH  19  20
ATOM     20  N4  UNL     1       1.519   2.368  -3.562  1.00  0.00     0.249 N   
ATOM     21  H16 UNL     1       1.467   1.362  -3.795  1.00  0.00     0.199 HD  
ATOM     22  H17 UNL     1       1.502   2.844  -4.467  1.00  0.00     0.199 HD  
BRANCH  20  23
ATOM     23  C13 UNL     1       2.817   2.630  -2.884  1.00  0.00     0.164 C   
BRANCH  23  24
ATOM     24  C14 UNL     1       3.066   1.744  -1.697  1.00  0.00    -0.002 A   
ATOM     25  C15 UNL     1       2.916   2.243  -0.381  1.00  0.00     0.012 A   
ATOM     26  C19 UNL     1       3.437   0.402  -1.886  1.00  0.00     0.045 A   
ATOM     27  C16 UNL     1       3.127   1.420   0.731  1.00  0.00     0.037 A   
ATOM     28  C18 UNL     1       3.650  -0.379  -0.769  1.00  0.00     0.109 A   
ATOM     29  C17 UNL     1       3.494   0.112   0.503  1.00  0.00     0.108 A   
ATOM     30  O1  UNL     1       4.042  -1.679  -0.780  1.00  0.00    -0.316 OA  
ATOM     31  O2  UNL     1       3.755  -0.820   1.456  1.00  0.00    -0.316 OA  
ATOM     32  C20 UNL     1       4.143  -1.947   0.636  1.00  0.00     0.337 C   
ENDBRANCH  23  24
ENDBRANCH  20  23
ENDBRANCH  19  20
BRANCH  19  33
ATOM     33  C21 UNL     1      -0.707   3.466  -3.652  1.00  0.00     0.043 C   
ATOM     34  C22 UNL     1      -1.996   3.873  -2.931  1.00  0.00     0.010 C   
ATOM     35  C25 UNL     1      -0.167   4.825  -4.113  1.00  0.00     0.010 C   
ATOM     36  C23 UNL     1      -2.592   4.947  -3.831  1.00  0.00     0.001 C   
ATOM     37  C24 UNL     1      -1.404   5.634  -4.499  1.00  0.00     0.001 C   
ENDBRANCH  19  33
ENDBRANCH   3  19
TORSDOF 9
