REMARK SMILES CCOc1ccccc1Cn1cc([C@@H]([NH2+]Cc2ccc3c(c2)OCO3)C(C)(C)C)nn1
REMARK SMILES IDX 11 1 12 2 13 3 30 4 31 5 10 7 9 8 4 9 5 10 6 11 8 12 7 13
REMARK SMILES IDX 3 14 2 15 1 16 14 17 15 18 16 21 17 22 18 23 22 24 19 25
REMARK SMILES IDX 21 26 20 27 23 28 25 29 24 30 26 31 27 32 28 33 29 34
REMARK H PARENT 12 6 15 19 15 20
ROOT
ATOM     1   N1  UNL     1       0.839   2.627   0.949  1.00  0.00    -0.208 N   
ATOM     2   C10 UNL     1       0.007   1.623   1.364  1.00  0.00     0.046 A   
ATOM     3   C11 UNL     1       0.027   0.721   0.324  1.00  0.00     0.127 A   
ATOM     4   N3  UNL     1       0.778   1.237  -0.702  1.00  0.00    -0.132 NA  
ATOM     5   N4  UNL     1       1.244   2.415  -0.321  1.00  0.00    -0.076 NA  
ATOM     6   H12 UNL     1      -0.457   1.628   2.341  1.00  0.00     0.083 HD  
ENDROOT
BRANCH   1   7
ATOM     7   C9  UNL     1       1.240   3.820   1.674  1.00  0.00     0.172 C   
BRANCH   7   8
ATOM     8   C8  UNL     1       2.569   3.621   2.360  1.00  0.00     0.002 A   
ATOM     9   C3  UNL     1       2.665   2.950   3.594  1.00  0.00     0.080 A   
ATOM     10  C4  UNL     1       3.918   2.785   4.193  1.00  0.00     0.034 A   
ATOM     11  C5  UNL     1       5.070   3.274   3.572  1.00  0.00     0.003 A   
ATOM     12  C7  UNL     1       3.739   4.100   1.742  1.00  0.00     0.008 A   
ATOM     13  C6  UNL     1       4.982   3.928   2.348  1.00  0.00     0.001 A   
BRANCH   9  14
ATOM     14  O1  UNL     1       1.482   2.494   4.117  1.00  0.00    -0.346 OA  
BRANCH  14  15
ATOM     15  C2  UNL     1       1.531   1.872   5.403  1.00  0.00     0.164 C   
ATOM     16  C1  UNL     1       0.116   1.469   5.776  1.00  0.00     0.035 C   
ENDBRANCH  14  15
ENDBRANCH   9  14
ENDBRANCH   7   8
ENDBRANCH   1   7
BRANCH   3  17
ATOM     17  C12 UNL     1      -0.646  -0.607   0.148  1.00  0.00     0.120 C   
BRANCH  17  18
ATOM     18  N2  UNL     1      -0.928  -0.814  -1.322  1.00  0.00     0.250 N   
ATOM     19  H14 UNL     1      -1.094  -1.794  -1.560  1.00  0.00     0.199 HD  
ATOM     20  H15 UNL     1      -0.069  -0.538  -1.823  1.00  0.00     0.199 HD  
BRANCH  18  21
ATOM     21  C13 UNL     1      -2.038   0.008  -1.881  1.00  0.00     0.164 C   
BRANCH  21  22
ATOM     22  C14 UNL     1      -2.163  -0.223  -3.361  1.00  0.00    -0.002 A   
ATOM     23  C15 UNL     1      -1.339   0.494  -4.262  1.00  0.00     0.012 A   
ATOM     24  C19 UNL     1      -3.054  -1.190  -3.855  1.00  0.00     0.045 A   
ATOM     25  C16 UNL     1      -1.408   0.261  -5.640  1.00  0.00     0.037 A   
ATOM     26  C18 UNL     1      -3.097  -1.395  -5.219  1.00  0.00     0.109 A   
ATOM     27  C17 UNL     1      -2.299  -0.690  -6.087  1.00  0.00     0.108 A   
ATOM     28  O2  UNL     1      -3.895  -2.291  -5.858  1.00  0.00    -0.316 OA  
ATOM     29  O3  UNL     1      -2.497  -1.050  -7.381  1.00  0.00    -0.316 OA  
ATOM     30  C20 UNL     1      -3.528  -2.050  -7.236  1.00  0.00     0.337 C   
ENDBRANCH  21  22
ENDBRANCH  18  21
ENDBRANCH  17  18
BRANCH  17  31
ATOM     31  C21 UNL     1       0.170  -1.819   0.723  1.00  0.00     0.010 C   
ATOM     32  C22 UNL     1       1.510  -2.030  -0.009  1.00  0.00     0.017 C   
ATOM     33  C23 UNL     1      -0.655  -3.124   0.614  1.00  0.00     0.017 C   
ATOM     34  C24 UNL     1       0.467  -1.605   2.226  1.00  0.00     0.017 C   
ENDBRANCH  17  31
ENDBRANCH   3  17
TORSDOF 9
