REMARK SMILES Cc1cnccc1[C@H](CO)n1cc([C@@H]([NH2+]Cc2ccc3c(c2)OCO3)C(C)C)nn1
REMARK SMILES IDX 11 1 12 2 13 3 29 4 30 5 8 7 7 8 2 9 3 10 4 11 6 12 5 13
REMARK SMILES IDX 1 14 9 15 10 16 14 18 15 19 16 22 17 23 18 24 22 25 19 26
REMARK SMILES IDX 21 27 20 28 23 29 25 30 24 31 26 32 27 33 28 34
REMARK H PARENT 12 6 10 17 15 20 15 21
ROOT
ATOM     1   N2  UNL     1      -1.226   1.173   2.410  1.00  0.00    -0.202 N   
ATOM     2   C9  UNL     1      -1.008   0.396   1.303  1.00  0.00     0.046 A   
ATOM     3   C10 UNL     1       0.360   0.385   1.161  1.00  0.00     0.127 A   
ATOM     4   N4  UNL     1       0.920   1.160   2.144  1.00  0.00    -0.132 NA  
ATOM     5   N5  UNL     1      -0.056   1.647   2.892  1.00  0.00    -0.075 NA  
ATOM     6   H11 UNL     1      -1.818  -0.059   0.750  1.00  0.00     0.083 HD  
ENDROOT
BRANCH   1   7
ATOM     7   C7  UNL     1      -2.488   1.517   3.068  1.00  0.00     0.155 C   
BRANCH   7   8
ATOM     8   C6  UNL     1      -3.356   0.274   3.266  1.00  0.00    -0.017 A   
ATOM     9   C2  UNL     1      -3.091  -0.647   4.306  1.00  0.00    -0.028 A   
ATOM     10  C3  UNL     1      -3.905  -1.778   4.403  1.00  0.00     0.114 A   
ATOM     11  N1  UNL     1      -4.926  -2.058   3.569  1.00  0.00    -0.264 NA  
ATOM     12  C5  UNL     1      -4.426  -0.014   2.402  1.00  0.00     0.026 A   
ATOM     13  C4  UNL     1      -5.169  -1.168   2.591  1.00  0.00     0.111 A   
ATOM     14  C1  UNL     1      -1.984  -0.468   5.307  1.00  0.00     0.046 C   
ENDBRANCH   7   8
BRANCH   7  15
ATOM     15  C8  UNL     1      -3.142   2.740   2.386  1.00  0.00     0.185 C   
BRANCH  15  16
ATOM     16  O1  UNL     1      -3.356   2.555   0.985  1.00  0.00    -0.394 OA  
ATOM     17  H10 UNL     1      -3.806   3.358   0.660  1.00  0.00     0.210 HD  
ENDBRANCH  15  16
ENDBRANCH   7  15
ENDBRANCH   1   7
BRANCH   3  18
ATOM     18  C11 UNL     1       1.232  -0.277   0.144  1.00  0.00     0.117 C   
BRANCH  18  19
ATOM     19  N3  UNL     1       2.530   0.481  -0.008  1.00  0.00     0.249 N   
ATOM     20  H13 UNL     1       3.245  -0.101  -0.452  1.00  0.00     0.199 HD  
ATOM     21  H14 UNL     1       2.852   0.685   0.949  1.00  0.00     0.199 HD  
BRANCH  19  22
ATOM     22  C12 UNL     1       2.446   1.785  -0.730  1.00  0.00     0.164 C   
BRANCH  22  23
ATOM     23  C13 UNL     1       2.200   1.616  -2.203  1.00  0.00    -0.002 A   
ATOM     24  C14 UNL     1       3.234   1.157  -3.055  1.00  0.00     0.012 A   
ATOM     25  C18 UNL     1       0.928   1.881  -2.741  1.00  0.00     0.045 A   
ATOM     26  C15 UNL     1       3.005   0.959  -4.421  1.00  0.00     0.037 A   
ATOM     27  C17 UNL     1       0.736   1.674  -4.091  1.00  0.00     0.109 A   
ATOM     28  C16 UNL     1       1.744   1.224  -4.907  1.00  0.00     0.108 A   
ATOM     29  O2  UNL     1      -0.428   1.872  -4.763  1.00  0.00    -0.316 OA  
ATOM     30  O3  UNL     1       1.343   1.086  -6.197  1.00  0.00    -0.316 OA  
ATOM     31  C19 UNL     1      -0.030   1.522  -6.109  1.00  0.00     0.337 C   
ENDBRANCH  22  23
ENDBRANCH  19  22
ENDBRANCH  18  19
BRANCH  18  32
ATOM     32  C20 UNL     1       1.515  -1.762   0.495  1.00  0.00     0.037 C   
ATOM     33  C21 UNL     1       2.121  -2.518  -0.694  1.00  0.00     0.014 C   
ATOM     34  C22 UNL     1       2.397  -1.955   1.734  1.00  0.00     0.014 C   
ENDBRANCH  18  32
ENDBRANCH   3  18
TORSDOF 9
