REMARK SMILES Cc1cnccc1[C@@H](CO)n1cc([C@@H]([NH2+]Cc2ccc3c(c2)OCO3)C(C)C)nn1
REMARK SMILES IDX 11 1 12 2 13 3 29 4 30 5 8 7 7 8 2 9 3 10 4 11 6 12 5 13
REMARK SMILES IDX 1 14 9 15 10 16 14 18 15 19 16 22 17 23 18 24 22 25 19 26
REMARK SMILES IDX 21 27 20 28 23 29 25 30 24 31 26 32 27 33 28 34
REMARK H PARENT 12 6 10 17 15 20 15 21
ROOT
ATOM     1   N2  UNL     1       1.422   1.369   2.311  1.00  0.00    -0.202 N   
ATOM     2   C9  UNL     1       0.221   0.784   2.005  1.00  0.00     0.046 A   
ATOM     3   C10 UNL     1       0.550  -0.238   1.147  1.00  0.00     0.127 A   
ATOM     4   N4  UNL     1       1.908  -0.242   0.952  1.00  0.00    -0.132 NA  
ATOM     5   N5  UNL     1       2.430   0.743   1.664  1.00  0.00    -0.075 NA  
ATOM     6   H11 UNL     1      -0.712   1.136   2.423  1.00  0.00     0.083 HD  
ENDROOT
BRANCH   1   7
ATOM     7   C7  UNL     1       1.700   2.516   3.176  1.00  0.00     0.155 C   
BRANCH   7   8
ATOM     8   C6  UNL     1       0.866   3.726   2.753  1.00  0.00    -0.017 A   
ATOM     9   C2  UNL     1       1.260   4.547   1.670  1.00  0.00    -0.028 A   
ATOM     10  C3  UNL     1       0.427   5.611   1.317  1.00  0.00     0.114 A   
ATOM     11  N1  UNL     1      -0.734   5.908   1.934  1.00  0.00    -0.264 NA  
ATOM     12  C5  UNL     1      -0.338   4.044   3.402  1.00  0.00     0.026 A   
ATOM     13  C4  UNL     1      -1.088   5.125   2.968  1.00  0.00     0.111 A   
ATOM     14  C1  UNL     1       2.523   4.333   0.886  1.00  0.00     0.046 C   
ENDBRANCH   7   8
BRANCH   7  15
ATOM     15  C8  UNL     1       1.656   2.109   4.667  1.00  0.00     0.185 C   
BRANCH  15  16
ATOM     16  O1  UNL     1       0.414   1.522   5.058  1.00  0.00    -0.394 OA  
ATOM     17  H10 UNL     1       0.486   1.316   6.009  1.00  0.00     0.210 HD  
ENDBRANCH  15  16
ENDBRANCH   7  15
ENDBRANCH   1   7
BRANCH   3  18
ATOM     18  C11 UNL     1      -0.305  -1.240   0.439  1.00  0.00     0.117 C   
BRANCH  18  19
ATOM     19  N3  UNL     1       0.385  -1.730  -0.805  1.00  0.00     0.249 N   
ATOM     20  H13 UNL     1       1.369  -1.898  -0.549  1.00  0.00     0.199 HD  
ATOM     21  H14 UNL     1       0.014  -2.628  -1.127  1.00  0.00     0.199 HD  
BRANCH  19  22
ATOM     22  C12 UNL     1       0.388  -0.771  -1.945  1.00  0.00     0.164 C   
BRANCH  22  23
ATOM     23  C13 UNL     1       1.183  -1.326  -3.093  1.00  0.00    -0.002 A   
ATOM     24  C14 UNL     1       0.541  -2.042  -4.131  1.00  0.00     0.012 A   
ATOM     25  C18 UNL     1       2.581  -1.182  -3.111  1.00  0.00     0.045 A   
ATOM     26  C15 UNL     1       1.280  -2.599  -5.181  1.00  0.00     0.037 A   
ATOM     27  C17 UNL     1       3.279  -1.744  -4.160  1.00  0.00     0.109 A   
ATOM     28  C16 UNL     1       2.647  -2.432  -5.166  1.00  0.00     0.108 A   
ATOM     29  O2  UNL     1       4.626  -1.698  -4.329  1.00  0.00    -0.316 OA  
ATOM     30  O3  UNL     1       3.517  -2.905  -6.096  1.00  0.00    -0.316 OA  
ATOM     31  C19 UNL     1       4.772  -2.417  -5.574  1.00  0.00     0.337 C   
ENDBRANCH  22  23
ENDBRANCH  19  22
ENDBRANCH  18  19
BRANCH  18  32
ATOM     32  C20 UNL     1      -0.683  -2.436   1.353  1.00  0.00     0.037 C   
ATOM     33  C21 UNL     1       0.502  -3.339   1.717  1.00  0.00     0.014 C   
ATOM     34  C22 UNL     1      -1.808  -3.281   0.743  1.00  0.00     0.014 C   
ENDBRANCH  18  32
ENDBRANCH   3  18
TORSDOF 9
