REMARK SMILES CC(C)C[C@H]([NH2+]Cc1ccc2c(c1)OCO2)c1cn(C[C@@H](O)c2ccccc2Cl)nn1
REMARK SMILES IDX 17 1 18 2 19 3 30 4 31 5 5 7 4 8 2 9 1 10 3 11 6 12 7 15
REMARK SMILES IDX 8 16 9 17 13 18 10 19 12 20 11 21 14 22 16 23 15 24 20 25
REMARK SMILES IDX 21 26 22 27 23 29 24 30 28 31 25 32 27 33 26 34 29 35
REMARK H PARENT 18 6 6 13 6 14 22 28
ROOT
ATOM     1   C14 UNL     1       0.518   0.093   1.279  1.00  0.00     0.127 A   
ATOM     2   C15 UNL     1      -0.523   0.993   1.220  1.00  0.00     0.045 A   
ATOM     3   N2  UNL     1      -0.861   1.190   2.530  1.00  0.00    -0.209 N   
ATOM     4   N3  UNL     1      -0.020   0.527   3.347  1.00  0.00    -0.076 NA  
ATOM     5   N4  UNL     1       0.812  -0.170   2.592  1.00  0.00    -0.132 NA  
ATOM     6   H20 UNL     1      -1.061   1.464   0.409  1.00  0.00     0.083 HD  
ENDROOT
BRANCH   1   7
ATOM     7   C5  UNL     1       1.329  -0.548   0.206  1.00  0.00     0.114 C   
BRANCH   7   8
ATOM     8   C4  UNL     1       0.829  -1.965  -0.142  1.00  0.00     0.064 C   
BRANCH   8   9
ATOM     9   C2  UNL     1      -0.598  -2.034  -0.729  1.00  0.00    -0.012 C   
ATOM     10  C1  UNL     1      -0.729  -1.257  -2.039  1.00  0.00     0.007 C   
ATOM     11  C3  UNL     1      -0.994  -3.497  -0.954  1.00  0.00     0.007 C   
ENDBRANCH   8   9
ENDBRANCH   7   8
BRANCH   7  12
ATOM     12  N1  UNL     1       2.766  -0.698   0.669  1.00  0.00     0.249 N   
ATOM     13  H11 UNL     1       2.721  -1.135   1.601  1.00  0.00     0.199 HD  
ATOM     14  H12 UNL     1       3.273  -1.341   0.054  1.00  0.00     0.199 HD  
BRANCH  12  15
ATOM     15  C6  UNL     1       3.547   0.566   0.811  1.00  0.00     0.164 C   
BRANCH  15  16
ATOM     16  C7  UNL     1       3.797   1.249  -0.504  1.00  0.00    -0.002 A   
ATOM     17  C8  UNL     1       3.128   2.457  -0.818  1.00  0.00     0.012 A   
ATOM     18  C12 UNL     1       4.674   0.680  -1.444  1.00  0.00     0.045 A   
ATOM     19  C9  UNL     1       3.323   3.088  -2.051  1.00  0.00     0.037 A   
ATOM     20  C11 UNL     1       4.841   1.327  -2.650  1.00  0.00     0.109 A   
ATOM     21  C10 UNL     1       4.185   2.496  -2.946  1.00  0.00     0.108 A   
ATOM     22  O1  UNL     1       5.642   0.909  -3.665  1.00  0.00    -0.316 OA  
ATOM     23  O2  UNL     1       4.492   2.963  -4.184  1.00  0.00    -0.316 OA  
ATOM     24  C13 UNL     1       5.438   1.968  -4.630  1.00  0.00     0.337 C   
ENDBRANCH  15  16
ENDBRANCH  12  15
ENDBRANCH   7  12
ENDBRANCH   1   7
BRANCH   3  25
ATOM     25  C16 UNL     1      -1.907   2.033   3.072  1.00  0.00     0.170 C   
BRANCH  25  26
ATOM     26  C17 UNL     1      -3.319   1.448   2.916  1.00  0.00     0.165 C   
BRANCH  26  27
ATOM     27  O3  UNL     1      -3.688   1.468   1.528  1.00  0.00    -0.387 OA  
ATOM     28  H24 UNL     1      -4.624   1.195   1.489  1.00  0.00     0.211 HD  
ENDBRANCH  26  27
BRANCH  26  29
ATOM     29  C18 UNL     1      -3.495   0.062   3.509  1.00  0.00     0.001 A   
ATOM     30  C19 UNL     1      -3.444  -1.078   2.682  1.00  0.00     0.008 A   
ATOM     31  C23 UNL     1      -3.679  -0.134   4.889  1.00  0.00     0.046 A   
ATOM     32  C20 UNL     1      -3.584  -2.362   3.213  1.00  0.00     0.000 A   
ATOM     33  C22 UNL     1      -3.818  -1.422   5.418  1.00  0.00     0.021 A   
ATOM     34  C21 UNL     1      -3.772  -2.534   4.581  1.00  0.00     0.002 A   
ATOM     35  CL1 UNL     1      -3.745   1.188   5.999  1.00  0.00    -0.084 Cl  
ENDBRANCH  26  29
ENDBRANCH  25  26
ENDBRANCH   3  25
TORSDOF 10
