REMARK SMILES CC(C)C[C@H]([NH2+]Cc1ccc2c(c1)OCO2)c1cn(C[C@H](O)c2ccccc2Cl)nn1
REMARK SMILES IDX 17 1 18 2 19 3 30 4 31 5 5 7 4 8 2 9 1 10 3 11 6 12 7 15
REMARK SMILES IDX 8 16 9 17 13 18 10 19 12 20 11 21 14 22 16 23 15 24 20 25
REMARK SMILES IDX 21 26 22 27 23 29 24 30 28 31 25 32 27 33 26 34 29 35
REMARK H PARENT 18 6 6 13 6 14 22 28
ROOT
ATOM     1   C14 UNL     1      -0.328  -1.055   1.770  1.00  0.00     0.127 A   
ATOM     2   C15 UNL     1      -1.193  -1.520   2.734  1.00  0.00     0.045 A   
ATOM     3   N2  UNL     1      -2.162  -2.166   2.018  1.00  0.00    -0.209 N   
ATOM     4   N3  UNL     1      -1.865  -2.179   0.708  1.00  0.00    -0.076 NA  
ATOM     5   N4  UNL     1      -0.757  -1.480   0.539  1.00  0.00    -0.132 NA  
ATOM     6   H20 UNL     1      -1.239  -1.412   3.809  1.00  0.00     0.083 HD  
ENDROOT
BRANCH   1   7
ATOM     7   C5  UNL     1       0.905  -0.210   1.863  1.00  0.00     0.114 C   
BRANCH   7   8
ATOM     8   C4  UNL     1       0.542   1.262   2.141  1.00  0.00     0.064 C   
BRANCH   8   9
ATOM     9   C2  UNL     1       1.725   2.225   2.381  1.00  0.00    -0.012 C   
ATOM     10  C1  UNL     1       1.191   3.639   2.631  1.00  0.00     0.007 C   
ATOM     11  C3  UNL     1       2.603   1.792   3.553  1.00  0.00     0.007 C   
ENDBRANCH   8   9
ENDBRANCH   7   8
BRANCH   7  12
ATOM     12  N1  UNL     1       1.672  -0.291   0.569  1.00  0.00     0.249 N   
ATOM     13  H11 UNL     1       0.962  -0.338  -0.181  1.00  0.00     0.199 HD  
ATOM     14  H12 UNL     1       2.223   0.548   0.378  1.00  0.00     0.199 HD  
BRANCH  12  15
ATOM     15  C6  UNL     1       2.538  -1.491   0.419  1.00  0.00     0.164 C   
BRANCH  15  16
ATOM     16  C7  UNL     1       3.110  -1.547  -0.968  1.00  0.00    -0.002 A   
ATOM     17  C8  UNL     1       4.316  -0.876  -1.277  1.00  0.00     0.012 A   
ATOM     18  C12 UNL     1       2.407  -2.214  -1.986  1.00  0.00     0.045 A   
ATOM     19  C9  UNL     1       4.821  -0.873  -2.581  1.00  0.00     0.037 A   
ATOM     20  C11 UNL     1       2.936  -2.194  -3.259  1.00  0.00     0.109 A   
ATOM     21  C10 UNL     1       4.107  -1.541  -3.550  1.00  0.00     0.108 A   
ATOM     22  O1  UNL     1       2.389  -2.788  -4.349  1.00  0.00    -0.316 OA  
ATOM     23  O2  UNL     1       4.442  -1.636  -4.862  1.00  0.00    -0.316 OA  
ATOM     24  C13 UNL     1       3.357  -2.443  -5.365  1.00  0.00     0.337 C   
ENDBRANCH  15  16
ENDBRANCH  12  15
ENDBRANCH   7  12
ENDBRANCH   1   7
BRANCH   3  25
ATOM     25  C16 UNL     1      -3.386  -2.764   2.501  1.00  0.00     0.170 C   
BRANCH  25  26
ATOM     26  C17 UNL     1      -4.479  -1.734   2.808  1.00  0.00     0.165 C   
BRANCH  26  27
ATOM     27  O3  UNL     1      -5.550  -2.405   3.486  1.00  0.00    -0.387 OA  
ATOM     28  H24 UNL     1      -6.350  -1.859   3.395  1.00  0.00     0.211 HD  
ENDBRANCH  26  27
BRANCH  26  29
ATOM     29  C18 UNL     1      -5.010  -1.023   1.577  1.00  0.00     0.001 A   
ATOM     30  C19 UNL     1      -5.888  -1.706   0.711  1.00  0.00     0.008 A   
ATOM     31  C23 UNL     1      -4.637   0.289   1.236  1.00  0.00     0.046 A   
ATOM     32  C20 UNL     1      -6.394  -1.092  -0.435  1.00  0.00     0.000 A   
ATOM     33  C22 UNL     1      -5.148   0.903   0.087  1.00  0.00     0.021 A   
ATOM     34  C21 UNL     1      -6.029   0.214  -0.744  1.00  0.00     0.002 A   
ATOM     35  CL1 UNL     1      -3.529   1.214   2.190  1.00  0.00    -0.084 Cl  
ENDBRANCH  26  29
ENDBRANCH  25  26
ENDBRANCH   3  25
TORSDOF 10
