REMARK SMILES Cc1ccc([C@H](CO)n2cc([C@@H]([NH2+]Cc3ccc4c(c3)OCO4)C(C)(C)C)nn2)nc1
REMARK SMILES IDX 9 1 10 2 11 3 28 4 29 5 6 7 5 8 2 9 3 10 31 11 4 12 30 13
REMARK SMILES IDX 1 14 7 15 8 16 12 18 13 19 14 22 15 23 16 24 20 25 17 26
REMARK SMILES IDX 19 27 18 28 21 29 23 30 22 31 24 32 25 33 26 34 27 35
REMARK H PARENT 10 6 8 17 13 20 13 21
ROOT
ATOM     1   N1  UNL     1      -0.986   1.722   0.719  1.00  0.00    -0.201 N   
ATOM     2   C8  UNL     1      -0.482   0.621   0.082  1.00  0.00     0.046 A   
ATOM     3   C9  UNL     1      -0.243  -0.277   1.097  1.00  0.00     0.127 A   
ATOM     4   N3  UNL     1      -0.603   0.288   2.293  1.00  0.00    -0.132 NA  
ATOM     5   N4  UNL     1      -1.058   1.506   2.051  1.00  0.00    -0.075 NA  
ATOM     6   H10 UNL     1      -0.338   0.590  -0.990  1.00  0.00     0.083 HD  
ENDROOT
BRANCH   1   7
ATOM     7   C6  UNL     1      -1.400   3.003   0.157  1.00  0.00     0.174 C   
BRANCH   7   8
ATOM     8   C5  UNL     1      -2.673   2.809  -0.639  1.00  0.00     0.065 A   
ATOM     9   C2  UNL     1      -4.969   2.405  -2.119  1.00  0.00    -0.033 A   
ATOM     10  C3  UNL     1      -5.070   2.771  -0.779  1.00  0.00     0.007 A   
ATOM     11  C23 UNL     1      -3.694   2.240  -2.643  1.00  0.00     0.114 A   
ATOM     12  C4  UNL     1      -3.914   2.977  -0.029  1.00  0.00     0.026 A   
ATOM     13  N5  UNL     1      -2.553   2.427  -1.938  1.00  0.00    -0.259 NA  
ATOM     14  C1  UNL     1      -6.182   2.157  -2.960  1.00  0.00     0.046 C   
ENDBRANCH   7   8
BRANCH   7  15
ATOM     15  C7  UNL     1      -0.289   3.661  -0.677  1.00  0.00     0.187 C   
BRANCH  15  16
ATOM     16  O1  UNL     1       0.853   3.964   0.134  1.00  0.00    -0.394 OA  
ATOM     17  H9  UNL     1       1.065   4.912   0.000  1.00  0.00     0.210 HD  
ENDBRANCH  15  16
ENDBRANCH   7  15
ENDBRANCH   1   7
BRANCH   3  18
ATOM     18  C10 UNL     1       0.406  -1.623   1.077  1.00  0.00     0.120 C   
BRANCH  18  19
ATOM     19  N2  UNL     1       1.354  -1.729   2.257  1.00  0.00     0.250 N   
ATOM     20  H12 UNL     1       1.692  -2.685   2.372  1.00  0.00     0.199 HD  
ATOM     21  H13 UNL     1       0.802  -1.492   3.091  1.00  0.00     0.199 HD  
BRANCH  19  22
ATOM     22  C11 UNL     1       2.530  -0.803   2.245  1.00  0.00     0.164 C   
BRANCH  22  23
ATOM     23  C12 UNL     1       3.464  -1.050   1.094  1.00  0.00    -0.002 A   
ATOM     24  C13 UNL     1       3.526  -0.133   0.018  1.00  0.00     0.012 A   
ATOM     25  C17 UNL     1       4.257  -2.210   1.060  1.00  0.00     0.045 A   
ATOM     26  C14 UNL     1       4.354  -0.372  -1.085  1.00  0.00     0.037 A   
ATOM     27  C16 UNL     1       5.062  -2.413  -0.042  1.00  0.00     0.109 A   
ATOM     28  C15 UNL     1       5.107  -1.525  -1.087  1.00  0.00     0.108 A   
ATOM     29  O2  UNL     1       5.880  -3.480  -0.232  1.00  0.00    -0.316 OA  
ATOM     30  O3  UNL     1       5.956  -1.922  -2.069  1.00  0.00    -0.316 OA  
ATOM     31  C18 UNL     1       6.458  -3.157  -1.517  1.00  0.00     0.337 C   
ENDBRANCH  22  23
ENDBRANCH  19  22
ENDBRANCH  18  19
BRANCH  18  32
ATOM     32  C19 UNL     1      -0.603  -2.826   1.073  1.00  0.00     0.010 C   
ATOM     33  C20 UNL     1      -1.585  -2.688  -0.115  1.00  0.00     0.017 C   
ATOM     34  C21 UNL     1       0.156  -4.158   0.877  1.00  0.00     0.017 C   
ATOM     35  C22 UNL     1      -1.425  -2.927   2.374  1.00  0.00     0.017 C   
ENDBRANCH  18  32
ENDBRANCH   3  18
TORSDOF 9
