REMARK SMILES Cc1ccc([C@@H](CO)n2cc([C@@H]([NH2+]Cc3ccc4c(c3)OCO4)C(C)(C)C)nn2)nc1
REMARK SMILES IDX 9 1 10 2 11 3 28 4 29 5 6 7 5 8 2 9 3 10 31 11 4 12 30 13
REMARK SMILES IDX 1 14 7 15 8 16 12 18 13 19 14 22 15 23 16 24 20 25 17 26
REMARK SMILES IDX 19 27 18 28 21 29 23 30 22 31 24 32 25 33 26 34 27 35
REMARK H PARENT 10 6 8 17 13 20 13 21
ROOT
ATOM     1   N1  UNL     1      -1.875  -1.220   1.904  1.00  0.00    -0.201 N   
ATOM     2   C8  UNL     1      -1.222  -0.027   2.064  1.00  0.00     0.046 A   
ATOM     3   C9  UNL     1      -1.110   0.476   0.789  1.00  0.00     0.127 A   
ATOM     4   N3  UNL     1      -1.624  -0.437  -0.097  1.00  0.00    -0.132 NA  
ATOM     5   N4  UNL     1      -2.080  -1.471   0.592  1.00  0.00    -0.075 NA  
ATOM     6   H10 UNL     1      -0.937   0.344   3.039  1.00  0.00     0.083 HD  
ENDROOT
BRANCH   1   7
ATOM     7   C6  UNL     1      -2.322  -2.173   2.914  1.00  0.00     0.174 C   
BRANCH   7   8
ATOM     8   C5  UNL     1      -1.122  -2.832   3.571  1.00  0.00     0.065 A   
ATOM     9   C2  UNL     1       1.081  -3.986   4.779  1.00  0.00    -0.033 A   
ATOM     10  C3  UNL     1       0.532  -4.573   3.641  1.00  0.00     0.007 A   
ATOM     11  C23 UNL     1       0.478  -2.830   5.255  1.00  0.00     0.114 A   
ATOM     12  C4  UNL     1      -0.576  -3.992   3.026  1.00  0.00     0.026 A   
ATOM     13  N5  UNL     1      -0.594  -2.236   4.676  1.00  0.00    -0.259 NA  
ATOM     14  C1  UNL     1       2.245  -4.595   5.496  1.00  0.00     0.046 C   
ENDBRANCH   7   8
BRANCH   7  15
ATOM     15  C7  UNL     1      -3.307  -1.545   3.919  1.00  0.00     0.187 C   
BRANCH  15  16
ATOM     16  O1  UNL     1      -2.733  -0.501   4.712  1.00  0.00    -0.394 OA  
ATOM     17  H9  UNL     1      -1.972  -0.908   5.182  1.00  0.00     0.210 HD  
ENDBRANCH  15  16
ENDBRANCH   7  15
ENDBRANCH   1   7
BRANCH   3  18
ATOM     18  C10 UNL     1      -0.488   1.741   0.280  1.00  0.00     0.120 C   
BRANCH  18  19
ATOM     19  N2  UNL     1       0.176   1.448  -1.044  1.00  0.00     0.250 N   
ATOM     20  H12 UNL     1       0.330   2.291  -1.602  1.00  0.00     0.199 HD  
ATOM     21  H13 UNL     1      -0.486   0.867  -1.582  1.00  0.00     0.199 HD  
BRANCH  19  22
ATOM     22  C11 UNL     1       1.454   0.689  -0.955  1.00  0.00     0.164 C   
BRANCH  22  23
ATOM     23  C12 UNL     1       1.957   0.344  -2.328  1.00  0.00    -0.002 A   
ATOM     24  C13 UNL     1       1.583  -0.882  -2.930  1.00  0.00     0.012 A   
ATOM     25  C17 UNL     1       2.748   1.257  -3.045  1.00  0.00     0.045 A   
ATOM     26  C14 UNL     1       2.005  -1.204  -4.225  1.00  0.00     0.037 A   
ATOM     27  C16 UNL     1       3.143   0.908  -4.321  1.00  0.00     0.109 A   
ATOM     28  C15 UNL     1       2.785  -0.287  -4.893  1.00  0.00     0.108 A   
ATOM     29  O2  UNL     1       3.901   1.674  -5.151  1.00  0.00    -0.316 OA  
ATOM     30  O3  UNL     1       3.277  -0.427  -6.152  1.00  0.00    -0.316 OA  
ATOM     31  C18 UNL     1       4.012   0.806  -6.302  1.00  0.00     0.337 C   
ENDBRANCH  22  23
ENDBRANCH  19  22
ENDBRANCH  18  19
BRANCH  18  32
ATOM     32  C19 UNL     1      -1.491   2.939   0.134  1.00  0.00     0.010 C   
ATOM     33  C20 UNL     1      -0.731   4.233  -0.241  1.00  0.00     0.017 C   
ATOM     34  C21 UNL     1      -2.570   2.686  -0.937  1.00  0.00     0.017 C   
ATOM     35  C22 UNL     1      -2.200   3.211   1.481  1.00  0.00     0.017 C   
ENDBRANCH  18  32
ENDBRANCH   3  18
TORSDOF 9
