REMARK SMILES CC(C)(C)[C@H]([NH2+]Cc1ccc2c(c1)OCO2)c1cn(-c2cc(O)ccc2F)nn1
REMARK SMILES IDX 17 1 18 2 19 3 28 4 29 5 5 6 2 7 1 8 3 9 4 10 6 11 7 14 8 15
REMARK SMILES IDX 9 16 13 17 10 18 12 19 11 20 14 21 16 22 15 23 20 24 21 25
REMARK SMILES IDX 26 26 22 27 25 28 24 29 27 30 23 31
REMARK H PARENT 6 12 6 13 23 32
ROOT
ATOM     1   C14 UNL     1      -0.294  -0.302  -0.541  1.00  0.00     0.128 A   
ATOM     2   C15 UNL     1      -0.125  -1.151  -1.611  1.00  0.00     0.135 A   
ATOM     3   N2  UNL     1       0.979  -0.669  -2.291  1.00  0.00    -0.178 N   
ATOM     4   N3  UNL     1       1.468   0.399  -1.605  1.00  0.00    -0.071 NA  
ATOM     5   N4  UNL     1       0.699   0.633  -0.555  1.00  0.00    -0.131 NA  
ENDROOT
BRANCH   1   6
ATOM     6   C5  UNL     1      -1.289  -0.306   0.583  1.00  0.00     0.120 C   
BRANCH   6   7
ATOM     7   C2  UNL     1      -2.590   0.523   0.293  1.00  0.00     0.010 C   
ATOM     8   C1  UNL     1      -2.309   2.030   0.129  1.00  0.00     0.017 C   
ATOM     9   C3  UNL     1      -3.275   0.013  -0.995  1.00  0.00     0.017 C   
ATOM     10  C4  UNL     1      -3.610   0.342   1.442  1.00  0.00     0.017 C   
ENDBRANCH   6   7
BRANCH   6  11
ATOM     11  N1  UNL     1      -0.609   0.207   1.832  1.00  0.00     0.250 N   
ATOM     12  H11 UNL     1      -1.275   0.522   2.542  1.00  0.00     0.199 HD  
ATOM     13  H12 UNL     1      -0.071   1.043   1.556  1.00  0.00     0.199 HD  
BRANCH  11  14
ATOM     14  C6  UNL     1       0.351  -0.737   2.472  1.00  0.00     0.164 C   
BRANCH  14  15
ATOM     15  C7  UNL     1       1.023  -0.081   3.645  1.00  0.00    -0.002 A   
ATOM     16  C8  UNL     1       2.189   0.698   3.449  1.00  0.00     0.012 A   
ATOM     17  C12 UNL     1       0.467  -0.186   4.931  1.00  0.00     0.045 A   
ATOM     18  C9  UNL     1       2.804   1.353   4.522  1.00  0.00     0.037 A   
ATOM     19  C11 UNL     1       1.098   0.474   5.966  1.00  0.00     0.109 A   
ATOM     20  C10 UNL     1       2.233   1.221   5.768  1.00  0.00     0.108 A   
ATOM     21  O1  UNL     1       0.693   0.476   7.263  1.00  0.00    -0.316 OA  
ATOM     22  O2  UNL     1       2.688   1.785   6.916  1.00  0.00    -0.316 OA  
ATOM     23  C13 UNL     1       1.721   1.293   7.869  1.00  0.00     0.337 C   
ENDBRANCH  14  15
ENDBRANCH  11  14
ENDBRANCH   6  11
ENDBRANCH   1   6
BRANCH   3  24
ATOM     24  C16 UNL     1       1.593  -1.130  -3.478  1.00  0.00     0.096 A   
ATOM     25  C17 UNL     1       2.726  -0.463  -3.971  1.00  0.00     0.062 A   
ATOM     26  C21 UNL     1       1.103  -2.233  -4.181  1.00  0.00     0.146 A   
ATOM     27  C18 UNL     1       3.339  -0.907  -5.141  1.00  0.00     0.073 A   
ATOM     28  C20 UNL     1       1.724  -2.670  -5.352  1.00  0.00     0.044 A   
ATOM     29  C19 UNL     1       2.849  -2.005  -5.838  1.00  0.00     0.036 A   
ATOM     30  F1  UNL     1       0.028  -2.915  -3.764  1.00  0.00    -0.205 F   
BRANCH  27  31
ATOM     31  O3  UNL     1       4.435  -0.223  -5.572  1.00  0.00    -0.361 OA  
ATOM     32  H22 UNL     1       4.760  -0.616  -6.401  1.00  0.00     0.218 HD  
ENDBRANCH  27  31
ENDBRANCH   3  24
TORSDOF 7
