REMARK SMILES COc1cc(F)ccc1CCn1cc([C@H](CC(C)C)[NH2+]Cc2ccc3c(c2)OCO3)nn1
REMARK SMILES IDX 12 1 13 2 14 3 31 4 32 5 11 7 10 8 9 9 3 10 4 11 5 12 8 13
REMARK SMILES IDX 7 14 6 15 2 16 1 17 15 18 16 19 17 20 18 21 19 22 20 23
REMARK SMILES IDX 21 26 22 27 23 28 27 29 24 30 26 31 25 32 28 33 30 34 29 35
REMARK H PARENT 13 6 20 24 20 25
ROOT
ATOM     1   N1  UNL     1      -0.999   1.880  -2.151  1.00  0.00    -0.212 N   
ATOM     2   C10 UNL     1      -0.206   1.064  -1.397  1.00  0.00     0.045 A   
ATOM     3   C11 UNL     1       0.604   1.937  -0.706  1.00  0.00     0.127 A   
ATOM     4   N3  UNL     1       0.325   3.220  -1.103  1.00  0.00    -0.132 NA  
ATOM     5   N4  UNL     1      -0.646   3.170  -2.001  1.00  0.00    -0.076 NA  
ATOM     6   H11 UNL     1      -0.324  -0.011  -1.389  1.00  0.00     0.083 HD  
ENDROOT
BRANCH   1   7
ATOM     7   C9  UNL     1      -2.105   1.507  -3.009  1.00  0.00     0.139 C   
BRANCH   7   8
ATOM     8   C8  UNL     1      -3.469   1.750  -2.360  1.00  0.00     0.059 C   
BRANCH   8   9
ATOM     9   C7  UNL     1      -3.675   0.996  -1.059  1.00  0.00    -0.016 A   
ATOM     10  C2  UNL     1      -3.809  -0.407  -1.033  1.00  0.00     0.081 A   
ATOM     11  C3  UNL     1      -3.973  -1.063   0.189  1.00  0.00     0.073 A   
ATOM     12  C4  UNL     1      -4.019  -0.326   1.368  1.00  0.00     0.125 A   
ATOM     13  C6  UNL     1      -3.731   1.720   0.146  1.00  0.00     0.009 A   
ATOM     14  C5  UNL     1      -3.906   1.057   1.359  1.00  0.00     0.040 A   
ATOM     15  F1  UNL     1      -4.166  -0.963   2.536  1.00  0.00    -0.207 F   
BRANCH  10  16
ATOM     16  O1  UNL     1      -3.737  -1.038  -2.247  1.00  0.00    -0.349 OA  
ATOM     17  C1  UNL     1      -4.223  -2.376  -2.304  1.00  0.00     0.203 C   
ENDBRANCH  10  16
ENDBRANCH   8   9
ENDBRANCH   7   8
ENDBRANCH   1   7
BRANCH   3  18
ATOM     18  C12 UNL     1       1.668   1.696   0.309  1.00  0.00     0.114 C   
BRANCH  18  19
ATOM     19  C13 UNL     1       1.147   1.844   1.753  1.00  0.00     0.064 C   
BRANCH  19  20
ATOM     20  C14 UNL     1       0.055   0.834   2.165  1.00  0.00    -0.012 C   
ATOM     21  C15 UNL     1      -0.435   1.149   3.582  1.00  0.00     0.007 C   
ATOM     22  C16 UNL     1       0.541  -0.614   2.098  1.00  0.00     0.007 C   
ENDBRANCH  19  20
ENDBRANCH  18  19
BRANCH  18  23
ATOM     23  N2  UNL     1       2.782   2.712   0.142  1.00  0.00     0.249 N   
ATOM     24  H22 UNL     1       3.397   2.699   0.961  1.00  0.00     0.199 HD  
ATOM     25  H23 UNL     1       2.324   3.634   0.116  1.00  0.00     0.199 HD  
BRANCH  23  26
ATOM     26  C17 UNL     1       3.608   2.590  -1.095  1.00  0.00     0.164 C   
BRANCH  26  27
ATOM     27  C18 UNL     1       4.443   1.339  -1.117  1.00  0.00    -0.002 A   
ATOM     28  C19 UNL     1       4.100   0.267  -1.975  1.00  0.00     0.012 A   
ATOM     29  C23 UNL     1       5.552   1.212  -0.261  1.00  0.00     0.045 A   
ATOM     30  C20 UNL     1       4.843  -0.919  -1.978  1.00  0.00     0.037 A   
ATOM     31  C22 UNL     1       6.262   0.030  -0.289  1.00  0.00     0.109 A   
ATOM     32  C21 UNL     1       5.918  -1.006  -1.122  1.00  0.00     0.108 A   
ATOM     33  O2  UNL     1       7.350  -0.255   0.473  1.00  0.00    -0.316 OA  
ATOM     34  O3  UNL     1       6.746  -2.074  -0.990  1.00  0.00    -0.316 OA  
ATOM     35  C24 UNL     1       7.666  -1.588   0.012  1.00  0.00     0.337 C   
ENDBRANCH  26  27
ENDBRANCH  23  26
ENDBRANCH  18  23
ENDBRANCH   3  18
TORSDOF 10
