REMARK SMILES CC(C)[C@H]([NH2+]Cc1ccc2c(c1)OCO2)c1cn(CCc2cn(C)cn2)nn1
REMARK SMILES IDX 16 1 17 2 18 3 27 4 28 5 4 7 2 8 1 9 3 10 5 11 6 14 7 15
REMARK SMILES IDX 8 16 12 17 9 18 11 19 10 20 13 21 15 22 14 23 19 24 20 25
REMARK SMILES IDX 21 26 22 27 26 28 23 29 25 30 24 31
REMARK H PARENT 17 6 5 12 5 13
ROOT
ATOM     1   C13 UNL     1       2.087  -0.528   0.474  1.00  0.00     0.127 A   
ATOM     2   C14 UNL     1       1.620  -1.775   0.832  1.00  0.00     0.045 A   
ATOM     3   N2  UNL     1       1.496  -1.665   2.189  1.00  0.00    -0.212 N   
ATOM     4   N5  UNL     1       2.132  -0.571   2.646  1.00  0.00    -0.076 NA  
ATOM     5   N6  UNL     1       2.488   0.148   1.594  1.00  0.00    -0.132 NA  
ATOM     6   H18 UNL     1       1.143  -2.569   0.275  1.00  0.00     0.083 HD  
ENDROOT
BRANCH   1   7
ATOM     7   C4  UNL     1       1.905   0.177  -0.826  1.00  0.00     0.117 C   
BRANCH   7   8
ATOM     8   C2  UNL     1       3.082   1.086  -1.251  1.00  0.00     0.037 C   
ATOM     9   C1  UNL     1       4.371   0.267  -1.416  1.00  0.00     0.014 C   
ATOM     10  C3  UNL     1       2.801   1.825  -2.565  1.00  0.00     0.014 C   
ENDBRANCH   7   8
BRANCH   7  11
ATOM     11  N1  UNL     1       0.587   0.916  -0.779  1.00  0.00     0.249 N   
ATOM     12  H9  UNL     1       0.282   1.179  -1.718  1.00  0.00     0.199 HD  
ATOM     13  H10 UNL     1      -0.120   0.237  -0.428  1.00  0.00     0.199 HD  
BRANCH  11  14
ATOM     14  C5  UNL     1       0.461   2.083   0.142  1.00  0.00     0.164 C   
BRANCH  14  15
ATOM     15  C6  UNL     1      -0.848   2.792  -0.094  1.00  0.00    -0.002 A   
ATOM     16  C7  UNL     1      -2.002   2.417   0.633  1.00  0.00     0.012 A   
ATOM     17  C11 UNL     1      -0.944   3.791  -1.078  1.00  0.00     0.045 A   
ATOM     18  C8  UNL     1      -3.236   3.031   0.393  1.00  0.00     0.037 A   
ATOM     19  C10 UNL     1      -2.175   4.377  -1.290  1.00  0.00     0.109 A   
ATOM     20  C9  UNL     1      -3.289   4.008  -0.576  1.00  0.00     0.108 A   
ATOM     21  O1  UNL     1      -2.441   5.350  -2.200  1.00  0.00    -0.316 OA  
ATOM     22  O2  UNL     1      -4.395   4.704  -0.945  1.00  0.00    -0.316 OA  
ATOM     23  C12 UNL     1      -3.844   5.588  -1.945  1.00  0.00     0.337 C   
ENDBRANCH  14  15
ENDBRANCH  11  14
ENDBRANCH   7  11
ENDBRANCH   1   7
BRANCH   3  24
ATOM     24  C15 UNL     1       0.474  -2.299   2.999  1.00  0.00     0.140 C   
BRANCH  24  25
ATOM     25  C16 UNL     1      -0.835  -1.503   2.944  1.00  0.00     0.079 C   
BRANCH  25  26
ATOM     26  C17 UNL     1      -1.594  -1.657   1.658  1.00  0.00     0.058 A   
ATOM     27  C18 UNL     1      -2.662  -2.497   1.423  1.00  0.00     0.099 A   
ATOM     28  N4  UNL     1      -1.310  -0.912   0.516  1.00  0.00    -0.244 NA  
ATOM     29  N3  UNL     1      -3.050  -2.245   0.141  1.00  0.00    -0.300 N   
ATOM     30  C20 UNL     1      -2.219  -1.288  -0.364  1.00  0.00     0.188 A   
ATOM     31  C19 UNL     1      -4.157  -2.868  -0.542  1.00  0.00     0.137 C   
ENDBRANCH  25  26
ENDBRANCH  24  25
ENDBRANCH   3  24
TORSDOF 8
