REMARK SMILES CC(C)[C@H]([NH2+]Cc1ccc2c(c1)OCO2)c1cn(CCc2ccoc2)nn1
REMARK SMILES IDX 16 1 17 2 18 3 26 4 27 5 4 7 2 8 1 9 3 10 5 11 6 14 7 15
REMARK SMILES IDX 8 16 12 17 9 18 11 19 10 20 13 21 15 22 14 23 19 24 20 25
REMARK SMILES IDX 21 26 22 27 25 28 23 29 24 30
REMARK H PARENT 17 6 5 12 5 13
ROOT
ATOM     1   C13 UNL     1      -1.540   1.487  -0.895  1.00  0.00     0.127 A   
ATOM     2   C14 UNL     1      -2.607   0.617  -0.876  1.00  0.00     0.045 A   
ATOM     3   N2  UNL     1      -2.876   0.397  -2.197  1.00  0.00    -0.212 N   
ATOM     4   N3  UNL     1      -2.036   1.094  -2.984  1.00  0.00    -0.076 NA  
ATOM     5   N4  UNL     1      -1.209   1.763  -2.198  1.00  0.00    -0.132 NA  
ATOM     6   H18 UNL     1      -3.155   0.129  -0.082  1.00  0.00     0.083 HD  
ENDROOT
BRANCH   1   7
ATOM     7   C4  UNL     1      -0.711   2.049   0.212  1.00  0.00     0.117 C   
BRANCH   7   8
ATOM     8   C2  UNL     1      -1.145   3.462   0.680  1.00  0.00     0.037 C   
ATOM     9   C1  UNL     1      -2.542   3.441   1.312  1.00  0.00     0.014 C   
ATOM     10  C3  UNL     1      -1.088   4.538  -0.411  1.00  0.00     0.014 C   
ENDBRANCH   7   8
BRANCH   7  11
ATOM     11  N1  UNL     1       0.742   2.109  -0.211  1.00  0.00     0.249 N   
ATOM     12  H9  UNL     1       0.752   2.544  -1.144  1.00  0.00     0.199 HD  
ATOM     13  H10 UNL     1       1.271   2.720   0.417  1.00  0.00     0.199 HD  
BRANCH  11  14
ATOM     14  C5  UNL     1       1.446   0.796  -0.333  1.00  0.00     0.164 C   
BRANCH  14  15
ATOM     15  C6  UNL     1       1.638   0.110   0.990  1.00  0.00    -0.002 A   
ATOM     16  C7  UNL     1       0.913  -1.068   1.293  1.00  0.00     0.012 A   
ATOM     17  C11 UNL     1       2.521   0.642   1.946  1.00  0.00     0.045 A   
ATOM     18  C8  UNL     1       1.055  -1.703   2.531  1.00  0.00     0.037 A   
ATOM     19  C10 UNL     1       2.636  -0.009   3.158  1.00  0.00     0.109 A   
ATOM     20  C9  UNL     1       1.924  -1.147   3.443  1.00  0.00     0.108 A   
ATOM     21  O1  UNL     1       3.435   0.376   4.187  1.00  0.00    -0.316 OA  
ATOM     22  O2  UNL     1       2.185  -1.624   4.687  1.00  0.00    -0.316 OA  
ATOM     23  C12 UNL     1       3.169  -0.673   5.147  1.00  0.00     0.337 C   
ENDBRANCH  14  15
ENDBRANCH  11  14
ENDBRANCH   7  11
ENDBRANCH   1   7
BRANCH   3  24
ATOM     24  C15 UNL     1      -3.841  -0.518  -2.770  1.00  0.00     0.139 C   
BRANCH  24  25
ATOM     25  C16 UNL     1      -3.191  -1.740  -3.423  1.00  0.00     0.059 C   
BRANCH  25  26
ATOM     26  C17 UNL     1      -2.338  -2.523  -2.478  1.00  0.00    -0.021 A   
ATOM     27  C18 UNL     1      -2.757  -3.456  -1.489  1.00  0.00     0.031 A   
ATOM     28  C20 UNL     1      -0.961  -2.481  -2.382  1.00  0.00     0.139 A   
ATOM     29  C19 UNL     1      -1.615  -3.892  -0.857  1.00  0.00     0.136 A   
ATOM     30  O3  UNL     1      -0.521  -3.285  -1.383  1.00  0.00    -0.326 OA  
ENDBRANCH  25  26
ENDBRANCH  24  25
ENDBRANCH   3  24
TORSDOF 8
