REMARK SMILES COc1cc(CCn2cc([C@@H]([NH2+]Cc3ccc4c(c3)OCO4)C3CCCC3)nn2)ccc1O
REMARK SMILES IDX 8 1 9 2 10 3 28 4 29 5 7 7 6 8 5 9 3 10 4 11 32 12 31 13
REMARK SMILES IDX 30 14 2 15 1 16 33 17 11 19 12 20 13 23 14 24 15 25 19 26
REMARK SMILES IDX 16 27 18 28 17 29 20 30 22 31 21 32 23 33 24 34 27 35 25 36
REMARK SMILES IDX 26 37
REMARK H PARENT 9 6 33 18 12 21 12 22
ROOT
ATOM     1   N1  UNL     1       0.721   0.462  -2.581  1.00  0.00    -0.212 N   
ATOM     2   C7  UNL     1      -0.520   0.761  -2.089  1.00  0.00     0.045 A   
ATOM     3   C8  UNL     1      -0.261   1.587  -1.019  1.00  0.00     0.127 A   
ATOM     4   N3  UNL     1       1.091   1.797  -0.928  1.00  0.00    -0.132 NA  
ATOM     5   N4  UNL     1       1.680   1.112  -1.897  1.00  0.00    -0.076 NA  
ATOM     6   H9  UNL     1      -1.423   0.322  -2.488  1.00  0.00     0.083 HD  
ENDROOT
BRANCH   1   7
ATOM     7   C6  UNL     1       1.058  -0.529  -3.583  1.00  0.00     0.139 C   
BRANCH   7   8
ATOM     8   C5  UNL     1       1.780  -1.757  -3.009  1.00  0.00     0.057 C   
BRANCH   8   9
ATOM     9   C4  UNL     1       1.114  -2.339  -1.778  1.00  0.00    -0.044 A   
ATOM     10  C2  UNL     1       1.173  -2.789   0.612  1.00  0.00     0.105 A   
ATOM     11  C3  UNL     1       1.806  -2.354  -0.551  1.00  0.00     0.040 A   
ATOM     12  C25 UNL     1      -0.164  -3.190   0.542  1.00  0.00     0.101 A   
ATOM     13  C24 UNL     1      -0.851  -3.224  -0.664  1.00  0.00     0.036 A   
ATOM     14  C23 UNL     1      -0.206  -2.813  -1.830  1.00  0.00     0.006 A   
BRANCH  10  15
ATOM     15  O1  UNL     1       1.720  -2.807   1.868  1.00  0.00    -0.347 OA  
ATOM     16  C1  UNL     1       3.140  -2.704   1.941  1.00  0.00     0.203 C   
ENDBRANCH  10  15
BRANCH  12  17
ATOM     17  O4  UNL     1      -0.835  -3.537   1.681  1.00  0.00    -0.358 OA  
ATOM     18  H31 UNL     1      -0.146  -3.621   2.372  1.00  0.00     0.218 HD  
ENDBRANCH  12  17
ENDBRANCH   8   9
ENDBRANCH   7   8
ENDBRANCH   1   7
BRANCH   3  19
ATOM     19  C9  UNL     1      -1.170   2.126   0.037  1.00  0.00     0.117 C   
BRANCH  19  20
ATOM     20  N2  UNL     1      -0.635   1.768   1.402  1.00  0.00     0.249 N   
ATOM     21  H11 UNL     1       0.319   2.149   1.461  1.00  0.00     0.199 HD  
ATOM     22  H12 UNL     1      -1.177   2.214   2.148  1.00  0.00     0.199 HD  
BRANCH  20  23
ATOM     23  C10 UNL     1      -0.559   0.304   1.686  1.00  0.00     0.164 C   
BRANCH  23  24
ATOM     24  C11 UNL     1      -0.043   0.045   3.074  1.00  0.00    -0.002 A   
ATOM     25  C12 UNL     1      -0.905  -0.449   4.080  1.00  0.00     0.012 A   
ATOM     26  C16 UNL     1       1.309   0.287   3.376  1.00  0.00     0.045 A   
ATOM     27  C13 UNL     1      -0.429  -0.709   5.370  1.00  0.00     0.037 A   
ATOM     28  C15 UNL     1       1.746   0.020   4.656  1.00  0.00     0.109 A   
ATOM     29  C14 UNL     1       0.903  -0.466   5.625  1.00  0.00     0.108 A   
ATOM     30  O2  UNL     1       3.018   0.184   5.107  1.00  0.00    -0.316 OA  
ATOM     31  O3  UNL     1       1.537  -0.672   6.809  1.00  0.00    -0.316 OA  
ATOM     32  C17 UNL     1       2.885  -0.278   6.472  1.00  0.00     0.337 C   
ENDBRANCH  23  24
ENDBRANCH  20  23
ENDBRANCH  19  20
BRANCH  19  33
ATOM     33  C18 UNL     1      -1.311   3.658  -0.052  1.00  0.00     0.043 C   
ATOM     34  C19 UNL     1      -1.954   4.131  -1.360  1.00  0.00     0.010 C   
ATOM     35  C22 UNL     1      -2.246   4.275   0.991  1.00  0.00     0.010 C   
ATOM     36  C20 UNL     1      -2.408   5.559  -1.073  1.00  0.00     0.001 C   
ATOM     37  C21 UNL     1      -2.532   5.668   0.445  1.00  0.00     0.001 C   
ENDBRANCH  19  33
ENDBRANCH   3  19
TORSDOF 10
