REMARK SMILES COc1ccccc1CCn1cc([C@@H]([NH2+]Cc2ccc3c(c2)OCO3)C2CCCC2)nn1
REMARK SMILES IDX 11 1 12 2 13 3 31 4 32 5 10 7 9 8 8 9 3 10 4 11 5 12 7 13
REMARK SMILES IDX 6 14 2 15 1 16 14 17 15 18 16 21 17 22 18 23 22 24 19 25
REMARK SMILES IDX 21 26 20 27 23 28 25 29 24 30 26 31 27 32 30 33 28 34 29 35
REMARK H PARENT 12 6 15 19 15 20
ROOT
ATOM     1   N1  UNL     1      -0.334   1.211  -2.025  1.00  0.00    -0.212 N   
ATOM     2   C10 UNL     1      -0.137   1.450  -0.695  1.00  0.00     0.045 A   
ATOM     3   C11 UNL     1       1.179   1.101  -0.486  1.00  0.00     0.127 A   
ATOM     4   N3  UNL     1       1.721   0.664  -1.668  1.00  0.00    -0.132 NA  
ATOM     5   N4  UNL     1       0.789   0.748  -2.604  1.00  0.00    -0.076 NA  
ATOM     6   H12 UNL     1      -0.928   1.803  -0.046  1.00  0.00     0.083 HD  
ENDROOT
BRANCH   1   7
ATOM     7   C9  UNL     1      -1.554   1.370  -2.787  1.00  0.00     0.139 C   
BRANCH   7   8
ATOM     8   C8  UNL     1      -2.111   0.053  -3.330  1.00  0.00     0.059 C   
BRANCH   8   9
ATOM     9   C7  UNL     1      -2.375  -1.006  -2.281  1.00  0.00    -0.016 A   
ATOM     10  C2  UNL     1      -3.404  -0.871  -1.333  1.00  0.00     0.078 A   
ATOM     11  C3  UNL     1      -3.623  -1.883  -0.393  1.00  0.00     0.034 A   
ATOM     12  C4  UNL     1      -2.844  -3.043  -0.410  1.00  0.00     0.003 A   
ATOM     13  C6  UNL     1      -1.597  -2.176  -2.281  1.00  0.00     0.006 A   
ATOM     14  C5  UNL     1      -1.834  -3.193  -1.355  1.00  0.00     0.000 A   
BRANCH  10  15
ATOM     15  O1  UNL     1      -4.120   0.298  -1.363  1.00  0.00    -0.349 OA  
ATOM     16  C1  UNL     1      -5.500   0.166  -1.019  1.00  0.00     0.203 C   
ENDBRANCH  10  15
ENDBRANCH   8   9
ENDBRANCH   7   8
ENDBRANCH   1   7
BRANCH   3  17
ATOM     17  C12 UNL     1       1.981   1.032   0.769  1.00  0.00     0.117 C   
BRANCH  17  18
ATOM     18  N2  UNL     1       2.780  -0.255   0.813  1.00  0.00     0.249 N   
ATOM     19  H14 UNL     1       3.422  -0.240   1.610  1.00  0.00     0.199 HD  
ATOM     20  H15 UNL     1       3.348  -0.272  -0.046  1.00  0.00     0.199 HD  
BRANCH  18  21
ATOM     21  C13 UNL     1       1.993  -1.526   0.837  1.00  0.00     0.164 C   
BRANCH  21  22
ATOM     22  C14 UNL     1       1.123  -1.670   2.054  1.00  0.00    -0.002 A   
ATOM     23  C15 UNL     1      -0.277  -1.481   1.949  1.00  0.00     0.012 A   
ATOM     24  C19 UNL     1       1.687  -1.972   3.305  1.00  0.00     0.045 A   
ATOM     25  C16 UNL     1      -1.108  -1.602   3.066  1.00  0.00     0.037 A   
ATOM     26  C18 UNL     1       0.839  -2.084   4.389  1.00  0.00     0.109 A   
ATOM     27  C17 UNL     1      -0.519  -1.905   4.274  1.00  0.00     0.108 A   
ATOM     28  O2  UNL     1       1.216  -2.382   5.660  1.00  0.00    -0.316 OA  
ATOM     29  O3  UNL     1      -1.166  -2.072   5.456  1.00  0.00    -0.316 OA  
ATOM     30  C20 UNL     1      -0.068  -2.429   6.323  1.00  0.00     0.337 C   
ENDBRANCH  21  22
ENDBRANCH  18  21
ENDBRANCH  17  18
BRANCH  17  31
ATOM     31  C21 UNL     1       2.967   2.200   0.976  1.00  0.00     0.043 C   
ATOM     32  C22 UNL     1       4.079   2.361  -0.068  1.00  0.00     0.010 C   
ATOM     33  C25 UNL     1       2.328   3.590   0.992  1.00  0.00     0.010 C   
ATOM     34  C23 UNL     1       4.588   3.792   0.113  1.00  0.00     0.001 C   
ATOM     35  C24 UNL     1       3.533   4.524   0.941  1.00  0.00     0.001 C   
ENDBRANCH  17  31
ENDBRANCH   3  17
TORSDOF 9
