REMARK SMILES Cc1c[nH]c(C)c1Cn1cc([C@@H]([NH2+]Cc2ccc3c(c2)OCO3)C2CCCCC2)nn1
REMARK SMILES IDX 9 1 10 2 11 3 30 4 31 5 8 7 7 8 2 9 3 10 4 11 5 12 1 13 6 15
REMARK SMILES IDX 12 16 13 17 14 20 15 21 16 22 20 23 17 24 19 25 18 26 21 27
REMARK SMILES IDX 23 28 22 29 24 30 25 31 29 32 26 33 28 34 27 35
REMARK H PARENT 10 6 4 14 13 18 13 19
ROOT
ATOM     1   N2  UNL     1      -0.986  -1.485   1.404  1.00  0.00    -0.208 N   
ATOM     2   C8  UNL     1      -0.794  -0.407   0.582  1.00  0.00     0.046 A   
ATOM     3   C9  UNL     1       0.451  -0.621   0.039  1.00  0.00     0.127 A   
ATOM     4   N4  UNL     1       0.979  -1.777   0.557  1.00  0.00    -0.132 NA  
ATOM     5   N5  UNL     1       0.098  -2.290   1.399  1.00  0.00    -0.076 NA  
ATOM     6   H11 UNL     1      -1.537   0.369   0.469  1.00  0.00     0.083 HD  
ENDROOT
BRANCH   1   7
ATOM     7   C7  UNL     1      -2.125  -1.777   2.261  1.00  0.00     0.171 C   
BRANCH   7   8
ATOM     8   C6  UNL     1      -3.389  -1.882   1.462  1.00  0.00    -0.008 A   
ATOM     9   C2  UNL     1      -3.729  -2.933   0.545  1.00  0.00    -0.031 A   
ATOM     10  C3  UNL     1      -4.977  -2.633   0.041  1.00  0.00     0.075 A   
ATOM     11  N1  UNL     1      -5.415  -1.472   0.614  1.00  0.00    -0.324 N   
ATOM     12  C4  UNL     1      -4.460  -0.996   1.478  1.00  0.00     0.009 A   
ATOM     13  C1  UNL     1      -2.906  -4.123   0.194  1.00  0.00     0.046 C   
ATOM     14  H5  UNL     1      -6.313  -1.040   0.433  1.00  0.00     0.152 HD  
ATOM     15  C5  UNL     1      -4.677   0.259   2.249  1.00  0.00     0.062 C   
ENDBRANCH   7   8
ENDBRANCH   1   7
BRANCH   3  16
ATOM     16  C10 UNL     1       1.276   0.197  -0.902  1.00  0.00     0.117 C   
BRANCH  16  17
ATOM     17  N3  UNL     1       2.739   0.053  -0.542  1.00  0.00     0.249 N   
ATOM     18  H13 UNL     1       2.815  -0.857  -0.059  1.00  0.00     0.199 HD  
ATOM     19  H14 UNL     1       3.322  -0.028  -1.378  1.00  0.00     0.199 HD  
BRANCH  17  20
ATOM     20  C11 UNL     1       3.310   1.103   0.351  1.00  0.00     0.164 C   
BRANCH  20  21
ATOM     21  C12 UNL     1       2.610   1.240   1.674  1.00  0.00    -0.002 A   
ATOM     22  C13 UNL     1       2.724   0.226   2.656  1.00  0.00     0.012 A   
ATOM     23  C17 UNL     1       1.800   2.360   1.931  1.00  0.00     0.045 A   
ATOM     24  C14 UNL     1       2.026   0.313   3.866  1.00  0.00     0.037 A   
ATOM     25  C16 UNL     1       1.129   2.416   3.135  1.00  0.00     0.109 A   
ATOM     26  C15 UNL     1       1.234   1.420   4.073  1.00  0.00     0.108 A   
ATOM     27  O1  UNL     1       0.296   3.416   3.529  1.00  0.00    -0.316 OA  
ATOM     28  O2  UNL     1       0.481   1.667   5.177  1.00  0.00    -0.316 OA  
ATOM     29  C18 UNL     1      -0.070   2.960   4.852  1.00  0.00     0.337 C   
ENDBRANCH  20  21
ENDBRANCH  17  20
ENDBRANCH  16  17
BRANCH  16  30
ATOM     30  C19 UNL     1       1.031  -0.188  -2.386  1.00  0.00     0.043 C   
ATOM     31  C20 UNL     1       1.499  -1.609  -2.759  1.00  0.00     0.010 C   
ATOM     32  C24 UNL     1       1.650   0.851  -3.344  1.00  0.00     0.010 C   
ATOM     33  C21 UNL     1       1.212  -1.930  -4.226  1.00  0.00     0.001 C   
ATOM     34  C23 UNL     1       1.361   0.517  -4.806  1.00  0.00     0.001 C   
ATOM     35  C22 UNL     1       1.820  -0.892  -5.162  1.00  0.00     0.000 C   
ENDBRANCH  16  30
ENDBRANCH   3  16
TORSDOF 7
