REMARK SMILES COc1ccc(CCn2cc([C@@H]([NH2+]Cc3ccc4c(c3)OCO4)C(C)(C)C)nn2)cc1C
REMARK SMILES IDX 9 1 10 2 11 3 28 4 29 5 8 7 7 8 6 9 3 10 4 11 31 12 5 13
REMARK SMILES IDX 30 14 32 15 2 16 1 17 12 18 13 19 14 22 15 23 16 24 20 25
REMARK SMILES IDX 17 26 19 27 18 28 21 29 23 30 22 31 24 32 25 33 26 34 27 35
REMARK H PARENT 10 6 13 20 13 21
ROOT
ATOM     1   N1  UNL     1       1.626  -2.185   1.686  1.00  0.00    -0.212 N   
ATOM     2   C8  UNL     1       1.633  -0.830   1.515  1.00  0.00     0.045 A   
ATOM     3   C9  UNL     1       0.458  -0.417   2.100  1.00  0.00     0.127 A   
ATOM     4   N3  UNL     1      -0.201  -1.509   2.606  1.00  0.00    -0.132 NA  
ATOM     5   N4  UNL     1       0.528  -2.583   2.353  1.00  0.00    -0.076 NA  
ATOM     6   H10 UNL     1       2.417  -0.316   0.976  1.00  0.00     0.083 HD  
ENDROOT
BRANCH   1   7
ATOM     7   C7  UNL     1       2.574  -3.151   1.171  1.00  0.00     0.139 C   
BRANCH   7   8
ATOM     8   C6  UNL     1       2.007  -3.994   0.024  1.00  0.00     0.057 C   
BRANCH   8   9
ATOM     9   C5  UNL     1       1.490  -3.172  -1.135  1.00  0.00    -0.046 A   
ATOM     10  C2  UNL     1       0.497  -1.627  -3.272  1.00  0.00     0.077 A   
ATOM     11  C3  UNL     1      -0.362  -2.437  -2.526  1.00  0.00     0.034 A   
ATOM     12  C24 UNL     1       1.864  -1.584  -2.949  1.00  0.00    -0.021 A   
ATOM     13  C4  UNL     1       0.131  -3.201  -1.465  1.00  0.00     0.006 A   
ATOM     14  C23 UNL     1       2.352  -2.369  -1.891  1.00  0.00     0.010 A   
ATOM     15  C25 UNL     1       2.812  -0.729  -3.744  1.00  0.00     0.047 C   
BRANCH  10  16
ATOM     16  O1  UNL     1       0.104  -0.824  -4.310  1.00  0.00    -0.349 OA  
ATOM     17  C1  UNL     1      -1.192  -1.044  -4.851  1.00  0.00     0.203 C   
ENDBRANCH  10  16
ENDBRANCH   8   9
ENDBRANCH   7   8
ENDBRANCH   1   7
BRANCH   3  18
ATOM     18  C10 UNL     1      -0.200   0.928   2.136  1.00  0.00     0.120 C   
BRANCH  18  19
ATOM     19  N2  UNL     1      -1.671   0.753   1.816  1.00  0.00     0.250 N   
ATOM     20  H12 UNL     1      -2.202   1.600   2.029  1.00  0.00     0.199 HD  
ATOM     21  H13 UNL     1      -2.010   0.009   2.443  1.00  0.00     0.199 HD  
BRANCH  19  22
ATOM     22  C11 UNL     1      -1.994   0.325   0.420  1.00  0.00     0.164 C   
BRANCH  22  23
ATOM     23  C12 UNL     1      -1.765   1.414  -0.589  1.00  0.00    -0.002 A   
ATOM     24  C13 UNL     1      -2.709   2.456  -0.750  1.00  0.00     0.012 A   
ATOM     25  C17 UNL     1      -0.589   1.423  -1.359  1.00  0.00     0.045 A   
ATOM     26  C14 UNL     1      -2.489   3.489  -1.669  1.00  0.00     0.037 A   
ATOM     27  C16 UNL     1      -0.399   2.459  -2.249  1.00  0.00     0.109 A   
ATOM     28  C15 UNL     1      -1.323   3.462  -2.402  1.00  0.00     0.108 A   
ATOM     29  O2  UNL     1       0.685   2.623  -3.051  1.00  0.00    -0.316 OA  
ATOM     30  O3  UNL     1      -0.942   4.378  -3.330  1.00  0.00    -0.316 OA  
ATOM     31  C18 UNL     1       0.315   3.820  -3.771  1.00  0.00     0.337 C   
ENDBRANCH  22  23
ENDBRANCH  19  22
ENDBRANCH  18  19
BRANCH  18  32
ATOM     32  C19 UNL     1      -0.019   1.700   3.488  1.00  0.00     0.010 C   
ATOM     33  C20 UNL     1      -0.602   3.128   3.371  1.00  0.00     0.017 C   
ATOM     34  C21 UNL     1      -0.699   1.000   4.680  1.00  0.00     0.017 C   
ATOM     35  C22 UNL     1       1.486   1.852   3.810  1.00  0.00     0.017 C   
ENDBRANCH  18  32
ENDBRANCH   3  18
TORSDOF 9
