REMARK SMILES COc1ccc(CCn2cc([C@@H]([NH2+]Cc3ccc4c(c3)OCO4)C3CCCC3)nn2)cc1
REMARK SMILES IDX 9 1 10 2 11 3 29 4 30 5 8 7 7 8 6 9 3 10 4 11 32 12 5 13
REMARK SMILES IDX 31 14 2 15 1 16 12 17 13 18 14 21 15 22 16 23 20 24 17 25
REMARK SMILES IDX 19 26 18 27 21 28 23 29 22 30 24 31 25 32 28 33 26 34 27 35
REMARK H PARENT 10 6 13 19 13 20
ROOT
ATOM     1   N1  UNL     1       2.193   2.246   1.345  1.00  0.00    -0.212 N   
ATOM     2   C8  UNL     1       1.627   1.990   0.128  1.00  0.00     0.045 A   
ATOM     3   C9  UNL     1       0.314   1.704   0.428  1.00  0.00     0.127 A   
ATOM     4   N3  UNL     1       0.131   1.796   1.784  1.00  0.00    -0.132 NA  
ATOM     5   N4  UNL     1       1.287   2.131   2.333  1.00  0.00    -0.076 NA  
ATOM     6   H10 UNL     1       2.193   2.010  -0.793  1.00  0.00     0.083 HD  
ENDROOT
BRANCH   1   7
ATOM     7   C7  UNL     1       3.579   2.546   1.638  1.00  0.00     0.139 C   
BRANCH   7   8
ATOM     8   C6  UNL     1       4.309   1.393   2.332  1.00  0.00     0.057 C   
BRANCH   8   9
ATOM     9   C5  UNL     1       4.299   0.114   1.527  1.00  0.00    -0.046 A   
ATOM     10  C2  UNL     1       4.219  -2.248  -0.000  1.00  0.00     0.075 A   
ATOM     11  C3  UNL     1       5.031  -1.185  -0.395  1.00  0.00     0.034 A   
ATOM     12  C25 UNL     1       3.454  -2.128   1.161  1.00  0.00     0.034 A   
ATOM     13  C4  UNL     1       5.073  -0.011   0.367  1.00  0.00     0.006 A   
ATOM     14  C24 UNL     1       3.490  -0.958   1.921  1.00  0.00     0.006 A   
BRANCH  10  15
ATOM     15  O1  UNL     1       4.067  -3.433  -0.664  1.00  0.00    -0.349 OA  
ATOM     16  C1  UNL     1       4.979  -3.698  -1.724  1.00  0.00     0.203 C   
ENDBRANCH  10  15
ENDBRANCH   8   9
ENDBRANCH   7   8
ENDBRANCH   1   7
BRANCH   3  17
ATOM     17  C10 UNL     1      -0.820   1.268  -0.440  1.00  0.00     0.117 C   
BRANCH  17  18
ATOM     18  N2  UNL     1      -1.558   0.130   0.233  1.00  0.00     0.249 N   
ATOM     19  H12 UNL     1      -1.764   0.450   1.190  1.00  0.00     0.199 HD  
ATOM     20  H13 UNL     1      -2.454  -0.044  -0.229  1.00  0.00     0.199 HD  
BRANCH  18  21
ATOM     21  C11 UNL     1      -0.815  -1.161   0.341  1.00  0.00     0.164 C   
BRANCH  21  22
ATOM     22  C12 UNL     1      -0.605  -1.824  -0.992  1.00  0.00    -0.002 A   
ATOM     23  C13 UNL     1       0.677  -1.831  -1.590  1.00  0.00     0.012 A   
ATOM     24  C17 UNL     1      -1.685  -2.419  -1.667  1.00  0.00     0.045 A   
ATOM     25  C14 UNL     1       0.887  -2.422  -2.840  1.00  0.00     0.037 A   
ATOM     26  C16 UNL     1      -1.444  -2.991  -2.899  1.00  0.00     0.109 A   
ATOM     27  C15 UNL     1      -0.195  -2.993  -3.470  1.00  0.00     0.108 A   
ATOM     28  O2  UNL     1      -2.373  -3.601  -3.680  1.00  0.00    -0.316 OA  
ATOM     29  O3  UNL     1      -0.180  -3.607  -4.681  1.00  0.00    -0.316 OA  
ATOM     30  C18 UNL     1      -1.558  -4.020  -4.799  1.00  0.00     0.337 C   
ENDBRANCH  21  22
ENDBRANCH  18  21
ENDBRANCH  17  18
BRANCH  17  31
ATOM     31  C19 UNL     1      -1.822   2.410  -0.699  1.00  0.00     0.043 C   
ATOM     32  C20 UNL     1      -2.985   2.028  -1.624  1.00  0.00     0.010 C   
ATOM     33  C23 UNL     1      -1.207   3.603  -1.437  1.00  0.00     0.010 C   
ATOM     34  C21 UNL     1      -3.476   3.339  -2.237  1.00  0.00     0.001 C   
ATOM     35  C22 UNL     1      -2.420   4.389  -1.911  1.00  0.00     0.001 C   
ENDBRANCH  17  31
ENDBRANCH   3  17
TORSDOF 9
