REMARK SMILES CC(C)(C)[C@H]([NH2+]Cc1ccc2c(c1)OCO2)c1cn([C@H](CO)c2cncc(F)c2)nn1
REMARK SMILES IDX 17 1 18 2 19 3 30 4 31 5 5 7 2 8 1 9 3 10 4 11 6 12 7 15
REMARK SMILES IDX 8 16 9 17 13 18 10 19 12 20 11 21 14 22 16 23 15 24 20 25
REMARK SMILES IDX 21 26 22 27 23 29 24 30 29 31 25 32 27 33 26 34 28 35
REMARK H PARENT 18 6 6 13 6 14 22 28
ROOT
ATOM     1   C14 UNL     1      -1.111   1.587   0.017  1.00  0.00     0.127 A   
ATOM     2   C15 UNL     1      -0.871   2.905   0.333  1.00  0.00     0.046 A   
ATOM     3   N2  UNL     1      -0.650   2.894   1.685  1.00  0.00    -0.202 N   
ATOM     4   N4  UNL     1      -0.709   1.633   2.163  1.00  0.00    -0.075 NA  
ATOM     5   N5  UNL     1      -1.006   0.828   1.156  1.00  0.00    -0.132 NA  
ATOM     6   H20 UNL     1      -0.854   3.817  -0.248  1.00  0.00     0.083 HD  
ENDROOT
BRANCH   1   7
ATOM     7   C5  UNL     1      -1.383   0.923  -1.301  1.00  0.00     0.120 C   
BRANCH   7   8
ATOM     8   C2  UNL     1      -2.898   0.904  -1.713  1.00  0.00     0.010 C   
ATOM     9   C1  UNL     1      -3.470   2.340  -1.725  1.00  0.00     0.017 C   
ATOM     10  C3  UNL     1      -3.760   0.047  -0.767  1.00  0.00     0.017 C   
ATOM     11  C4  UNL     1      -3.056   0.351  -3.149  1.00  0.00     0.017 C   
ENDBRANCH   7   8
BRANCH   7  12
ATOM     12  N1  UNL     1      -0.835  -0.486  -1.260  1.00  0.00     0.250 N   
ATOM     13  H11 UNL     1      -1.139  -0.895  -0.365  1.00  0.00     0.199 HD  
ATOM     14  H12 UNL     1      -1.227  -1.080  -1.994  1.00  0.00     0.199 HD  
BRANCH  12  15
ATOM     15  C6  UNL     1       0.651  -0.598  -1.308  1.00  0.00     0.164 C   
BRANCH  15  16
ATOM     16  C7  UNL     1       1.070  -2.028  -1.118  1.00  0.00    -0.002 A   
ATOM     17  C8  UNL     1       1.274  -2.538   0.188  1.00  0.00     0.012 A   
ATOM     18  C12 UNL     1       1.199  -2.885  -2.224  1.00  0.00     0.045 A   
ATOM     19  C9  UNL     1       1.618  -3.879   0.391  1.00  0.00     0.037 A   
ATOM     20  C11 UNL     1       1.537  -4.202  -1.988  1.00  0.00     0.109 A   
ATOM     21  C10 UNL     1       1.743  -4.685  -0.719  1.00  0.00     0.108 A   
ATOM     22  O1  UNL     1       1.696  -5.159  -2.940  1.00  0.00    -0.316 OA  
ATOM     23  O2  UNL     1       2.062  -6.005  -0.711  1.00  0.00    -0.316 OA  
ATOM     24  C13 UNL     1       2.058  -6.298  -2.125  1.00  0.00     0.337 C   
ENDBRANCH  15  16
ENDBRANCH  12  15
ENDBRANCH   7  12
ENDBRANCH   1   7
BRANCH   3  25
ATOM     25  C16 UNL     1      -0.365   4.013   2.588  1.00  0.00     0.157 C   
BRANCH  25  26
ATOM     26  C17 UNL     1      -1.671   4.704   3.030  1.00  0.00     0.186 C   
BRANCH  26  27
ATOM     27  O3  UNL     1      -2.435   5.194   1.927  1.00  0.00    -0.394 OA  
ATOM     28  H24 UNL     1      -3.255   5.576   2.297  1.00  0.00     0.210 HD  
ENDBRANCH  26  27
ENDBRANCH  25  26
BRANCH  25  29
ATOM     29  C18 UNL     1       0.732   4.895   2.017  1.00  0.00    -0.002 A   
ATOM     30  C19 UNL     1       0.482   6.095   1.349  1.00  0.00     0.117 A   
ATOM     31  C22 UNL     1       2.076   4.491   2.109  1.00  0.00     0.048 A   
ATOM     32  N3  UNL     1       1.442   6.873   0.794  1.00  0.00    -0.261 NA  
ATOM     33  C21 UNL     1       3.076   5.278   1.552  1.00  0.00     0.141 A   
ATOM     34  C20 UNL     1       2.723   6.451   0.914  1.00  0.00     0.150 A   
ATOM     35  F1  UNL     1       4.355   4.890   1.625  1.00  0.00    -0.205 F   
ENDBRANCH  25  29
ENDBRANCH   3  25
TORSDOF 9
