REMARK SMILES CC(C)(C)[C@H]([NH2+]Cc1ccc2c(c1)OCO2)c1cn([C@@H](CO)c2cncc(F)c2)nn1
REMARK SMILES IDX 17 1 18 2 19 3 30 4 31 5 5 7 2 8 1 9 3 10 4 11 6 12 7 15
REMARK SMILES IDX 8 16 9 17 13 18 10 19 12 20 11 21 14 22 16 23 15 24 20 25
REMARK SMILES IDX 21 26 22 27 23 29 24 30 29 31 25 32 27 33 26 34 28 35
REMARK H PARENT 18 6 6 13 6 14 22 28
ROOT
ATOM     1   C14 UNL     1      -1.795  -0.312   0.091  1.00  0.00     0.127 A   
ATOM     2   C15 UNL     1      -0.971  -1.357   0.447  1.00  0.00     0.046 A   
ATOM     3   N2  UNL     1      -1.176  -2.296  -0.531  1.00  0.00    -0.202 N   
ATOM     4   N4  UNL     1      -2.103  -1.866  -1.410  1.00  0.00    -0.075 NA  
ATOM     5   N5  UNL     1      -2.495  -0.659  -1.035  1.00  0.00    -0.132 NA  
ATOM     6   H20 UNL     1      -0.231  -1.486   1.225  1.00  0.00     0.083 HD  
ENDROOT
BRANCH   1   7
ATOM     7   C5  UNL     1      -1.903   1.073   0.653  1.00  0.00     0.120 C   
BRANCH   7   8
ATOM     8   C2  UNL     1      -3.103   1.270   1.647  1.00  0.00     0.010 C   
ATOM     9   C1  UNL     1      -3.008   0.243   2.799  1.00  0.00     0.017 C   
ATOM     10  C3  UNL     1      -3.043   2.675   2.289  1.00  0.00     0.017 C   
ATOM     11  C4  UNL     1      -4.478   1.110   0.969  1.00  0.00     0.017 C   
ENDBRANCH   7   8
BRANCH   7  12
ATOM     12  N1  UNL     1      -1.979   2.087  -0.475  1.00  0.00     0.250 N   
ATOM     13  H11 UNL     1      -2.124   3.028  -0.104  1.00  0.00     0.199 HD  
ATOM     14  H12 UNL     1      -2.804   1.844  -1.038  1.00  0.00     0.199 HD  
BRANCH  12  15
ATOM     15  C6  UNL     1      -0.819   2.135  -1.425  1.00  0.00     0.164 C   
BRANCH  15  16
ATOM     16  C7  UNL     1       0.499   2.413  -0.759  1.00  0.00    -0.002 A   
ATOM     17  C8  UNL     1       0.780   3.685  -0.206  1.00  0.00     0.012 A   
ATOM     18  C12 UNL     1       1.460   1.393  -0.666  1.00  0.00     0.045 A   
ATOM     19  C9  UNL     1       2.002   3.937   0.429  1.00  0.00     0.037 A   
ATOM     20  C11 UNL     1       2.651   1.671  -0.030  1.00  0.00     0.109 A   
ATOM     21  C10 UNL     1       2.914   2.907   0.505  1.00  0.00     0.108 A   
ATOM     22  O1  UNL     1       3.678   0.799   0.144  1.00  0.00    -0.316 OA  
ATOM     23  O2  UNL     1       4.145   2.972   1.077  1.00  0.00    -0.316 OA  
ATOM     24  C13 UNL     1       4.649   1.647   0.796  1.00  0.00     0.337 C   
ENDBRANCH  15  16
ENDBRANCH  12  15
ENDBRANCH   7  12
ENDBRANCH   1   7
BRANCH   3  25
ATOM     25  C16 UNL     1      -0.354  -3.476  -0.797  1.00  0.00     0.157 C   
BRANCH  25  26
ATOM     26  C17 UNL     1      -1.053  -4.531  -1.672  1.00  0.00     0.186 C   
BRANCH  26  27
ATOM     27  O3  UNL     1      -0.343  -5.765  -1.587  1.00  0.00    -0.394 OA  
ATOM     28  H24 UNL     1      -0.704  -6.368  -2.266  1.00  0.00     0.210 HD  
ENDBRANCH  26  27
ENDBRANCH  25  26
BRANCH  25  29
ATOM     29  C18 UNL     1       0.977  -3.014  -1.369  1.00  0.00    -0.002 A   
ATOM     30  C19 UNL     1       1.048  -2.282  -2.557  1.00  0.00     0.117 A   
ATOM     31  C22 UNL     1       2.180  -3.249  -0.689  1.00  0.00     0.048 A   
ATOM     32  N3  UNL     1       2.185  -1.746  -3.054  1.00  0.00    -0.261 NA  
ATOM     33  C21 UNL     1       3.365  -2.735  -1.200  1.00  0.00     0.141 A   
ATOM     34  C20 UNL     1       3.325  -1.994  -2.365  1.00  0.00     0.150 A   
ATOM     35  F1  UNL     1       4.521  -2.939  -0.557  1.00  0.00    -0.205 F   
ENDBRANCH  25  29
ENDBRANCH   3  25
TORSDOF 9
