REMARK SMILES COc1nccc(Cl)c1Cn1cc([C@@H]([NH2+]Cc2ccc3c(c2)OCO3)C2CCCCC2)nn1
REMARK SMILES IDX 11 1 12 2 13 3 32 4 33 5 10 7 9 8 3 9 4 10 5 11 7 12 6 13
REMARK SMILES IDX 8 14 2 15 1 16 14 17 15 18 16 21 17 22 18 23 22 24 19 25
REMARK SMILES IDX 21 26 20 27 23 28 25 29 24 30 26 31 27 32 31 33 28 34 30 35
REMARK SMILES IDX 29 36
REMARK H PARENT 12 6 15 19 15 20
ROOT
ATOM     1   N2  UNL     1      -0.052   0.643  -3.257  1.00  0.00    -0.208 N   
ATOM     2   C8  UNL     1      -0.219  -0.088  -2.111  1.00  0.00     0.046 A   
ATOM     3   C9  UNL     1       0.522   0.591  -1.169  1.00  0.00     0.127 A   
ATOM     4   N4  UNL     1       1.145   1.655  -1.769  1.00  0.00    -0.132 NA  
ATOM     5   N5  UNL     1       0.810   1.659  -3.048  1.00  0.00    -0.076 NA  
ATOM     6   H8  UNL     1      -0.842  -0.971  -2.067  1.00  0.00     0.083 HD  
ENDROOT
BRANCH   1   7
ATOM     7   C7  UNL     1      -0.599   0.408  -4.586  1.00  0.00     0.175 C   
BRANCH   7   8
ATOM     8   C6  UNL     1      -2.078   0.141  -4.555  1.00  0.00     0.040 A   
ATOM     9   C2  UNL     1      -2.977   1.191  -4.385  1.00  0.00     0.173 A   
ATOM     10  N1  UNL     1      -4.316   1.038  -4.325  1.00  0.00    -0.232 NA  
ATOM     11  C3  UNL     1      -4.809  -0.208  -4.458  1.00  0.00     0.115 A   
ATOM     12  C5  UNL     1      -2.635  -1.138  -4.666  1.00  0.00     0.051 A   
ATOM     13  C4  UNL     1      -4.014  -1.322  -4.626  1.00  0.00     0.041 A   
ATOM     14  CL1 UNL     1      -1.651  -2.549  -4.829  1.00  0.00    -0.084 Cl  
BRANCH   9  15
ATOM     15  O1  UNL     1      -2.445   2.457  -4.242  1.00  0.00    -0.332 OA  
ATOM     16  C1  UNL     1      -3.430   3.486  -4.185  1.00  0.00     0.205 C   
ENDBRANCH   9  15
ENDBRANCH   7   8
ENDBRANCH   1   7
BRANCH   3  17
ATOM     17  C10 UNL     1       0.737   0.339   0.289  1.00  0.00     0.117 C   
BRANCH  17  18
ATOM     18  N3  UNL     1       2.001   1.023   0.754  1.00  0.00     0.249 N   
ATOM     19  H10 UNL     1       1.985   1.192   1.762  1.00  0.00     0.199 HD  
ATOM     20  H11 UNL     1       2.006   1.946   0.295  1.00  0.00     0.199 HD  
BRANCH  18  21
ATOM     21  C11 UNL     1       3.281   0.348   0.391  1.00  0.00     0.164 C   
BRANCH  21  22
ATOM     22  C12 UNL     1       3.501  -0.925   1.162  1.00  0.00    -0.002 A   
ATOM     23  C13 UNL     1       3.429  -2.178   0.507  1.00  0.00     0.012 A   
ATOM     24  C17 UNL     1       3.754  -0.882   2.545  1.00  0.00     0.045 A   
ATOM     25  C14 UNL     1       3.595  -3.372   1.217  1.00  0.00     0.037 A   
ATOM     26  C16 UNL     1       3.910  -2.077   3.215  1.00  0.00     0.109 A   
ATOM     27  C15 UNL     1       3.832  -3.287   2.571  1.00  0.00     0.108 A   
ATOM     28  O2  UNL     1       4.149  -2.211   4.545  1.00  0.00    -0.316 OA  
ATOM     29  O3  UNL     1       4.013  -4.335   3.415  1.00  0.00    -0.316 OA  
ATOM     30  C18 UNL     1       4.243  -3.649   4.663  1.00  0.00     0.337 C   
ENDBRANCH  21  22
ENDBRANCH  18  21
ENDBRANCH  17  18
BRANCH  17  31
ATOM     31  C19 UNL     1      -0.473   0.800   1.146  1.00  0.00     0.043 C   
ATOM     32  C20 UNL     1      -0.667   2.329   1.186  1.00  0.00     0.010 C   
ATOM     33  C24 UNL     1      -0.406   0.232   2.578  1.00  0.00     0.010 C   
ATOM     34  C21 UNL     1      -1.893   2.717   2.012  1.00  0.00     0.001 C   
ATOM     35  C23 UNL     1      -1.633   0.626   3.398  1.00  0.00     0.001 C   
ATOM     36  C22 UNL     1      -1.831   2.138   3.421  1.00  0.00     0.000 C   
ENDBRANCH  17  31
ENDBRANCH   3  17
TORSDOF 8
