REMARK SMILES c1ccc(-n2cc([C@@H]([NH2+]Cc3ccc4c(c3)OCO4)C3CCCCC3)nn2)c(-c2nc3ccccc3[nH]2)c1
REMARK SMILES IDX 5 1 6 2 7 3 26 4 27 5 4 6 1 7 2 8 38 9 3 10 28 11 29 12
REMARK SMILES IDX 30 13 37 14 31 15 36 16 32 17 35 18 33 19 34 20 8 22 9 23
REMARK SMILES IDX 10 26 11 27 12 28 16 29 13 30 15 31 14 32 17 33 19 34 18 35
REMARK SMILES IDX 20 36 21 37 25 38 22 39 24 40 23 41
REMARK H PARENT 37 21 9 24 9 25
ROOT
ATOM     1   N1  UNL     1       0.621  -0.188  -3.169  1.00  0.00    -0.180 N   
ATOM     2   C5  UNL     1       0.266  -0.768  -1.978  1.00  0.00     0.135 A   
ATOM     3   C6  UNL     1       0.973  -0.071  -1.027  1.00  0.00     0.127 A   
ATOM     4   N3  UNL     1       1.850   0.766  -1.654  1.00  0.00    -0.131 NA  
ATOM     5   N4  UNL     1       1.684   0.626  -2.965  1.00  0.00    -0.071 NA  
ENDROOT
BRANCH   1   6
ATOM     6   C4  UNL     1       0.011  -0.342  -4.429  1.00  0.00     0.068 A   
ATOM     7   C1  UNL     1      -1.071  -0.790  -6.963  1.00  0.00     0.001 A   
ATOM     8   C2  UNL     1       0.308  -0.676  -6.811  1.00  0.00     0.002 A   
ATOM     9   C30 UNL     1      -1.915  -0.629  -5.861  1.00  0.00     0.014 A   
ATOM     10  C3  UNL     1       0.852  -0.441  -5.549  1.00  0.00     0.027 A   
ATOM     11  C22 UNL     1      -1.393  -0.379  -4.578  1.00  0.00     0.039 A   
BRANCH  11  12
ATOM     12  C23 UNL     1      -2.336   0.030  -3.525  1.00  0.00     0.132 A   
ATOM     13  N5  UNL     1      -2.555  -0.533  -2.349  1.00  0.00    -0.231 NA  
ATOM     14  N6  UNL     1      -3.125   1.156  -3.665  1.00  0.00    -0.297 N   
ATOM     15  C24 UNL     1      -3.527   0.221  -1.740  1.00  0.00     0.087 A   
ATOM     16  C29 UNL     1      -3.858   1.321  -2.518  1.00  0.00     0.058 A   
ATOM     17  C25 UNL     1      -4.158   0.039  -0.499  1.00  0.00     0.030 A   
ATOM     18  C28 UNL     1      -4.774   2.294  -2.120  1.00  0.00     0.026 A   
ATOM     19  C26 UNL     1      -5.085   0.999  -0.074  1.00  0.00     0.002 A   
ATOM     20  C27 UNL     1      -5.378   2.111  -0.870  1.00  0.00     0.002 A   
ATOM     21  H30 UNL     1      -3.143   1.759  -4.476  1.00  0.00     0.154 HD  
ENDBRANCH  11  12
ENDBRANCH   1   6
BRANCH   3  22
ATOM     22  C7  UNL     1       0.795  -0.059   0.456  1.00  0.00     0.117 C   
BRANCH  22  23
ATOM     23  N2  UNL     1      -0.587   0.494   0.769  1.00  0.00     0.249 N   
ATOM     24  H6  UNL     1      -0.792   0.402   1.765  1.00  0.00     0.199 HD  
ATOM     25  H7  UNL     1      -1.280  -0.070   0.258  1.00  0.00     0.199 HD  
BRANCH  23  26
ATOM     26  C8  UNL     1      -0.819   1.928   0.400  1.00  0.00     0.164 C   
BRANCH  26  27
ATOM     27  C9  UNL     1       0.033   2.877   1.196  1.00  0.00    -0.002 A   
ATOM     28  C10 UNL     1       1.093   3.578   0.571  1.00  0.00     0.012 A   
ATOM     29  C14 UNL     1      -0.189   3.046   2.575  1.00  0.00     0.045 A   
ATOM     30  C11 UNL     1       1.923   4.433   1.305  1.00  0.00     0.037 A   
ATOM     31  C13 UNL     1       0.653   3.889   3.270  1.00  0.00     0.109 A   
ATOM     32  C12 UNL     1       1.679   4.563   2.654  1.00  0.00     0.108 A   
ATOM     33  O1  UNL     1       0.585   4.148   4.602  1.00  0.00    -0.316 OA  
ATOM     34  O2  UNL     1       2.382   5.338   3.520  1.00  0.00    -0.316 OA  
ATOM     35  C15 UNL     1       1.678   5.082   4.755  1.00  0.00     0.337 C   
ENDBRANCH  26  27
ENDBRANCH  23  26
ENDBRANCH  22  23
BRANCH  22  36
ATOM     36  C16 UNL     1       0.943  -1.475   1.094  1.00  0.00     0.043 C   
ATOM     37  C17 UNL     1       0.716  -1.514   2.621  1.00  0.00     0.010 C   
ATOM     38  C21 UNL     1       2.332  -2.093   0.808  1.00  0.00     0.010 C   
ATOM     39  C18 UNL     1       1.814  -0.795   3.401  1.00  0.00     0.001 C   
ATOM     40  C20 UNL     1       3.460  -1.396   1.570  1.00  0.00     0.001 C   
ATOM     41  C19 UNL     1       3.193  -1.360   3.071  1.00  0.00     0.000 C   
ENDBRANCH  22  36
ENDBRANCH   3  22
TORSDOF 7
