REMARK SMILES Cc1ccoc1C(=O)n1cc([C@H](CC(C)C)[NH2+]Cc2ccc3c(c2)OCO3)nn1
REMARK SMILES IDX 9 1 10 2 11 3 28 4 29 5 7 6 8 7 6 8 2 9 3 10 4 11 5 12 1 13
REMARK SMILES IDX 12 14 13 15 14 16 15 17 16 18 17 19 18 22 19 23 20 24 24 25
REMARK SMILES IDX 21 26 23 27 22 28 25 29 27 30 26 31
REMARK H PARENT 17 20 17 21
ROOT
ATOM     1   N1  UNL     1      -1.573  -0.697   0.061  1.00  0.00    -0.142 N   
ATOM     2   C7  UNL     1      -0.677  -1.305   0.932  1.00  0.00     0.139 A   
ATOM     3   C8  UNL     1       0.229  -0.324   1.256  1.00  0.00     0.127 A   
ATOM     4   N3  UNL     1      -0.157   0.849   0.668  1.00  0.00    -0.131 NA  
ATOM     5   N4  UNL     1      -1.252   0.619  -0.038  1.00  0.00    -0.068 NA  
ENDROOT
BRANCH   1   6
ATOM     6   C6  UNL     1      -2.636  -1.299  -0.646  1.00  0.00     0.295 C   
ATOM     7   O2  UNL     1      -2.813  -2.489  -0.379  1.00  0.00    -0.267 OA  
BRANCH   6   8
ATOM     8   C5  UNL     1      -3.453  -0.598  -1.622  1.00  0.00     0.149 A   
ATOM     9   C2  UNL     1      -4.565  -1.018  -2.345  1.00  0.00    -0.013 A   
ATOM     10  C3  UNL     1      -4.944   0.083  -3.163  1.00  0.00     0.032 A   
ATOM     11  C4  UNL     1      -4.051   1.090  -2.900  1.00  0.00     0.137 A   
ATOM     12  O1  UNL     1      -3.144   0.686  -1.979  1.00  0.00    -0.312 OA  
ATOM     13  C1  UNL     1      -5.233  -2.344  -2.281  1.00  0.00     0.047 C   
ENDBRANCH   6   8
ENDBRANCH   1   6
BRANCH   3  14
ATOM     14  C9  UNL     1       1.525  -0.383   1.992  1.00  0.00     0.114 C   
BRANCH  14  15
ATOM     15  C10 UNL     1       1.407   0.015   3.477  1.00  0.00     0.064 C   
BRANCH  15  16
ATOM     16  C11 UNL     1       0.733   1.358   3.840  1.00  0.00    -0.012 C   
ATOM     17  C12 UNL     1       0.552   1.433   5.362  1.00  0.00     0.007 C   
ATOM     18  C13 UNL     1       1.508   2.588   3.371  1.00  0.00     0.007 C   
ENDBRANCH  15  16
ENDBRANCH  14  15
BRANCH  14  19
ATOM     19  N2  UNL     1       2.572   0.457   1.302  1.00  0.00     0.249 N   
ATOM     20  H17 UNL     1       3.214   0.868   1.987  1.00  0.00     0.199 HD  
ATOM     21  H18 UNL     1       2.067   1.243   0.865  1.00  0.00     0.199 HD  
BRANCH  19  22
ATOM     22  C14 UNL     1       3.372  -0.217   0.232  1.00  0.00     0.164 C   
BRANCH  22  23
ATOM     23  C15 UNL     1       2.549  -0.695  -0.932  1.00  0.00    -0.002 A   
ATOM     24  C16 UNL     1       2.274  -2.074  -1.100  1.00  0.00     0.012 A   
ATOM     25  C20 UNL     1       1.986   0.234  -1.826  1.00  0.00     0.045 A   
ATOM     26  C17 UNL     1       1.421  -2.519  -2.116  1.00  0.00     0.037 A   
ATOM     27  C19 UNL     1       1.147  -0.238  -2.814  1.00  0.00     0.109 A   
ATOM     28  C18 UNL     1       0.864  -1.575  -2.950  1.00  0.00     0.108 A   
ATOM     29  O3  UNL     1       0.498   0.525  -3.731  1.00  0.00    -0.316 OA  
ATOM     30  O4  UNL     1      -0.008  -1.819  -3.961  1.00  0.00    -0.316 OA  
ATOM     31  C21 UNL     1      -0.230  -0.484  -4.465  1.00  0.00     0.337 C   
ENDBRANCH  22  23
ENDBRANCH  19  22
ENDBRANCH  14  19
ENDBRANCH   3  14
TORSDOF 8
