REMARK SMILES COCc1cccc(-n2cc([C@@H]([NH2+]Cc3ccc4c(c3)OCO4)C3CCCC3)nn2)c1
REMARK SMILES IDX 9 1 10 2 11 3 29 4 30 5 8 6 4 7 5 8 31 9 6 10 7 11 3 12 2 13
REMARK SMILES IDX 1 14 12 15 13 16 14 19 15 20 16 21 20 22 17 23 19 24 18 25
REMARK SMILES IDX 21 26 23 27 22 28 24 29 25 30 28 31 26 32 27 33
REMARK H PARENT 13 17 13 18
ROOT
ATOM     1   N1  UNL     1       1.666   1.795   1.417  1.00  0.00    -0.181 N   
ATOM     2   C8  UNL     1       0.732   0.799   1.634  1.00  0.00     0.135 A   
ATOM     3   C9  UNL     1       0.336   0.396   0.379  1.00  0.00     0.127 A   
ATOM     4   N3  UNL     1       1.004   1.132  -0.557  1.00  0.00    -0.131 NA  
ATOM     5   N4  UNL     1       1.791   1.986   0.076  1.00  0.00    -0.071 NA  
ENDROOT
BRANCH   1   6
ATOM     6   C7  UNL     1       2.406   2.549   2.362  1.00  0.00     0.058 A   
ATOM     7   C3  UNL     1       2.994   3.070   4.673  1.00  0.00    -0.020 A   
ATOM     8   C4  UNL     1       3.875   4.055   4.208  1.00  0.00     0.006 A   
ATOM     9   C24 UNL     1       2.268   2.313   3.738  1.00  0.00     0.032 A   
ATOM     10  C5  UNL     1       4.018   4.293   2.841  1.00  0.00     0.002 A   
ATOM     11  C6  UNL     1       3.288   3.544   1.917  1.00  0.00     0.026 A   
BRANCH   7  12
ATOM     12  C2  UNL     1       2.892   2.817   6.159  1.00  0.00     0.195 C   
BRANCH  12  13
ATOM     13  O1  UNL     1       1.735   2.037   6.472  1.00  0.00    -0.380 OA  
ATOM     14  C1  UNL     1       1.646   1.798   7.866  1.00  0.00     0.195 C   
ENDBRANCH  12  13
ENDBRANCH   7  12
ENDBRANCH   1   6
BRANCH   3  15
ATOM     15  C10 UNL     1      -0.658  -0.635  -0.055  1.00  0.00     0.117 C   
BRANCH  15  16
ATOM     16  N2  UNL     1      -1.085  -0.393  -1.479  1.00  0.00     0.249 N   
ATOM     17  H11 UNL     1      -0.234  -0.147  -2.008  1.00  0.00     0.199 HD  
ATOM     18  H12 UNL     1      -1.459  -1.238  -1.920  1.00  0.00     0.199 HD  
BRANCH  16  19
ATOM     19  C11 UNL     1      -2.048   0.724  -1.684  1.00  0.00     0.164 C   
BRANCH  19  20
ATOM     20  C12 UNL     1      -2.265   0.944  -3.158  1.00  0.00    -0.002 A   
ATOM     21  C13 UNL     1      -1.423   1.828  -3.874  1.00  0.00     0.012 A   
ATOM     22  C17 UNL     1      -3.248   0.213  -3.847  1.00  0.00     0.045 A   
ATOM     23  C14 UNL     1      -1.559   1.990  -5.257  1.00  0.00     0.037 A   
ATOM     24  C16 UNL     1      -3.350   0.389  -5.212  1.00  0.00     0.109 A   
ATOM     25  C15 UNL     1      -2.530   1.251  -5.897  1.00  0.00     0.108 A   
ATOM     26  O2  UNL     1      -4.220  -0.260  -6.030  1.00  0.00    -0.316 OA  
ATOM     27  O3  UNL     1      -2.779   1.256  -7.231  1.00  0.00    -0.316 OA  
ATOM     28  C18 UNL     1      -3.871   0.314  -7.310  1.00  0.00     0.337 C   
ENDBRANCH  19  20
ENDBRANCH  16  19
ENDBRANCH  15  16
BRANCH  15  29
ATOM     29  C19 UNL     1      -0.102  -2.071   0.094  1.00  0.00     0.043 C   
ATOM     30  C20 UNL     1      -1.194  -3.152  -0.039  1.00  0.00     0.010 C   
ATOM     31  C23 UNL     1       0.997  -2.464  -0.914  1.00  0.00     0.010 C   
ATOM     32  C21 UNL     1      -0.552  -4.278  -0.840  1.00  0.00     0.001 C   
ATOM     33  C22 UNL     1       0.384  -3.551  -1.788  1.00  0.00     0.001 C   
ENDBRANCH  15  29
ENDBRANCH   3  15
TORSDOF 8
