REMARK SMILES CC(C)[C@H]([NH2+]Cc1ccc2c(c1)OCO2)c1cn(CCc2cscn2)nn1
REMARK SMILES IDX 16 1 17 2 18 3 26 4 27 5 4 7 2 8 1 9 3 10 5 11 6 14 7 15
REMARK SMILES IDX 8 16 12 17 9 18 11 19 10 20 13 21 15 22 14 23 19 24 20 25
REMARK SMILES IDX 21 26 22 27 25 28 23 29 24 30
REMARK H PARENT 17 6 5 12 5 13
ROOT
ATOM     1   C13 UNL     1       2.195   0.139   0.729  1.00  0.00     0.127 A   
ATOM     2   C14 UNL     1       2.249  -1.234   0.639  1.00  0.00     0.045 A   
ATOM     3   N2  UNL     1       2.630  -1.631   1.889  1.00  0.00    -0.212 N   
ATOM     4   N4  UNL     1       2.799  -0.570   2.701  1.00  0.00    -0.076 NA  
ATOM     5   N5  UNL     1       2.542   0.522   1.999  1.00  0.00    -0.132 NA  
ATOM     6   H18 UNL     1       2.037  -1.941  -0.151  1.00  0.00     0.083 HD  
ENDROOT
BRANCH   1   7
ATOM     7   C4  UNL     1       1.764   1.170  -0.263  1.00  0.00     0.117 C   
BRANCH   7   8
ATOM     8   C2  UNL     1       2.973   1.916  -0.898  1.00  0.00     0.037 C   
ATOM     9   C1  UNL     1       3.900   0.943  -1.643  1.00  0.00     0.014 C   
ATOM     10  C3  UNL     1       2.543   3.015  -1.880  1.00  0.00     0.014 C   
ENDBRANCH   7   8
BRANCH   7  11
ATOM     11  N1  UNL     1       0.865   2.181   0.424  1.00  0.00     0.249 N   
ATOM     12  H9  UNL     1       1.416   2.575   1.199  1.00  0.00     0.199 HD  
ATOM     13  H10 UNL     1       0.630   2.945  -0.212  1.00  0.00     0.199 HD  
BRANCH  11  14
ATOM     14  C5  UNL     1      -0.408   1.656   1.010  1.00  0.00     0.164 C   
BRANCH  14  15
ATOM     15  C6  UNL     1      -1.349   1.104  -0.024  1.00  0.00    -0.002 A   
ATOM     16  C7  UNL     1      -2.066   1.973  -0.882  1.00  0.00     0.012 A   
ATOM     17  C11 UNL     1      -1.499  -0.287  -0.165  1.00  0.00     0.045 A   
ATOM     18  C8  UNL     1      -2.918   1.464  -1.868  1.00  0.00     0.037 A   
ATOM     19  C10 UNL     1      -2.346  -0.755  -1.148  1.00  0.00     0.109 A   
ATOM     20  C9  UNL     1      -3.034   0.096  -1.976  1.00  0.00     0.108 A   
ATOM     21  O1  UNL     1      -2.597  -2.062  -1.421  1.00  0.00    -0.316 OA  
ATOM     22  O2  UNL     1      -3.809  -0.567  -2.873  1.00  0.00    -0.316 OA  
ATOM     23  C12 UNL     1      -3.555  -1.937  -2.498  1.00  0.00     0.337 C   
ENDBRANCH  14  15
ENDBRANCH  11  14
ENDBRANCH   7  11
ENDBRANCH   1   7
BRANCH   3  24
ATOM     24  C15 UNL     1       2.846  -2.976   2.377  1.00  0.00     0.140 C   
BRANCH  24  25
ATOM     25  C16 UNL     1       1.742  -3.451   3.318  1.00  0.00     0.078 C   
BRANCH  25  26
ATOM     26  C17 UNL     1       0.403  -3.624   2.667  1.00  0.00     0.049 A   
ATOM     27  C18 UNL     1      -0.817  -3.648   3.319  1.00  0.00     0.070 A   
ATOM     28  N3  UNL     1       0.327  -3.805   1.293  1.00  0.00    -0.254 NA  
ATOM     29  S1  UNL     1      -2.084  -3.925   2.199  1.00  0.00    -0.084 S   
ATOM     30  C19 UNL     1      -0.925  -4.011   0.941  1.00  0.00     0.156 A   
ENDBRANCH  25  26
ENDBRANCH  24  25
ENDBRANCH   3  24
TORSDOF 8
