REMARK SMILES COc1cc(F)ccc1-n1cc([C@@H]([NH2+]Cc2ccc3c(c2)OCO3)C(C)C)nn1
REMARK SMILES IDX 10 1 11 2 12 3 28 4 29 5 9 6 3 7 4 8 5 9 8 10 7 11 6 12 2 13
REMARK SMILES IDX 1 14 13 15 14 16 15 19 16 20 17 21 21 22 18 23 20 24 19 25
REMARK SMILES IDX 22 26 24 27 23 28 25 29 26 30 27 31
REMARK H PARENT 14 17 14 18
ROOT
ATOM     1   N1  UNL     1      -0.170   1.800  -2.747  1.00  0.00    -0.178 N   
ATOM     2   C8  UNL     1      -0.469   0.451  -2.685  1.00  0.00     0.135 A   
ATOM     3   C9  UNL     1      -0.584   0.156  -1.345  1.00  0.00     0.127 A   
ATOM     4   N3  UNL     1      -0.350   1.285  -0.619  1.00  0.00    -0.131 NA  
ATOM     5   N4  UNL     1      -0.092   2.267  -1.465  1.00  0.00    -0.071 NA  
ENDROOT
BRANCH   1   6
ATOM     6   C7  UNL     1       0.052   2.670  -3.856  1.00  0.00     0.088 A   
ATOM     7   C2  UNL     1       0.009   2.244  -5.202  1.00  0.00     0.101 A   
ATOM     8   C3  UNL     1       0.237   3.185  -6.218  1.00  0.00     0.074 A   
ATOM     9   C4  UNL     1       0.504   4.515  -5.907  1.00  0.00     0.125 A   
ATOM     10  C6  UNL     1       0.327   4.028  -3.569  1.00  0.00     0.032 A   
ATOM     11  C5  UNL     1       0.553   4.945  -4.593  1.00  0.00     0.041 A   
ATOM     12  F1  UNL     1       0.719   5.390  -6.896  1.00  0.00    -0.207 F   
BRANCH   7  13
ATOM     13  O1  UNL     1      -0.250   0.926  -5.466  1.00  0.00    -0.347 OA  
ATOM     14  C1  UNL     1      -0.284   0.503  -6.827  1.00  0.00     0.203 C   
ENDBRANCH   7  13
ENDBRANCH   1   6
BRANCH   3  15
ATOM     15  C10 UNL     1      -0.884  -1.131  -0.642  1.00  0.00     0.117 C   
BRANCH  15  16
ATOM     16  N2  UNL     1      -0.371  -1.090   0.773  1.00  0.00     0.249 N   
ATOM     17  H9  UNL     1      -0.622  -0.165   1.154  1.00  0.00     0.199 HD  
ATOM     18  H10 UNL     1      -0.832  -1.779   1.373  1.00  0.00     0.199 HD  
BRANCH  16  19
ATOM     19  C11 UNL     1       1.105  -1.236   0.920  1.00  0.00     0.164 C   
BRANCH  19  20
ATOM     20  C12 UNL     1       1.503  -1.095   2.362  1.00  0.00    -0.002 A   
ATOM     21  C13 UNL     1       1.680  -2.239   3.175  1.00  0.00     0.012 A   
ATOM     22  C17 UNL     1       1.650   0.185   2.925  1.00  0.00     0.045 A   
ATOM     23  C14 UNL     1       2.009  -2.113   4.529  1.00  0.00     0.037 A   
ATOM     24  C16 UNL     1       1.972   0.273   4.263  1.00  0.00     0.109 A   
ATOM     25  C15 UNL     1       2.146  -0.843   5.043  1.00  0.00     0.108 A   
ATOM     26  O2  UNL     1       2.146   1.426   4.960  1.00  0.00    -0.316 OA  
ATOM     27  O3  UNL     1       2.456  -0.534   6.329  1.00  0.00    -0.316 OA  
ATOM     28  C18 UNL     1       2.477   0.909   6.269  1.00  0.00     0.337 C   
ENDBRANCH  19  20
ENDBRANCH  16  19
ENDBRANCH  15  16
BRANCH  15  29
ATOM     29  C19 UNL     1      -2.399  -1.465  -0.655  1.00  0.00     0.037 C   
ATOM     30  C20 UNL     1      -3.252  -0.514   0.193  1.00  0.00     0.014 C   
ATOM     31  C21 UNL     1      -2.664  -2.914  -0.232  1.00  0.00     0.014 C   
ENDBRANCH  15  29
ENDBRANCH   3  15
TORSDOF 7
