REMARK SMILES CC(C)[C@H]([NH2+]Cc1ccc2c(c1)OCO2)c1cn(Cc2ccc(F)cn2)nn1
REMARK SMILES IDX 16 1 17 2 18 3 27 4 28 5 4 7 2 8 1 9 3 10 5 11 6 14 7 15
REMARK SMILES IDX 8 16 12 17 9 18 11 19 10 20 13 21 15 22 14 23 19 24 20 25
REMARK SMILES IDX 21 26 26 27 22 28 25 29 23 30 24 31
REMARK H PARENT 17 6 5 12 5 13
ROOT
ATOM     1   C13 UNL     1      -0.227  -1.419  -0.228  1.00  0.00     0.127 A   
ATOM     2   C14 UNL     1      -1.463  -1.889  -0.607  1.00  0.00     0.046 A   
ATOM     3   N2  UNL     1      -1.989  -2.410   0.544  1.00  0.00    -0.206 N   
ATOM     4   N4  UNL     1      -1.129  -2.264   1.573  1.00  0.00    -0.076 NA  
ATOM     5   N5  UNL     1      -0.046  -1.660   1.112  1.00  0.00    -0.132 NA  
ATOM     6   H18 UNL     1      -2.012  -1.890  -1.540  1.00  0.00     0.083 HD  
ENDROOT
BRANCH   1   7
ATOM     7   C4  UNL     1       0.825  -0.681  -0.991  1.00  0.00     0.117 C   
BRANCH   7   8
ATOM     8   C2  UNL     1       1.875  -1.594  -1.675  1.00  0.00     0.037 C   
ATOM     9   C1  UNL     1       2.656  -2.490  -0.706  1.00  0.00     0.014 C   
ATOM     10  C3  UNL     1       1.246  -2.451  -2.780  1.00  0.00     0.014 C   
ENDBRANCH   7   8
BRANCH   7  11
ATOM     11  N1  UNL     1       1.550   0.272  -0.072  1.00  0.00     0.249 N   
ATOM     12  H9  UNL     1       1.753  -0.248   0.795  1.00  0.00     0.199 HD  
ATOM     13  H10 UNL     1       2.455   0.557  -0.460  1.00  0.00     0.199 HD  
BRANCH  11  14
ATOM     14  C5  UNL     1       0.780   1.486   0.319  1.00  0.00     0.164 C   
BRANCH  14  15
ATOM     15  C6  UNL     1       1.561   2.303   1.308  1.00  0.00    -0.002 A   
ATOM     16  C7  UNL     1       1.478   2.012   2.691  1.00  0.00     0.012 A   
ATOM     17  C11 UNL     1       2.422   3.322   0.865  1.00  0.00     0.045 A   
ATOM     18  C8  UNL     1       2.232   2.733   3.623  1.00  0.00     0.037 A   
ATOM     19  C10 UNL     1       3.151   4.013   1.810  1.00  0.00     0.109 A   
ATOM     20  C9  UNL     1       3.059   3.728   3.151  1.00  0.00     0.108 A   
ATOM     21  O1  UNL     1       4.024   5.021   1.552  1.00  0.00    -0.316 OA  
ATOM     22  O2  UNL     1       3.861   4.523   3.905  1.00  0.00    -0.316 OA  
ATOM     23  C12 UNL     1       4.456   5.359   2.890  1.00  0.00     0.337 C   
ENDBRANCH  14  15
ENDBRANCH  11  14
ENDBRANCH   7  11
ENDBRANCH   1   7
BRANCH   3  24
ATOM     24  C15 UNL     1      -3.275  -3.050   0.734  1.00  0.00     0.190 C   
BRANCH  24  25
ATOM     25  C16 UNL     1      -4.341  -2.012   0.961  1.00  0.00     0.060 A   
ATOM     26  C17 UNL     1      -4.734  -1.665   2.256  1.00  0.00     0.028 A   
ATOM     27  N3  UNL     1      -4.872  -1.424  -0.145  1.00  0.00    -0.257 NA  
ATOM     28  C18 UNL     1      -5.720  -0.695   2.426  1.00  0.00     0.043 A   
ATOM     29  C20 UNL     1      -5.838  -0.490   0.055  1.00  0.00     0.150 A   
ATOM     30  C19 UNL     1      -6.280  -0.103   1.306  1.00  0.00     0.141 A   
ATOM     31  F1  UNL     1      -7.227   0.833   1.436  1.00  0.00    -0.205 F   
ENDBRANCH  24  25
ENDBRANCH   3  24
TORSDOF 7
