REMARK SMILES Cc1ncccc1CCn1cc([C@H](CC(C)C)[NH2+]Cc2ccc3c(c2)OCO3)nn1
REMARK SMILES IDX 10 1 11 2 12 3 29 4 30 5 9 7 8 8 7 9 2 10 3 11 4 12 6 13
REMARK SMILES IDX 5 14 1 15 13 16 14 17 15 18 16 19 17 20 18 21 19 24 20 25
REMARK SMILES IDX 21 26 25 27 22 28 24 29 23 30 26 31 28 32 27 33
REMARK H PARENT 11 6 18 22 18 23
ROOT
ATOM     1   N2  UNL     1       0.684  -3.543  -0.866  1.00  0.00    -0.212 N   
ATOM     2   C9  UNL     1       1.292  -2.463  -0.285  1.00  0.00     0.045 A   
ATOM     3   C10 UNL     1       0.654  -1.379  -0.850  1.00  0.00     0.127 A   
ATOM     4   N4  UNL     1      -0.190  -1.828  -1.832  1.00  0.00    -0.132 NA  
ATOM     5   N5  UNL     1      -0.156  -3.153  -1.838  1.00  0.00    -0.076 NA  
ATOM     6   H11 UNL     1       1.989  -2.569   0.535  1.00  0.00     0.083 HD  
ENDROOT
BRANCH   1   7
ATOM     7   C8  UNL     1       0.644  -4.898  -0.346  1.00  0.00     0.139 C   
BRANCH   7   8
ATOM     8   C7  UNL     1      -0.521  -5.124   0.642  1.00  0.00     0.059 C   
BRANCH   8   9
ATOM     9   C6  UNL     1      -0.570  -4.069   1.730  1.00  0.00    -0.025 A   
ATOM     10  C2  UNL     1      -1.452  -2.978   1.688  1.00  0.00     0.040 A   
ATOM     11  N1  UNL     1      -1.289  -1.874   2.473  1.00  0.00    -0.261 NA  
ATOM     12  C3  UNL     1      -0.377  -1.960   3.472  1.00  0.00     0.111 A   
ATOM     13  C5  UNL     1       0.389  -4.091   2.751  1.00  0.00     0.007 A   
ATOM     14  C4  UNL     1       0.468  -3.037   3.653  1.00  0.00     0.020 A   
ATOM     15  C1  UNL     1      -2.645  -2.957   0.773  1.00  0.00     0.067 C   
ENDBRANCH   8   9
ENDBRANCH   7   8
ENDBRANCH   1   7
BRANCH   3  16
ATOM     16  C11 UNL     1       0.630   0.060  -0.446  1.00  0.00     0.114 C   
BRANCH  16  17
ATOM     17  C12 UNL     1       1.926   0.580   0.210  1.00  0.00     0.064 C   
BRANCH  17  18
ATOM     18  C13 UNL     1       3.107   0.907  -0.735  1.00  0.00    -0.012 C   
ATOM     19  C14 UNL     1       3.705  -0.313  -1.430  1.00  0.00     0.007 C   
ATOM     20  C15 UNL     1       2.748   1.982  -1.764  1.00  0.00     0.007 C   
ENDBRANCH  17  18
ENDBRANCH  16  17
BRANCH  16  21
ATOM     21  N3  UNL     1      -0.501   0.275   0.551  1.00  0.00     0.249 N   
ATOM     22  H22 UNL     1      -0.572  -0.549   1.178  1.00  0.00     0.199 HD  
ATOM     23  H23 UNL     1      -0.304   1.071   1.162  1.00  0.00     0.199 HD  
BRANCH  21  24
ATOM     24  C16 UNL     1      -1.856   0.477  -0.040  1.00  0.00     0.164 C   
BRANCH  24  25
ATOM     25  C17 UNL     1      -2.009   1.823  -0.693  1.00  0.00    -0.002 A   
ATOM     26  C18 UNL     1      -2.134   2.993   0.096  1.00  0.00     0.012 A   
ATOM     27  C22 UNL     1      -1.999   1.933  -2.094  1.00  0.00     0.045 A   
ATOM     28  C19 UNL     1      -2.240   4.254  -0.501  1.00  0.00     0.037 A   
ATOM     29  C21 UNL     1      -2.106   3.191  -2.650  1.00  0.00     0.109 A   
ATOM     30  C20 UNL     1      -2.221   4.319  -1.877  1.00  0.00     0.108 A   
ATOM     31  O1  UNL     1      -2.106   3.471  -3.980  1.00  0.00    -0.316 OA  
ATOM     32  O2  UNL     1      -2.312   5.451  -2.621  1.00  0.00    -0.316 OA  
ATOM     33  C23 UNL     1      -2.261   4.907  -3.958  1.00  0.00     0.337 C   
ENDBRANCH  24  25
ENDBRANCH  21  24
ENDBRANCH  16  21
ENDBRANCH   3  16
TORSDOF 9
