REMARK SMILES CC(C)(C)[C@H]([NH2+]Cc1ccc2c(c1)OCO2)c1cn(CCc2cccc(O)c2)nn1
REMARK SMILES IDX 17 1 18 2 19 3 29 4 30 5 5 7 2 8 1 9 3 10 4 11 6 12 7 15
REMARK SMILES IDX 8 16 9 17 13 18 10 19 12 20 11 21 14 22 16 23 15 24 20 25
REMARK SMILES IDX 21 26 22 27 23 28 28 29 24 30 26 31 25 32 27 33
REMARK H PARENT 18 6 6 13 6 14 27 34
ROOT
ATOM     1   C14 UNL     1      -0.057   1.951  -0.880  1.00  0.00     0.127 A   
ATOM     2   C15 UNL     1       0.547   2.156  -2.101  1.00  0.00     0.045 A   
ATOM     3   N2  UNL     1       1.820   2.535  -1.777  1.00  0.00    -0.212 N   
ATOM     4   N3  UNL     1       1.979   2.605  -0.443  1.00  0.00    -0.076 NA  
ATOM     5   N4  UNL     1       0.837   2.245   0.119  1.00  0.00    -0.132 NA  
ATOM     6   H20 UNL     1       0.229   2.010  -3.123  1.00  0.00     0.083 HD  
ENDROOT
BRANCH   1   7
ATOM     7   C5  UNL     1      -1.395   1.377  -0.533  1.00  0.00     0.120 C   
BRANCH   7   8
ATOM     8   C2  UNL     1      -2.495   2.451  -0.220  1.00  0.00     0.010 C   
ATOM     9   C1  UNL     1      -2.639   3.425  -1.412  1.00  0.00     0.017 C   
ATOM     10  C3  UNL     1      -3.870   1.772  -0.026  1.00  0.00     0.017 C   
ATOM     11  C4  UNL     1      -2.183   3.276   1.045  1.00  0.00     0.017 C   
ENDBRANCH   7   8
BRANCH   7  12
ATOM     12  N1  UNL     1      -1.234   0.430   0.633  1.00  0.00     0.250 N   
ATOM     13  H11 UNL     1      -0.687   0.928   1.350  1.00  0.00     0.199 HD  
ATOM     14  H12 UNL     1      -2.128   0.187   1.065  1.00  0.00     0.199 HD  
BRANCH  12  15
ATOM     15  C6  UNL     1      -0.496  -0.833   0.329  1.00  0.00     0.164 C   
BRANCH  15  16
ATOM     16  C7  UNL     1      -0.469  -1.722   1.541  1.00  0.00    -0.002 A   
ATOM     17  C8  UNL     1      -1.474  -2.699   1.737  1.00  0.00     0.012 A   
ATOM     18  C12 UNL     1       0.529  -1.547   2.516  1.00  0.00     0.045 A   
ATOM     19  C9  UNL     1      -1.480  -3.501   2.884  1.00  0.00     0.037 A   
ATOM     20  C11 UNL     1       0.492  -2.353   3.635  1.00  0.00     0.109 A   
ATOM     21  C10 UNL     1      -0.484  -3.303   3.814  1.00  0.00     0.108 A   
ATOM     22  O1  UNL     1       1.375  -2.315   4.667  1.00  0.00    -0.316 OA  
ATOM     23  O2  UNL     1      -0.337  -3.983   4.980  1.00  0.00    -0.316 OA  
ATOM     24  C13 UNL     1       0.857  -3.368   5.510  1.00  0.00     0.337 C   
ENDBRANCH  15  16
ENDBRANCH  12  15
ENDBRANCH   7  12
ENDBRANCH   1   7
BRANCH   3  25
ATOM     25  C16 UNL     1       2.950   2.707  -2.668  1.00  0.00     0.139 C   
BRANCH  25  26
ATOM     26  C17 UNL     1       3.892   1.498  -2.671  1.00  0.00     0.057 C   
BRANCH  26  27
ATOM     27  C18 UNL     1       3.215   0.230  -3.141  1.00  0.00    -0.044 A   
ATOM     28  C19 UNL     1       3.116  -0.067  -4.506  1.00  0.00     0.004 A   
ATOM     29  C23 UNL     1       2.631  -0.643  -2.210  1.00  0.00     0.037 A   
ATOM     30  C20 UNL     1       2.444  -1.216  -4.931  1.00  0.00     0.003 A   
ATOM     31  C22 UNL     1       1.949  -1.774  -2.645  1.00  0.00     0.071 A   
ATOM     32  C21 UNL     1       1.855  -2.073  -4.000  1.00  0.00     0.033 A   
BRANCH  31  33
ATOM     33  O3  UNL     1       1.361  -2.572  -1.706  1.00  0.00    -0.361 OA  
ATOM     34  H28 UNL     1       1.314  -3.470  -2.086  1.00  0.00     0.218 HD  
ENDBRANCH  31  33
ENDBRANCH  26  27
ENDBRANCH  25  26
ENDBRANCH   3  25
TORSDOF 9
