REMARK SMILES CC(C)[C@H]([NH2+]Cc1ccc2c(c1)OCO2)c1cn(CCc2cc(F)ccc2F)nn1
REMARK SMILES IDX 16 1 17 2 18 3 29 4 30 5 4 7 2 8 1 9 3 10 5 11 6 14 7 15
REMARK SMILES IDX 8 16 12 17 9 18 11 19 10 20 13 21 15 22 14 23 19 24 20 25
REMARK SMILES IDX 21 26 22 27 27 28 23 29 26 30 25 31 28 32 24 33
REMARK H PARENT 17 6 5 12 5 13
ROOT
ATOM     1   C13 UNL     1       1.961  -0.790   0.825  1.00  0.00     0.127 A   
ATOM     2   C14 UNL     1       1.797   0.570   0.965  1.00  0.00     0.045 A   
ATOM     3   N2  UNL     1       2.680   1.100   0.068  1.00  0.00    -0.212 N   
ATOM     4   N3  UNL     1       3.355   0.132  -0.576  1.00  0.00    -0.076 NA  
ATOM     5   N4  UNL     1       2.927  -1.032  -0.119  1.00  0.00    -0.132 NA  
ATOM     6   H18 UNL     1       1.148   1.183   1.574  1.00  0.00     0.083 HD  
ENDROOT
BRANCH   1   7
ATOM     7   C4  UNL     1       1.244  -1.942   1.449  1.00  0.00     0.117 C   
BRANCH   7   8
ATOM     8   C2  UNL     1       1.900  -2.467   2.754  1.00  0.00     0.037 C   
ATOM     9   C1  UNL     1       3.343  -2.955   2.585  1.00  0.00     0.014 C   
ATOM     10  C3  UNL     1       1.835  -1.424   3.876  1.00  0.00     0.014 C   
ENDBRANCH   7   8
BRANCH   7  11
ATOM     11  N1  UNL     1       1.154  -3.093   0.466  1.00  0.00     0.249 N   
ATOM     12  H9  UNL     1       0.888  -3.955   0.949  1.00  0.00     0.199 HD  
ATOM     13  H10 UNL     1       2.105  -3.225   0.095  1.00  0.00     0.199 HD  
BRANCH  11  14
ATOM     14  C5  UNL     1       0.261  -2.889  -0.714  1.00  0.00     0.164 C   
BRANCH  14  15
ATOM     15  C6  UNL     1      -1.193  -2.802  -0.342  1.00  0.00    -0.002 A   
ATOM     16  C7  UNL     1      -1.910  -3.959   0.045  1.00  0.00     0.012 A   
ATOM     17  C11 UNL     1      -1.843  -1.556  -0.350  1.00  0.00     0.045 A   
ATOM     18  C8  UNL     1      -3.254  -3.875   0.425  1.00  0.00     0.037 A   
ATOM     19  C10 UNL     1      -3.167  -1.508   0.030  1.00  0.00     0.109 A   
ATOM     20  C9  UNL     1      -3.853  -2.635   0.408  1.00  0.00     0.108 A   
ATOM     21  O1  UNL     1      -3.935  -0.388   0.084  1.00  0.00    -0.316 OA  
ATOM     22  O2  UNL     1      -5.141  -2.368   0.747  1.00  0.00    -0.316 OA  
ATOM     23  C12 UNL     1      -5.199  -0.945   0.512  1.00  0.00     0.337 C   
ENDBRANCH  14  15
ENDBRANCH  11  14
ENDBRANCH   7  11
ENDBRANCH   1   7
BRANCH   3  24
ATOM     24  C15 UNL     1       2.932   2.494  -0.234  1.00  0.00     0.139 C   
BRANCH  24  25
ATOM     25  C16 UNL     1       2.151   2.991  -1.451  1.00  0.00     0.060 C   
BRANCH  25  26
ATOM     26  C17 UNL     1       0.694   3.257  -1.157  1.00  0.00    -0.008 A   
ATOM     27  C18 UNL     1       0.291   4.489  -0.624  1.00  0.00     0.046 A   
ATOM     28  C22 UNL     1      -0.283   2.282  -1.395  1.00  0.00     0.126 A   
ATOM     29  C19 UNL     1      -1.056   4.723  -0.351  1.00  0.00     0.123 A   
ATOM     30  C21 UNL     1      -1.630   2.521  -1.125  1.00  0.00     0.042 A   
ATOM     31  C20 UNL     1      -2.019   3.751  -0.599  1.00  0.00     0.042 A   
ATOM     32  F2  UNL     1       0.075   1.080  -1.869  1.00  0.00    -0.207 F   
ATOM     33  F1  UNL     1      -1.426   5.902   0.161  1.00  0.00    -0.207 F   
ENDBRANCH  25  26
ENDBRANCH  24  25
ENDBRANCH   3  24
TORSDOF 8
