REMARK SMILES Cc1cnc2c(c1)[C@H](n1cc([C@@H]([NH2+]Cc3ccc4c(c3)OCO4)C(C)(C)C)nn1)CCO2
REMARK SMILES IDX 12 1 11 2 9 3 10 4 29 5 28 6 8 8 2 9 3 10 7 11 4 12 6 13
REMARK SMILES IDX 5 14 32 15 30 16 31 17 1 18 13 19 14 22 15 23 16 24 20 25
REMARK SMILES IDX 17 26 19 27 18 28 21 29 23 30 22 31 24 32 25 33 26 34 27 35
REMARK H PARENT 10 7 13 20 13 21
ROOT
ATOM     1   C10 UNL     1      -0.495  -1.625   0.658  1.00  0.00     0.120 C   
ENDROOT
BRANCH   1   2
ATOM     2   C9  UNL     1       0.909  -1.243   0.299  1.00  0.00     0.127 A   
ATOM     3   N2  UNL     1       2.781  -0.273  -0.215  1.00  0.00    -0.204 N   
ATOM     4   C8  UNL     1       1.532  -0.015   0.284  1.00  0.00     0.046 A   
ATOM     5   N5  UNL     1       2.906  -1.585  -0.502  1.00  0.00    -0.075 NA  
ATOM     6   N4  UNL     1       1.770  -2.186  -0.193  1.00  0.00    -0.132 NA  
ATOM     7   H7  UNL     1       1.199   0.983   0.538  1.00  0.00     0.083 HD  
BRANCH   3   8
ATOM     8   C7  UNL     1       3.881   0.647  -0.516  1.00  0.00     0.136 C   
ATOM     9   C2  UNL     1       2.436   3.001  -3.133  1.00  0.00    -0.032 A   
ATOM     10  C3  UNL     1       2.430   4.159  -2.372  1.00  0.00     0.117 A   
ATOM     11  C6  UNL     1       2.928   1.844  -2.531  1.00  0.00     0.015 A   
ATOM     12  N1  UNL     1       2.845   4.221  -1.089  1.00  0.00    -0.232 NA  
ATOM     13  C5  UNL     1       3.373   1.881  -1.201  1.00  0.00     0.025 A   
ATOM     14  C4  UNL     1       3.313   3.092  -0.527  1.00  0.00     0.172 A   
ATOM     15  O3  UNL     1       3.747   3.266   0.753  1.00  0.00    -0.329 OA  
ATOM     16  C23 UNL     1       4.699   1.008   0.721  1.00  0.00     0.059 C   
ATOM     17  C24 UNL     1       3.996   2.092   1.515  1.00  0.00     0.172 C   
ATOM     18  C1  UNL     1       1.999   3.014  -4.563  1.00  0.00     0.046 C   
ENDBRANCH   3   8
ENDBRANCH   1   2
BRANCH   1  19
ATOM     19  N3  UNL     1      -1.012  -2.640  -0.346  1.00  0.00     0.250 N   
ATOM     20  H9  UNL     1      -0.316  -3.398  -0.379  1.00  0.00     0.199 HD  
ATOM     21  H10 UNL     1      -1.895  -3.047  -0.028  1.00  0.00     0.199 HD  
BRANCH  19  22
ATOM     22  C11 UNL     1      -1.193  -2.153  -1.745  1.00  0.00     0.164 C   
BRANCH  22  23
ATOM     23  C12 UNL     1      -2.272  -1.114  -1.868  1.00  0.00    -0.002 A   
ATOM     24  C13 UNL     1      -3.635  -1.477  -1.759  1.00  0.00     0.012 A   
ATOM     25  C17 UNL     1      -1.927   0.236  -2.051  1.00  0.00     0.045 A   
ATOM     26  C14 UNL     1      -4.641  -0.510  -1.829  1.00  0.00     0.037 A   
ATOM     27  C16 UNL     1      -2.945   1.164  -2.114  1.00  0.00     0.109 A   
ATOM     28  C15 UNL     1      -4.264   0.802  -2.006  1.00  0.00     0.108 A   
ATOM     29  O1  UNL     1      -2.783   2.503  -2.283  1.00  0.00    -0.316 OA  
ATOM     30  O2  UNL     1      -5.102   1.865  -2.099  1.00  0.00    -0.316 OA  
ATOM     31  C18 UNL     1      -4.160   2.943  -2.304  1.00  0.00     0.337 C   
ENDBRANCH  22  23
ENDBRANCH  19  22
ENDBRANCH   1  19
BRANCH   1  32
ATOM     32  C19 UNL     1      -0.660  -2.175   2.117  1.00  0.00     0.010 C   
ATOM     33  C20 UNL     1      -2.161  -2.358   2.449  1.00  0.00     0.017 C   
ATOM     34  C21 UNL     1      -0.093  -1.161   3.139  1.00  0.00     0.017 C   
ATOM     35  C22 UNL     1       0.054  -3.523   2.337  1.00  0.00     0.017 C   
ENDBRANCH   1  32
TORSDOF 6
