REMARK SMILES Cc1cnc2c(c1)[C@@H](n1cc([C@@H]([NH2+]Cc3ccc4c(c3)OCO4)C(C)(C)C)nn1)CCO2
REMARK SMILES IDX 12 1 11 2 9 3 10 4 29 5 28 6 8 8 2 9 3 10 7 11 4 12 6 13
REMARK SMILES IDX 5 14 32 15 30 16 31 17 1 18 13 19 14 22 15 23 16 24 20 25
REMARK SMILES IDX 17 26 19 27 18 28 21 29 23 30 22 31 24 32 25 33 26 34 27 35
REMARK H PARENT 10 7 13 20 13 21
ROOT
ATOM     1   C10 UNL     1       0.167  -2.647   0.795  1.00  0.00     0.120 C   
ENDROOT
BRANCH   1   2
ATOM     2   C9  UNL     1       0.777  -1.452   0.126  1.00  0.00     0.127 A   
ATOM     3   N2  UNL     1       1.345   0.496  -0.651  1.00  0.00    -0.204 N   
ATOM     4   C8  UNL     1       0.495  -0.109   0.238  1.00  0.00     0.046 A   
ATOM     5   N5  UNL     1       2.096  -0.437  -1.279  1.00  0.00    -0.075 NA  
ATOM     6   N4  UNL     1       1.738  -1.629  -0.832  1.00  0.00    -0.132 NA  
ATOM     7   H7  UNL     1      -0.212   0.439   0.846  1.00  0.00     0.083 HD  
BRANCH   3   8
ATOM     8   C7  UNL     1       1.546   1.918  -0.959  1.00  0.00     0.136 C   
ATOM     9   C2  UNL     1      -0.439   4.004   1.540  1.00  0.00    -0.032 A   
ATOM     10  C3  UNL     1      -1.521   4.303   0.723  1.00  0.00     0.117 A   
ATOM     11  C6  UNL     1       0.587   3.237   0.987  1.00  0.00     0.015 A   
ATOM     12  N1  UNL     1      -1.641   3.885  -0.556  1.00  0.00    -0.232 NA  
ATOM     13  C5  UNL     1       0.487   2.787  -0.338  1.00  0.00     0.025 A   
ATOM     14  C4  UNL     1      -0.635   3.153  -1.071  1.00  0.00     0.172 A   
ATOM     15  O3  UNL     1      -0.814   2.847  -2.388  1.00  0.00    -0.329 OA  
ATOM     16  C23 UNL     1       1.563   2.200  -2.463  1.00  0.00     0.059 C   
ATOM     17  C24 UNL     1       0.159   2.015  -3.012  1.00  0.00     0.172 C   
ATOM     18  C1  UNL     1      -0.351   4.543   2.932  1.00  0.00     0.046 C   
ENDBRANCH   3   8
ENDBRANCH   1   2
BRANCH   1  19
ATOM     19  N3  UNL     1      -0.051  -3.725  -0.250  1.00  0.00     0.250 N   
ATOM     20  H9  UNL     1       0.285  -4.634   0.076  1.00  0.00     0.199 HD  
ATOM     21  H10 UNL     1       0.565  -3.482  -1.044  1.00  0.00     0.199 HD  
BRANCH  19  22
ATOM     22  C11 UNL     1      -1.443  -3.877  -0.760  1.00  0.00     0.164 C   
BRANCH  22  23
ATOM     23  C12 UNL     1      -1.933  -2.688  -1.537  1.00  0.00    -0.002 A   
ATOM     24  C13 UNL     1      -1.524  -2.495  -2.879  1.00  0.00     0.012 A   
ATOM     25  C17 UNL     1      -2.769  -1.737  -0.927  1.00  0.00     0.045 A   
ATOM     26  C14 UNL     1      -1.944  -1.374  -3.603  1.00  0.00     0.037 A   
ATOM     27  C16 UNL     1      -3.148  -0.634  -1.663  1.00  0.00     0.109 A   
ATOM     28  C15 UNL     1      -2.750  -0.459  -2.964  1.00  0.00     0.108 A   
ATOM     29  O1  UNL     1      -3.924   0.385  -1.213  1.00  0.00    -0.316 OA  
ATOM     30  O2  UNL     1      -3.227   0.693  -3.501  1.00  0.00    -0.316 OA  
ATOM     31  C18 UNL     1      -3.966   1.236  -2.384  1.00  0.00     0.337 C   
ENDBRANCH  22  23
ENDBRANCH  19  22
ENDBRANCH   1  19
BRANCH   1  32
ATOM     32  C19 UNL     1       0.998  -3.204   2.003  1.00  0.00     0.010 C   
ATOM     33  C20 UNL     1       0.221  -4.347   2.697  1.00  0.00     0.017 C   
ATOM     34  C21 UNL     1       1.204  -2.094   3.059  1.00  0.00     0.017 C   
ATOM     35  C22 UNL     1       2.385  -3.737   1.589  1.00  0.00     0.017 C   
ENDBRANCH   1  32
TORSDOF 6
