REMARK SMILES O=c1cc(-n2cc([C@@H]([NH2+]Cc3ccc4c(c3)OCO4)C3CCCCC3)nn2)c2ccccc2o1
REMARK SMILES IDX 8 1 7 2 5 3 6 4 27 5 26 6 4 7 2 8 3 9 34 10 33 11 28 12
REMARK SMILES IDX 32 13 29 14 31 15 30 16 1 17 9 18 10 21 11 22 12 23 16 24
REMARK SMILES IDX 13 25 15 26 14 27 17 28 19 29 18 30 20 31 21 32 25 33 22 34
REMARK SMILES IDX 24 35 23 36
REMARK H PARENT 9 19 9 20
ROOT
ATOM     1   C6  UNL     1       0.894  -1.786   0.144  1.00  0.00     0.117 C   
ENDROOT
BRANCH   1   2
ATOM     2   C5  UNL     1       0.132  -1.002  -0.886  1.00  0.00     0.127 A   
ATOM     3   N1  UNL     1      -0.967  -0.240  -2.677  1.00  0.00    -0.180 N   
ATOM     4   C4  UNL     1      -0.369  -1.379  -2.112  1.00  0.00     0.135 A   
ATOM     5   N4  UNL     1      -0.759   0.765  -1.770  1.00  0.00    -0.071 NA  
ATOM     6   N3  UNL     1      -0.118   0.318  -0.708  1.00  0.00    -0.131 NA  
BRANCH   3   7
ATOM     7   C3  UNL     1      -1.619  -0.152  -3.941  1.00  0.00     0.073 A   
ATOM     8   C1  UNL     1      -2.232  -1.205  -6.128  1.00  0.00     0.292 A   
ATOM     9   C2  UNL     1      -1.635  -1.200  -4.788  1.00  0.00     0.106 A   
ATOM     10  O4  UNL     1      -2.785  -0.030  -6.569  1.00  0.00    -0.274 OA  
ATOM     11  C26 UNL     1      -2.840   1.092  -5.726  1.00  0.00     0.095 A   
ATOM     12  C21 UNL     1      -2.305   1.081  -4.432  1.00  0.00     0.029 A   
ATOM     13  C25 UNL     1      -3.489   2.204  -6.275  1.00  0.00     0.035 A   
ATOM     14  C22 UNL     1      -2.483   2.258  -3.689  1.00  0.00     0.013 A   
ATOM     15  C24 UNL     1      -3.632   3.356  -5.518  1.00  0.00     0.003 A   
ATOM     16  C23 UNL     1      -3.132   3.381  -4.224  1.00  0.00     0.001 A   
ATOM     17  O1  UNL     1      -2.201  -2.224  -6.801  1.00  0.00    -0.261 OA  
ENDBRANCH   3   7
ENDBRANCH   1   2
BRANCH   1  18
ATOM     18  N2  UNL     1       2.136  -1.038   0.569  1.00  0.00     0.249 N   
ATOM     19  H4  UNL     1       2.548  -0.645  -0.289  1.00  0.00     0.199 HD  
ATOM     20  H5  UNL     1       2.845  -1.685   0.931  1.00  0.00     0.199 HD  
BRANCH  18  21
ATOM     21  C7  UNL     1       1.999   0.105   1.527  1.00  0.00     0.164 C   
BRANCH  21  22
ATOM     22  C8  UNL     1       3.217   0.985   1.457  1.00  0.00    -0.002 A   
ATOM     23  C9  UNL     1       3.269   2.041   0.514  1.00  0.00     0.012 A   
ATOM     24  C13 UNL     1       4.328   0.727   2.276  1.00  0.00     0.045 A   
ATOM     25  C10 UNL     1       4.412   2.835   0.390  1.00  0.00     0.037 A   
ATOM     26  C12 UNL     1       5.435   1.535   2.133  1.00  0.00     0.109 A   
ATOM     27  C11 UNL     1       5.478   2.557   1.216  1.00  0.00     0.108 A   
ATOM     28  O2  UNL     1       6.581   1.431   2.850  1.00  0.00    -0.316 OA  
ATOM     29  O3  UNL     1       6.661   3.219   1.237  1.00  0.00    -0.316 OA  
ATOM     30  C14 UNL     1       7.333   2.545   2.322  1.00  0.00     0.337 C   
ENDBRANCH  21  22
ENDBRANCH  18  21
ENDBRANCH   1  18
BRANCH   1  31
ATOM     31  C15 UNL     1       0.052  -2.243   1.366  1.00  0.00     0.043 C   
ATOM     32  C16 UNL     1       0.875  -3.134   2.324  1.00  0.00     0.010 C   
ATOM     33  C20 UNL     1      -1.214  -3.012   0.927  1.00  0.00     0.010 C   
ATOM     34  C17 UNL     1       0.051  -3.624   3.514  1.00  0.00     0.001 C   
ATOM     35  C19 UNL     1      -2.035  -3.500   2.119  1.00  0.00     0.001 C   
ATOM     36  C18 UNL     1      -1.205  -4.358   3.065  1.00  0.00     0.000 C   
ENDBRANCH   1  31
TORSDOF 6
