REMARK SMILES Cc1cc(CO)nc(-n2cc([C@@H]([NH2+]Cc3ccc4c(c3)OCO4)C3CCCC3)nn2)c1
REMARK SMILES IDX 9 1 10 2 11 3 29 4 30 5 8 6 2 7 3 8 31 9 4 10 7 11 1 12 5 13
REMARK SMILES IDX 6 14 12 16 13 17 14 20 15 21 16 22 20 23 17 24 19 25 18 26
REMARK SMILES IDX 21 27 23 28 22 29 24 30 25 31 28 32 26 33 27 34
REMARK H PARENT 6 15 13 18 13 19
ROOT
ATOM     1   N2  UNL     1       1.141   2.103  -1.263  1.00  0.00    -0.162 N   
ATOM     2   C7  UNL     1       0.875   0.859  -0.725  1.00  0.00     0.137 A   
ATOM     3   C8  UNL     1       0.146   0.202  -1.688  1.00  0.00     0.128 A   
ATOM     4   N4  UNL     1      -0.040   1.039  -2.755  1.00  0.00    -0.131 NA  
ATOM     5   N5  UNL     1       0.555   2.191  -2.486  1.00  0.00    -0.070 NA  
ENDROOT
BRANCH   1   6
ATOM     6   C6  UNL     1       1.881   3.156  -0.661  1.00  0.00     0.146 A   
ATOM     7   C2  UNL     1       2.764   5.387  -0.735  1.00  0.00    -0.046 A   
ATOM     8   C3  UNL     1       3.312   5.166   0.530  1.00  0.00     0.030 A   
ATOM     9   C23 UNL     1       2.046   4.357  -1.346  1.00  0.00     0.050 A   
ATOM     10  C4  UNL     1       3.111   3.938   1.153  1.00  0.00     0.068 A   
ATOM     11  N1  UNL     1       2.398   2.928   0.578  1.00  0.00    -0.233 NA  
ATOM     12  C1  UNL     1       2.991   6.689  -1.448  1.00  0.00     0.044 C   
BRANCH  10  13
ATOM     13  C5  UNL     1       3.694   3.679   2.527  1.00  0.00     0.212 C   
BRANCH  13  14
ATOM     14  O1  UNL     1       3.360   2.367   2.982  1.00  0.00    -0.390 OA  
ATOM     15  H7  UNL     1       2.841   1.974   2.253  1.00  0.00     0.211 HD  
ENDBRANCH  13  14
ENDBRANCH  10  13
ENDBRANCH   1   6
BRANCH   3  16
ATOM     16  C9  UNL     1      -0.455  -1.167  -1.706  1.00  0.00     0.117 C   
BRANCH  16  17
ATOM     17  N3  UNL     1      -1.787  -1.130  -2.428  1.00  0.00     0.249 N   
ATOM     18  H10 UNL     1      -1.619  -0.642  -3.319  1.00  0.00     0.199 HD  
ATOM     19  H11 UNL     1      -2.102  -2.076  -2.657  1.00  0.00     0.199 HD  
BRANCH  17  20
ATOM     20  C10 UNL     1      -2.900  -0.421  -1.728  1.00  0.00     0.164 C   
BRANCH  20  21
ATOM     21  C11 UNL     1      -3.399  -1.177  -0.528  1.00  0.00    -0.002 A   
ATOM     22  C12 UNL     1      -4.202  -2.331  -0.693  1.00  0.00     0.012 A   
ATOM     23  C16 UNL     1      -3.043  -0.762   0.767  1.00  0.00     0.045 A   
ATOM     24  C13 UNL     1      -4.642  -3.066   0.414  1.00  0.00     0.037 A   
ATOM     25  C15 UNL     1      -3.490  -1.510   1.836  1.00  0.00     0.109 A   
ATOM     26  C14 UNL     1      -4.266  -2.629   1.665  1.00  0.00     0.108 A   
ATOM     27  O2  UNL     1      -3.229  -1.251   3.144  1.00  0.00    -0.316 OA  
ATOM     28  O3  UNL     1      -4.596  -3.215   2.845  1.00  0.00    -0.316 OA  
ATOM     29  C17 UNL     1      -3.950  -2.331   3.785  1.00  0.00     0.337 C   
ENDBRANCH  20  21
ENDBRANCH  17  20
ENDBRANCH  16  17
BRANCH  16  30
ATOM     30  C18 UNL     1       0.454  -2.187  -2.423  1.00  0.00     0.043 C   
ATOM     31  C19 UNL     1      -0.084  -3.622  -2.428  1.00  0.00     0.010 C   
ATOM     32  C22 UNL     1       1.831  -2.353  -1.758  1.00  0.00     0.010 C   
ATOM     33  C20 UNL     1       1.137  -4.446  -2.805  1.00  0.00     0.001 C   
ATOM     34  C21 UNL     1       2.291  -3.778  -2.069  1.00  0.00     0.001 C   
ENDBRANCH  16  30
ENDBRANCH   3  16
TORSDOF 8
