REMARK SMILES FC(F)(F)c1ocnc1Cn1cc([C@@H]([NH2+]Cc2ccc3c(c2)OCO3)C2CCCCC2)nn1
REMARK SMILES IDX 11 1 12 2 13 3 32 4 33 5 10 7 9 8 5 9 6 10 7 11 8 12 2 13
REMARK SMILES IDX 1 14 3 15 4 16 14 17 15 18 16 21 17 22 18 23 22 24 19 25
REMARK SMILES IDX 21 26 20 27 23 28 25 29 24 30 26 31 27 32 31 33 28 34 30 35
REMARK SMILES IDX 29 36
REMARK H PARENT 12 6 15 19 15 20
ROOT
ATOM     1   N2  UNL     1       2.531   1.413   1.954  1.00  0.00    -0.206 N   
ATOM     2   C6  UNL     1       1.383   0.670   2.013  1.00  0.00     0.046 A   
ATOM     3   C7  UNL     1       1.040   0.480   0.692  1.00  0.00     0.127 A   
ATOM     4   N4  UNL     1       1.936   1.150  -0.103  1.00  0.00    -0.132 NA  
ATOM     5   N5  UNL     1       2.836   1.722   0.679  1.00  0.00    -0.076 NA  
ATOM     6   H4  UNL     1       0.964   0.328   2.951  1.00  0.00     0.083 HD  
ENDROOT
BRANCH   1   7
ATOM     7   C5  UNL     1       3.380   1.849   3.047  1.00  0.00     0.193 C   
BRANCH   7   8
ATOM     8   C4  UNL     1       4.297   0.747   3.435  1.00  0.00     0.098 A   
ATOM     9   C2  UNL     1       5.531   0.401   2.918  1.00  0.00     0.187 A   
ATOM     10  O1  UNL     1       5.973  -0.700   3.608  1.00  0.00    -0.291 OA  
ATOM     11  C3  UNL     1       4.986  -0.951   4.509  1.00  0.00     0.247 A   
ATOM     12  N1  UNL     1       3.958  -0.133   4.445  1.00  0.00    -0.232 NA  
BRANCH   9  13
ATOM     13  C1  UNL     1       6.382   0.942   1.837  1.00  0.00     0.440 C   
ATOM     14  F1  UNL     1       7.702   0.898   2.142  1.00  0.00    -0.164 F   
ATOM     15  F2  UNL     1       6.082   2.242   1.578  1.00  0.00    -0.164 F   
ATOM     16  F3  UNL     1       6.212   0.261   0.676  1.00  0.00    -0.164 F   
ENDBRANCH   9  13
ENDBRANCH   7   8
ENDBRANCH   1   7
BRANCH   3  17
ATOM     17  C8  UNL     1      -0.098  -0.254   0.060  1.00  0.00     0.117 C   
BRANCH  17  18
ATOM     18  N3  UNL     1      -0.497   0.425  -1.234  1.00  0.00     0.249 N   
ATOM     19  H6  UNL     1       0.377   0.602  -1.748  1.00  0.00     0.199 HD  
ATOM     20  H7  UNL     1      -1.064  -0.206  -1.807  1.00  0.00     0.199 HD  
BRANCH  18  21
ATOM     21  C9  UNL     1      -1.200   1.736  -1.103  1.00  0.00     0.164 C   
BRANCH  21  22
ATOM     22  C10 UNL     1      -2.575   1.602  -0.507  1.00  0.00    -0.002 A   
ATOM     23  C11 UNL     1      -2.830   2.057   0.809  1.00  0.00     0.012 A   
ATOM     24  C15 UNL     1      -3.609   0.997  -1.241  1.00  0.00     0.045 A   
ATOM     25  C12 UNL     1      -4.092   1.903   1.393  1.00  0.00     0.037 A   
ATOM     26  C14 UNL     1      -4.841   0.859  -0.635  1.00  0.00     0.109 A   
ATOM     27  C13 UNL     1      -5.075   1.296   0.645  1.00  0.00     0.108 A   
ATOM     28  O2  UNL     1      -5.939   0.292  -1.201  1.00  0.00    -0.316 OA  
ATOM     29  O3  UNL     1      -6.351   1.060   1.047  1.00  0.00    -0.316 OA  
ATOM     30  C16 UNL     1      -6.904   0.441  -0.135  1.00  0.00     0.337 C   
ENDBRANCH  21  22
ENDBRANCH  18  21
ENDBRANCH  17  18
BRANCH  17  31
ATOM     31  C17 UNL     1       0.199  -1.747  -0.247  1.00  0.00     0.043 C   
ATOM     32  C18 UNL     1       0.395  -2.566   1.044  1.00  0.00     0.010 C   
ATOM     33  C22 UNL     1       1.385  -1.975  -1.205  1.00  0.00     0.010 C   
ATOM     34  C19 UNL     1       0.603  -4.050   0.746  1.00  0.00     0.001 C   
ATOM     35  C21 UNL     1       1.598  -3.461  -1.494  1.00  0.00     0.001 C   
ATOM     36  C20 UNL     1       1.770  -4.268  -0.211  1.00  0.00     0.000 C   
ENDBRANCH  17  31
ENDBRANCH   3  17
TORSDOF 8
