REMARK SMILES COc1cccc(Cn2cc([C@@H]([NH2+]Cc3ccc4c(c3)OCO4)C(C)(C)C)nn2)c1
REMARK SMILES IDX 9 1 10 2 11 3 28 4 29 5 8 7 7 8 3 9 4 10 30 11 5 12 6 13
REMARK SMILES IDX 2 14 1 15 12 16 13 17 14 20 15 21 16 22 20 23 17 24 19 25
REMARK SMILES IDX 18 26 21 27 23 28 22 29 24 30 25 31 26 32 27 33
REMARK H PARENT 10 6 13 18 13 19
ROOT
ATOM     1   N1  UNL     1       0.062   1.476   3.200  1.00  0.00    -0.208 N   
ATOM     2   C8  UNL     1       0.737   1.550   2.012  1.00  0.00     0.046 A   
ATOM     3   C9  UNL     1      -0.159   2.154   1.159  1.00  0.00     0.127 A   
ATOM     4   N3  UNL     1      -1.301   2.466   1.851  1.00  0.00    -0.132 NA  
ATOM     5   N4  UNL     1      -1.154   2.048   3.097  1.00  0.00    -0.076 NA  
ATOM     6   H9  UNL     1       1.719   1.116   1.876  1.00  0.00     0.083 HD  
ENDROOT
BRANCH   1   7
ATOM     7   C7  UNL     1       0.447   0.754   4.404  1.00  0.00     0.169 C   
BRANCH   7   8
ATOM     8   C6  UNL     1       0.565  -0.723   4.114  1.00  0.00    -0.026 A   
ATOM     9   C2  UNL     1      -0.463  -2.815   3.385  1.00  0.00     0.075 A   
ATOM     10  C3  UNL     1       0.776  -3.446   3.465  1.00  0.00     0.033 A   
ATOM     11  C23 UNL     1      -0.563  -1.461   3.717  1.00  0.00     0.038 A   
ATOM     12  C4  UNL     1       1.903  -2.729   3.877  1.00  0.00     0.003 A   
ATOM     13  C5  UNL     1       1.801  -1.376   4.200  1.00  0.00     0.005 A   
BRANCH   9  14
ATOM     14  O1  UNL     1      -1.636  -3.389   2.979  1.00  0.00    -0.349 OA  
ATOM     15  C1  UNL     1      -1.630  -4.803   2.813  1.00  0.00     0.203 C   
ENDBRANCH   9  14
ENDBRANCH   7   8
ENDBRANCH   1   7
BRANCH   3  16
ATOM     16  C10 UNL     1      -0.107   2.359  -0.322  1.00  0.00     0.120 C   
BRANCH  16  17
ATOM     17  N2  UNL     1      -1.441   1.960  -0.928  1.00  0.00     0.250 N   
ATOM     18  H11 UNL     1      -2.158   2.517  -0.442  1.00  0.00     0.199 HD  
ATOM     19  H12 UNL     1      -1.479   2.204  -1.919  1.00  0.00     0.199 HD  
BRANCH  17  20
ATOM     20  C11 UNL     1      -1.846   0.525  -0.772  1.00  0.00     0.164 C   
BRANCH  20  21
ATOM     21  C12 UNL     1      -0.881  -0.444  -1.397  1.00  0.00    -0.002 A   
ATOM     22  C13 UNL     1      -0.731  -0.507  -2.804  1.00  0.00     0.012 A   
ATOM     23  C17 UNL     1      -0.100  -1.280  -0.580  1.00  0.00     0.045 A   
ATOM     24  C14 UNL     1       0.192  -1.382  -3.388  1.00  0.00     0.037 A   
ATOM     25  C16 UNL     1       0.799  -2.131  -1.187  1.00  0.00     0.109 A   
ATOM     26  C15 UNL     1       0.944  -2.178  -2.552  1.00  0.00     0.108 A   
ATOM     27  O2  UNL     1       1.631  -2.993  -0.546  1.00  0.00    -0.316 OA  
ATOM     28  O3  UNL     1       1.884  -3.076  -2.942  1.00  0.00    -0.316 OA  
ATOM     29  C18 UNL     1       2.296  -3.616  -1.668  1.00  0.00     0.337 C   
ENDBRANCH  20  21
ENDBRANCH  17  20
ENDBRANCH  16  17
BRANCH  16  30
ATOM     30  C19 UNL     1       0.280   3.817  -0.757  1.00  0.00     0.010 C   
ATOM     31  C20 UNL     1       0.446   3.893  -2.293  1.00  0.00     0.017 C   
ATOM     32  C21 UNL     1       1.641   4.207  -0.136  1.00  0.00     0.017 C   
ATOM     33  C22 UNL     1      -0.763   4.871  -0.336  1.00  0.00     0.017 C   
ENDBRANCH  16  30
ENDBRANCH   3  16
TORSDOF 8
