REMARK SMILES Fc1ccc(CCn2cc([C@@H]([NH2+]Cc3ccc4c(c3)OCO4)C3CCCC3)nn2)c(F)c1
REMARK SMILES IDX 8 1 9 2 10 3 28 4 29 5 7 7 6 8 5 9 2 10 3 11 32 12 4 13
REMARK SMILES IDX 30 14 1 15 31 16 11 17 12 18 13 21 14 22 15 23 19 24 16 25
REMARK SMILES IDX 18 26 17 27 20 28 22 29 21 30 23 31 24 32 27 33 25 34 26 35
REMARK H PARENT 9 6 12 19 12 20
ROOT
ATOM     1   N1  UNL     1       2.521  -1.358   1.270  1.00  0.00    -0.212 N   
ATOM     2   C7  UNL     1       1.366  -1.384   1.999  1.00  0.00     0.045 A   
ATOM     3   C8  UNL     1       0.579  -0.422   1.407  1.00  0.00     0.127 A   
ATOM     4   N3  UNL     1       1.294   0.184   0.403  1.00  0.00    -0.132 NA  
ATOM     5   N4  UNL     1       2.487  -0.382   0.344  1.00  0.00    -0.076 NA  
ATOM     6   H7  UNL     1       1.205  -2.086   2.806  1.00  0.00     0.083 HD  
ENDROOT
BRANCH   1   7
ATOM     7   C6  UNL     1       3.649  -2.264   1.352  1.00  0.00     0.139 C   
BRANCH   7   8
ATOM     8   C5  UNL     1       3.743  -3.204   0.147  1.00  0.00     0.060 C   
BRANCH   8   9
ATOM     9   C4  UNL     1       2.492  -4.020  -0.084  1.00  0.00    -0.010 A   
ATOM     10  C1  UNL     1       0.152  -5.491  -0.465  1.00  0.00     0.126 A   
ATOM     11  C2  UNL     1       0.521  -4.530  -1.402  1.00  0.00     0.040 A   
ATOM     12  C24 UNL     1       0.930  -5.734   0.657  1.00  0.00     0.078 A   
ATOM     13  C3  UNL     1       1.692  -3.794  -1.214  1.00  0.00     0.010 A   
ATOM     14  C23 UNL     1       2.094  -4.997   0.838  1.00  0.00     0.129 A   
ATOM     15  F1  UNL     1      -0.983  -6.178  -0.642  1.00  0.00    -0.207 F   
ATOM     16  F2  UNL     1       2.831  -5.207   1.937  1.00  0.00    -0.207 F   
ENDBRANCH   8   9
ENDBRANCH   7   8
ENDBRANCH   1   7
BRANCH   3  17
ATOM     17  C9  UNL     1      -0.813   0.039   1.698  1.00  0.00     0.117 C   
BRANCH  17  18
ATOM     18  N2  UNL     1      -0.977   1.474   1.260  1.00  0.00     0.249 N   
ATOM     19  H9  UNL     1      -1.964   1.728   1.151  1.00  0.00     0.199 HD  
ATOM     20  H10 UNL     1      -0.556   1.542   0.321  1.00  0.00     0.199 HD  
BRANCH  18  21
ATOM     21  C10 UNL     1      -0.300   2.487   2.116  1.00  0.00     0.164 C   
BRANCH  21  22
ATOM     22  C11 UNL     1      -0.398   3.848   1.487  1.00  0.00    -0.002 A   
ATOM     23  C12 UNL     1       0.524   4.230   0.482  1.00  0.00     0.012 A   
ATOM     24  C16 UNL     1      -1.438   4.724   1.843  1.00  0.00     0.045 A   
ATOM     25  C13 UNL     1       0.419   5.472  -0.155  1.00  0.00     0.037 A   
ATOM     26  C15 UNL     1      -1.510   5.942   1.198  1.00  0.00     0.109 A   
ATOM     27  C14 UNL     1      -0.609   6.305   0.226  1.00  0.00     0.108 A   
ATOM     28  O1  UNL     1      -2.450   6.899   1.418  1.00  0.00    -0.316 OA  
ATOM     29  O2  UNL     1      -0.869   7.536  -0.286  1.00  0.00    -0.316 OA  
ATOM     30  C17 UNL     1      -2.007   7.932   0.509  1.00  0.00     0.337 C   
ENDBRANCH  21  22
ENDBRANCH  18  21
ENDBRANCH  17  18
BRANCH  17  31
ATOM     31  C18 UNL     1      -1.919  -0.786   1.010  1.00  0.00     0.043 C   
ATOM     32  C19 UNL     1      -1.865  -0.858  -0.519  1.00  0.00     0.010 C   
ATOM     33  C22 UNL     1      -1.972  -2.263   1.401  1.00  0.00     0.010 C   
ATOM     34  C20 UNL     1      -2.764  -2.040  -0.886  1.00  0.00     0.001 C   
ATOM     35  C21 UNL     1      -2.955  -2.850   0.395  1.00  0.00     0.001 C   
ENDBRANCH  17  31
ENDBRANCH   3  17
TORSDOF 8
