REMARK SMILES Cc1cc([C@@H](O)Cn2cc([C@H](CC(C)C)[NH2+]Cc3ccc4c(c3)OCO4)nn2)cs1
REMARK SMILES IDX 8 1 9 2 10 3 27 4 28 5 7 7 5 8 4 9 2 10 3 11 30 12 29 13
REMARK SMILES IDX 1 14 6 15 11 17 12 18 13 19 14 20 15 21 16 22 17 25 18 26
REMARK SMILES IDX 19 27 23 28 20 29 22 30 21 31 24 32 26 33 25 34
REMARK H PARENT 9 6 6 16 16 23 16 24
ROOT
ATOM     1   N1  UNL     1      -1.999   2.282   1.354  1.00  0.00    -0.209 N   
ATOM     2   C7  UNL     1      -1.883   1.107   0.666  1.00  0.00     0.045 A   
ATOM     3   C8  UNL     1      -1.179   0.291   1.522  1.00  0.00     0.127 A   
ATOM     4   N3  UNL     1      -0.895   0.981   2.672  1.00  0.00    -0.132 NA  
ATOM     5   N4  UNL     1      -1.412   2.195   2.561  1.00  0.00    -0.076 NA  
ATOM     6   H9  UNL     1      -2.275   0.975  -0.332  1.00  0.00     0.083 HD  
ENDROOT
BRANCH   1   7
ATOM     7   C6  UNL     1      -2.576   3.525   0.896  1.00  0.00     0.170 C   
BRANCH   7   8
ATOM     8   C5  UNL     1      -1.561   4.670   0.799  1.00  0.00     0.164 C   
BRANCH   8   9
ATOM     9   C4  UNL     1      -0.355   4.322  -0.042  1.00  0.00    -0.010 A   
ATOM     10  C2  UNL     1       0.888   3.857  -1.978  1.00  0.00    -0.014 A   
ATOM     11  C3  UNL     1      -0.350   4.197  -1.473  1.00  0.00     0.017 A   
ATOM     12  S1  UNL     1       2.047   3.680  -0.734  1.00  0.00    -0.102 S   
ATOM     13  C22 UNL     1       0.905   4.077   0.472  1.00  0.00     0.052 A   
ATOM     14  C1  UNL     1       1.287   3.654  -3.400  1.00  0.00     0.052 C   
ENDBRANCH   8   9
BRANCH   8  15
ATOM     15  O1  UNL     1      -2.235   5.809   0.256  1.00  0.00    -0.387 OA  
ATOM     16  H6  UNL     1      -1.570   6.515   0.163  1.00  0.00     0.211 HD  
ENDBRANCH   8  15
ENDBRANCH   7   8
ENDBRANCH   1   7
BRANCH   3  17
ATOM     17  C9  UNL     1      -0.642  -1.085   1.338  1.00  0.00     0.114 C   
BRANCH  17  18
ATOM     18  C10 UNL     1      -1.370  -2.157   2.173  1.00  0.00     0.064 C   
BRANCH  18  19
ATOM     19  C11 UNL     1      -2.849  -2.374   1.776  1.00  0.00    -0.012 C   
ATOM     20  C12 UNL     1      -3.218  -3.855   1.909  1.00  0.00     0.007 C   
ATOM     21  C13 UNL     1      -3.803  -1.547   2.642  1.00  0.00     0.007 C   
ENDBRANCH  18  19
ENDBRANCH  17  18
BRANCH  17  22
ATOM     22  N2  UNL     1       0.817  -1.120   1.756  1.00  0.00     0.249 N   
ATOM     23  H20 UNL     1       0.852  -0.731   2.709  1.00  0.00     0.199 HD  
ATOM     24  H21 UNL     1       1.144  -2.089   1.810  1.00  0.00     0.199 HD  
BRANCH  22  25
ATOM     25  C14 UNL     1       1.766  -0.329   0.915  1.00  0.00     0.164 C   
BRANCH  25  26
ATOM     26  C15 UNL     1       1.919  -0.887  -0.472  1.00  0.00    -0.002 A   
ATOM     27  C16 UNL     1       1.327  -0.227  -1.575  1.00  0.00     0.012 A   
ATOM     28  C20 UNL     1       2.624  -2.085  -0.683  1.00  0.00     0.045 A   
ATOM     29  C17 UNL     1       1.435  -0.746  -2.869  1.00  0.00     0.037 A   
ATOM     30  C19 UNL     1       2.709  -2.572  -1.971  1.00  0.00     0.109 A   
ATOM     31  C18 UNL     1       2.132  -1.922  -3.033  1.00  0.00     0.108 A   
ATOM     32  O2  UNL     1       3.347  -3.712  -2.343  1.00  0.00    -0.316 OA  
ATOM     33  O3  UNL     1       2.337  -2.568  -4.208  1.00  0.00    -0.316 OA  
ATOM     34  C21 UNL     1       3.127  -3.694  -3.772  1.00  0.00     0.337 C   
ENDBRANCH  25  26
ENDBRANCH  22  25
ENDBRANCH  17  22
ENDBRANCH   3  17
TORSDOF 10
