REMARK SMILES Cc1cc([C@H](O)Cn2cc([C@H](CC(C)C)[NH2+]Cc3ccc4c(c3)OCO4)nn2)cs1
REMARK SMILES IDX 8 1 9 2 10 3 27 4 28 5 7 7 5 8 4 9 2 10 3 11 30 12 29 13
REMARK SMILES IDX 1 14 6 15 11 17 12 18 13 19 14 20 15 21 16 22 17 25 18 26
REMARK SMILES IDX 19 27 23 28 20 29 22 30 21 31 24 32 26 33 25 34
REMARK H PARENT 9 6 6 16 16 23 16 24
ROOT
ATOM     1   N1  UNL     1       2.657  -2.328   1.288  1.00  0.00    -0.209 N   
ATOM     2   C7  UNL     1       1.298  -2.457   1.356  1.00  0.00     0.045 A   
ATOM     3   C8  UNL     1       0.859  -1.193   1.681  1.00  0.00     0.127 A   
ATOM     4   N3  UNL     1       1.948  -0.370   1.840  1.00  0.00    -0.132 NA  
ATOM     5   N4  UNL     1       3.040  -1.077   1.600  1.00  0.00    -0.076 NA  
ATOM     6   H9  UNL     1       0.793  -3.383   1.118  1.00  0.00     0.083 HD  
ENDROOT
BRANCH   1   7
ATOM     7   C6  UNL     1       3.615  -3.300   0.816  1.00  0.00     0.170 C   
BRANCH   7   8
ATOM     8   C5  UNL     1       4.309  -2.885  -0.489  1.00  0.00     0.164 C   
BRANCH   8   9
ATOM     9   C4  UNL     1       3.349  -2.459  -1.576  1.00  0.00    -0.010 A   
ATOM     10  C2  UNL     1       2.347  -1.004  -3.124  1.00  0.00    -0.014 A   
ATOM     11  C3  UNL     1       3.313  -1.142  -2.150  1.00  0.00     0.017 A   
ATOM     12  S1  UNL     1       1.451  -2.444  -3.326  1.00  0.00    -0.102 S   
ATOM     13  C22 UNL     1       2.396  -3.269  -2.166  1.00  0.00     0.052 A   
ATOM     14  C1  UNL     1       2.043   0.186  -3.971  1.00  0.00     0.052 C   
ENDBRANCH   8   9
BRANCH   8  15
ATOM     15  O1  UNL     1       5.101  -3.987  -0.937  1.00  0.00    -0.387 OA  
ATOM     16  H6  UNL     1       5.514  -3.718  -1.778  1.00  0.00     0.211 HD  
ENDBRANCH   8  15
ENDBRANCH   7   8
ENDBRANCH   1   7
BRANCH   3  17
ATOM     17  C9  UNL     1      -0.507  -0.588   1.769  1.00  0.00     0.114 C   
BRANCH  17  18
ATOM     18  C10 UNL     1      -1.649  -1.520   1.332  1.00  0.00     0.064 C   
BRANCH  18  19
ATOM     19  C11 UNL     1      -3.072  -0.926   1.403  1.00  0.00    -0.012 C   
ATOM     20  C12 UNL     1      -3.450  -0.483   2.817  1.00  0.00     0.007 C   
ATOM     21  C13 UNL     1      -4.086  -1.957   0.897  1.00  0.00     0.007 C   
ENDBRANCH  18  19
ENDBRANCH  17  18
BRANCH  17  22
ATOM     22  N2  UNL     1      -0.528   0.703   0.993  1.00  0.00     0.249 N   
ATOM     23  H20 UNL     1      -1.361   1.260   1.209  1.00  0.00     0.199 HD  
ATOM     24  H21 UNL     1       0.270   1.248   1.354  1.00  0.00     0.199 HD  
BRANCH  22  25
ATOM     25  C14 UNL     1      -0.338   0.609  -0.484  1.00  0.00     0.164 C   
BRANCH  25  26
ATOM     26  C15 UNL     1      -0.049   1.964  -1.065  1.00  0.00    -0.002 A   
ATOM     27  C16 UNL     1       1.268   2.483  -1.027  1.00  0.00     0.012 A   
ATOM     28  C20 UNL     1      -1.085   2.741  -1.608  1.00  0.00     0.045 A   
ATOM     29  C17 UNL     1       1.555   3.753  -1.535  1.00  0.00     0.037 A   
ATOM     30  C19 UNL     1      -0.768   3.990  -2.100  1.00  0.00     0.109 A   
ATOM     31  C18 UNL     1       0.514   4.482  -2.066  1.00  0.00     0.108 A   
ATOM     32  O2  UNL     1      -1.645   4.865  -2.658  1.00  0.00    -0.316 OA  
ATOM     33  O3  UNL     1       0.605   5.727  -2.600  1.00  0.00    -0.316 OA  
ATOM     34  C21 UNL     1      -0.765   5.964  -2.988  1.00  0.00     0.337 C   
ENDBRANCH  25  26
ENDBRANCH  22  25
ENDBRANCH  17  22
ENDBRANCH   3  17
TORSDOF 10
