REMARK SMILES Cc1noc(C)c1Cn1cc([C@H](CC(C)C)[NH2+]Cc2ccc3c(c2)OCO3)nn1
REMARK SMILES IDX 9 1 10 2 11 3 28 4 29 5 8 7 7 8 2 9 3 10 4 11 5 12 1 13 6 14
REMARK SMILES IDX 12 15 13 16 14 17 15 18 16 19 17 20 18 23 19 24 20 25 24 26
REMARK SMILES IDX 21 27 23 28 22 29 25 30 27 31 26 32
REMARK H PARENT 10 6 17 21 17 22
ROOT
ATOM     1   N2  UNL     1      -0.732   1.632   2.019  1.00  0.00    -0.208 N   
ATOM     2   C7  UNL     1      -1.505   0.683   1.406  1.00  0.00     0.046 A   
ATOM     3   C8  UNL     1      -0.978  -0.510   1.850  1.00  0.00     0.127 A   
ATOM     4   N4  UNL     1       0.086  -0.253   2.679  1.00  0.00    -0.132 NA  
ATOM     5   N5  UNL     1       0.218   1.058   2.787  1.00  0.00    -0.076 NA  
ATOM     6   H9  UNL     1      -2.316   0.937   0.737  1.00  0.00     0.083 HD  
ENDROOT
BRANCH   1   7
ATOM     7   C6  UNL     1      -0.876   3.078   1.980  1.00  0.00     0.174 C   
BRANCH   7   8
ATOM     8   C5  UNL     1      -0.253   3.641   0.760  1.00  0.00     0.024 A   
ATOM     9   C2  UNL     1       1.131   3.838   0.490  1.00  0.00     0.072 A   
ATOM     10  N1  UNL     1       1.315   4.392  -0.712  1.00  0.00    -0.134 NA  
ATOM     11  O1  UNL     1       0.058   4.561  -1.254  1.00  0.00    -0.218 OA  
ATOM     12  C3  UNL     1      -0.877   4.123  -0.375  1.00  0.00     0.088 A   
ATOM     13  C1  UNL     1       2.304   3.511   1.336  1.00  0.00     0.070 C   
ATOM     14  C4  UNL     1      -2.281   4.260  -0.806  1.00  0.00     0.076 C   
ENDBRANCH   7   8
ENDBRANCH   1   7
BRANCH   3  15
ATOM     15  C9  UNL     1      -1.324  -1.929   1.545  1.00  0.00     0.114 C   
BRANCH  15  16
ATOM     16  C10 UNL     1      -2.112  -2.604   2.684  1.00  0.00     0.064 C   
BRANCH  16  17
ATOM     17  C11 UNL     1      -3.487  -1.975   2.999  1.00  0.00    -0.012 C   
ATOM     18  C12 UNL     1      -4.125  -2.700   4.188  1.00  0.00     0.007 C   
ATOM     19  C13 UNL     1      -4.437  -2.016   1.802  1.00  0.00     0.007 C   
ENDBRANCH  16  17
ENDBRANCH  15  16
BRANCH  15  20
ATOM     20  N3  UNL     1      -0.036  -2.713   1.360  1.00  0.00     0.249 N   
ATOM     21  H20 UNL     1      -0.027  -3.536   1.967  1.00  0.00     0.199 HD  
ATOM     22  H21 UNL     1       0.721  -2.112   1.725  1.00  0.00     0.199 HD  
BRANCH  20  23
ATOM     23  C14 UNL     1       0.302  -3.122  -0.029  1.00  0.00     0.164 C   
BRANCH  23  24
ATOM     24  C15 UNL     1       0.406  -1.982  -1.002  1.00  0.00    -0.002 A   
ATOM     25  C16 UNL     1      -0.518  -1.875  -2.073  1.00  0.00     0.012 A   
ATOM     26  C20 UNL     1       1.417  -1.015  -0.866  1.00  0.00     0.045 A   
ATOM     27  C17 UNL     1      -0.436  -0.826  -2.994  1.00  0.00     0.037 A   
ATOM     28  C19 UNL     1       1.471   0.006  -1.793  1.00  0.00     0.109 A   
ATOM     29  C18 UNL     1       0.572   0.097  -2.828  1.00  0.00     0.108 A   
ATOM     30  O2  UNL     1       2.389   1.007  -1.814  1.00  0.00    -0.316 OA  
ATOM     31  O3  UNL     1       0.814   1.162  -3.634  1.00  0.00    -0.316 OA  
ATOM     32  C21 UNL     1       1.992   1.719  -3.010  1.00  0.00     0.337 C   
ENDBRANCH  23  24
ENDBRANCH  20  23
ENDBRANCH  15  20
ENDBRANCH   3  15
TORSDOF 8
