REMARK SMILES CC(C)[C@H]([NH2+]Cc1ccc2c(c1)OCO2)c1cn(Cc2ncoc2C(F)F)nn1
REMARK SMILES IDX 16 1 17 2 18 3 28 4 29 5 4 7 2 8 1 9 3 10 5 11 6 14 7 15
REMARK SMILES IDX 8 16 12 17 9 18 11 19 10 20 13 21 15 22 14 23 19 24 20 25
REMARK SMILES IDX 21 26 24 27 22 28 23 29 25 30 26 31 27 32
REMARK H PARENT 17 6 5 12 5 13
ROOT
ATOM     1   C13 UNL     1      -1.759  -0.645  -1.475  1.00  0.00     0.127 A   
ATOM     2   C14 UNL     1      -1.722  -1.093  -2.776  1.00  0.00     0.046 A   
ATOM     3   N2  UNL     1      -1.322   0.004  -3.492  1.00  0.00    -0.206 N   
ATOM     4   N4  UNL     1      -1.174   1.073  -2.685  1.00  0.00    -0.076 NA  
ATOM     5   N5  UNL     1      -1.432   0.686  -1.448  1.00  0.00    -0.132 NA  
ATOM     6   H18 UNL     1      -1.884  -2.058  -3.236  1.00  0.00     0.083 HD  
ENDROOT
BRANCH   1   7
ATOM     7   C4  UNL     1      -1.981  -1.369  -0.187  1.00  0.00     0.117 C   
BRANCH   7   8
ATOM     8   C2  UNL     1      -3.445  -1.340   0.319  1.00  0.00     0.037 C   
ATOM     9   C1  UNL     1      -3.998   0.067   0.575  1.00  0.00     0.014 C   
ATOM     10  C3  UNL     1      -4.382  -2.100  -0.627  1.00  0.00     0.014 C   
ENDBRANCH   7   8
BRANCH   7  11
ATOM     11  N1  UNL     1      -1.091  -0.782   0.881  1.00  0.00     0.249 N   
ATOM     12  H9  UNL     1      -1.183   0.243   0.814  1.00  0.00     0.199 HD  
ATOM     13  H10 UNL     1      -1.404  -1.043   1.821  1.00  0.00     0.199 HD  
BRANCH  11  14
ATOM     14  C5  UNL     1       0.360  -1.094   0.738  1.00  0.00     0.164 C   
BRANCH  14  15
ATOM     15  C6  UNL     1       1.153  -0.382   1.797  1.00  0.00    -0.002 A   
ATOM     16  C7  UNL     1       1.590   0.948   1.579  1.00  0.00     0.012 A   
ATOM     17  C11 UNL     1       1.417  -1.006   3.028  1.00  0.00     0.045 A   
ATOM     18  C8  UNL     1       2.291   1.644   2.570  1.00  0.00     0.037 A   
ATOM     19  C10 UNL     1       2.110  -0.290   3.982  1.00  0.00     0.109 A   
ATOM     20  C9  UNL     1       2.535   0.997   3.760  1.00  0.00     0.108 A   
ATOM     21  O1  UNL     1       2.446  -0.743   5.218  1.00  0.00    -0.316 OA  
ATOM     22  O2  UNL     1       3.194   1.516   4.828  1.00  0.00    -0.316 OA  
ATOM     23  C12 UNL     1       3.156   0.402   5.745  1.00  0.00     0.337 C   
ENDBRANCH  14  15
ENDBRANCH  11  14
ENDBRANCH   7  11
ENDBRANCH   1   7
BRANCH   3  24
ATOM     24  C15 UNL     1      -1.021   0.088  -4.911  1.00  0.00     0.192 C   
BRANCH  24  25
ATOM     25  C16 UNL     1       0.446   0.168  -5.151  1.00  0.00     0.095 A   
ATOM     26  N3  UNL     1       0.980   1.197  -5.900  1.00  0.00    -0.232 NA  
ATOM     27  C18 UNL     1       1.466  -0.680  -4.759  1.00  0.00     0.150 A   
ATOM     28  C17 UNL     1       2.270   0.951  -5.914  1.00  0.00     0.247 A   
ATOM     29  O3  UNL     1       2.644  -0.172  -5.243  1.00  0.00    -0.295 OA  
BRANCH  27  30
ATOM     30  C19 UNL     1       1.531  -1.932  -3.985  1.00  0.00     0.398 C   
ATOM     31  F1  UNL     1       0.455  -2.722  -4.263  1.00  0.00    -0.203 F   
ATOM     32  F2  UNL     1       1.452  -1.684  -2.644  1.00  0.00    -0.203 F   
ENDBRANCH  27  30
ENDBRANCH  24  25
ENDBRANCH   3  24
TORSDOF 8
