REMARK SMILES CC(C)C[C@H]([NH2+]Cc1ccc2c(c1)OCO2)c1cn(C[C@H](O)c2cccc(F)c2F)nn1
REMARK SMILES IDX 17 1 18 2 19 3 31 4 32 5 5 7 4 8 2 9 1 10 3 11 6 12 7 15
REMARK SMILES IDX 8 16 9 17 13 18 10 19 12 20 11 21 14 22 16 23 15 24 20 25
REMARK SMILES IDX 21 26 22 27 23 29 24 30 29 31 25 32 27 33 26 34 30 35 28 36
REMARK H PARENT 18 6 6 13 6 14 22 28
ROOT
ATOM     1   C14 UNL     1       1.707   0.106  -0.086  1.00  0.00     0.127 A   
ATOM     2   C15 UNL     1       2.565   0.249   0.978  1.00  0.00     0.045 A   
ATOM     3   N2  UNL     1       2.215   1.455   1.516  1.00  0.00    -0.209 N   
ATOM     4   N3  UNL     1       1.280   2.067   0.762  1.00  0.00    -0.076 NA  
ATOM     5   N4  UNL     1       0.944   1.239  -0.212  1.00  0.00    -0.132 NA  
ATOM     6   H20 UNL     1       3.290  -0.401   1.449  1.00  0.00     0.083 HD  
ENDROOT
BRANCH   1   7
ATOM     7   C5  UNL     1       1.420  -1.064  -0.962  1.00  0.00     0.114 C   
BRANCH   7   8
ATOM     8   C4  UNL     1       1.790  -0.807  -2.432  1.00  0.00     0.064 C   
BRANCH   8   9
ATOM     9   C2  UNL     1       3.283  -0.498  -2.679  1.00  0.00    -0.012 C   
ATOM     10  C1  UNL     1       3.499  -0.155  -4.157  1.00  0.00     0.007 C   
ATOM     11  C3  UNL     1       4.184  -1.668  -2.285  1.00  0.00     0.007 C   
ENDBRANCH   8   9
ENDBRANCH   7   8
BRANCH   7  12
ATOM     12  N1  UNL     1      -0.061  -1.338  -0.851  1.00  0.00     0.249 N   
ATOM     13  H11 UNL     1      -0.278  -1.444   0.152  1.00  0.00     0.199 HD  
ATOM     14  H12 UNL     1      -0.558  -0.474  -1.113  1.00  0.00     0.199 HD  
BRANCH  12  15
ATOM     15  C6  UNL     1      -0.610  -2.501  -1.583  1.00  0.00     0.164 C   
BRANCH  15  16
ATOM     16  C7  UNL     1      -1.986  -2.858  -1.097  1.00  0.00    -0.002 A   
ATOM     17  C8  UNL     1      -3.090  -2.028  -1.397  1.00  0.00     0.012 A   
ATOM     18  C12 UNL     1      -2.181  -4.018  -0.328  1.00  0.00     0.045 A   
ATOM     19  C9  UNL     1      -4.371  -2.345  -0.937  1.00  0.00     0.037 A   
ATOM     20  C11 UNL     1      -3.457  -4.307   0.103  1.00  0.00     0.109 A   
ATOM     21  C10 UNL     1      -4.521  -3.492  -0.189  1.00  0.00     0.108 A   
ATOM     22  O1  UNL     1      -3.819  -5.388   0.843  1.00  0.00    -0.316 OA  
ATOM     23  O2  UNL     1      -5.687  -3.955   0.331  1.00  0.00    -0.316 OA  
ATOM     24  C13 UNL     1      -5.243  -5.166   0.972  1.00  0.00     0.337 C   
ENDBRANCH  15  16
ENDBRANCH  12  15
ENDBRANCH   7  12
ENDBRANCH   1   7
BRANCH   3  25
ATOM     25  C16 UNL     1       2.627   2.028   2.778  1.00  0.00     0.170 C   
BRANCH  25  26
ATOM     26  C17 UNL     1       1.965   1.361   3.997  1.00  0.00     0.167 C   
BRANCH  26  27
ATOM     27  O3  UNL     1       2.459   0.028   4.163  1.00  0.00    -0.387 OA  
ATOM     28  H24 UNL     1       1.902  -0.404   4.832  1.00  0.00     0.211 HD  
ENDBRANCH  26  27
BRANCH  26  29
ATOM     29  C18 UNL     1       0.455   1.409   4.009  1.00  0.00     0.021 A   
ATOM     30  C19 UNL     1      -0.202   2.462   4.668  1.00  0.00     0.010 A   
ATOM     31  C23 UNL     1      -0.334   0.463   3.348  1.00  0.00     0.164 A   
ATOM     32  C20 UNL     1      -1.597   2.549   4.668  1.00  0.00     0.004 A   
ATOM     33  C22 UNL     1      -1.720   0.563   3.336  1.00  0.00     0.159 A   
ATOM     34  C21 UNL     1      -2.361   1.597   3.999  1.00  0.00     0.042 A   
ATOM     35  F2  UNL     1       0.234  -0.562   2.692  1.00  0.00    -0.203 F   
ATOM     36  F1  UNL     1      -2.443  -0.344   2.668  1.00  0.00    -0.204 F   
ENDBRANCH  26  29
ENDBRANCH  25  26
ENDBRANCH   3  25
TORSDOF 10
