REMARK SMILES CC(C)C[C@H]([NH2+]Cc1ccc2c(c1)OCO2)c1cn(C[C@@H](O)c2cccc(F)c2F)nn1
REMARK SMILES IDX 17 1 18 2 19 3 31 4 32 5 5 7 4 8 2 9 1 10 3 11 6 12 7 15
REMARK SMILES IDX 8 16 9 17 13 18 10 19 12 20 11 21 14 22 16 23 15 24 20 25
REMARK SMILES IDX 21 26 22 27 23 29 24 30 29 31 25 32 27 33 26 34 30 35 28 36
REMARK H PARENT 18 6 6 13 6 14 22 28
ROOT
ATOM     1   C14 UNL     1      -0.073   0.040   0.504  1.00  0.00     0.127 A   
ATOM     2   C15 UNL     1       1.266  -0.278   0.530  1.00  0.00     0.045 A   
ATOM     3   N2  UNL     1       1.306  -1.576   0.103  1.00  0.00    -0.209 N   
ATOM     4   N3  UNL     1       0.073  -2.024  -0.192  1.00  0.00    -0.076 NA  
ATOM     5   N4  UNL     1      -0.783  -1.048   0.061  1.00  0.00    -0.132 NA  
ATOM     6   H20 UNL     1       2.160   0.268   0.794  1.00  0.00     0.083 HD  
ENDROOT
BRANCH   1   7
ATOM     7   C5  UNL     1      -0.796   1.308   0.817  1.00  0.00     0.114 C   
BRANCH   7   8
ATOM     8   C4  UNL     1      -1.244   1.391   2.289  1.00  0.00     0.064 C   
BRANCH   8   9
ATOM     9   C2  UNL     1      -0.100   1.455   3.324  1.00  0.00    -0.012 C   
ATOM     10  C1  UNL     1      -0.684   1.459   4.740  1.00  0.00     0.007 C   
ATOM     11  C3  UNL     1       0.790   2.684   3.133  1.00  0.00     0.007 C   
ENDBRANCH   8   9
ENDBRANCH   7   8
BRANCH   7  12
ATOM     12  N1  UNL     1      -2.047   1.401  -0.027  1.00  0.00     0.249 N   
ATOM     13  H11 UNL     1      -2.508   0.479   0.026  1.00  0.00     0.199 HD  
ATOM     14  H12 UNL     1      -2.713   2.079   0.357  1.00  0.00     0.199 HD  
BRANCH  12  15
ATOM     15  C6  UNL     1      -1.822   1.700  -1.469  1.00  0.00     0.164 C   
BRANCH  15  16
ATOM     16  C7  UNL     1      -3.130   1.727  -2.208  1.00  0.00    -0.002 A   
ATOM     17  C8  UNL     1      -3.810   2.950  -2.420  1.00  0.00     0.012 A   
ATOM     18  C12 UNL     1      -3.711   0.525  -2.649  1.00  0.00     0.045 A   
ATOM     19  C9  UNL     1      -5.048   2.979  -3.070  1.00  0.00     0.037 A   
ATOM     20  C11 UNL     1      -4.932   0.589  -3.287  1.00  0.00     0.109 A   
ATOM     21  C10 UNL     1      -5.582   1.781  -3.491  1.00  0.00     0.108 A   
ATOM     22  O1  UNL     1      -5.627  -0.472  -3.774  1.00  0.00    -0.316 OA  
ATOM     23  O2  UNL     1      -6.768   1.620  -4.134  1.00  0.00    -0.316 OA  
ATOM     24  C13 UNL     1      -6.778   0.191  -4.342  1.00  0.00     0.337 C   
ENDBRANCH  15  16
ENDBRANCH  12  15
ENDBRANCH   7  12
ENDBRANCH   1   7
BRANCH   3  25
ATOM     25  C16 UNL     1       2.460  -2.443  -0.030  1.00  0.00     0.170 C   
BRANCH  25  26
ATOM     26  C17 UNL     1       3.132  -2.279  -1.394  1.00  0.00     0.167 C   
BRANCH  26  27
ATOM     27  O3  UNL     1       3.790  -1.005  -1.452  1.00  0.00    -0.387 OA  
ATOM     28  H24 UNL     1       4.368  -1.020  -2.239  1.00  0.00     0.211 HD  
ENDBRANCH  26  27
BRANCH  26  29
ATOM     29  C18 UNL     1       4.143  -3.375  -1.640  1.00  0.00     0.021 A   
ATOM     30  C19 UNL     1       5.411  -3.367  -1.034  1.00  0.00     0.010 A   
ATOM     31  C23 UNL     1       3.807  -4.455  -2.465  1.00  0.00     0.164 A   
ATOM     32  C20 UNL     1       6.315  -4.411  -1.262  1.00  0.00     0.004 A   
ATOM     33  C22 UNL     1       4.708  -5.490  -2.690  1.00  0.00     0.159 A   
ATOM     34  C21 UNL     1       5.962  -5.476  -2.090  1.00  0.00     0.042 A   
ATOM     35  F2  UNL     1       2.596  -4.492  -3.044  1.00  0.00    -0.203 F   
ATOM     36  F1  UNL     1       4.370  -6.512  -3.489  1.00  0.00    -0.204 F   
ENDBRANCH  26  29
ENDBRANCH  25  26
ENDBRANCH   3  25
TORSDOF 10
