REMARK SMILES CC(C)[C@H]([NH2+]Cc1ccc2c(c1)OCO2)c1cn(-c2ccc(S(C)(=O)=O)cc2)nn1
REMARK SMILES IDX 16 1 17 2 18 3 29 4 30 5 4 6 2 7 1 8 3 9 5 10 6 13 7 14 8 15
REMARK SMILES IDX 12 16 9 17 11 18 10 19 13 20 15 21 14 22 19 23 20 24 28 25
REMARK SMILES IDX 21 26 27 27 22 28 23 29 24 30 25 31 26 32
REMARK H PARENT 5 11 5 12
ROOT
ATOM     1   C13 UNL     1       0.632   0.277   0.759  1.00  0.00     0.127 A   
ATOM     2   C14 UNL     1       0.875   1.547   0.285  1.00  0.00     0.135 A   
ATOM     3   N2  UNL     1       1.123   1.387  -1.065  1.00  0.00    -0.181 N   
ATOM     4   N3  UNL     1       0.991   0.071  -1.378  1.00  0.00    -0.071 NA  
ATOM     5   N4  UNL     1       0.708  -0.608  -0.280  1.00  0.00    -0.131 NA  
ENDROOT
BRANCH   1   6
ATOM     6   C4  UNL     1       0.308  -0.223   2.134  1.00  0.00     0.117 C   
BRANCH   6   7
ATOM     7   C2  UNL     1       1.566  -0.292   3.040  1.00  0.00     0.037 C   
ATOM     8   C1  UNL     1       2.575  -1.368   2.620  1.00  0.00     0.014 C   
ATOM     9   C3  UNL     1       1.194  -0.480   4.516  1.00  0.00     0.014 C   
ENDBRANCH   6   7
BRANCH   6  10
ATOM     10  N1  UNL     1      -0.358  -1.571   2.065  1.00  0.00     0.249 N   
ATOM     11  H9  UNL     1       0.164  -2.130   1.373  1.00  0.00     0.199 HD  
ATOM     12  H10 UNL     1      -0.291  -2.082   2.950  1.00  0.00     0.199 HD  
BRANCH  10  13
ATOM     13  C5  UNL     1      -1.782  -1.558   1.629  1.00  0.00     0.164 C   
BRANCH  13  14
ATOM     14  C6  UNL     1      -2.305  -2.961   1.506  1.00  0.00    -0.002 A   
ATOM     15  C7  UNL     1      -2.117  -3.686   0.305  1.00  0.00     0.012 A   
ATOM     16  C11 UNL     1      -2.933  -3.581   2.599  1.00  0.00     0.045 A   
ATOM     17  C8  UNL     1      -2.558  -5.008   0.188  1.00  0.00     0.037 A   
ATOM     18  C10 UNL     1      -3.355  -4.886   2.450  1.00  0.00     0.109 A   
ATOM     19  C9  UNL     1      -3.173  -5.580   1.279  1.00  0.00     0.108 A   
ATOM     20  O1  UNL     1      -3.976  -5.629   3.403  1.00  0.00    -0.316 OA  
ATOM     21  O2  UNL     1      -3.659  -6.846   1.346  1.00  0.00    -0.316 OA  
ATOM     22  C12 UNL     1      -4.192  -6.867   2.688  1.00  0.00     0.337 C   
ENDBRANCH  13  14
ENDBRANCH  10  13
ENDBRANCH   6  10
ENDBRANCH   1   6
BRANCH   3  23
ATOM     23  C15 UNL     1       1.457   2.362  -2.039  1.00  0.00     0.058 A   
ATOM     24  C16 UNL     1       1.700   1.959  -3.364  1.00  0.00     0.038 A   
ATOM     25  C21 UNL     1       1.567   3.718  -1.696  1.00  0.00     0.038 A   
ATOM     26  C17 UNL     1       2.056   2.901  -4.333  1.00  0.00     0.136 A   
ATOM     27  C20 UNL     1       1.918   4.661  -2.668  1.00  0.00     0.136 A   
ATOM     28  C18 UNL     1       2.153   4.248  -3.982  1.00  0.00     0.306 A   
BRANCH  28  29
ATOM     29  S1  UNL     1       2.665   5.436  -5.205  1.00  0.00    -0.239 S   
ATOM     30  C19 UNL     1       1.172   5.781  -6.099  1.00  0.00     0.674 C   
ATOM     31  O3  UNL     1       3.587   4.756  -6.093  1.00  0.00    -0.517 OA  
ATOM     32  O4  UNL     1       3.055   6.639  -4.497  1.00  0.00    -0.517 OA  
ENDBRANCH  28  29
ENDBRANCH   3  23
TORSDOF 7
