REMARK SMILES CCCc1nc(C)c(Cn2cc([C@@H]([NH2+]Cc3ccc4c(c3)OCO4)C(C)C)nn2)o1
REMARK SMILES IDX 10 1 11 2 12 3 28 4 29 5 9 7 8 8 4 9 5 10 30 11 6 12 7 13
REMARK SMILES IDX 3 14 2 15 1 16 13 17 14 18 15 21 16 22 17 23 21 24 18 25
REMARK SMILES IDX 20 26 19 27 22 28 24 29 23 30 25 31 26 32 27 33
REMARK H PARENT 11 6 14 19 14 20
ROOT
ATOM     1   N2  UNL     1      -3.223  -1.227  -1.992  1.00  0.00    -0.206 N   
ATOM     2   C9  UNL     1      -1.997  -1.815  -2.155  1.00  0.00     0.046 A   
ATOM     3   C10 UNL     1      -1.409  -1.709  -0.915  1.00  0.00     0.127 A   
ATOM     4   N4  UNL     1      -2.276  -1.078  -0.059  1.00  0.00    -0.132 NA  
ATOM     5   N5  UNL     1      -3.379  -0.786  -0.728  1.00  0.00    -0.076 NA  
ATOM     6   H13 UNL     1      -1.670  -2.212  -3.107  1.00  0.00     0.083 HD  
ENDROOT
BRANCH   1   7
ATOM     7   C8  UNL     1      -4.257  -1.011  -2.989  1.00  0.00     0.197 C   
BRANCH   7   8
ATOM     8   C7  UNL     1      -3.917   0.173  -3.801  1.00  0.00     0.102 A   
ATOM     9   C4  UNL     1      -3.042   1.215  -5.476  1.00  0.00     0.148 A   
ATOM     10  N1  UNL     1      -3.534   2.181  -4.730  1.00  0.00    -0.231 NA  
ATOM     11  O3  UNL     1      -3.227  -0.041  -4.964  1.00  0.00    -0.296 OA  
ATOM     12  C5  UNL     1      -4.111   1.531  -3.666  1.00  0.00     0.068 A   
ATOM     13  C6  UNL     1      -4.789   2.282  -2.588  1.00  0.00     0.069 C   
BRANCH   9  14
ATOM     14  C3  UNL     1      -2.309   1.312  -6.764  1.00  0.00     0.083 C   
BRANCH  14  15
ATOM     15  C2  UNL     1      -0.850   1.726  -6.572  1.00  0.00     0.005 C   
ATOM     16  C1  UNL     1      -0.011   0.662  -5.878  1.00  0.00     0.004 C   
ENDBRANCH  14  15
ENDBRANCH   9  14
ENDBRANCH   7   8
ENDBRANCH   1   7
BRANCH   3  17
ATOM     17  C11 UNL     1      -0.042  -2.079  -0.433  1.00  0.00     0.117 C   
BRANCH  17  18
ATOM     18  N3  UNL     1       0.415  -1.090   0.611  1.00  0.00     0.249 N   
ATOM     19  H15 UNL     1       1.188  -1.463   1.172  1.00  0.00     0.199 HD  
ATOM     20  H16 UNL     1      -0.376  -0.952   1.258  1.00  0.00     0.199 HD  
BRANCH  18  21
ATOM     21  C12 UNL     1       0.793   0.255   0.092  1.00  0.00     0.164 C   
BRANCH  21  22
ATOM     22  C13 UNL     1       1.138   1.175   1.227  1.00  0.00    -0.002 A   
ATOM     23  C14 UNL     1       0.116   1.898   1.889  1.00  0.00     0.012 A   
ATOM     24  C18 UNL     1       2.466   1.284   1.675  1.00  0.00     0.045 A   
ATOM     25  C15 UNL     1       0.412   2.728   2.976  1.00  0.00     0.037 A   
ATOM     26  C17 UNL     1       2.722   2.111   2.748  1.00  0.00     0.109 A   
ATOM     27  C16 UNL     1       1.726   2.814   3.380  1.00  0.00     0.108 A   
ATOM     28  O1  UNL     1       3.943   2.330   3.303  1.00  0.00    -0.316 OA  
ATOM     29  O2  UNL     1       2.194   3.564   4.411  1.00  0.00    -0.316 OA  
ATOM     30  C19 UNL     1       3.607   3.278   4.342  1.00  0.00     0.337 C   
ENDBRANCH  21  22
ENDBRANCH  18  21
ENDBRANCH  17  18
BRANCH  17  31
ATOM     31  C20 UNL     1       0.059  -3.506   0.165  1.00  0.00     0.037 C   
ATOM     32  C21 UNL     1      -0.195  -4.582  -0.897  1.00  0.00     0.014 C   
ATOM     33  C22 UNL     1      -0.851  -3.748   1.375  1.00  0.00     0.014 C   
ENDBRANCH  17  31
ENDBRANCH   3  17
TORSDOF 9
