REMARK SMILES COc1cc(Cn2cc([C@@H]([NH2+]Cc3ccc4c(c3)OCO4)C(C)(C)C)nn2)ccc1O
REMARK SMILES IDX 7 1 8 2 9 3 26 4 27 5 6 7 5 8 3 9 4 10 30 11 29 12 28 13
REMARK SMILES IDX 2 14 1 15 31 16 10 18 11 19 12 22 13 23 14 24 18 25 15 26
REMARK SMILES IDX 17 27 16 28 19 29 21 30 20 31 22 32 23 33 24 34 25 35
REMARK H PARENT 8 6 31 17 11 20 11 21
ROOT
ATOM     1   N1  UNL     1       1.682  -1.179   1.327  1.00  0.00    -0.208 N   
ATOM     2   C6  UNL     1       1.531   0.085   1.830  1.00  0.00     0.046 A   
ATOM     3   C7  UNL     1       0.264   0.080   2.368  1.00  0.00     0.127 A   
ATOM     4   N3  UNL     1      -0.303  -1.156   2.171  1.00  0.00    -0.132 NA  
ATOM     5   N4  UNL     1       0.573  -1.916   1.537  1.00  0.00    -0.076 NA  
ATOM     6   H7  UNL     1       2.302   0.837   1.744  1.00  0.00     0.083 HD  
ENDROOT
BRANCH   1   7
ATOM     7   C5  UNL     1       2.848  -1.756   0.678  1.00  0.00     0.169 C   
BRANCH   7   8
ATOM     8   C4  UNL     1       3.023  -1.205  -0.716  1.00  0.00    -0.026 A   
ATOM     9   C2  UNL     1       2.416  -1.211  -3.073  1.00  0.00     0.105 A   
ATOM     10  C3  UNL     1       2.269  -1.729  -1.786  1.00  0.00     0.041 A   
ATOM     11  C23 UNL     1       3.311  -0.155  -3.275  1.00  0.00     0.101 A   
ATOM     12  C22 UNL     1       4.065   0.373  -2.236  1.00  0.00     0.036 A   
ATOM     13  C21 UNL     1       3.922  -0.152  -0.955  1.00  0.00     0.008 A   
BRANCH   9  14
ATOM     14  O1  UNL     1       1.749  -1.626  -4.194  1.00  0.00    -0.347 OA  
ATOM     15  C1  UNL     1       0.952  -2.799  -4.068  1.00  0.00     0.203 C   
ENDBRANCH   9  14
BRANCH  11  16
ATOM     16  O4  UNL     1       3.460   0.397  -4.520  1.00  0.00    -0.358 OA  
ATOM     17  H29 UNL     1       2.884  -0.136  -5.106  1.00  0.00     0.218 HD  
ENDBRANCH  11  16
ENDBRANCH   7   8
ENDBRANCH   1   7
BRANCH   3  18
ATOM     18  C8  UNL     1      -0.554   1.161   3.010  1.00  0.00     0.120 C   
BRANCH  18  19
ATOM     19  N2  UNL     1      -2.008   0.935   2.632  1.00  0.00     0.250 N   
ATOM     20  H9  UNL     1      -2.062  -0.045   2.310  1.00  0.00     0.199 HD  
ATOM     21  H10 UNL     1      -2.622   0.978   3.448  1.00  0.00     0.199 HD  
BRANCH  19  22
ATOM     22  C9  UNL     1      -2.554   1.808   1.558  1.00  0.00     0.164 C   
BRANCH  22  23
ATOM     23  C10 UNL     1      -1.852   1.666   0.237  1.00  0.00    -0.002 A   
ATOM     24  C11 UNL     1      -2.012   0.493  -0.540  1.00  0.00     0.012 A   
ATOM     25  C15 UNL     1      -1.012   2.692  -0.230  1.00  0.00     0.045 A   
ATOM     26  C12 UNL     1      -1.351   0.344  -1.765  1.00  0.00     0.037 A   
ATOM     27  C14 UNL     1      -0.370   2.510  -1.438  1.00  0.00     0.109 A   
ATOM     28  C13 UNL     1      -0.538   1.372  -2.188  1.00  0.00     0.108 A   
ATOM     29  O2  UNL     1       0.473   3.399  -2.025  1.00  0.00    -0.316 OA  
ATOM     30  O3  UNL     1       0.165   1.407  -3.349  1.00  0.00    -0.316 OA  
ATOM     31  C16 UNL     1       0.814   2.692  -3.243  1.00  0.00     0.337 C   
ENDBRANCH  22  23
ENDBRANCH  19  22
ENDBRANCH  18  19
BRANCH  18  32
ATOM     32  C17 UNL     1      -0.395   1.258   4.566  1.00  0.00     0.010 C   
ATOM     33  C18 UNL     1      -0.836  -0.028   5.295  1.00  0.00     0.017 C   
ATOM     34  C19 UNL     1       1.083   1.535   4.927  1.00  0.00     0.017 C   
ATOM     35  C20 UNL     1      -1.222   2.444   5.115  1.00  0.00     0.017 C   
ENDBRANCH  18  32
ENDBRANCH   3  18
TORSDOF 9
