REMARK SMILES Cc1cncc(Cn2cc([C@@H]([NH2+]Cc3ccc4c(c3)OCO4)C3CCCC3)nn2)c1
REMARK SMILES IDX 8 1 9 2 10 3 28 4 29 5 7 7 6 8 2 9 3 10 30 11 4 12 5 13 1 14
REMARK SMILES IDX 11 15 12 16 13 19 14 20 15 21 19 22 16 23 18 24 17 25 20 26
REMARK SMILES IDX 22 27 21 28 23 29 24 30 27 31 25 32 26 33
REMARK H PARENT 9 6 12 17 12 18
ROOT
ATOM     1   N2  UNL     1      -2.301  -1.674  -1.201  1.00  0.00    -0.208 N   
ATOM     2   C7  UNL     1      -1.314  -1.725  -0.254  1.00  0.00     0.046 A   
ATOM     3   C8  UNL     1      -1.805  -0.952   0.775  1.00  0.00     0.127 A   
ATOM     4   N4  UNL     1      -3.069  -0.527   0.459  1.00  0.00    -0.132 NA  
ATOM     5   N5  UNL     1      -3.359  -0.971  -0.754  1.00  0.00    -0.076 NA  
ATOM     6   H8  UNL     1      -0.364  -2.211  -0.431  1.00  0.00     0.083 HD  
ENDROOT
BRANCH   1   7
ATOM     7   C6  UNL     1      -2.213  -2.072  -2.598  1.00  0.00     0.171 C   
BRANCH   7   8
ATOM     8   C5  UNL     1      -1.282  -1.142  -3.326  1.00  0.00    -0.010 A   
ATOM     9   C2  UNL     1       0.859  -0.625  -4.331  1.00  0.00    -0.032 A   
ATOM     10  C3  UNL     1       0.405   0.679  -4.485  1.00  0.00     0.114 A   
ATOM     11  C23 UNL     1      -0.011  -1.548  -3.746  1.00  0.00     0.012 A   
ATOM     12  N1  UNL     1      -0.813   1.107  -4.086  1.00  0.00    -0.264 NA  
ATOM     13  C4  UNL     1      -1.634   0.188  -3.538  1.00  0.00     0.116 A   
ATOM     14  C1  UNL     1       2.213  -1.028  -4.825  1.00  0.00     0.046 C   
ENDBRANCH   7   8
ENDBRANCH   1   7
BRANCH   3  15
ATOM     15  C9  UNL     1      -1.145  -0.454   2.017  1.00  0.00     0.117 C   
BRANCH  15  16
ATOM     16  N3  UNL     1      -1.355   1.042   2.151  1.00  0.00     0.249 N   
ATOM     17  H10 UNL     1      -2.373   1.192   2.179  1.00  0.00     0.199 HD  
ATOM     18  H11 UNL     1      -0.972   1.375   3.039  1.00  0.00     0.199 HD  
BRANCH  16  19
ATOM     19  C10 UNL     1      -0.819   1.899   1.044  1.00  0.00     0.164 C   
BRANCH  19  20
ATOM     20  C11 UNL     1       0.661   1.746   0.828  1.00  0.00    -0.002 A   
ATOM     21  C12 UNL     1       1.583   2.175   1.813  1.00  0.00     0.012 A   
ATOM     22  C16 UNL     1       1.140   1.155  -0.355  1.00  0.00     0.045 A   
ATOM     23  C13 UNL     1       2.960   2.004   1.630  1.00  0.00     0.037 A   
ATOM     24  C15 UNL     1       2.502   1.000  -0.503  1.00  0.00     0.109 A   
ATOM     25  C14 UNL     1       3.386   1.411   0.462  1.00  0.00     0.108 A   
ATOM     26  O1  UNL     1       3.125   0.440  -1.574  1.00  0.00    -0.316 OA  
ATOM     27  O2  UNL     1       4.678   1.167   0.120  1.00  0.00    -0.316 OA  
ATOM     28  C17 UNL     1       4.511   0.590  -1.192  1.00  0.00     0.337 C   
ENDBRANCH  19  20
ENDBRANCH  16  19
ENDBRANCH  15  16
BRANCH  15  29
ATOM     29  C18 UNL     1      -1.700  -1.136   3.282  1.00  0.00     0.043 C   
ATOM     30  C19 UNL     1      -1.033  -0.682   4.586  1.00  0.00     0.010 C   
ATOM     31  C22 UNL     1      -1.458  -2.649   3.312  1.00  0.00     0.010 C   
ATOM     32  C20 UNL     1      -1.256  -1.821   5.580  1.00  0.00     0.001 C   
ATOM     33  C21 UNL     1      -1.722  -3.022   4.763  1.00  0.00     0.001 C   
ENDBRANCH  15  29
ENDBRANCH   3  15
TORSDOF 7
