REMARK SMILES NCc1ccccc1Cn1cc([C@@H]([NH2+]Cc2ccc3c(c2)OCO3)C2CCCC2)nn1
REMARK SMILES IDX 10 1 11 2 12 3 30 4 31 5 9 7 8 8 3 9 4 10 5 11 7 12 6 13
REMARK SMILES IDX 2 14 1 15 13 18 14 19 15 22 16 23 17 24 21 25 18 26 20 27
REMARK SMILES IDX 19 28 22 29 24 30 23 31 25 32 26 33 29 34 27 35 28 36
REMARK H PARENT 11 6 1 16 1 17 14 20 14 21
ROOT
ATOM     1   N2  UNL     1       2.204   1.731   0.201  1.00  0.00    -0.208 N   
ATOM     2   C9  UNL     1       0.897   2.044   0.455  1.00  0.00     0.046 A   
ATOM     3   C10 UNL     1       0.340   2.189  -0.797  1.00  0.00     0.127 A   
ATOM     4   N4  UNL     1       1.310   2.013  -1.744  1.00  0.00    -0.132 NA  
ATOM     5   N5  UNL     1       2.447   1.741  -1.123  1.00  0.00    -0.076 NA  
ATOM     6   H11 UNL     1       0.499   2.070   1.459  1.00  0.00     0.083 HD  
ENDROOT
BRANCH   1   7
ATOM     7   C8  UNL     1       3.223   1.304   1.148  1.00  0.00     0.169 C   
BRANCH   7   8
ATOM     8   C7  UNL     1       2.984  -0.130   1.581  1.00  0.00    -0.024 A   
ATOM     9   C2  UNL     1       2.611  -0.486   2.898  1.00  0.00    -0.030 A   
ATOM     10  C3  UNL     1       2.365  -1.842   3.193  1.00  0.00     0.005 A   
ATOM     11  C4  UNL     1       2.507  -2.832   2.221  1.00  0.00     0.000 A   
ATOM     12  C6  UNL     1       3.136  -1.150   0.618  1.00  0.00     0.006 A   
ATOM     13  C5  UNL     1       2.899  -2.486   0.935  1.00  0.00     0.000 A   
BRANCH   9  14
ATOM     14  C1  UNL     1       2.453   0.522   4.011  1.00  0.00     0.113 C   
BRANCH  14  15
ATOM     15  N1  UNL     1       1.166   1.208   3.911  1.00  0.00    -0.326 NA  
ATOM     16  H1  UNL     1       1.114   1.881   4.679  1.00  0.00     0.119 HD  
ATOM     17  H2  UNL     1       0.439   0.522   4.121  1.00  0.00     0.119 HD  
ENDBRANCH  14  15
ENDBRANCH   9  14
ENDBRANCH   7   8
ENDBRANCH   1   7
BRANCH   3  18
ATOM     18  C11 UNL     1      -1.088   2.333  -1.211  1.00  0.00     0.117 C   
BRANCH  18  19
ATOM     19  N3  UNL     1      -1.826   1.046  -0.925  1.00  0.00     0.249 N   
ATOM     20  H13 UNL     1      -2.830   1.156  -1.093  1.00  0.00     0.199 HD  
ATOM     21  H14 UNL     1      -1.721   0.825   0.072  1.00  0.00     0.199 HD  
BRANCH  19  22
ATOM     22  C12 UNL     1      -1.357  -0.138  -1.710  1.00  0.00     0.164 C   
BRANCH  22  23
ATOM     23  C13 UNL     1      -2.011  -1.389  -1.192  1.00  0.00    -0.002 A   
ATOM     24  C14 UNL     1      -1.399  -2.126  -0.149  1.00  0.00     0.012 A   
ATOM     25  C18 UNL     1      -3.256  -1.801  -1.695  1.00  0.00     0.045 A   
ATOM     26  C15 UNL     1      -2.013  -3.265   0.381  1.00  0.00     0.037 A   
ATOM     27  C17 UNL     1      -3.834  -2.928  -1.149  1.00  0.00     0.109 A   
ATOM     28  C16 UNL     1      -3.231  -3.640  -0.141  1.00  0.00     0.108 A   
ATOM     29  O1  UNL     1      -5.029  -3.461  -1.518  1.00  0.00    -0.316 OA  
ATOM     30  O2  UNL     1      -3.969  -4.710   0.252  1.00  0.00    -0.316 OA  
ATOM     31  C19 UNL     1      -5.096  -4.613  -0.646  1.00  0.00     0.337 C   
ENDBRANCH  22  23
ENDBRANCH  19  22
ENDBRANCH  18  19
BRANCH  18  32
ATOM     32  C20 UNL     1      -1.808   3.489  -0.494  1.00  0.00     0.043 C   
ATOM     33  C21 UNL     1      -1.198   4.860  -0.798  1.00  0.00     0.010 C   
ATOM     34  C24 UNL     1      -3.264   3.692  -0.928  1.00  0.00     0.010 C   
ATOM     35  C22 UNL     1      -2.264   5.841  -0.330  1.00  0.00     0.001 C   
ATOM     36  C23 UNL     1      -3.598   5.134  -0.550  1.00  0.00     0.001 C   
ENDBRANCH  18  32
ENDBRANCH   3  18
TORSDOF 9
