REMARK SMILES CC(C)(C)[C@H]([NH2+]Cc1ccc2c(c1)OCO2)c1cn(Cc2ccc(N([O-])[O-])cc2)nn1
REMARK SMILES IDX 17 1 18 2 19 3 30 4 31 5 5 7 2 8 1 9 3 10 4 11 6 12 7 15
REMARK SMILES IDX 8 16 9 17 13 18 10 19 12 20 11 21 14 22 16 23 15 24 20 25
REMARK SMILES IDX 21 26 22 27 29 28 23 29 28 30 24 31 25 32 26 33 27 34
REMARK H PARENT 18 6 6 13 6 14
ROOT
ATOM     1   C14 UNL     1       0.769  -1.827   1.789  1.00  0.00     0.127 A   
ATOM     2   C15 UNL     1       1.005  -1.727   0.436  1.00  0.00     0.046 A   
ATOM     3   N2  UNL     1      -0.101  -2.295  -0.135  1.00  0.00    -0.208 N   
ATOM     4   N4  UNL     1      -0.966  -2.718   0.807  1.00  0.00    -0.076 NA  
ATOM     5   N5  UNL     1      -0.447  -2.432   1.990  1.00  0.00    -0.132 NA  
ATOM     6   H20 UNL     1       1.809  -1.305  -0.150  1.00  0.00     0.083 HD  
ENDROOT
BRANCH   1   7
ATOM     7   C5  UNL     1       1.538  -1.331   2.978  1.00  0.00     0.120 C   
BRANCH   7   8
ATOM     8   C2  UNL     1       2.529  -2.380   3.590  1.00  0.00     0.010 C   
ATOM     9   C1  UNL     1       3.555  -2.824   2.523  1.00  0.00     0.017 C   
ATOM     10  C3  UNL     1       1.816  -3.638   4.125  1.00  0.00     0.017 C   
ATOM     11  C4  UNL     1       3.332  -1.740   4.747  1.00  0.00     0.017 C   
ENDBRANCH   7   8
BRANCH   7  12
ATOM     12  N1  UNL     1       0.534  -0.869   4.021  1.00  0.00     0.250 N   
ATOM     13  H11 UNL     1       0.753  -1.245   4.947  1.00  0.00     0.199 HD  
ATOM     14  H12 UNL     1      -0.362  -1.313   3.763  1.00  0.00     0.199 HD  
BRANCH  12  15
ATOM     15  C6  UNL     1       0.317   0.600   4.130  1.00  0.00     0.164 C   
BRANCH  15  16
ATOM     16  C7  UNL     1      -0.183   1.248   2.869  1.00  0.00    -0.002 A   
ATOM     17  C8  UNL     1      -1.476   0.956   2.371  1.00  0.00     0.012 A   
ATOM     18  C12 UNL     1       0.635   2.153   2.170  1.00  0.00     0.045 A   
ATOM     19  C9  UNL     1      -1.946   1.552   1.195  1.00  0.00     0.037 A   
ATOM     20  C11 UNL     1       0.140   2.725   1.017  1.00  0.00     0.109 A   
ATOM     21  C10 UNL     1      -1.115   2.435   0.543  1.00  0.00     0.108 A   
ATOM     22  O1  UNL     1       0.797   3.619   0.233  1.00  0.00    -0.316 OA  
ATOM     23  O2  UNL     1      -1.408   3.112  -0.596  1.00  0.00    -0.316 OA  
ATOM     24  C13 UNL     1      -0.212   3.906  -0.762  1.00  0.00     0.337 C   
ENDBRANCH  15  16
ENDBRANCH  12  15
ENDBRANCH   7  12
ENDBRANCH   1   7
BRANCH   3  25
ATOM     25  C16 UNL     1      -0.396  -2.470  -1.547  1.00  0.00     0.169 C   
BRANCH  25  26
ATOM     26  C17 UNL     1      -0.964  -1.203  -2.139  1.00  0.00    -0.028 A   
ATOM     27  C18 UNL     1      -2.323  -0.889  -1.967  1.00  0.00     0.007 A   
ATOM     28  C22 UNL     1      -0.137  -0.310  -2.840  1.00  0.00     0.007 A   
ATOM     29  C19 UNL     1      -2.850   0.298  -2.480  1.00  0.00     0.031 A   
ATOM     30  C21 UNL     1      -0.656   0.881  -3.353  1.00  0.00     0.031 A   
ATOM     31  C20 UNL     1      -2.010   1.183  -3.165  1.00  0.00     0.118 A   
BRANCH  31  32
ATOM     32  N3  UNL     1      -2.545   2.454  -3.662  1.00  0.00     0.092 N   
ATOM     33  O3  UNL     1      -1.728   3.330  -3.985  1.00  0.00    -0.138 OA  
ATOM     34  O4  UNL     1      -3.776   2.579  -3.718  1.00  0.00    -0.138 OA  
ENDBRANCH  31  32
ENDBRANCH  25  26
ENDBRANCH   3  25
TORSDOF 8
