REMARK SMILES Oc1ccc(O)c(CCn2cc([C@@H]([NH2+]Cc3ccc4c(c3)OCO4)C3CCCCC3)nn2)c1
REMARK SMILES IDX 10 1 11 2 12 3 31 4 32 5 9 7 8 8 7 9 2 10 3 11 33 12 4 13
REMARK SMILES IDX 5 14 1 15 6 17 13 19 14 20 15 23 16 24 17 25 21 26 18 27
REMARK SMILES IDX 20 28 19 29 22 30 24 31 23 32 25 33 26 34 30 35 27 36 29 37
REMARK SMILES IDX 28 38
REMARK H PARENT 11 6 1 16 6 18 14 21 14 22
ROOT
ATOM     1   N1  UNL     1       3.002   0.812  -0.288  1.00  0.00    -0.212 N   
ATOM     2   C8  UNL     1       1.924   0.815  -1.130  1.00  0.00     0.045 A   
ATOM     3   C9  UNL     1       0.863   1.111  -0.306  1.00  0.00     0.127 A   
ATOM     4   N3  UNL     1       1.325   1.327   0.966  1.00  0.00    -0.132 NA  
ATOM     5   N4  UNL     1       2.633   1.142   0.964  1.00  0.00    -0.076 NA  
ATOM     6   H9  UNL     1       2.009   0.576  -2.181  1.00  0.00     0.083 HD  
ENDROOT
BRANCH   1   7
ATOM     7   C7  UNL     1       4.367   0.426  -0.578  1.00  0.00     0.139 C   
BRANCH   7   8
ATOM     8   C6  UNL     1       4.497  -1.030  -1.037  1.00  0.00     0.060 C   
BRANCH   8   9
ATOM     9   C5  UNL     1       3.995  -2.027  -0.019  1.00  0.00    -0.014 A   
ATOM     10  C1  UNL     1       2.260  -3.520   0.771  1.00  0.00     0.072 A   
ATOM     11  C2  UNL     1       3.021  -3.849   1.889  1.00  0.00     0.036 A   
ATOM     12  C25 UNL     1       2.739  -2.628  -0.182  1.00  0.00     0.039 A   
ATOM     13  C3  UNL     1       4.275  -3.258   2.062  1.00  0.00     0.036 A   
ATOM     14  C4  UNL     1       4.749  -2.351   1.115  1.00  0.00     0.075 A   
BRANCH  10  15
ATOM     15  O1  UNL     1       1.022  -4.056   0.576  1.00  0.00    -0.361 OA  
ATOM     16  H1  UNL     1       0.931  -4.829   1.161  1.00  0.00     0.218 HD  
ENDBRANCH  10  15
BRANCH  14  17
ATOM     17  O2  UNL     1       5.966  -1.751   1.279  1.00  0.00    -0.361 OA  
ATOM     18  H4  UNL     1       6.399  -2.125   2.065  1.00  0.00     0.218 HD  
ENDBRANCH  14  17
ENDBRANCH   8   9
ENDBRANCH   7   8
ENDBRANCH   1   7
BRANCH   3  19
ATOM     19  C10 UNL     1      -0.608   1.145  -0.559  1.00  0.00     0.117 C   
BRANCH  19  20
ATOM     20  N2  UNL     1      -1.344   0.761   0.701  1.00  0.00     0.249 N   
ATOM     21  H11 UNL     1      -2.313   1.084   0.686  1.00  0.00     0.199 HD  
ATOM     22  H12 UNL     1      -0.866   1.262   1.464  1.00  0.00     0.199 HD  
BRANCH  20  23
ATOM     23  C11 UNL     1      -1.314  -0.692   1.052  1.00  0.00     0.164 C   
BRANCH  23  24
ATOM     24  C12 UNL     1      -2.239  -1.506   0.191  1.00  0.00    -0.002 A   
ATOM     25  C13 UNL     1      -1.721  -2.361  -0.809  1.00  0.00     0.012 A   
ATOM     26  C17 UNL     1      -3.632  -1.405   0.357  1.00  0.00     0.045 A   
ATOM     27  C14 UNL     1      -2.571  -3.098  -1.641  1.00  0.00     0.037 A   
ATOM     28  C16 UNL     1      -4.443  -2.144  -0.479  1.00  0.00     0.109 A   
ATOM     29  C15 UNL     1      -3.928  -2.965  -1.452  1.00  0.00     0.108 A   
ATOM     30  O3  UNL     1      -5.801  -2.158  -0.454  1.00  0.00    -0.316 OA  
ATOM     31  O4  UNL     1      -4.897  -3.598  -2.162  1.00  0.00    -0.316 OA  
ATOM     32  C18 UNL     1      -6.086  -3.112  -1.503  1.00  0.00     0.337 C   
ENDBRANCH  23  24
ENDBRANCH  20  23
ENDBRANCH  19  20
BRANCH  19  33
ATOM     33  C19 UNL     1      -1.085   2.528  -1.074  1.00  0.00     0.043 C   
ATOM     34  C20 UNL     1      -0.986   3.662  -0.034  1.00  0.00     0.010 C   
ATOM     35  C24 UNL     1      -2.514   2.456  -1.645  1.00  0.00     0.010 C   
ATOM     36  C21 UNL     1      -1.430   5.001  -0.624  1.00  0.00     0.001 C   
ATOM     37  C23 UNL     1      -2.955   3.798  -2.232  1.00  0.00     0.001 C   
ATOM     38  C22 UNL     1      -2.837   4.922  -1.207  1.00  0.00     0.000 C   
ENDBRANCH  19  33
ENDBRANCH   3  19
TORSDOF 10
