REMARK SMILES COc1cc(Cn2cc([C@@H]([NH2+]Cc3ccc4c(c3)OCO4)C3CCCC3)nn2)cc(C)n1
REMARK SMILES IDX 7 1 8 2 9 3 27 4 28 5 6 7 5 8 3 9 4 10 32 11 30 12 29 13
REMARK SMILES IDX 31 14 2 15 1 16 10 17 11 18 12 21 13 22 14 23 18 24 15 25
REMARK SMILES IDX 17 26 16 27 19 28 21 29 20 30 22 31 23 32 26 33 24 34 25 35
REMARK H PARENT 8 6 11 19 11 20
ROOT
ATOM     1   N1  UNL     1       1.221  -0.192   1.118  1.00  0.00    -0.208 N   
ATOM     2   C6  UNL     1       0.107  -0.903   0.763  1.00  0.00     0.046 A   
ATOM     3   C7  UNL     1       0.438  -1.453  -0.455  1.00  0.00     0.127 A   
ATOM     4   N3  UNL     1       1.715  -1.075  -0.788  1.00  0.00    -0.132 NA  
ATOM     5   N4  UNL     1       2.184  -0.308   0.181  1.00  0.00    -0.076 NA  
ATOM     6   H7  UNL     1      -0.780  -0.937   1.381  1.00  0.00     0.083 HD  
ENDROOT
BRANCH   1   7
ATOM     7   C5  UNL     1       1.460   0.558   2.339  1.00  0.00     0.169 C   
BRANCH   7   8
ATOM     8   C4  UNL     1       0.760   1.889   2.312  1.00  0.00    -0.023 A   
ATOM     9   C2  UNL     1      -1.079   3.307   2.885  1.00  0.00     0.167 A   
ATOM     10  C3  UNL     1      -0.473   2.063   2.942  1.00  0.00     0.060 A   
ATOM     11  N5  UNL     1      -0.552   4.369   2.246  1.00  0.00    -0.230 NA  
ATOM     12  C23 UNL     1       0.643   4.199   1.638  1.00  0.00     0.041 A   
ATOM     13  C22 UNL     1       1.322   2.983   1.646  1.00  0.00     0.029 A   
ATOM     14  C24 UNL     1       1.235   5.390   0.943  1.00  0.00     0.067 C   
BRANCH   9  15
ATOM     15  O1  UNL     1      -2.305   3.414   3.504  1.00  0.00    -0.333 OA  
ATOM     16  C1  UNL     1      -2.806   4.748   3.531  1.00  0.00     0.205 C   
ENDBRANCH   9  15
ENDBRANCH   7   8
ENDBRANCH   1   7
BRANCH   3  17
ATOM     17  C8  UNL     1      -0.341  -2.305  -1.403  1.00  0.00     0.117 C   
BRANCH  17  18
ATOM     18  N2  UNL     1       0.085  -2.014  -2.825  1.00  0.00     0.249 N   
ATOM     19  H9  UNL     1       1.044  -1.636  -2.758  1.00  0.00     0.199 HD  
ATOM     20  H10 UNL     1       0.165  -2.878  -3.369  1.00  0.00     0.199 HD  
BRANCH  18  21
ATOM     21  C9  UNL     1      -0.750  -1.042  -3.582  1.00  0.00     0.164 C   
BRANCH  21  22
ATOM     22  C10 UNL     1      -0.750   0.347  -3.013  1.00  0.00    -0.002 A   
ATOM     23  C11 UNL     1       0.401   1.165  -3.126  1.00  0.00     0.012 A   
ATOM     24  C15 UNL     1      -1.889   0.847  -2.357  1.00  0.00     0.045 A   
ATOM     25  C12 UNL     1       0.418   2.462  -2.603  1.00  0.00     0.037 A   
ATOM     26  C14 UNL     1      -1.839   2.131  -1.855  1.00  0.00     0.109 A   
ATOM     27  C13 UNL     1      -0.721   2.918  -1.978  1.00  0.00     0.108 A   
ATOM     28  O2  UNL     1      -2.853   2.765  -1.210  1.00  0.00    -0.316 OA  
ATOM     29  O3  UNL     1      -0.893   4.152  -1.437  1.00  0.00    -0.316 OA  
ATOM     30  C16 UNL     1      -2.256   4.059  -0.967  1.00  0.00     0.337 C   
ENDBRANCH  21  22
ENDBRANCH  18  21
ENDBRANCH  17  18
BRANCH  17  31
ATOM     31  C17 UNL     1      -0.170  -3.807  -1.092  1.00  0.00     0.043 C   
ATOM     32  C18 UNL     1       1.246  -4.373  -1.279  1.00  0.00     0.010 C   
ATOM     33  C21 UNL     1      -1.084  -4.729  -1.923  1.00  0.00     0.010 C   
ATOM     34  C19 UNL     1       1.009  -5.859  -1.490  1.00  0.00     0.001 C   
ATOM     35  C20 UNL     1      -0.208  -5.885  -2.400  1.00  0.00     0.001 C   
ENDBRANCH  17  31
ENDBRANCH   3  17
TORSDOF 8
