REMARK SMILES Cc1cc(Cn2cc([C@H](CC(C)C)[NH2+]Cc3ccc4c(c3)OCO4)nn2)n[nH]1
REMARK SMILES IDX 6 1 7 2 8 3 25 4 26 5 5 7 4 8 2 9 3 10 28 11 27 12 1 13 9 15
REMARK SMILES IDX 10 16 11 17 12 18 13 19 14 20 15 23 16 24 17 25 21 26 18 27
REMARK SMILES IDX 20 28 19 29 22 30 24 31 23 32
REMARK H PARENT 7 6 28 14 14 21 14 22
ROOT
ATOM     1   N1  UNL     1       1.135  -3.153   1.206  1.00  0.00    -0.206 N   
ATOM     2   C6  UNL     1       0.690  -2.682  -0.001  1.00  0.00     0.046 A   
ATOM     3   C7  UNL     1       1.168  -1.393  -0.055  1.00  0.00     0.127 A   
ATOM     4   N3  UNL     1       1.891  -1.133   1.083  1.00  0.00    -0.132 NA  
ATOM     5   N4  UNL     1       1.859  -2.212   1.848  1.00  0.00    -0.076 NA  
ATOM     6   H7  UNL     1       0.091  -3.289  -0.666  1.00  0.00     0.083 HD  
ENDROOT
BRANCH   1   7
ATOM     7   C5  UNL     1       0.963  -4.479   1.774  1.00  0.00     0.191 C   
BRANCH   7   8
ATOM     8   C4  UNL     1      -0.468  -4.713   2.121  1.00  0.00     0.079 A   
ATOM     9   C2  UNL     1      -2.411  -4.904   3.176  1.00  0.00     0.024 A   
ATOM     10  C3  UNL     1      -1.106  -4.505   3.367  1.00  0.00     0.047 A   
ATOM     11  N6  UNL     1      -2.485  -5.319   1.875  1.00  0.00    -0.243 N   
ATOM     12  N5  UNL     1      -1.327  -5.184   1.203  1.00  0.00    -0.187 NA  
ATOM     13  C1  UNL     1      -3.576  -4.952   4.088  1.00  0.00     0.063 C   
ATOM     14  H27 UNL     1      -3.290  -5.700   1.385  1.00  0.00     0.175 HD  
ENDBRANCH   7   8
ENDBRANCH   1   7
BRANCH   3  15
ATOM     15  C8  UNL     1       0.999  -0.323  -1.087  1.00  0.00     0.114 C   
BRANCH  15  16
ATOM     16  C9  UNL     1       1.989  -0.525  -2.252  1.00  0.00     0.064 C   
BRANCH  16  17
ATOM     17  C10 UNL     1       1.872   0.462  -3.434  1.00  0.00    -0.012 C   
ATOM     18  C11 UNL     1       0.475   0.474  -4.054  1.00  0.00     0.007 C   
ATOM     19  C12 UNL     1       2.910   0.107  -4.504  1.00  0.00     0.007 C   
ENDBRANCH  16  17
ENDBRANCH  15  16
BRANCH  15  20
ATOM     20  N2  UNL     1       1.228   1.032  -0.474  1.00  0.00     0.249 N   
ATOM     21  H18 UNL     1       2.081   0.956   0.101  1.00  0.00     0.199 HD  
ATOM     22  H19 UNL     1       1.419   1.749  -1.179  1.00  0.00     0.199 HD  
BRANCH  20  23
ATOM     23  C13 UNL     1       0.139   1.522   0.417  1.00  0.00     0.164 C   
BRANCH  23  24
ATOM     24  C14 UNL     1       0.520   2.847   1.014  1.00  0.00    -0.002 A   
ATOM     25  C15 UNL     1       1.248   2.897   2.227  1.00  0.00     0.012 A   
ATOM     26  C19 UNL     1       0.216   4.042   0.338  1.00  0.00     0.045 A   
ATOM     27  C16 UNL     1       1.660   4.121   2.767  1.00  0.00     0.037 A   
ATOM     28  C18 UNL     1       0.639   5.230   0.897  1.00  0.00     0.109 A   
ATOM     29  C17 UNL     1       1.341   5.269   2.076  1.00  0.00     0.108 A   
ATOM     30  O1  UNL     1       0.436   6.466   0.370  1.00  0.00    -0.316 OA  
ATOM     31  O2  UNL     1       1.665   6.535   2.443  1.00  0.00    -0.316 OA  
ATOM     32  C20 UNL     1       1.074   7.296   1.367  1.00  0.00     0.337 C   
ENDBRANCH  23  24
ENDBRANCH  20  23
ENDBRANCH  15  20
ENDBRANCH   3  15
TORSDOF 8
