REMARK SMILES CC(C)C[C@H]([NH2+]Cc1ccc2c(c1)OCO2)c1cn(C[C@H](O)c2ccccc2F)nn1
REMARK SMILES IDX 17 1 18 2 19 3 30 4 31 5 5 7 4 8 2 9 1 10 3 11 6 12 7 15
REMARK SMILES IDX 8 16 9 17 13 18 10 19 12 20 11 21 14 22 16 23 15 24 20 25
REMARK SMILES IDX 21 26 22 27 23 29 24 30 28 31 25 32 27 33 26 34 29 35
REMARK H PARENT 18 6 6 13 6 14 22 28
ROOT
ATOM     1   C14 UNL     1      -2.300   0.295   0.364  1.00  0.00     0.127 A   
ATOM     2   C15 UNL     1      -1.553   1.406   0.036  1.00  0.00     0.045 A   
ATOM     3   N2  UNL     1      -1.391   2.054   1.228  1.00  0.00    -0.209 N   
ATOM     4   N3  UNL     1      -2.035   1.413   2.219  1.00  0.00    -0.076 NA  
ATOM     5   N4  UNL     1      -2.596   0.333   1.702  1.00  0.00    -0.132 NA  
ATOM     6   H20 UNL     1      -1.093   1.750  -0.880  1.00  0.00     0.083 HD  
ENDROOT
BRANCH   1   7
ATOM     7   C5  UNL     1      -2.695  -0.899  -0.441  1.00  0.00     0.114 C   
BRANCH   7   8
ATOM     8   C4  UNL     1      -4.052  -0.739  -1.148  1.00  0.00     0.064 C   
BRANCH   8   9
ATOM     9   C2  UNL     1      -4.081   0.310  -2.280  1.00  0.00    -0.012 C   
ATOM     10  C1  UNL     1      -3.110  -0.030  -3.413  1.00  0.00     0.007 C   
ATOM     11  C3  UNL     1      -5.504   0.427  -2.839  1.00  0.00     0.007 C   
ENDBRANCH   8   9
ENDBRANCH   7   8
BRANCH   7  12
ATOM     12  N1  UNL     1      -2.793  -2.087   0.495  1.00  0.00     0.249 N   
ATOM     13  H11 UNL     1      -3.731  -2.105   0.913  1.00  0.00     0.199 HD  
ATOM     14  H12 UNL     1      -2.179  -1.873   1.298  1.00  0.00     0.199 HD  
BRANCH  12  15
ATOM     15  C6  UNL     1      -2.417  -3.415  -0.052  1.00  0.00     0.164 C   
BRANCH  15  16
ATOM     16  C7  UNL     1      -0.931  -3.556  -0.248  1.00  0.00    -0.002 A   
ATOM     17  C8  UNL     1      -0.371  -3.568  -1.548  1.00  0.00     0.012 A   
ATOM     18  C12 UNL     1      -0.081  -3.642   0.870  1.00  0.00     0.045 A   
ATOM     19  C9  UNL     1       1.015  -3.652  -1.735  1.00  0.00     0.037 A   
ATOM     20  C11 UNL     1       1.279  -3.724   0.651  1.00  0.00     0.109 A   
ATOM     21  C10 UNL     1       1.813  -3.725  -0.614  1.00  0.00     0.108 A   
ATOM     22  O1  UNL     1       2.231  -3.803   1.618  1.00  0.00    -0.316 OA  
ATOM     23  O2  UNL     1       3.170  -3.796  -0.603  1.00  0.00    -0.316 OA  
ATOM     24  C13 UNL     1       3.432  -3.879   0.816  1.00  0.00     0.337 C   
ENDBRANCH  15  16
ENDBRANCH  12  15
ENDBRANCH   7  12
ENDBRANCH   1   7
BRANCH   3  25
ATOM     25  C16 UNL     1      -0.587   3.222   1.508  1.00  0.00     0.170 C   
BRANCH  25  26
ATOM     26  C17 UNL     1       0.829   2.864   1.975  1.00  0.00     0.167 C   
BRANCH  26  27
ATOM     27  O3  UNL     1       1.458   4.055   2.464  1.00  0.00    -0.387 OA  
ATOM     28  H24 UNL     1       2.387   3.834   2.656  1.00  0.00     0.211 HD  
ENDBRANCH  26  27
BRANCH  26  29
ATOM     29  C18 UNL     1       1.678   2.271   0.869  1.00  0.00     0.018 A   
ATOM     30  C19 UNL     1       2.281   3.081  -0.108  1.00  0.00     0.009 A   
ATOM     31  C23 UNL     1       1.851   0.884   0.779  1.00  0.00     0.129 A   
ATOM     32  C20 UNL     1       3.040   2.511  -1.133  1.00  0.00     0.001 A   
ATOM     33  C22 UNL     1       2.607   0.310  -0.240  1.00  0.00     0.039 A   
ATOM     34  C21 UNL     1       3.205   1.126  -1.199  1.00  0.00     0.003 A   
ATOM     35  F1  UNL     1       1.261   0.076   1.674  1.00  0.00    -0.207 F   
ENDBRANCH  26  29
ENDBRANCH  25  26
ENDBRANCH   3  25
TORSDOF 10
