REMARK SMILES CC(C)C[C@H]([NH2+]Cc1ccc2c(c1)OCO2)c1cn(C[C@@H](O)c2ccccc2F)nn1
REMARK SMILES IDX 17 1 18 2 19 3 30 4 31 5 5 7 4 8 2 9 1 10 3 11 6 12 7 15
REMARK SMILES IDX 8 16 9 17 13 18 10 19 12 20 11 21 14 22 16 23 15 24 20 25
REMARK SMILES IDX 21 26 22 27 23 29 24 30 28 31 25 32 27 33 26 34 29 35
REMARK H PARENT 18 6 6 13 6 14 22 28
ROOT
ATOM     1   C14 UNL     1      -0.418  -0.198   0.301  1.00  0.00     0.127 A   
ATOM     2   C15 UNL     1       0.578   0.168   1.177  1.00  0.00     0.045 A   
ATOM     3   N2  UNL     1       0.001   1.140   1.946  1.00  0.00    -0.209 N   
ATOM     4   N3  UNL     1      -1.298   1.293   1.626  1.00  0.00    -0.076 NA  
ATOM     5   N4  UNL     1      -1.561   0.497   0.602  1.00  0.00    -0.132 NA  
ATOM     6   H20 UNL     1       1.611  -0.128   1.302  1.00  0.00     0.083 HD  
ENDROOT
BRANCH   1   7
ATOM     7   C5  UNL     1      -0.438  -1.192  -0.807  1.00  0.00     0.114 C   
BRANCH   7   8
ATOM     8   C4  UNL     1      -0.262  -0.532  -2.190  1.00  0.00     0.064 C   
BRANCH   8   9
ATOM     9   C2  UNL     1       1.085   0.192  -2.408  1.00  0.00    -0.012 C   
ATOM     10  C1  UNL     1       2.280  -0.754  -2.292  1.00  0.00     0.007 C   
ATOM     11  C3  UNL     1       1.091   0.867  -3.782  1.00  0.00     0.007 C   
ENDBRANCH   8   9
ENDBRANCH   7   8
BRANCH   7  12
ATOM     12  N1  UNL     1      -1.773  -1.911  -0.836  1.00  0.00     0.249 N   
ATOM     13  H11 UNL     1      -1.867  -2.445  -1.705  1.00  0.00     0.199 HD  
ATOM     14  H12 UNL     1      -2.492  -1.173  -0.847  1.00  0.00     0.199 HD  
BRANCH  12  15
ATOM     15  C6  UNL     1      -2.073  -2.801   0.324  1.00  0.00     0.164 C   
BRANCH  15  16
ATOM     16  C7  UNL     1      -1.154  -3.988   0.406  1.00  0.00    -0.002 A   
ATOM     17  C8  UNL     1      -1.291  -5.067  -0.501  1.00  0.00     0.012 A   
ATOM     18  C12 UNL     1      -0.126  -4.017   1.365  1.00  0.00     0.045 A   
ATOM     19  C9  UNL     1      -0.415  -6.158  -0.457  1.00  0.00     0.037 A   
ATOM     20  C11 UNL     1       0.721  -5.105   1.379  1.00  0.00     0.109 A   
ATOM     21  C10 UNL     1       0.581  -6.145   0.494  1.00  0.00     0.108 A   
ATOM     22  O1  UNL     1       1.764  -5.283   2.230  1.00  0.00    -0.316 OA  
ATOM     23  O2  UNL     1       1.518  -7.112   0.679  1.00  0.00    -0.316 OA  
ATOM     24  C13 UNL     1       2.250  -6.576   1.802  1.00  0.00     0.337 C   
ENDBRANCH  15  16
ENDBRANCH  12  15
ENDBRANCH   7  12
ENDBRANCH   1   7
BRANCH   3  25
ATOM     25  C16 UNL     1       0.592   1.903   3.026  1.00  0.00     0.170 C   
BRANCH  25  26
ATOM     26  C17 UNL     1       1.637   2.928   2.563  1.00  0.00     0.167 C   
BRANCH  26  27
ATOM     27  O3  UNL     1       2.810   2.246   2.099  1.00  0.00    -0.387 OA  
ATOM     28  H24 UNL     1       3.486   2.934   1.948  1.00  0.00     0.211 HD  
ENDBRANCH  26  27
BRANCH  26  29
ATOM     29  C18 UNL     1       1.129   3.910   1.534  1.00  0.00     0.018 A   
ATOM     30  C19 UNL     1       1.470   3.833   0.175  1.00  0.00     0.009 A   
ATOM     31  C23 UNL     1       0.259   4.929   1.940  1.00  0.00     0.129 A   
ATOM     32  C20 UNL     1       0.961   4.760  -0.738  1.00  0.00     0.001 A   
ATOM     33  C22 UNL     1      -0.253   5.855   1.036  1.00  0.00     0.039 A   
ATOM     34  C21 UNL     1       0.101   5.771  -0.308  1.00  0.00     0.003 A   
ATOM     35  F1  UNL     1      -0.094   5.017   3.230  1.00  0.00    -0.207 F   
ENDBRANCH  26  29
ENDBRANCH  25  26
ENDBRANCH   3  25
TORSDOF 10
