REMARK SMILES Cc1cc(Cn2cc([C@@H]([NH2+]Cc3ccc4c(c3)OCO4)C3CCCCC3)nn2)c(C)nn1
REMARK SMILES IDX 6 1 7 2 8 3 27 4 28 5 5 7 4 8 2 9 3 10 32 11 31 12 29 13
REMARK SMILES IDX 1 14 30 15 9 16 10 17 11 20 12 21 13 22 17 23 14 24 16 25
REMARK SMILES IDX 15 26 18 27 20 28 19 29 21 30 22 31 26 32 23 33 25 34 24 35
REMARK H PARENT 7 6 10 18 10 19
ROOT
ATOM     1   N1  UNL     1       2.005   0.871  -1.564  1.00  0.00    -0.208 N   
ATOM     2   C6  UNL     1       2.043   0.908  -0.197  1.00  0.00     0.046 A   
ATOM     3   C7  UNL     1       1.085  -0.005   0.187  1.00  0.00     0.127 A   
ATOM     4   N3  UNL     1       0.531  -0.573  -0.931  1.00  0.00    -0.132 NA  
ATOM     5   N4  UNL     1       1.106  -0.037  -1.994  1.00  0.00    -0.076 NA  
ATOM     6   H7  UNL     1       2.699   1.569   0.350  1.00  0.00     0.083 HD  
ENDROOT
BRANCH   1   7
ATOM     7   C5  UNL     1       2.749   1.684  -2.515  1.00  0.00     0.171 C   
BRANCH   7   8
ATOM     8   C4  UNL     1       1.954   2.901  -2.907  1.00  0.00    -0.004 A   
ATOM     9   C2  UNL     1       0.161   3.878  -4.190  1.00  0.00     0.060 A   
ATOM     10  C3  UNL     1       0.943   2.779  -3.873  1.00  0.00     0.032 A   
ATOM     11  N6  UNL     1       0.352   5.061  -3.578  1.00  0.00    -0.156 NA  
ATOM     12  N5  UNL     1       1.346   5.199  -2.648  1.00  0.00    -0.155 NA  
ATOM     13  C23 UNL     1       2.138   4.155  -2.324  1.00  0.00     0.065 A   
ATOM     14  C1  UNL     1      -0.920   3.790  -5.220  1.00  0.00     0.069 C   
ATOM     15  C24 UNL     1       3.208   4.449  -1.318  1.00  0.00     0.069 C   
ENDBRANCH   7   8
ENDBRANCH   1   7
BRANCH   3  16
ATOM     16  C8  UNL     1       0.568  -0.386   1.539  1.00  0.00     0.117 C   
BRANCH  16  17
ATOM     17  N2  UNL     1      -0.880  -0.784   1.447  1.00  0.00     0.249 N   
ATOM     18  H9  UNL     1      -1.181  -1.339   2.252  1.00  0.00     0.199 HD  
ATOM     19  H10 UNL     1      -0.969  -1.398   0.624  1.00  0.00     0.199 HD  
BRANCH  17  20
ATOM     20  C9  UNL     1      -1.835   0.344   1.254  1.00  0.00     0.164 C   
BRANCH  20  21
ATOM     21  C10 UNL     1      -3.232  -0.176   1.069  1.00  0.00    -0.002 A   
ATOM     22  C11 UNL     1      -3.718  -0.461  -0.230  1.00  0.00     0.012 A   
ATOM     23  C15 UNL     1      -4.044  -0.438   2.186  1.00  0.00     0.045 A   
ATOM     24  C12 UNL     1      -5.004  -0.977  -0.418  1.00  0.00     0.037 A   
ATOM     25  C14 UNL     1      -5.305  -0.950   1.965  1.00  0.00     0.109 A   
ATOM     26  C13 UNL     1      -5.774  -1.210   0.701  1.00  0.00     0.108 A   
ATOM     27  O1  UNL     1      -6.212  -1.256   2.929  1.00  0.00    -0.316 OA  
ATOM     28  O2  UNL     1      -7.038  -1.705   0.708  1.00  0.00    -0.316 OA  
ATOM     29  C16 UNL     1      -7.319  -1.724   2.124  1.00  0.00     0.337 C   
ENDBRANCH  20  21
ENDBRANCH  17  20
ENDBRANCH  16  17
BRANCH  16  30
ATOM     30  C17 UNL     1       1.406  -1.518   2.192  1.00  0.00     0.043 C   
ATOM     31  C18 UNL     1       1.254  -2.889   1.503  1.00  0.00     0.010 C   
ATOM     32  C22 UNL     1       1.109  -1.644   3.700  1.00  0.00     0.010 C   
ATOM     33  C19 UNL     1       2.124  -3.954   2.171  1.00  0.00     0.001 C   
ATOM     34  C21 UNL     1       1.980  -2.712   4.359  1.00  0.00     0.001 C   
ATOM     35  C20 UNL     1       1.838  -4.061   3.664  1.00  0.00     0.000 C   
ENDBRANCH  16  30
ENDBRANCH   3  16
TORSDOF 7
