REMARK SMILES Cc1cccc(N([O-])[O-])c1Cn1cc([C@@H]([NH2+]Cc2ccc3c(c2)OCO3)C2CCCC2)nn1
REMARK SMILES IDX 12 1 13 2 14 3 32 4 33 5 11 7 10 8 2 9 3 10 4 11 6 12 5 13
REMARK SMILES IDX 1 14 7 15 8 16 9 17 15 18 16 19 17 22 18 23 19 24 23 25
REMARK SMILES IDX 20 26 22 27 21 28 24 29 26 30 25 31 27 32 28 33 31 34 29 35
REMARK SMILES IDX 30 36
REMARK H PARENT 13 6 16 20 16 21
ROOT
ATOM     1   N2  UNL     1      -2.104  -1.921   2.100  1.00  0.00    -0.208 N   
ATOM     2   C9  UNL     1      -1.337  -2.292   1.034  1.00  0.00     0.046 A   
ATOM     3   C10 UNL     1      -1.595  -1.327   0.085  1.00  0.00     0.127 A   
ATOM     4   N4  UNL     1      -2.608  -0.525   0.536  1.00  0.00    -0.132 NA  
ATOM     5   N5  UNL     1      -2.904  -0.892   1.771  1.00  0.00    -0.076 NA  
ATOM     6   H9  UNL     1      -0.611  -3.089   1.099  1.00  0.00     0.083 HD  
ENDROOT
BRANCH   1   7
ATOM     7   C8  UNL     1      -1.920  -2.316   3.491  1.00  0.00     0.172 C   
BRANCH   7   8
ATOM     8   C7  UNL     1      -1.480  -1.140   4.359  1.00  0.00     0.003 A   
ATOM     9   C2  UNL     1      -2.277  -0.709   5.445  1.00  0.00    -0.044 A   
ATOM     10  C3  UNL     1      -1.873   0.402   6.210  1.00  0.00     0.004 A   
ATOM     11  C4  UNL     1      -0.700   1.098   5.925  1.00  0.00     0.002 A   
ATOM     12  C6  UNL     1      -0.285  -0.416   4.109  1.00  0.00     0.123 A   
ATOM     13  C5  UNL     1       0.103   0.695   4.867  1.00  0.00     0.031 A   
ATOM     14  C1  UNL     1      -3.574  -1.387   5.817  1.00  0.00     0.045 C   
BRANCH  12  15
ATOM     15  N1  UNL     1       0.613  -0.801   3.034  1.00  0.00     0.092 N   
ATOM     16  O1  UNL     1       0.721  -0.031   2.062  1.00  0.00    -0.138 OA  
ATOM     17  O2  UNL     1       1.165  -1.902   3.124  1.00  0.00    -0.138 OA  
ENDBRANCH  12  15
ENDBRANCH   7   8
ENDBRANCH   1   7
BRANCH   3  18
ATOM     18  C11 UNL     1      -0.865  -0.956  -1.168  1.00  0.00     0.117 C   
BRANCH  18  19
ATOM     19  N3  UNL     1       0.079   0.190  -0.861  1.00  0.00     0.249 N   
ATOM     20  H11 UNL     1       0.855   0.238  -1.528  1.00  0.00     0.199 HD  
ATOM     21  H12 UNL     1       0.514   0.031   0.065  1.00  0.00     0.199 HD  
BRANCH  19  22
ATOM     22  C12 UNL     1      -0.565   1.533  -0.806  1.00  0.00     0.164 C   
BRANCH  22  23
ATOM     23  C13 UNL     1       0.478   2.615  -0.698  1.00  0.00    -0.002 A   
ATOM     24  C14 UNL     1       1.044   3.189  -1.860  1.00  0.00     0.012 A   
ATOM     25  C18 UNL     1       0.928   3.031   0.568  1.00  0.00     0.045 A   
ATOM     26  C15 UNL     1       2.032   4.178  -1.763  1.00  0.00     0.037 A   
ATOM     27  C17 UNL     1       1.906   3.998   0.627  1.00  0.00     0.109 A   
ATOM     28  C16 UNL     1       2.441   4.559  -0.505  1.00  0.00     0.108 A   
ATOM     29  O3  UNL     1       2.446   4.506   1.768  1.00  0.00    -0.316 OA  
ATOM     30  O4  UNL     1       3.377   5.503  -0.220  1.00  0.00    -0.316 OA  
ATOM     31  C19 UNL     1       3.395   5.449   1.223  1.00  0.00     0.337 C   
ENDBRANCH  22  23
ENDBRANCH  19  22
ENDBRANCH  18  19
BRANCH  18  32
ATOM     32  C20 UNL     1      -0.059  -2.113  -1.795  1.00  0.00     0.043 C   
ATOM     33  C21 UNL     1      -0.934  -3.294  -2.240  1.00  0.00     0.010 C   
ATOM     34  C24 UNL     1       0.641  -1.750  -3.110  1.00  0.00     0.010 C   
ATOM     35  C22 UNL     1      -0.064  -4.078  -3.216  1.00  0.00     0.001 C   
ATOM     36  C23 UNL     1       0.977  -3.094  -3.742  1.00  0.00     0.001 C   
ENDBRANCH  18  32
ENDBRANCH   3  18
TORSDOF 8
