REMARK SMILES COc1ccc(C)cc1CCn1cc([C@H](CC(C)C)[NH2+]Cc2ccc3c(c2)OCO3)nn1
REMARK SMILES IDX 12 1 13 2 14 3 31 4 32 5 11 7 10 8 9 9 3 10 4 11 5 12 8 13
REMARK SMILES IDX 6 14 7 15 2 16 1 17 15 18 16 19 17 20 18 21 19 22 20 23
REMARK SMILES IDX 21 26 22 27 23 28 27 29 24 30 26 31 25 32 28 33 30 34 29 35
REMARK H PARENT 13 6 20 24 20 25
ROOT
ATOM     1   N1  UNL     1      -1.127  -2.395   2.491  1.00  0.00    -0.212 N   
ATOM     2   C11 UNL     1      -0.481  -1.206   2.298  1.00  0.00     0.045 A   
ATOM     3   C12 UNL     1       0.830  -1.582   2.104  1.00  0.00     0.127 A   
ATOM     4   N3  UNL     1       0.949  -2.931   2.312  1.00  0.00    -0.132 NA  
ATOM     5   N4  UNL     1      -0.256  -3.415   2.563  1.00  0.00    -0.076 NA  
ATOM     6   H14 UNL     1      -1.017  -0.276   2.169  1.00  0.00     0.083 HD  
ENDROOT
BRANCH   1   7
ATOM     7   C10 UNL     1      -2.547  -2.652   2.356  1.00  0.00     0.139 C   
BRANCH   7   8
ATOM     8   C9  UNL     1      -2.927  -2.949   0.897  1.00  0.00     0.059 C   
BRANCH   8   9
ATOM     9   C8  UNL     1      -2.820  -1.744  -0.019  1.00  0.00    -0.016 A   
ATOM     10  C2  UNL     1      -1.763  -1.562  -0.923  1.00  0.00     0.078 A   
ATOM     11  C3  UNL     1      -1.694  -0.423  -1.728  1.00  0.00     0.034 A   
ATOM     12  C4  UNL     1      -2.692   0.548  -1.648  1.00  0.00     0.006 A   
ATOM     13  C7  UNL     1      -3.814  -0.755   0.046  1.00  0.00     0.010 A   
ATOM     14  C5  UNL     1      -3.753   0.394  -0.754  1.00  0.00    -0.051 A   
ATOM     15  C6  UNL     1      -4.851   1.419  -0.683  1.00  0.00     0.044 C   
BRANCH  10  16
ATOM     16  O1  UNL     1      -0.716  -2.447  -0.980  1.00  0.00    -0.349 OA  
ATOM     17  C1  UNL     1      -0.938  -3.384  -2.045  1.00  0.00     0.203 C   
ENDBRANCH  10  16
ENDBRANCH   8   9
ENDBRANCH   7   8
ENDBRANCH   1   7
BRANCH   3  18
ATOM     18  C13 UNL     1       1.967  -0.850   1.476  1.00  0.00     0.114 C   
BRANCH  18  19
ATOM     19  C14 UNL     1       1.996   0.661   1.753  1.00  0.00     0.064 C   
BRANCH  19  20
ATOM     20  C15 UNL     1       2.178   1.041   3.239  1.00  0.00    -0.012 C   
ATOM     21  C16 UNL     1       2.082   2.562   3.404  1.00  0.00     0.007 C   
ATOM     22  C17 UNL     1       3.508   0.542   3.808  1.00  0.00     0.007 C   
ENDBRANCH  19  20
ENDBRANCH  18  19
BRANCH  18  23
ATOM     23  N2  UNL     1       1.821  -1.073  -0.008  1.00  0.00     0.249 N   
ATOM     24  H25 UNL     1       1.057  -0.492  -0.374  1.00  0.00     0.199 HD  
ATOM     25  H26 UNL     1       1.447  -2.030  -0.127  1.00  0.00     0.199 HD  
BRANCH  23  26
ATOM     26  C18 UNL     1       3.037  -0.958  -0.845  1.00  0.00     0.164 C   
BRANCH  26  27
ATOM     27  C19 UNL     1       2.702  -1.265  -2.279  1.00  0.00    -0.002 A   
ATOM     28  C20 UNL     1       2.835  -2.582  -2.780  1.00  0.00     0.012 A   
ATOM     29  C24 UNL     1       2.179  -0.258  -3.109  1.00  0.00     0.045 A   
ATOM     30  C21 UNL     1       2.455  -2.893  -4.091  1.00  0.00     0.037 A   
ATOM     31  C23 UNL     1       1.811  -0.600  -4.393  1.00  0.00     0.109 A   
ATOM     32  C22 UNL     1       1.942  -1.880  -4.871  1.00  0.00     0.108 A   
ATOM     33  O2  UNL     1       1.275   0.245  -5.310  1.00  0.00    -0.316 OA  
ATOM     34  O3  UNL     1       1.513  -2.003  -6.153  1.00  0.00    -0.316 OA  
ATOM     35  C25 UNL     1       1.128  -0.641  -6.443  1.00  0.00     0.337 C   
ENDBRANCH  26  27
ENDBRANCH  23  26
ENDBRANCH  18  23
ENDBRANCH   3  18
TORSDOF 10
