REMARK SMILES Cc1cc(Cn2cc([C@@H]([NH2+]Cc3ccc4c(c3)OCO4)C(C)(C)C)nn2)nn1C
REMARK SMILES IDX 6 1 7 2 8 3 25 4 26 5 5 7 4 8 2 9 3 10 28 11 27 12 1 13
REMARK SMILES IDX 29 14 9 15 10 16 11 19 12 20 13 21 17 22 14 23 16 24 15 25
REMARK SMILES IDX 18 26 20 27 19 28 21 29 22 30 23 31 24 32
REMARK H PARENT 7 6 10 17 10 18
ROOT
ATOM     1   N1  UNL     1      -0.944  -1.501  -2.763  1.00  0.00    -0.206 N   
ATOM     2   C6  UNL     1      -1.743  -0.936  -1.805  1.00  0.00     0.046 A   
ATOM     3   C7  UNL     1      -1.134   0.267  -1.528  1.00  0.00     0.127 A   
ATOM     4   N3  UNL     1      -0.012   0.393  -2.308  1.00  0.00    -0.132 NA  
ATOM     5   N4  UNL     1       0.092  -0.690  -3.061  1.00  0.00    -0.076 NA  
ATOM     6   H7  UNL     1      -2.615  -1.444  -1.416  1.00  0.00     0.083 HD  
ENDROOT
BRANCH   1   7
ATOM     7   C5  UNL     1      -1.119  -2.773  -3.440  1.00  0.00     0.191 C   
BRANCH   7   8
ATOM     8   C4  UNL     1      -0.645  -3.887  -2.572  1.00  0.00     0.080 A   
ATOM     9   C2  UNL     1       0.513  -5.558  -1.677  1.00  0.00     0.027 A   
ATOM     10  C3  UNL     1       0.566  -4.608  -2.675  1.00  0.00     0.047 A   
ATOM     11  N6  UNL     1      -0.689  -5.364  -1.047  1.00  0.00    -0.233 N   
ATOM     12  N5  UNL     1      -1.399  -4.337  -1.558  1.00  0.00    -0.185 NA  
ATOM     13  C1  UNL     1       1.477  -6.620  -1.299  1.00  0.00     0.063 C   
ATOM     14  C21 UNL     1      -1.236  -6.135   0.047  1.00  0.00     0.159 C   
ENDBRANCH   7   8
ENDBRANCH   1   7
BRANCH   3  15
ATOM     15  C8  UNL     1      -1.446   1.319  -0.508  1.00  0.00     0.120 C   
BRANCH  15  16
ATOM     16  N2  UNL     1      -0.142   1.853   0.039  1.00  0.00     0.250 N   
ATOM     17  H9  UNL     1       0.469   2.019  -0.775  1.00  0.00     0.199 HD  
ATOM     18  H10 UNL     1      -0.249   2.756   0.505  1.00  0.00     0.199 HD  
BRANCH  16  19
ATOM     19  C9  UNL     1       0.591   0.928   0.949  1.00  0.00     0.164 C   
BRANCH  19  20
ATOM     20  C10 UNL     1       1.916   1.521   1.337  1.00  0.00    -0.002 A   
ATOM     21  C11 UNL     1       3.044   1.341   0.501  1.00  0.00     0.012 A   
ATOM     22  C15 UNL     1       2.029   2.306   2.497  1.00  0.00     0.045 A   
ATOM     23  C12 UNL     1       4.274   1.926   0.820  1.00  0.00     0.037 A   
ATOM     24  C14 UNL     1       3.256   2.868   2.782  1.00  0.00     0.109 A   
ATOM     25  C13 UNL     1       4.347   2.684   1.968  1.00  0.00     0.108 A   
ATOM     26  O1  UNL     1       3.536   3.652   3.856  1.00  0.00    -0.316 OA  
ATOM     27  O2  UNL     1       5.451   3.327   2.428  1.00  0.00    -0.316 OA  
ATOM     28  C16 UNL     1       4.940   3.923   3.640  1.00  0.00     0.337 C   
ENDBRANCH  19  20
ENDBRANCH  16  19
ENDBRANCH  15  16
BRANCH  15  29
ATOM     29  C17 UNL     1      -2.334   2.495  -1.046  1.00  0.00     0.010 C   
ATOM     30  C18 UNL     1      -2.725   3.444   0.111  1.00  0.00     0.017 C   
ATOM     31  C19 UNL     1      -1.627   3.326  -2.135  1.00  0.00     0.017 C   
ATOM     32  C20 UNL     1      -3.651   1.941  -1.636  1.00  0.00     0.017 C   
ENDBRANCH  15  29
ENDBRANCH   3  15
TORSDOF 7
