REMARK SMILES CC(C)(C)c1nc(Cn2cc([C@@H]([NH2+]Cc3ccc4c(c3)OCO4)C(C)(C)C)nn2)co1
REMARK SMILES IDX 9 1 10 2 11 3 28 4 29 5 8 7 7 8 5 9 6 10 31 11 30 12 2 13
REMARK SMILES IDX 1 14 3 15 4 16 12 17 13 18 14 21 15 22 16 23 20 24 17 25
REMARK SMILES IDX 19 26 18 27 21 28 23 29 22 30 24 31 25 32 26 33 27 34
REMARK H PARENT 10 6 13 19 13 20
ROOT
ATOM     1   N2  UNL     1       0.518   1.318  -3.088  1.00  0.00    -0.206 N   
ATOM     2   C8  UNL     1      -0.049   0.409  -2.236  1.00  0.00     0.046 A   
ATOM     3   C9  UNL     1      -1.230   1.001  -1.851  1.00  0.00     0.127 A   
ATOM     4   N4  UNL     1      -1.353   2.211  -2.486  1.00  0.00    -0.132 NA  
ATOM     5   N5  UNL     1      -0.279   2.396  -3.236  1.00  0.00    -0.076 NA  
ATOM     6   H12 UNL     1       0.452  -0.510  -1.961  1.00  0.00     0.083 HD  
ENDROOT
BRANCH   1   7
ATOM     7   C7  UNL     1       1.806   1.241  -3.751  1.00  0.00     0.192 C   
BRANCH   7   8
ATOM     8   C6  UNL     1       2.890   1.526  -2.780  1.00  0.00     0.086 A   
ATOM     9   C5  UNL     1       4.223   1.202  -1.146  1.00  0.00     0.153 A   
ATOM     10  N1  UNL     1       3.205   0.637  -1.770  1.00  0.00    -0.229 NA  
ATOM     11  O3  UNL     1       4.575   2.424  -1.656  1.00  0.00    -0.301 OA  
ATOM     12  C23 UNL     1       3.725   2.616  -2.700  1.00  0.00     0.163 A   
BRANCH   9  13
ATOM     13  C2  UNL     1       5.025   0.696   0.024  1.00  0.00     0.027 C   
ATOM     14  C1  UNL     1       6.511   0.606  -0.360  1.00  0.00     0.020 C   
ATOM     15  C3  UNL     1       4.855   1.647   1.220  1.00  0.00     0.020 C   
ATOM     16  C4  UNL     1       4.535  -0.706   0.431  1.00  0.00     0.020 C   
ENDBRANCH   9  13
ENDBRANCH   7   8
ENDBRANCH   1   7
BRANCH   3  17
ATOM     17  C10 UNL     1      -2.242   0.586  -0.829  1.00  0.00     0.120 C   
BRANCH  17  18
ATOM     18  N3  UNL     1      -2.678   1.802  -0.033  1.00  0.00     0.250 N   
ATOM     19  H14 UNL     1      -3.013   2.494  -0.717  1.00  0.00     0.199 HD  
ATOM     20  H15 UNL     1      -3.459   1.574   0.584  1.00  0.00     0.199 HD  
BRANCH  18  21
ATOM     21  C11 UNL     1      -1.618   2.482   0.776  1.00  0.00     0.164 C   
BRANCH  21  22
ATOM     22  C12 UNL     1      -1.028   1.604   1.843  1.00  0.00    -0.002 A   
ATOM     23  C13 UNL     1       0.299   1.126   1.717  1.00  0.00     0.012 A   
ATOM     24  C17 UNL     1      -1.796   1.227   2.958  1.00  0.00     0.045 A   
ATOM     25  C14 UNL     1       0.854   0.282   2.685  1.00  0.00     0.037 A   
ATOM     26  C16 UNL     1      -1.218   0.393   3.892  1.00  0.00     0.109 A   
ATOM     27  C15 UNL     1       0.068  -0.067   3.760  1.00  0.00     0.108 A   
ATOM     28  O1  UNL     1      -1.822  -0.067   5.019  1.00  0.00    -0.316 OA  
ATOM     29  O2  UNL     1       0.438  -0.875   4.788  1.00  0.00    -0.316 OA  
ATOM     30  C18 UNL     1      -0.753  -0.846   5.604  1.00  0.00     0.337 C   
ENDBRANCH  21  22
ENDBRANCH  18  21
ENDBRANCH  17  18
BRANCH  17  31
ATOM     31  C19 UNL     1      -3.492  -0.154  -1.424  1.00  0.00     0.010 C   
ATOM     32  C20 UNL     1      -4.337   0.741  -2.352  1.00  0.00     0.017 C   
ATOM     33  C21 UNL     1      -3.037  -1.395  -2.228  1.00  0.00     0.017 C   
ATOM     34  C22 UNL     1      -4.405  -0.665  -0.286  1.00  0.00     0.017 C   
ENDBRANCH  17  31
ENDBRANCH   3  17
TORSDOF 8
