REMARK SMILES Cc1ccccc1[C@@H](O)Cn1cc([C@@H]([NH2+]Cc2ccc3c(c2)OCO3)C(C)(C)C)nn1
REMARK SMILES IDX 11 1 12 2 13 3 30 4 31 5 10 7 8 8 7 9 2 10 3 11 4 12 6 13
REMARK SMILES IDX 5 14 1 15 9 16 14 18 15 19 16 22 17 23 18 24 22 25 19 26
REMARK SMILES IDX 21 27 20 28 23 29 25 30 24 31 26 32 27 33 28 34 29 35
REMARK H PARENT 12 6 9 17 15 20 15 21
ROOT
ATOM     1   N1  UNL     1       0.049   1.957  -2.430  1.00  0.00    -0.209 N   
ATOM     2   C10 UNL     1      -0.423   2.186  -1.169  1.00  0.00     0.046 A   
ATOM     3   C11 UNL     1       0.608   1.780  -0.350  1.00  0.00     0.127 A   
ATOM     4   N3  UNL     1       1.645   1.327  -1.125  1.00  0.00    -0.132 NA  
ATOM     5   N4  UNL     1       1.293   1.446  -2.394  1.00  0.00    -0.076 NA  
ATOM     6   H12 UNL     1      -1.416   2.571  -0.980  1.00  0.00     0.083 HD  
ENDROOT
BRANCH   1   7
ATOM     7   C9  UNL     1      -0.640   2.141  -3.685  1.00  0.00     0.170 C   
BRANCH   7   8
ATOM     8   C8  UNL     1      -1.067   0.820  -4.336  1.00  0.00     0.164 C   
BRANCH   8   9
ATOM     9   C7  UNL     1      -1.963  -0.039  -3.454  1.00  0.00    -0.015 A   
ATOM     10  C2  UNL     1      -1.574  -1.318  -2.994  1.00  0.00    -0.045 A   
ATOM     11  C3  UNL     1      -2.454  -2.053  -2.181  1.00  0.00     0.004 A   
ATOM     12  C4  UNL     1      -3.699  -1.538  -1.820  1.00  0.00     0.000 A   
ATOM     13  C6  UNL     1      -3.231   0.456  -3.086  1.00  0.00     0.007 A   
ATOM     14  C5  UNL     1      -4.087  -0.284  -2.273  1.00  0.00     0.000 A   
ATOM     15  C1  UNL     1      -0.254  -1.940  -3.367  1.00  0.00     0.045 C   
ENDBRANCH   8   9
BRANCH   8  16
ATOM     16  O1  UNL     1      -1.769   1.120  -5.547  1.00  0.00    -0.387 OA  
ATOM     17  H9  UNL     1      -2.251   0.315  -5.812  1.00  0.00     0.211 HD  
ENDBRANCH   8  16
ENDBRANCH   7   8
ENDBRANCH   1   7
BRANCH   3  18
ATOM     18  C12 UNL     1       0.692   1.669   1.141  1.00  0.00     0.120 C   
BRANCH  18  19
ATOM     19  N2  UNL     1       1.377   0.363   1.495  1.00  0.00     0.250 N   
ATOM     20  H14 UNL     1       1.633   0.336   2.483  1.00  0.00     0.199 HD  
ATOM     21  H15 UNL     1       2.249   0.343   0.948  1.00  0.00     0.199 HD  
BRANCH  19  22
ATOM     22  C13 UNL     1       0.627  -0.887   1.161  1.00  0.00     0.164 C   
BRANCH  22  23
ATOM     23  C14 UNL     1      -0.594  -1.080   2.015  1.00  0.00    -0.002 A   
ATOM     24  C15 UNL     1      -0.472  -1.526   3.353  1.00  0.00     0.012 A   
ATOM     25  C19 UNL     1      -1.868  -0.785   1.498  1.00  0.00     0.045 A   
ATOM     26  C16 UNL     1      -1.601  -1.677   4.165  1.00  0.00     0.037 A   
ATOM     27  C18 UNL     1      -2.960  -0.944   2.325  1.00  0.00     0.109 A   
ATOM     28  C17 UNL     1      -2.830  -1.376   3.621  1.00  0.00     0.108 A   
ATOM     29  O2  UNL     1      -4.252  -0.700   1.985  1.00  0.00    -0.316 OA  
ATOM     30  O3  UNL     1      -4.025  -1.462   4.261  1.00  0.00    -0.316 OA  
ATOM     31  C20 UNL     1      -4.930  -1.054   3.212  1.00  0.00     0.337 C   
ENDBRANCH  22  23
ENDBRANCH  19  22
ENDBRANCH  18  19
BRANCH  18  32
ATOM     32  C21 UNL     1       1.417   2.874   1.837  1.00  0.00     0.010 C   
ATOM     33  C22 UNL     1       2.910   2.974   1.466  1.00  0.00     0.017 C   
ATOM     34  C23 UNL     1       1.309   2.747   3.375  1.00  0.00     0.017 C   
ATOM     35  C24 UNL     1       0.730   4.203   1.447  1.00  0.00     0.017 C   
ENDBRANCH  18  32
ENDBRANCH   3  18
TORSDOF 9
