REMARK SMILES Cc1ccccc1[C@H](O)Cn1cc([C@@H]([NH2+]Cc2ccc3c(c2)OCO3)C(C)(C)C)nn1
REMARK SMILES IDX 11 1 12 2 13 3 30 4 31 5 10 7 8 8 7 9 2 10 3 11 4 12 6 13
REMARK SMILES IDX 5 14 1 15 9 16 14 18 15 19 16 22 17 23 18 24 22 25 19 26
REMARK SMILES IDX 21 27 20 28 23 29 25 30 24 31 26 32 27 33 28 34 29 35
REMARK H PARENT 12 6 9 17 15 20 15 21
ROOT
ATOM     1   N1  UNL     1      -1.496   0.570   0.484  1.00  0.00    -0.209 N   
ATOM     2   C10 UNL     1      -1.250  -0.106   1.644  1.00  0.00     0.046 A   
ATOM     3   C11 UNL     1       0.101   0.052   1.845  1.00  0.00     0.127 A   
ATOM     4   N3  UNL     1       0.619   0.797   0.819  1.00  0.00    -0.132 NA  
ATOM     5   N4  UNL     1      -0.367   1.103  -0.009  1.00  0.00    -0.076 NA  
ATOM     6   H12 UNL     1      -2.025  -0.632   2.178  1.00  0.00     0.083 HD  
ENDROOT
BRANCH   1   7
ATOM     7   C9  UNL     1      -2.752   0.713  -0.226  1.00  0.00     0.170 C   
BRANCH   7   8
ATOM     8   C8  UNL     1      -2.894  -0.358  -1.308  1.00  0.00     0.164 C   
BRANCH   8   9
ATOM     9   C7  UNL     1      -4.083  -0.079  -2.211  1.00  0.00    -0.015 A   
ATOM     10  C2  UNL     1      -3.927   0.461  -3.507  1.00  0.00    -0.045 A   
ATOM     11  C3  UNL     1      -5.066   0.688  -4.299  1.00  0.00     0.004 A   
ATOM     12  C4  UNL     1      -6.344   0.410  -3.816  1.00  0.00     0.000 A   
ATOM     13  C6  UNL     1      -5.385  -0.339  -1.737  1.00  0.00     0.007 A   
ATOM     14  C5  UNL     1      -6.505  -0.097  -2.532  1.00  0.00     0.000 A   
ATOM     15  C1  UNL     1      -2.579   0.808  -4.079  1.00  0.00     0.045 C   
ENDBRANCH   8   9
BRANCH   8  16
ATOM     16  O1  UNL     1      -3.055  -1.648  -0.693  1.00  0.00    -0.387 OA  
ATOM     17  H9  UNL     1      -3.441  -2.232  -1.373  1.00  0.00     0.211 HD  
ENDBRANCH   8  16
ENDBRANCH   7   8
ENDBRANCH   1   7
BRANCH   3  18
ATOM     18  C12 UNL     1       1.025  -0.511   2.885  1.00  0.00     0.120 C   
BRANCH  18  19
ATOM     19  N2  UNL     1       2.364  -0.779   2.238  1.00  0.00     0.250 N   
ATOM     20  H14 UNL     1       2.580   0.053   1.668  1.00  0.00     0.199 HD  
ATOM     21  H15 UNL     1       3.124  -0.865   2.916  1.00  0.00     0.199 HD  
BRANCH  19  22
ATOM     22  C13 UNL     1       2.407  -1.955   1.323  1.00  0.00     0.164 C   
BRANCH  22  23
ATOM     23  C14 UNL     1       3.734  -2.017   0.619  1.00  0.00    -0.002 A   
ATOM     24  C15 UNL     1       4.779  -2.828   1.120  1.00  0.00     0.012 A   
ATOM     25  C19 UNL     1       3.961  -1.214  -0.513  1.00  0.00     0.045 A   
ATOM     26  C16 UNL     1       6.033  -2.846   0.500  1.00  0.00     0.037 A   
ATOM     27  C18 UNL     1       5.209  -1.254  -1.098  1.00  0.00     0.109 A   
ATOM     28  C17 UNL     1       6.216  -2.045  -0.605  1.00  0.00     0.108 A   
ATOM     29  O2  UNL     1       5.597  -0.537  -2.184  1.00  0.00    -0.316 OA  
ATOM     30  O3  UNL     1       7.365  -1.927  -1.320  1.00  0.00    -0.316 OA  
ATOM     31  C20 UNL     1       6.961  -0.986  -2.338  1.00  0.00     0.337 C   
ENDBRANCH  22  23
ENDBRANCH  19  22
ENDBRANCH  18  19
BRANCH  18  32
ATOM     32  C21 UNL     1       1.202   0.400   4.149  1.00  0.00     0.010 C   
ATOM     33  C22 UNL     1       2.063  -0.320   5.213  1.00  0.00     0.017 C   
ATOM     34  C23 UNL     1       1.870   1.749   3.819  1.00  0.00     0.017 C   
ATOM     35  C24 UNL     1      -0.171   0.684   4.800  1.00  0.00     0.017 C   
ENDBRANCH  18  32
ENDBRANCH   3  18
TORSDOF 9
