REMARK SMILES CN(C)c1ccccc1Cn1cc([C@@H]([NH2+]Cc2ccc3c(c2)OCO3)C2CCCCC2)nn1
REMARK SMILES IDX 11 1 12 2 13 3 32 4 33 5 10 7 9 8 4 9 5 10 6 11 8 12 7 13
REMARK SMILES IDX 2 14 1 15 3 16 14 17 15 18 16 21 17 22 18 23 22 24 19 25
REMARK SMILES IDX 21 26 20 27 23 28 25 29 24 30 26 31 27 32 31 33 28 34 30 35
REMARK SMILES IDX 29 36
REMARK H PARENT 12 6 15 19 15 20
ROOT
ATOM     1   N2  UNL     1       1.249   0.046   2.839  1.00  0.00    -0.208 N   
ATOM     2   C10 UNL     1       0.456   0.743   1.966  1.00  0.00     0.046 A   
ATOM     3   C11 UNL     1       1.210   0.821   0.818  1.00  0.00     0.127 A   
ATOM     4   N4  UNL     1       2.441   0.262   1.048  1.00  0.00    -0.132 NA  
ATOM     5   N5  UNL     1       2.466  -0.176   2.295  1.00  0.00    -0.076 NA  
ATOM     6   H13 UNL     1      -0.549   1.053   2.218  1.00  0.00     0.083 HD  
ENDROOT
BRANCH   1   7
ATOM     7   C9  UNL     1       0.981  -0.368   4.210  1.00  0.00     0.171 C   
BRANCH   7   8
ATOM     8   C8  UNL     1      -0.482  -0.634   4.483  1.00  0.00    -0.007 A   
ATOM     9   C3  UNL     1      -1.153  -1.724   3.883  1.00  0.00     0.033 A   
ATOM     10  C4  UNL     1      -2.515  -1.913   4.167  1.00  0.00     0.024 A   
ATOM     11  C5  UNL     1      -3.204  -1.044   5.015  1.00  0.00     0.002 A   
ATOM     12  C7  UNL     1      -1.188   0.233   5.338  1.00  0.00     0.007 A   
ATOM     13  C6  UNL     1      -2.540   0.029   5.599  1.00  0.00     0.000 A   
BRANCH   9  14
ATOM     14  N1  UNL     1      -0.429  -2.599   3.040  1.00  0.00    -0.337 N   
ATOM     15  C1  UNL     1      -1.110  -2.933   1.785  1.00  0.00     0.129 C   
ATOM     16  C2  UNL     1       0.013  -3.787   3.789  1.00  0.00     0.129 C   
ENDBRANCH   9  14
ENDBRANCH   7   8
ENDBRANCH   1   7
BRANCH   3  17
ATOM     17  C12 UNL     1       0.892   1.375  -0.533  1.00  0.00     0.117 C   
BRANCH  17  18
ATOM     18  N3  UNL     1       2.161   1.529  -1.339  1.00  0.00     0.249 N   
ATOM     19  H15 UNL     1       1.980   1.480  -2.343  1.00  0.00     0.199 HD  
ATOM     20  H16 UNL     1       2.743   0.712  -1.097  1.00  0.00     0.199 HD  
BRANCH  18  21
ATOM     21  C13 UNL     1       2.973   2.745  -1.044  1.00  0.00     0.164 C   
BRANCH  21  22
ATOM     22  C14 UNL     1       2.358   3.994  -1.612  1.00  0.00    -0.002 A   
ATOM     23  C15 UNL     1       2.366   4.226  -3.009  1.00  0.00     0.012 A   
ATOM     24  C19 UNL     1       1.742   4.928  -0.761  1.00  0.00     0.045 A   
ATOM     25  C16 UNL     1       1.762   5.364  -3.553  1.00  0.00     0.037 A   
ATOM     26  C18 UNL     1       1.155   6.039  -1.329  1.00  0.00     0.109 A   
ATOM     27  C17 UNL     1       1.162   6.250  -2.686  1.00  0.00     0.108 A   
ATOM     28  O1  UNL     1       0.516   7.029  -0.653  1.00  0.00    -0.316 OA  
ATOM     29  O2  UNL     1       0.530   7.401  -3.034  1.00  0.00    -0.316 OA  
ATOM     30  C20 UNL     1       0.139   7.905  -1.739  1.00  0.00     0.337 C   
ENDBRANCH  21  22
ENDBRANCH  18  21
ENDBRANCH  17  18
BRANCH  17  31
ATOM     31  C21 UNL     1      -0.128   0.486  -1.297  1.00  0.00     0.043 C   
ATOM     32  C22 UNL     1      -0.691   1.201  -2.542  1.00  0.00     0.010 C   
ATOM     33  C26 UNL     1       0.417  -0.905  -1.679  1.00  0.00     0.010 C   
ATOM     34  C23 UNL     1      -1.749   0.352  -3.245  1.00  0.00     0.001 C   
ATOM     35  C25 UNL     1      -0.645  -1.747  -2.384  1.00  0.00     0.001 C   
ATOM     36  C24 UNL     1      -1.214  -1.030  -3.604  1.00  0.00     0.000 C   
ENDBRANCH  17  31
ENDBRANCH   3  17
TORSDOF 8
