REMARK SMILES Cc1ccnc([C@@H](CO)n2cc([C@H](CC(C)C)[NH2+]Cc3ccc4c(c3)OCO4)nn2)c1
REMARK SMILES IDX 10 1 11 2 12 3 29 4 30 5 7 7 6 8 2 9 3 10 31 11 4 12 5 13
REMARK SMILES IDX 1 14 8 15 9 16 13 18 14 19 15 20 16 21 17 22 18 23 19 26
REMARK SMILES IDX 20 27 21 28 25 29 22 30 24 31 23 32 26 33 28 34 27 35
REMARK H PARENT 11 6 9 17 18 24 18 25
ROOT
ATOM     1   N2  UNL     1       0.911   1.884   0.825  1.00  0.00    -0.201 N   
ATOM     2   C8  UNL     1       0.474   0.988  -0.117  1.00  0.00     0.046 A   
ATOM     3   C9  UNL     1      -0.848   0.769   0.213  1.00  0.00     0.127 A   
ATOM     4   N4  UNL     1      -1.170   1.537   1.305  1.00  0.00    -0.132 NA  
ATOM     5   N5  UNL     1      -0.091   2.215   1.668  1.00  0.00    -0.075 NA  
ATOM     6   H10 UNL     1       1.124   0.616  -0.902  1.00  0.00     0.083 HD  
ENDROOT
BRANCH   1   7
ATOM     7   C6  UNL     1       2.220   2.514   0.955  1.00  0.00     0.174 C   
BRANCH   7   8
ATOM     8   C5  UNL     1       3.303   1.458   1.074  1.00  0.00     0.065 A   
ATOM     9   C2  UNL     1       4.579  -0.091   2.409  1.00  0.00    -0.048 A   
ATOM     10  C3  UNL     1       5.252  -0.473   1.248  1.00  0.00     0.023 A   
ATOM     11  C23 UNL     1       3.581   0.882   2.314  1.00  0.00     0.029 A   
ATOM     12  C4  UNL     1       4.911   0.135   0.054  1.00  0.00     0.111 A   
ATOM     13  N1  UNL     1       3.949   1.079  -0.061  1.00  0.00    -0.259 NA  
ATOM     14  C1  UNL     1       4.880  -0.753   3.721  1.00  0.00     0.044 C   
ENDBRANCH   7   8
BRANCH   7  15
ATOM     15  C7  UNL     1       2.464   3.525  -0.181  1.00  0.00     0.187 C   
BRANCH  15  16
ATOM     16  O1  UNL     1       2.496   2.921  -1.480  1.00  0.00    -0.394 OA  
ATOM     17  H9  UNL     1       3.231   2.267  -1.438  1.00  0.00     0.210 HD  
ENDBRANCH  15  16
ENDBRANCH   7  15
ENDBRANCH   1   7
BRANCH   3  18
ATOM     18  C10 UNL     1      -1.903  -0.033  -0.475  1.00  0.00     0.114 C   
BRANCH  18  19
ATOM     19  C11 UNL     1      -1.390  -1.341  -1.109  1.00  0.00     0.064 C   
BRANCH  19  20
ATOM     20  C12 UNL     1      -0.786  -2.355  -0.114  1.00  0.00    -0.012 C   
ATOM     21  C13 UNL     1      -0.231  -3.563  -0.874  1.00  0.00     0.007 C   
ATOM     22  C14 UNL     1      -1.806  -2.826   0.923  1.00  0.00     0.007 C   
ENDBRANCH  19  20
ENDBRANCH  18  19
BRANCH  18  23
ATOM     23  N3  UNL     1      -2.531   0.789  -1.578  1.00  0.00     0.249 N   
ATOM     24  H21 UNL     1      -1.782   1.272  -2.095  1.00  0.00     0.199 HD  
ATOM     25  H22 UNL     1      -3.002   0.184  -2.260  1.00  0.00     0.199 HD  
BRANCH  23  26
ATOM     26  C15 UNL     1      -3.509   1.817  -1.106  1.00  0.00     0.164 C   
BRANCH  26  27
ATOM     27  C16 UNL     1      -3.956   2.686  -2.250  1.00  0.00    -0.002 A   
ATOM     28  C17 UNL     1      -3.396   3.976  -2.416  1.00  0.00     0.012 A   
ATOM     29  C21 UNL     1      -4.901   2.214  -3.179  1.00  0.00     0.045 A   
ATOM     30  C18 UNL     1      -3.779   4.792  -3.485  1.00  0.00     0.037 A   
ATOM     31  C20 UNL     1      -5.248   3.041  -4.227  1.00  0.00     0.109 A   
ATOM     32  C19 UNL     1      -4.709   4.295  -4.372  1.00  0.00     0.108 A   
ATOM     33  O2  UNL     1      -6.131   2.739  -5.216  1.00  0.00    -0.316 OA  
ATOM     34  O3  UNL     1      -5.196   4.946  -5.459  1.00  0.00    -0.316 OA  
ATOM     35  C22 UNL     1      -6.090   3.952  -6.000  1.00  0.00     0.337 C   
ENDBRANCH  26  27
ENDBRANCH  23  26
ENDBRANCH  18  23
ENDBRANCH   3  18
TORSDOF 10
