REMARK SMILES Cc1ccnc([C@H](CO)n2cc([C@H](CC(C)C)[NH2+]Cc3ccc4c(c3)OCO4)nn2)c1
REMARK SMILES IDX 10 1 11 2 12 3 29 4 30 5 7 7 6 8 2 9 3 10 31 11 4 12 5 13
REMARK SMILES IDX 1 14 8 15 9 16 13 18 14 19 15 20 16 21 17 22 18 23 19 26
REMARK SMILES IDX 20 27 21 28 25 29 22 30 24 31 23 32 26 33 28 34 27 35
REMARK H PARENT 11 6 9 17 18 24 18 25
ROOT
ATOM     1   N2  UNL     1       3.019   1.720  -0.567  1.00  0.00    -0.201 N   
ATOM     2   C8  UNL     1       2.127   0.791  -0.098  1.00  0.00     0.046 A   
ATOM     3   C9  UNL     1       1.361   0.476  -1.194  1.00  0.00     0.127 A   
ATOM     4   N4  UNL     1       1.762   1.239  -2.260  1.00  0.00    -0.132 NA  
ATOM     5   N5  UNL     1       2.754   2.016  -1.859  1.00  0.00    -0.075 NA  
ATOM     6   H10 UNL     1       2.141   0.440   0.924  1.00  0.00     0.083 HD  
ENDROOT
BRANCH   1   7
ATOM     7   C6  UNL     1       4.102   2.412   0.132  1.00  0.00     0.174 C   
BRANCH   7   8
ATOM     8   C5  UNL     1       4.848   1.462   1.053  1.00  0.00     0.065 A   
ATOM     9   C2  UNL     1       5.446   0.568   3.219  1.00  0.00    -0.048 A   
ATOM     10  C3  UNL     1       6.297  -0.329   2.576  1.00  0.00     0.023 A   
ATOM     11  C23 UNL     1       4.722   1.482   2.444  1.00  0.00     0.029 A   
ATOM     12  C4  UNL     1       6.367  -0.295   1.196  1.00  0.00     0.111 A   
ATOM     13  N1  UNL     1       5.661   0.566   0.431  1.00  0.00    -0.259 NA  
ATOM     14  C1  UNL     1       5.359   0.598   4.717  1.00  0.00     0.044 C   
ENDBRANCH   7   8
BRANCH   7  15
ATOM     15  C7  UNL     1       3.613   3.743   0.730  1.00  0.00     0.187 C   
BRANCH  15  16
ATOM     16  O1  UNL     1       2.518   3.579   1.639  1.00  0.00    -0.394 OA  
ATOM     17  H9  UNL     1       2.296   4.468   1.975  1.00  0.00     0.210 HD  
ENDBRANCH  15  16
ENDBRANCH   7  15
ENDBRANCH   1   7
BRANCH   3  18
ATOM     18  C10 UNL     1       0.231  -0.488  -1.359  1.00  0.00     0.114 C   
BRANCH  18  19
ATOM     19  C11 UNL     1       0.763  -1.904  -1.659  1.00  0.00     0.064 C   
BRANCH  19  20
ATOM     20  C12 UNL     1      -0.291  -3.028  -1.751  1.00  0.00    -0.012 C   
ATOM     21  C13 UNL     1       0.406  -4.362  -2.033  1.00  0.00     0.007 C   
ATOM     22  C14 UNL     1      -1.135  -3.148  -0.482  1.00  0.00     0.007 C   
ENDBRANCH  19  20
ENDBRANCH  18  19
BRANCH  18  23
ATOM     23  N3  UNL     1      -0.663  -0.048  -2.494  1.00  0.00     0.249 N   
ATOM     24  H21 UNL     1      -0.031   0.183  -3.274  1.00  0.00     0.199 HD  
ATOM     25  H22 UNL     1      -1.266  -0.809  -2.807  1.00  0.00     0.199 HD  
BRANCH  23  26
ATOM     26  C15 UNL     1      -1.503   1.158  -2.234  1.00  0.00     0.164 C   
BRANCH  26  27
ATOM     27  C16 UNL     1      -2.638   0.876  -1.288  1.00  0.00    -0.002 A   
ATOM     28  C17 UNL     1      -2.588   1.339   0.048  1.00  0.00     0.012 A   
ATOM     29  C21 UNL     1      -3.745   0.123  -1.718  1.00  0.00     0.045 A   
ATOM     30  C18 UNL     1      -3.621   1.054   0.947  1.00  0.00     0.037 A   
ATOM     31  C20 UNL     1      -4.747  -0.138  -0.806  1.00  0.00     0.109 A   
ATOM     32  C19 UNL     1      -4.686   0.312   0.489  1.00  0.00     0.108 A   
ATOM     33  O2  UNL     1      -5.879  -0.846  -1.057  1.00  0.00    -0.316 OA  
ATOM     34  O3  UNL     1      -5.771  -0.057   1.218  1.00  0.00    -0.316 OA  
ATOM     35  C22 UNL     1      -6.549  -0.753   0.221  1.00  0.00     0.337 C   
ENDBRANCH  26  27
ENDBRANCH  23  26
ENDBRANCH  18  23
ENDBRANCH   3  18
TORSDOF 10
