REMARK SMILES c1ccc2c(c1)CC(Cn1cc([C@@H]([NH2+]Cc3ccc4c(c3)OCO4)C3CCCC3)nn1)C2
REMARK SMILES IDX 13 1 12 2 10 3 11 4 31 5 30 6 9 8 8 9 1 10 2 11 6 12 3 13
REMARK SMILES IDX 5 14 4 15 7 16 32 17 14 18 15 21 16 22 17 23 21 24 18 25
REMARK SMILES IDX 20 26 19 27 22 28 24 29 23 30 25 31 26 32 29 33 27 34 28 35
REMARK H PARENT 11 7 14 19 14 20
ROOT
ATOM     1   C12 UNL     1       0.343   0.969  -1.577  1.00  0.00     0.117 C   
ENDROOT
BRANCH   1   2
ATOM     2   C11 UNL     1      -0.832   0.052  -1.504  1.00  0.00     0.127 A   
ATOM     3   N1  UNL     1      -2.761  -0.899  -1.338  1.00  0.00    -0.212 N   
ATOM     4   C10 UNL     1      -2.172   0.269  -1.730  1.00  0.00     0.045 A   
ATOM     5   N4  UNL     1      -1.838  -1.807  -0.974  1.00  0.00    -0.076 NA  
ATOM     6   N3  UNL     1      -0.651  -1.231  -1.056  1.00  0.00    -0.132 NA  
ATOM     7   H10 UNL     1      -2.741   1.124  -2.066  1.00  0.00     0.083 HD  
BRANCH   3   8
ATOM     8   C9  UNL     1      -4.169  -1.226  -1.292  1.00  0.00     0.138 C   
BRANCH   8   9
ATOM     9   C8  UNL     1      -4.914  -0.849   0.007  1.00  0.00     0.017 C   
ATOM     10  C1  UNL     1      -2.437   2.119   2.684  1.00  0.00     0.000 A   
ATOM     11  C2  UNL     1      -2.033   0.914   3.279  1.00  0.00     0.000 A   
ATOM     12  C6  UNL     1      -3.385   2.123   1.657  1.00  0.00     0.004 A   
ATOM     13  C3  UNL     1      -2.569  -0.303   2.851  1.00  0.00     0.004 A   
ATOM     14  C5  UNL     1      -3.911   0.911   1.242  1.00  0.00    -0.044 A   
ATOM     15  C4  UNL     1      -3.507  -0.289   1.832  1.00  0.00    -0.044 A   
ATOM     16  C7  UNL     1      -4.997   0.678   0.240  1.00  0.00     0.041 C   
ATOM     17  C26 UNL     1      -4.279  -1.449   1.283  1.00  0.00     0.041 C   
ENDBRANCH   8   9
ENDBRANCH   3   8
ENDBRANCH   1   2
BRANCH   1  18
ATOM     18  N2  UNL     1       1.290   0.657  -0.449  1.00  0.00     0.249 N   
ATOM     19  H12 UNL     1       1.378  -0.370  -0.419  1.00  0.00     0.199 HD  
ATOM     20  H13 UNL     1       2.232   1.024  -0.611  1.00  0.00     0.199 HD  
BRANCH  18  21
ATOM     21  C13 UNL     1       0.810   1.079   0.897  1.00  0.00     0.164 C   
BRANCH  21  22
ATOM     22  C14 UNL     1       1.753   0.610   1.967  1.00  0.00    -0.002 A   
ATOM     23  C15 UNL     1       2.785   1.454   2.439  1.00  0.00     0.012 A   
ATOM     24  C19 UNL     1       1.641  -0.699   2.472  1.00  0.00     0.045 A   
ATOM     25  C16 UNL     1       3.690   1.007   3.409  1.00  0.00     0.037 A   
ATOM     26  C18 UNL     1       2.549  -1.107   3.425  1.00  0.00     0.109 A   
ATOM     27  C17 UNL     1       3.545  -0.279   3.881  1.00  0.00     0.108 A   
ATOM     28  O1  UNL     1       2.581  -2.332   4.014  1.00  0.00    -0.316 OA  
ATOM     29  O2  UNL     1       4.330  -0.877   4.814  1.00  0.00    -0.316 OA  
ATOM     30  C20 UNL     1       3.708  -2.178   4.905  1.00  0.00     0.337 C   
ENDBRANCH  21  22
ENDBRANCH  18  21
ENDBRANCH   1  18
BRANCH   1  31
ATOM     31  C21 UNL     1       1.065   0.882  -2.934  1.00  0.00     0.043 C   
ATOM     32  C22 UNL     1       1.786  -0.437  -3.237  1.00  0.00     0.010 C   
ATOM     33  C25 UNL     1       2.135   1.969  -3.153  1.00  0.00     0.010 C   
ATOM     34  C23 UNL     1       2.745  -0.051  -4.352  1.00  0.00     0.001 C   
ATOM     35  C24 UNL     1       3.290   1.291  -3.890  1.00  0.00     0.001 C   
ENDBRANCH   1  31
TORSDOF 7
