REMARK SMILES CCOc1ccc(Cn2cc([C@@H]([NH2+]Cc3ccc4c(c3)OCO4)C3CCCC3)nn2)cc1
REMARK SMILES IDX 9 1 10 2 11 3 29 4 30 5 8 7 7 8 4 9 5 10 32 11 6 12 31 13
REMARK SMILES IDX 3 14 2 15 1 16 12 17 13 18 14 21 15 22 16 23 20 24 17 25
REMARK SMILES IDX 19 26 18 27 21 28 23 29 22 30 24 31 25 32 28 33 26 34 27 35
REMARK H PARENT 10 6 13 19 13 20
ROOT
ATOM     1   N1  UNL     1       0.879  -1.285  -2.082  1.00  0.00    -0.208 N   
ATOM     2   C8  UNL     1       1.816  -0.310  -1.874  1.00  0.00     0.046 A   
ATOM     3   C9  UNL     1       1.123   0.682  -1.213  1.00  0.00     0.127 A   
ATOM     4   N3  UNL     1      -0.188   0.303  -1.087  1.00  0.00    -0.132 NA  
ATOM     5   N4  UNL     1      -0.329  -0.886  -1.646  1.00  0.00    -0.076 NA  
ATOM     6   H10 UNL     1       2.853  -0.433  -2.160  1.00  0.00     0.083 HD  
ENDROOT
BRANCH   1   7
ATOM     7   C7  UNL     1       1.063  -2.602  -2.669  1.00  0.00     0.169 C   
BRANCH   7   8
ATOM     8   C6  UNL     1       1.289  -3.641  -1.599  1.00  0.00    -0.028 A   
ATOM     9   C3  UNL     1       1.694  -5.559   0.427  1.00  0.00     0.075 A   
ATOM     10  C4  UNL     1       0.404  -5.203   0.036  1.00  0.00     0.034 A   
ATOM     11  C25 UNL     1       2.787  -4.946  -0.188  1.00  0.00     0.034 A   
ATOM     12  C5  UNL     1       0.199  -4.251  -0.965  1.00  0.00     0.008 A   
ATOM     13  C24 UNL     1       2.586  -3.992  -1.194  1.00  0.00     0.008 A   
BRANCH   9  14
ATOM     14  O1  UNL     1       1.747  -6.508   1.409  1.00  0.00    -0.346 OA  
BRANCH  14  15
ATOM     15  C2  UNL     1       3.038  -6.887   1.886  1.00  0.00     0.164 C   
ATOM     16  C1  UNL     1       2.849  -7.949   2.953  1.00  0.00     0.035 C   
ENDBRANCH  14  15
ENDBRANCH   9  14
ENDBRANCH   7   8
ENDBRANCH   1   7
BRANCH   3  17
ATOM     17  C10 UNL     1       1.562   1.989  -0.625  1.00  0.00     0.117 C   
BRANCH  17  18
ATOM     18  N2  UNL     1       0.355   2.779  -0.189  1.00  0.00     0.249 N   
ATOM     19  H12 UNL     1      -0.308   2.087   0.200  1.00  0.00     0.199 HD  
ATOM     20  H13 UNL     1       0.552   3.434   0.573  1.00  0.00     0.199 HD  
BRANCH  18  21
ATOM     21  C11 UNL     1      -0.372   3.493  -1.276  1.00  0.00     0.164 C   
BRANCH  21  22
ATOM     22  C12 UNL     1      -1.701   3.986  -0.774  1.00  0.00    -0.002 A   
ATOM     23  C13 UNL     1      -1.861   5.323  -0.341  1.00  0.00     0.012 A   
ATOM     24  C17 UNL     1      -2.784   3.093  -0.682  1.00  0.00     0.045 A   
ATOM     25  C14 UNL     1      -3.085   5.768   0.174  1.00  0.00     0.037 A   
ATOM     26  C16 UNL     1      -3.975   3.563  -0.168  1.00  0.00     0.109 A   
ATOM     27  C15 UNL     1      -4.121   4.862   0.249  1.00  0.00     0.108 A   
ATOM     28  O2  UNL     1      -5.108   2.833  -0.004  1.00  0.00    -0.316 OA  
ATOM     29  O3  UNL     1      -5.368   5.117   0.725  1.00  0.00    -0.316 OA  
ATOM     30  C18 UNL     1      -5.997   3.828   0.554  1.00  0.00     0.337 C   
ENDBRANCH  21  22
ENDBRANCH  18  21
ENDBRANCH  17  18
BRANCH  17  31
ATOM     31  C19 UNL     1       2.526   1.772   0.559  1.00  0.00     0.043 C   
ATOM     32  C20 UNL     1       3.158   3.042   1.130  1.00  0.00     0.010 C   
ATOM     33  C23 UNL     1       1.925   1.118   1.806  1.00  0.00     0.010 C   
ATOM     34  C21 UNL     1       3.792   2.569   2.433  1.00  0.00     0.001 C   
ATOM     35  C22 UNL     1       2.948   1.385   2.907  1.00  0.00     0.001 C   
ENDBRANCH  17  31
ENDBRANCH   3  17
TORSDOF 9
