REMARK SMILES CC(C)(C)[C@H]([NH2+]Cc1ccc2c(c1)OCO2)c1cn(-c2cccc(N)c2)nn1
REMARK SMILES IDX 17 1 18 2 19 3 27 4 28 5 5 6 2 7 1 8 3 9 4 10 6 11 7 14 8 15
REMARK SMILES IDX 9 16 13 17 10 18 12 19 11 20 14 21 16 22 15 23 20 24 21 25
REMARK SMILES IDX 26 26 22 27 24 28 23 29 25 30
REMARK H PARENT 6 12 6 13 25 31 25 32
ROOT
ATOM     1   C14 UNL     1       0.893   0.131   0.929  1.00  0.00     0.128 A   
ATOM     2   C15 UNL     1       1.431  -0.963   1.571  1.00  0.00     0.135 A   
ATOM     3   N2  UNL     1       0.473  -1.349   2.490  1.00  0.00    -0.181 N   
ATOM     4   N4  UNL     1      -0.606  -0.533   2.360  1.00  0.00    -0.071 NA  
ATOM     5   N5  UNL     1      -0.357   0.370   1.427  1.00  0.00    -0.131 NA  
ENDROOT
BRANCH   1   6
ATOM     6   C5  UNL     1       1.408   0.978  -0.199  1.00  0.00     0.120 C   
BRANCH   6   7
ATOM     7   C2  UNL     1       2.243   2.224   0.264  1.00  0.00     0.010 C   
ATOM     8   C1  UNL     1       2.849   2.949  -0.961  1.00  0.00     0.017 C   
ATOM     9   C3  UNL     1       1.401   3.240   1.061  1.00  0.00     0.017 C   
ATOM     10  C4  UNL     1       3.429   1.776   1.149  1.00  0.00     0.017 C   
ENDBRANCH   6   7
BRANCH   6  11
ATOM     11  N1  UNL     1       0.237   1.418  -1.047  1.00  0.00     0.250 N   
ATOM     12  H11 UNL     1       0.456   2.229  -1.631  1.00  0.00     0.199 HD  
ATOM     13  H12 UNL     1      -0.501   1.728  -0.396  1.00  0.00     0.199 HD  
BRANCH  11  14
ATOM     14  C6  UNL     1      -0.362   0.362  -1.911  1.00  0.00     0.164 C   
BRANCH  14  15
ATOM     15  C7  UNL     1      -1.567   0.898  -2.629  1.00  0.00    -0.002 A   
ATOM     16  C8  UNL     1      -2.838   0.866  -2.005  1.00  0.00     0.012 A   
ATOM     17  C12 UNL     1      -1.433   1.488  -3.898  1.00  0.00     0.045 A   
ATOM     18  C9  UNL     1      -3.963   1.402  -2.639  1.00  0.00     0.037 A   
ATOM     19  C11 UNL     1      -2.563   2.007  -4.494  1.00  0.00     0.109 A   
ATOM     20  C10 UNL     1      -3.792   1.966  -3.884  1.00  0.00     0.108 A   
ATOM     21  O1  UNL     1      -2.607   2.609  -5.712  1.00  0.00    -0.316 OA  
ATOM     22  O2  UNL     1      -4.766   2.535  -4.641  1.00  0.00    -0.316 OA  
ATOM     23  C13 UNL     1      -4.015   2.922  -5.812  1.00  0.00     0.337 C   
ENDBRANCH  14  15
ENDBRANCH  11  14
ENDBRANCH   6  11
ENDBRANCH   1   6
BRANCH   3  24
ATOM     24  C16 UNL     1       0.505  -2.412   3.425  1.00  0.00     0.059 A   
ATOM     25  C17 UNL     1      -0.610  -2.645   4.242  1.00  0.00     0.026 A   
ATOM     26  C21 UNL     1       1.630  -3.245   3.535  1.00  0.00     0.049 A   
ATOM     27  C18 UNL     1      -0.606  -3.717   5.133  1.00  0.00     0.004 A   
ATOM     28  C20 UNL     1       1.658  -4.286   4.469  1.00  0.00     0.025 A   
ATOM     29  C19 UNL     1       0.513  -4.545   5.226  1.00  0.00     0.023 A   
BRANCH  28  30
ATOM     30  N3  UNL     1       2.726  -5.189   4.483  1.00  0.00    -0.358 N   
ATOM     31  H24 UNL     1       3.623  -4.797   4.217  1.00  0.00     0.143 HD  
ATOM     32  H25 UNL     1       2.793  -5.737   5.337  1.00  0.00     0.143 HD  
ENDBRANCH  28  30
ENDBRANCH   3  24
TORSDOF 7
