REMARK SMILES CC(C)C[C@H]([NH2+]Cc1ccc2c(c1)OCO2)c1cn(-c2ccnc(N)c2)nn1
REMARK SMILES IDX 17 1 18 2 19 3 27 4 28 5 5 6 4 7 2 8 1 9 3 10 6 11 7 14 8 15
REMARK SMILES IDX 9 16 13 17 10 18 12 19 11 20 14 21 16 22 15 23 20 24 21 25
REMARK SMILES IDX 26 26 22 27 24 28 23 29 25 30
REMARK H PARENT 6 12 6 13 25 31 25 32
ROOT
ATOM     1   C14 UNL     1       1.000   0.296  -0.750  1.00  0.00     0.127 A   
ATOM     2   C15 UNL     1       0.818   0.057   0.594  1.00  0.00     0.135 A   
ATOM     3   N2  UNL     1       0.593   1.302   1.147  1.00  0.00    -0.180 N   
ATOM     4   N5  UNL     1       0.745   2.245   0.180  1.00  0.00    -0.071 NA  
ATOM     5   N6  UNL     1       0.972   1.642  -0.976  1.00  0.00    -0.131 NA  
ENDROOT
BRANCH   1   6
ATOM     6   C5  UNL     1       1.096  -0.642  -1.911  1.00  0.00     0.114 C   
BRANCH   6   7
ATOM     7   C4  UNL     1       2.535  -0.691  -2.460  1.00  0.00     0.064 C   
BRANCH   7   8
ATOM     8   C2  UNL     1       2.806  -1.732  -3.568  1.00  0.00    -0.012 C   
ATOM     9   C1  UNL     1       2.501  -3.162  -3.118  1.00  0.00     0.007 C   
ATOM     10  C3  UNL     1       4.268  -1.635  -4.016  1.00  0.00     0.007 C   
ENDBRANCH   7   8
ENDBRANCH   6   7
BRANCH   6  11
ATOM     11  N1  UNL     1       0.156  -0.182  -3.006  1.00  0.00     0.249 N   
ATOM     12  H11 UNL     1       0.130   0.848  -2.946  1.00  0.00     0.199 HD  
ATOM     13  H12 UNL     1       0.538  -0.395  -3.931  1.00  0.00     0.199 HD  
BRANCH  11  14
ATOM     14  C6  UNL     1      -1.247  -0.695  -2.940  1.00  0.00     0.164 C   
BRANCH  14  15
ATOM     15  C7  UNL     1      -2.007  -0.234  -1.728  1.00  0.00    -0.002 A   
ATOM     16  C8  UNL     1      -2.448   1.108  -1.629  1.00  0.00     0.012 A   
ATOM     17  C12 UNL     1      -2.230  -1.113  -0.652  1.00  0.00     0.045 A   
ATOM     18  C9  UNL     1      -3.078   1.576  -0.471  1.00  0.00     0.037 A   
ATOM     19  C11 UNL     1      -2.843  -0.615   0.480  1.00  0.00     0.109 A   
ATOM     20  C10 UNL     1      -3.253   0.692   0.569  1.00  0.00     0.108 A   
ATOM     21  O1  UNL     1      -3.083  -1.313   1.621  1.00  0.00    -0.316 OA  
ATOM     22  O2  UNL     1      -3.815   0.978   1.771  1.00  0.00    -0.316 OA  
ATOM     23  C13 UNL     1      -3.736  -0.304   2.429  1.00  0.00     0.337 C   
ENDBRANCH  14  15
ENDBRANCH  11  14
ENDBRANCH   6  11
ENDBRANCH   1   6
BRANCH   3  24
ATOM     24  C16 UNL     1       0.201   1.633   2.464  1.00  0.00     0.062 A   
ATOM     25  C17 UNL     1      -0.022   2.968   2.805  1.00  0.00     0.046 A   
ATOM     26  C20 UNL     1      -0.009   0.639   3.424  1.00  0.00     0.070 A   
ATOM     27  C18 UNL     1      -0.463   3.242   4.086  1.00  0.00     0.115 A   
ATOM     28  C19 UNL     1      -0.452   1.018   4.682  1.00  0.00     0.117 A   
ATOM     29  N3  UNL     1      -0.686   2.293   5.020  1.00  0.00    -0.242 NA  
BRANCH  28  30
ATOM     30  N4  UNL     1      -0.725   0.058   5.652  1.00  0.00    -0.343 N   
ATOM     31  H23 UNL     1       0.081  -0.524   5.848  1.00  0.00     0.144 HD  
ATOM     32  H24 UNL     1      -1.013   0.566   6.488  1.00  0.00     0.144 HD  
ENDBRANCH  28  30
ENDBRANCH   3  24
TORSDOF 8
