REMARK SMILES [O-]N([O-])c1ccc(Cn2cc([C@@H]([NH2+]Cc3ccc4c(c3)OCO4)C3CCCC3)nn2)cc1
REMARK SMILES IDX 9 1 10 2 11 3 29 4 30 5 8 7 7 8 4 9 5 10 32 11 6 12 31 13
REMARK SMILES IDX 2 14 1 15 3 16 12 17 13 18 14 21 15 22 16 23 20 24 17 25
REMARK SMILES IDX 19 26 18 27 21 28 23 29 22 30 24 31 25 32 28 33 26 34 27 35
REMARK H PARENT 10 6 13 19 13 20
ROOT
ATOM     1   N2  UNL     1       0.559  -1.935  -1.331  1.00  0.00    -0.208 N   
ATOM     2   C6  UNL     1       1.097  -0.807  -0.771  1.00  0.00     0.046 A   
ATOM     3   C7  UNL     1       1.233  -1.132   0.560  1.00  0.00     0.127 A   
ATOM     4   N4  UNL     1       0.785  -2.413   0.761  1.00  0.00    -0.132 NA  
ATOM     5   N5  UNL     1       0.378  -2.894  -0.402  1.00  0.00    -0.076 NA  
ATOM     6   H5  UNL     1       1.305   0.084  -1.346  1.00  0.00     0.083 HD  
ENDROOT
BRANCH   1   7
ATOM     7   C5  UNL     1       0.205  -2.169  -2.720  1.00  0.00     0.169 C   
BRANCH   7   8
ATOM     8   C4  UNL     1      -1.148  -1.580  -3.038  1.00  0.00    -0.028 A   
ATOM     9   C1  UNL     1      -3.663  -0.461  -3.551  1.00  0.00     0.118 A   
ATOM     10  C2  UNL     1      -3.577  -1.717  -2.940  1.00  0.00     0.031 A   
ATOM     11  C23 UNL     1      -2.505   0.234  -3.921  1.00  0.00     0.031 A   
ATOM     12  C3  UNL     1      -2.320  -2.270  -2.683  1.00  0.00     0.007 A   
ATOM     13  C22 UNL     1      -1.252  -0.326  -3.662  1.00  0.00     0.007 A   
BRANCH   9  14
ATOM     14  N1  UNL     1      -4.977   0.149  -3.777  1.00  0.00     0.092 N   
ATOM     15  O1  UNL     1      -5.974  -0.578  -3.676  1.00  0.00    -0.138 OA  
ATOM     16  O2  UNL     1      -5.006   1.359  -4.046  1.00  0.00    -0.138 OA  
ENDBRANCH   9  14
ENDBRANCH   7   8
ENDBRANCH   1   7
BRANCH   3  17
ATOM     17  C8  UNL     1       1.696  -0.335   1.737  1.00  0.00     0.117 C   
BRANCH  17  18
ATOM     18  N3  UNL     1       0.843  -0.710   2.935  1.00  0.00     0.249 N   
ATOM     19  H7  UNL     1       1.422  -0.891   3.760  1.00  0.00     0.199 HD  
ATOM     20  H8  UNL     1       0.420  -1.624   2.703  1.00  0.00     0.199 HD  
BRANCH  18  21
ATOM     21  C9  UNL     1      -0.247   0.238   3.296  1.00  0.00     0.164 C   
BRANCH  21  22
ATOM     22  C10 UNL     1      -1.259   0.462   2.207  1.00  0.00    -0.002 A   
ATOM     23  C11 UNL     1      -2.124  -0.583   1.799  1.00  0.00     0.012 A   
ATOM     24  C15 UNL     1      -1.353   1.717   1.581  1.00  0.00     0.045 A   
ATOM     25  C12 UNL     1      -3.067  -0.383   0.785  1.00  0.00     0.037 A   
ATOM     26  C14 UNL     1      -2.296   1.882   0.587  1.00  0.00     0.109 A   
ATOM     27  C13 UNL     1      -3.130   0.863   0.201  1.00  0.00     0.108 A   
ATOM     28  O3  UNL     1      -2.519   3.027  -0.109  1.00  0.00    -0.316 OA  
ATOM     29  O4  UNL     1      -3.988   1.240  -0.782  1.00  0.00    -0.316 OA  
ATOM     30  C16 UNL     1      -3.638   2.633  -0.936  1.00  0.00     0.337 C   
ENDBRANCH  21  22
ENDBRANCH  18  21
ENDBRANCH  17  18
BRANCH  17  31
ATOM     31  C17 UNL     1       3.173  -0.604   2.080  1.00  0.00     0.043 C   
ATOM     32  C18 UNL     1       4.141  -0.213   0.958  1.00  0.00     0.010 C   
ATOM     33  C21 UNL     1       3.701   0.227   3.258  1.00  0.00     0.010 C   
ATOM     34  C19 UNL     1       5.494  -0.195   1.651  1.00  0.00     0.001 C   
ATOM     35  C20 UNL     1       5.214   0.314   3.061  1.00  0.00     0.001 C   
ENDBRANCH  17  31
ENDBRANCH   3  17
TORSDOF 8
