REMARK SMILES Fc1cc(F)cc(CCn2cc([C@@H]([NH2+]Cc3ccc4c(c3)OCO4)C3CCCCC3)nn2)c1
REMARK SMILES IDX 10 1 11 2 12 3 31 4 32 5 9 7 8 8 7 9 2 10 3 11 33 12 4 13
REMARK SMILES IDX 6 14 1 15 5 16 13 17 14 18 15 21 16 22 17 23 21 24 18 25
REMARK SMILES IDX 20 26 19 27 22 28 24 29 23 30 25 31 26 32 30 33 27 34 29 35
REMARK SMILES IDX 28 36
REMARK H PARENT 11 6 14 19 14 20
ROOT
ATOM     1   N1  UNL     1      -1.204   0.757   0.859  1.00  0.00    -0.212 N   
ATOM     2   C8  UNL     1       0.015   0.166   0.687  1.00  0.00     0.045 A   
ATOM     3   C9  UNL     1      -0.013  -0.274  -0.618  1.00  0.00     0.127 A   
ATOM     4   N3  UNL     1      -1.233   0.030  -1.169  1.00  0.00    -0.132 NA  
ATOM     5   N4  UNL     1      -1.950   0.663  -0.256  1.00  0.00    -0.076 NA  
ATOM     6   H7  UNL     1       0.757   0.124   1.472  1.00  0.00     0.083 HD  
ENDROOT
BRANCH   1   7
ATOM     7   C7  UNL     1      -1.711   1.441   2.030  1.00  0.00     0.139 C   
BRANCH   7   8
ATOM     8   C6  UNL     1      -1.684   2.964   1.887  1.00  0.00     0.057 C   
BRANCH   8   9
ATOM     9   C5  UNL     1      -0.283   3.519   1.776  1.00  0.00    -0.041 A   
ATOM     10  C1  UNL     1       1.814   4.177   2.795  1.00  0.00     0.126 A   
ATOM     11  C2  UNL     1       2.355   4.481   1.555  1.00  0.00     0.078 A   
ATOM     12  C25 UNL     1       0.510   3.698   2.918  1.00  0.00     0.043 A   
ATOM     13  C3  UNL     1       1.570   4.303   0.426  1.00  0.00     0.126 A   
ATOM     14  C4  UNL     1       0.262   3.830   0.522  1.00  0.00     0.043 A   
ATOM     15  F1  UNL     1       2.560   4.331   3.895  1.00  0.00    -0.207 F   
ATOM     16  F2  UNL     1       2.081   4.571  -0.782  1.00  0.00    -0.207 F   
ENDBRANCH   8   9
ENDBRANCH   7   8
ENDBRANCH   1   7
BRANCH   3  17
ATOM     17  C10 UNL     1       0.982  -1.037  -1.429  1.00  0.00     0.117 C   
BRANCH  17  18
ATOM     18  N2  UNL     1       0.256  -2.057  -2.285  1.00  0.00     0.249 N   
ATOM     19  H9  UNL     1       0.695  -2.132  -3.208  1.00  0.00     0.199 HD  
ATOM     20  H10 UNL     1      -0.686  -1.667  -2.450  1.00  0.00     0.199 HD  
BRANCH  18  21
ATOM     21  C11 UNL     1       0.107  -3.425  -1.709  1.00  0.00     0.164 C   
BRANCH  21  22
ATOM     22  C12 UNL     1      -0.660  -3.472  -0.418  1.00  0.00    -0.002 A   
ATOM     23  C13 UNL     1       0.012  -3.712   0.806  1.00  0.00     0.012 A   
ATOM     24  C17 UNL     1      -2.047  -3.241  -0.409  1.00  0.00     0.045 A   
ATOM     25  C14 UNL     1      -0.681  -3.707   2.021  1.00  0.00     0.037 A   
ATOM     26  C16 UNL     1      -2.700  -3.244   0.806  1.00  0.00     0.109 A   
ATOM     27  C15 UNL     1      -2.036  -3.465   1.987  1.00  0.00     0.108 A   
ATOM     28  O1  UNL     1      -4.029  -3.031   0.989  1.00  0.00    -0.316 OA  
ATOM     29  O2  UNL     1      -2.863  -3.413   3.064  1.00  0.00    -0.316 OA  
ATOM     30  C18 UNL     1      -4.135  -3.174   2.423  1.00  0.00     0.337 C   
ENDBRANCH  21  22
ENDBRANCH  18  21
ENDBRANCH  17  18
BRANCH  17  31
ATOM     31  C19 UNL     1       1.864  -0.151  -2.349  1.00  0.00     0.043 C   
ATOM     32  C20 UNL     1       2.789   0.770  -1.530  1.00  0.00     0.010 C   
ATOM     33  C24 UNL     1       1.075   0.677  -3.383  1.00  0.00     0.010 C   
ATOM     34  C21 UNL     1       3.717   1.585  -2.429  1.00  0.00     0.001 C   
ATOM     35  C23 UNL     1       2.010   1.484  -4.284  1.00  0.00     0.001 C   
ATOM     36  C22 UNL     1       2.938   2.380  -3.471  1.00  0.00     0.000 C   
ENDBRANCH  17  31
ENDBRANCH   3  17
TORSDOF 8
