REMARK SMILES Cc1ccc(O)c([C@@H](CO)n2cc([C@H](CC(C)C)[NH2+]Cc3ccc4c(c3)OCO4)nn2)c1
REMARK SMILES IDX 11 1 12 2 13 3 30 4 31 5 8 7 7 8 2 9 3 10 32 11 4 12 5 13
REMARK SMILES IDX 1 14 6 15 9 17 10 18 14 20 15 21 16 22 17 23 18 24 19 25
REMARK SMILES IDX 20 28 21 29 22 30 26 31 23 32 25 33 24 34 27 35 29 36 28 37
REMARK H PARENT 12 6 6 16 10 19 19 26 19 27
ROOT
ATOM     1   N1  UNL     1       0.060   0.527   1.715  1.00  0.00    -0.202 N   
ATOM     2   C9  UNL     1      -0.034  -0.170   0.539  1.00  0.00     0.046 A   
ATOM     3   C10 UNL     1      -1.186   0.306  -0.042  1.00  0.00     0.127 A   
ATOM     4   N3  UNL     1      -1.753   1.246   0.779  1.00  0.00    -0.132 NA  
ATOM     5   N4  UNL     1      -0.989   1.369   1.852  1.00  0.00    -0.075 NA  
ATOM     6   H11 UNL     1       0.704  -0.905   0.248  1.00  0.00     0.083 HD  
ENDROOT
BRANCH   1   7
ATOM     7   C7  UNL     1       1.096   0.408   2.741  1.00  0.00     0.158 C   
BRANCH   7   8
ATOM     8   C6  UNL     1       2.046   1.591   2.651  1.00  0.00     0.007 A   
ATOM     9   C2  UNL     1       2.638   3.904   3.192  1.00  0.00    -0.051 A   
ATOM     10  C3  UNL     1       3.812   3.773   2.445  1.00  0.00     0.006 A   
ATOM     11  C24 UNL     1       1.755   2.818   3.276  1.00  0.00     0.012 A   
ATOM     12  C4  UNL     1       4.110   2.572   1.803  1.00  0.00     0.034 A   
ATOM     13  C5  UNL     1       3.229   1.497   1.906  1.00  0.00     0.076 A   
ATOM     14  C1  UNL     1       2.293   5.212   3.844  1.00  0.00     0.044 C   
BRANCH  13  15
ATOM     15  O1  UNL     1       3.511   0.325   1.260  1.00  0.00    -0.361 OA  
ATOM     16  H6  UNL     1       4.409   0.389   0.886  1.00  0.00     0.218 HD  
ENDBRANCH  13  15
ENDBRANCH   7   8
BRANCH   7  17
ATOM     17  C8  UNL     1       0.497   0.173   4.140  1.00  0.00     0.186 C   
BRANCH  17  18
ATOM     18  O2  UNL     1      -0.105  -1.125   4.215  1.00  0.00    -0.394 OA  
ATOM     19  H10 UNL     1      -0.387  -1.248   5.141  1.00  0.00     0.210 HD  
ENDBRANCH  17  18
ENDBRANCH   7  17
ENDBRANCH   1   7
BRANCH   3  20
ATOM     20  C11 UNL     1      -1.876  -0.081  -1.303  1.00  0.00     0.114 C   
BRANCH  20  21
ATOM     21  C12 UNL     1      -1.645   0.934  -2.440  1.00  0.00     0.064 C   
BRANCH  21  22
ATOM     22  C13 UNL     1      -0.179   1.081  -2.901  1.00  0.00    -0.012 C   
ATOM     23  C14 UNL     1      -0.084   2.167  -3.978  1.00  0.00     0.007 C   
ATOM     24  C15 UNL     1       0.397  -0.229  -3.440  1.00  0.00     0.007 C   
ENDBRANCH  21  22
ENDBRANCH  20  21
BRANCH  20  25
ATOM     25  N2  UNL     1      -3.374  -0.146  -1.074  1.00  0.00     0.249 N   
ATOM     26  H22 UNL     1      -3.644   0.767  -0.682  1.00  0.00     0.199 HD  
ATOM     27  H23 UNL     1      -3.861  -0.254  -1.968  1.00  0.00     0.199 HD  
BRANCH  25  28
ATOM     28  C16 UNL     1      -3.853  -1.192  -0.120  1.00  0.00     0.164 C   
BRANCH  28  29
ATOM     29  C17 UNL     1      -3.561  -2.592  -0.582  1.00  0.00    -0.002 A   
ATOM     30  C18 UNL     1      -2.566  -3.362   0.068  1.00  0.00     0.012 A   
ATOM     31  C22 UNL     1      -4.249  -3.136  -1.681  1.00  0.00     0.045 A   
ATOM     32  C19 UNL     1      -2.253  -4.652  -0.372  1.00  0.00     0.037 A   
ATOM     33  C21 UNL     1      -3.916  -4.411  -2.088  1.00  0.00     0.109 A   
ATOM     34  C20 UNL     1      -2.946  -5.148  -1.455  1.00  0.00     0.108 A   
ATOM     35  O3  UNL     1      -4.476  -5.078  -3.131  1.00  0.00    -0.316 OA  
ATOM     36  O4  UNL     1      -2.774  -6.372  -2.017  1.00  0.00    -0.316 OA  
ATOM     37  C23 UNL     1      -3.768  -6.337  -3.064  1.00  0.00     0.337 C   
ENDBRANCH  28  29
ENDBRANCH  25  28
ENDBRANCH  20  25
ENDBRANCH   3  20
TORSDOF 11
