REMARK SMILES Cc1ccc(O)c([C@H](CO)n2cc([C@H](CC(C)C)[NH2+]Cc3ccc4c(c3)OCO4)nn2)c1
REMARK SMILES IDX 11 1 12 2 13 3 30 4 31 5 8 7 7 8 2 9 3 10 32 11 4 12 5 13
REMARK SMILES IDX 1 14 6 15 9 17 10 18 14 20 15 21 16 22 17 23 18 24 19 25
REMARK SMILES IDX 20 28 21 29 22 30 26 31 23 32 25 33 24 34 27 35 29 36 28 37
REMARK H PARENT 12 6 6 16 10 19 19 26 19 27
ROOT
ATOM     1   N1  UNL     1      -2.316   1.566  -1.099  1.00  0.00    -0.202 N   
ATOM     2   C9  UNL     1      -1.298   1.603  -0.178  1.00  0.00     0.046 A   
ATOM     3   C10 UNL     1      -0.161   1.758  -0.936  1.00  0.00     0.127 A   
ATOM     4   N3  UNL     1      -0.510   1.877  -2.254  1.00  0.00    -0.132 NA  
ATOM     5   N4  UNL     1      -1.824   1.760  -2.342  1.00  0.00    -0.075 NA  
ATOM     6   H11 UNL     1      -1.474   1.477   0.882  1.00  0.00     0.083 HD  
ENDROOT
BRANCH   1   7
ATOM     7   C7  UNL     1      -3.754   1.437  -0.849  1.00  0.00     0.158 C   
BRANCH   7   8
ATOM     8   C6  UNL     1      -4.045   0.363   0.197  1.00  0.00     0.007 A   
ATOM     9   C2  UNL     1      -5.063  -0.236   2.341  1.00  0.00    -0.051 A   
ATOM     10  C3  UNL     1      -4.643  -1.558   2.163  1.00  0.00     0.006 A   
ATOM     11  C24 UNL     1      -4.750   0.718   1.363  1.00  0.00     0.012 A   
ATOM     12  C4  UNL     1      -3.951  -1.930   1.011  1.00  0.00     0.034 A   
ATOM     13  C5  UNL     1      -3.665  -0.975   0.036  1.00  0.00     0.076 A   
ATOM     14  C1  UNL     1      -5.794   0.163   3.590  1.00  0.00     0.044 C   
BRANCH  13  15
ATOM     15  O1  UNL     1      -2.996  -1.346  -1.095  1.00  0.00    -0.361 OA  
ATOM     16  H6  UNL     1      -2.994  -2.320  -1.141  1.00  0.00     0.218 HD  
ENDBRANCH  13  15
ENDBRANCH   7   8
BRANCH   7  17
ATOM     17  C8  UNL     1      -4.600   1.228  -2.123  1.00  0.00     0.186 C   
BRANCH  17  18
ATOM     18  O2  UNL     1      -5.998   1.354  -1.843  1.00  0.00    -0.394 OA  
ATOM     19  H10 UNL     1      -6.282   0.540  -1.389  1.00  0.00     0.210 HD  
ENDBRANCH  17  18
ENDBRANCH   7  17
ENDBRANCH   1   7
BRANCH   3  20
ATOM     20  C11 UNL     1       1.280   1.750  -0.547  1.00  0.00     0.114 C   
BRANCH  20  21
ATOM     21  C12 UNL     1       1.798   3.189  -0.346  1.00  0.00     0.064 C   
BRANCH  21  22
ATOM     22  C13 UNL     1       3.276   3.337   0.075  1.00  0.00    -0.012 C   
ATOM     23  C14 UNL     1       3.607   2.561   1.349  1.00  0.00     0.007 C   
ATOM     24  C15 UNL     1       3.609   4.820   0.271  1.00  0.00     0.007 C   
ENDBRANCH  21  22
ENDBRANCH  20  21
BRANCH  20  25
ATOM     25  N2  UNL     1       2.124   1.066  -1.599  1.00  0.00     0.249 N   
ATOM     26  H22 UNL     1       3.113   1.114  -1.345  1.00  0.00     0.199 HD  
ATOM     27  H23 UNL     1       1.996   1.601  -2.467  1.00  0.00     0.199 HD  
BRANCH  25  28
ATOM     28  C16 UNL     1       1.785  -0.357  -1.913  1.00  0.00     0.164 C   
BRANCH  28  29
ATOM     29  C17 UNL     1       1.850  -1.271  -0.721  1.00  0.00    -0.002 A   
ATOM     30  C18 UNL     1       3.096  -1.654  -0.171  1.00  0.00     0.012 A   
ATOM     31  C22 UNL     1       0.660  -1.729  -0.126  1.00  0.00     0.045 A   
ATOM     32  C19 UNL     1       3.157  -2.478   0.959  1.00  0.00     0.037 A   
ATOM     33  C21 UNL     1       0.755  -2.539   0.985  1.00  0.00     0.109 A   
ATOM     34  C20 UNL     1       1.969  -2.902   1.513  1.00  0.00     0.108 A   
ATOM     35  O3  UNL     1      -0.291  -3.063   1.675  1.00  0.00    -0.316 OA  
ATOM     36  O4  UNL     1       1.841  -3.700   2.605  1.00  0.00    -0.316 OA  
ATOM     37  C23 UNL     1       0.405  -3.811   2.698  1.00  0.00     0.337 C   
ENDBRANCH  28  29
ENDBRANCH  25  28
ENDBRANCH  20  25
ENDBRANCH   3  20
TORSDOF 11
