REMARK SMILES CCCc1nc(C)c(Cn2cc([C@@H]([NH2+]Cc3ccc4c(c3)OCO4)C3CCCC3)nn2)o1
REMARK SMILES IDX 10 1 11 2 12 3 30 4 31 5 9 7 8 8 4 9 5 10 32 11 6 12 7 13
REMARK SMILES IDX 3 14 2 15 1 16 13 17 14 18 15 21 16 22 17 23 21 24 18 25
REMARK SMILES IDX 20 26 19 27 22 28 24 29 23 30 25 31 26 32 29 33 27 34 28 35
REMARK H PARENT 11 6 14 19 14 20
ROOT
ATOM     1   N2  UNL     1       0.170   2.082  -1.815  1.00  0.00    -0.206 N   
ATOM     2   C9  UNL     1      -0.500   0.919  -1.545  1.00  0.00     0.046 A   
ATOM     3   C10 UNL     1      -1.410   1.278  -0.577  1.00  0.00     0.127 A   
ATOM     4   N4  UNL     1      -1.279   2.616  -0.308  1.00  0.00    -0.132 NA  
ATOM     5   N5  UNL     1      -0.311   3.097  -1.070  1.00  0.00    -0.076 NA  
ATOM     6   H13 UNL     1      -0.248  -0.019  -2.022  1.00  0.00     0.083 HD  
ENDROOT
BRANCH   1   7
ATOM     7   C8  UNL     1       1.310   2.278  -2.694  1.00  0.00     0.197 C   
BRANCH   7   8
ATOM     8   C7  UNL     1       2.548   1.929  -1.970  1.00  0.00     0.102 A   
ATOM     9   C4  UNL     1       4.119   0.612  -1.295  1.00  0.00     0.148 A   
ATOM     10  N1  UNL     1       4.391   1.754  -0.699  1.00  0.00    -0.231 NA  
ATOM     11  O3  UNL     1       2.997   0.640  -2.080  1.00  0.00    -0.296 OA  
ATOM     12  C5  UNL     1       3.409   2.610  -1.135  1.00  0.00     0.068 A   
ATOM     13  C6  UNL     1       3.370   4.017  -0.686  1.00  0.00     0.069 C   
BRANCH   9  14
ATOM     14  C3  UNL     1       4.849  -0.679  -1.215  1.00  0.00     0.083 C   
BRANCH  14  15
ATOM     15  C2  UNL     1       4.154  -1.689  -0.302  1.00  0.00     0.005 C   
ATOM     16  C1  UNL     1       4.191  -1.291   1.168  1.00  0.00     0.004 C   
ENDBRANCH  14  15
ENDBRANCH   9  14
ENDBRANCH   7   8
ENDBRANCH   1   7
BRANCH   3  17
ATOM     17  C11 UNL     1      -2.376   0.460   0.215  1.00  0.00     0.117 C   
BRANCH  17  18
ATOM     18  N3  UNL     1      -2.303   0.856   1.676  1.00  0.00     0.249 N   
ATOM     19  H15 UNL     1      -2.455   1.873   1.706  1.00  0.00     0.199 HD  
ATOM     20  H16 UNL     1      -3.060   0.416   2.205  1.00  0.00     0.199 HD  
BRANCH  18  21
ATOM     21  C12 UNL     1      -1.009   0.578   2.373  1.00  0.00     0.164 C   
BRANCH  21  22
ATOM     22  C13 UNL     1      -0.709  -0.891   2.481  1.00  0.00    -0.002 A   
ATOM     23  C14 UNL     1      -1.406  -1.698   3.411  1.00  0.00     0.012 A   
ATOM     24  C18 UNL     1       0.238  -1.481   1.625  1.00  0.00     0.045 A   
ATOM     25  C15 UNL     1      -1.165  -3.075   3.489  1.00  0.00     0.037 A   
ATOM     26  C17 UNL     1       0.445  -2.841   1.723  1.00  0.00     0.109 A   
ATOM     27  C16 UNL     1      -0.234  -3.615   2.630  1.00  0.00     0.108 A   
ATOM     28  O1  UNL     1       1.308  -3.567   0.964  1.00  0.00    -0.316 OA  
ATOM     29  O2  UNL     1       0.123  -4.924   2.563  1.00  0.00    -0.316 OA  
ATOM     30  C19 UNL     1       1.133  -4.884   1.532  1.00  0.00     0.337 C   
ENDBRANCH  21  22
ENDBRANCH  18  21
ENDBRANCH  17  18
BRANCH  17  31
ATOM     31  C20 UNL     1      -3.828   0.653  -0.266  1.00  0.00     0.043 C   
ATOM     32  C21 UNL     1      -4.864  -0.178   0.506  1.00  0.00     0.010 C   
ATOM     33  C24 UNL     1      -4.054   0.198  -1.711  1.00  0.00     0.010 C   
ATOM     34  C22 UNL     1      -6.022  -0.421  -0.462  1.00  0.00     0.001 C   
ATOM     35  C23 UNL     1      -5.568   0.118  -1.814  1.00  0.00     0.001 C   
ENDBRANCH  17  31
ENDBRANCH   3  17
TORSDOF 9
