REMARK SMILES COc1ccc(O)c(CCn2cc([C@H](CC(C)C)[NH2+]Cc3ccc4c(c3)OCO4)nn2)c1
REMARK SMILES IDX 11 1 12 2 13 3 30 4 31 5 10 7 9 8 8 9 3 10 4 11 32 12 5 13
REMARK SMILES IDX 6 14 2 15 1 16 7 17 14 19 15 20 16 21 17 22 18 23 19 24
REMARK SMILES IDX 20 27 21 28 22 29 26 30 23 31 25 32 24 33 27 34 29 35 28 36
REMARK H PARENT 12 6 7 18 19 25 19 26
ROOT
ATOM     1   N1  UNL     1       0.858  -2.513  -2.750  1.00  0.00    -0.212 N   
ATOM     2   C9  UNL     1       1.233  -1.497  -1.911  1.00  0.00     0.045 A   
ATOM     3   C10 UNL     1       0.152  -0.643  -1.921  1.00  0.00     0.127 A   
ATOM     4   N3  UNL     1      -0.764  -1.098  -2.839  1.00  0.00    -0.132 NA  
ATOM     5   N4  UNL     1      -0.318  -2.237  -3.342  1.00  0.00    -0.076 NA  
ATOM     6   H11 UNL     1       2.130  -1.558  -1.309  1.00  0.00     0.083 HD  
ENDROOT
BRANCH   1   7
ATOM     7   C8  UNL     1       1.402  -3.859  -2.785  1.00  0.00     0.139 C   
BRANCH   7   8
ATOM     8   C7  UNL     1       0.599  -4.826  -1.903  1.00  0.00     0.060 C   
BRANCH   8   9
ATOM     9   C6  UNL     1       0.522  -4.370  -0.459  1.00  0.00    -0.014 A   
ATOM     10  C2  UNL     1      -0.616  -3.072   1.258  1.00  0.00     0.075 A   
ATOM     11  C3  UNL     1       0.441  -3.301   2.139  1.00  0.00     0.036 A   
ATOM     12  C24 UNL     1      -0.584  -3.619  -0.025  1.00  0.00     0.040 A   
ATOM     13  C4  UNL     1       1.533  -4.072   1.730  1.00  0.00     0.036 A   
ATOM     14  C5  UNL     1       1.574  -4.585   0.434  1.00  0.00     0.075 A   
BRANCH  10  15
ATOM     15  O1  UNL     1      -1.665  -2.231   1.534  1.00  0.00    -0.349 OA  
ATOM     16  C1  UNL     1      -2.236  -2.475   2.826  1.00  0.00     0.203 C   
ENDBRANCH  10  15
BRANCH  14  17
ATOM     17  O2  UNL     1       2.666  -5.277  -0.001  1.00  0.00    -0.361 OA  
ATOM     18  H6  UNL     1       3.224  -5.508   0.761  1.00  0.00     0.218 HD  
ENDBRANCH  14  17
ENDBRANCH   8   9
ENDBRANCH   7   8
ENDBRANCH   1   7
BRANCH   3  19
ATOM     19  C11 UNL     1      -0.254   0.491  -1.029  1.00  0.00     0.114 C   
BRANCH  19  20
ATOM     20  C12 UNL     1       0.751   0.836   0.083  1.00  0.00     0.064 C   
BRANCH  20  21
ATOM     21  C13 UNL     1       2.041   1.530  -0.410  1.00  0.00    -0.012 C   
ATOM     22  C14 UNL     1       1.764   2.920  -0.986  1.00  0.00     0.007 C   
ATOM     23  C15 UNL     1       3.038   1.643   0.747  1.00  0.00     0.007 C   
ENDBRANCH  20  21
ENDBRANCH  19  20
BRANCH  19  24
ATOM     24  N2  UNL     1      -1.566   0.067  -0.395  1.00  0.00     0.249 N   
ATOM     25  H22 UNL     1      -1.397  -0.724   0.247  1.00  0.00     0.199 HD  
ATOM     26  H23 UNL     1      -2.111  -0.350  -1.165  1.00  0.00     0.199 HD  
BRANCH  24  27
ATOM     27  C16 UNL     1      -2.412   1.086   0.271  1.00  0.00     0.164 C   
BRANCH  27  28
ATOM     28  C17 UNL     1      -2.786   2.235  -0.621  1.00  0.00    -0.002 A   
ATOM     29  C18 UNL     1      -3.719   2.053  -1.670  1.00  0.00     0.012 A   
ATOM     30  C22 UNL     1      -2.181   3.491  -0.444  1.00  0.00     0.045 A   
ATOM     31  C19 UNL     1      -4.044   3.105  -2.533  1.00  0.00     0.037 A   
ATOM     32  C21 UNL     1      -2.521   4.505  -1.314  1.00  0.00     0.109 A   
ATOM     33  C20 UNL     1      -3.425   4.319  -2.330  1.00  0.00     0.108 A   
ATOM     34  O3  UNL     1      -2.020   5.769  -1.289  1.00  0.00    -0.316 OA  
ATOM     35  O4  UNL     1      -3.614   5.443  -3.069  1.00  0.00    -0.316 OA  
ATOM     36  C23 UNL     1      -2.729   6.366  -2.399  1.00  0.00     0.337 C   
ENDBRANCH  27  28
ENDBRANCH  24  27
ENDBRANCH  19  24
ENDBRANCH   3  19
TORSDOF 11
