REMARK SMILES c1cc(-n2cc([C@@H]([NH2+]Cc3ccc4c(c3)OCO4)C3CCCC3)nn2)ccn1
REMARK SMILES IDX 7 1 6 2 4 3 5 4 25 5 24 6 3 7 1 8 2 9 28 10 27 11 26 12 8 13
REMARK SMILES IDX 9 16 10 17 11 18 15 19 12 20 14 21 13 22 16 23 18 24 17 25
REMARK SMILES IDX 19 26 20 27 23 28 21 29 22 30
REMARK H PARENT 8 14 8 15
ROOT
ATOM     1   C6  UNL     1      -1.255  -0.406  -0.176  1.00  0.00     0.117 C   
ENDROOT
BRANCH   1   2
ATOM     2   C5  UNL     1      -0.746  -1.620  -0.889  1.00  0.00     0.127 A   
ATOM     3   N1  UNL     1      -0.302  -3.597  -1.722  1.00  0.00    -0.181 N   
ATOM     4   C4  UNL     1      -1.150  -2.937  -0.853  1.00  0.00     0.135 A   
ATOM     5   N4  UNL     1       0.585  -2.702  -2.229  1.00  0.00    -0.071 NA  
ATOM     6   N3  UNL     1       0.315  -1.503  -1.742  1.00  0.00    -0.131 NA  
BRANCH   3   7
ATOM     7   C3  UNL     1      -0.274  -4.966  -2.080  1.00  0.00     0.061 A   
ATOM     8   C1  UNL     1      -1.105  -7.197  -1.943  1.00  0.00     0.113 A   
ATOM     9   C2  UNL     1      -1.195  -5.872  -1.546  1.00  0.00     0.046 A   
ATOM     10  N5  UNL     1      -0.183  -7.658  -2.810  1.00  0.00    -0.265 NA  
ATOM     11  C21 UNL     1       0.694  -6.766  -3.314  1.00  0.00     0.113 A   
ATOM     12  C20 UNL     1       0.691  -5.422  -2.984  1.00  0.00     0.046 A   
ENDBRANCH   3   7
ENDBRANCH   1   2
BRANCH   1  13
ATOM     13  N2  UNL     1      -0.196   0.664  -0.145  1.00  0.00     0.249 N   
ATOM     14  H5  UNL     1       0.265   0.655  -1.069  1.00  0.00     0.199 HD  
ATOM     15  H6  UNL     1      -0.592   1.603  -0.040  1.00  0.00     0.199 HD  
BRANCH  13  16
ATOM     16  C7  UNL     1       0.875   0.472   0.872  1.00  0.00     0.164 C   
BRANCH  16  17
ATOM     17  C8  UNL     1       1.913   1.552   0.749  1.00  0.00    -0.002 A   
ATOM     18  C9  UNL     1       1.827   2.724   1.536  1.00  0.00     0.012 A   
ATOM     19  C13 UNL     1       2.947   1.425  -0.195  1.00  0.00     0.045 A   
ATOM     20  C10 UNL     1       2.764   3.753   1.395  1.00  0.00     0.037 A   
ATOM     21  C12 UNL     1       3.853   2.458  -0.309  1.00  0.00     0.109 A   
ATOM     22  C11 UNL     1       3.765   3.589   0.464  1.00  0.00     0.108 A   
ATOM     23  O1  UNL     1       4.907   2.495  -1.166  1.00  0.00    -0.316 OA  
ATOM     24  O2  UNL     1       4.753   4.481   0.192  1.00  0.00    -0.316 OA  
ATOM     25  C14 UNL     1       5.491   3.774  -0.828  1.00  0.00     0.337 C   
ENDBRANCH  16  17
ENDBRANCH  13  16
ENDBRANCH   1  13
BRANCH   1  26
ATOM     26  C15 UNL     1      -2.545   0.139  -0.822  1.00  0.00     0.043 C   
ATOM     27  C16 UNL     1      -3.243   1.246  -0.009  1.00  0.00     0.010 C   
ATOM     28  C19 UNL     1      -2.394   0.722  -2.233  1.00  0.00     0.010 C   
ATOM     29  C17 UNL     1      -3.718   2.286  -1.023  1.00  0.00     0.001 C   
ATOM     30  C18 UNL     1      -3.628   1.599  -2.376  1.00  0.00     0.001 C   
ENDBRANCH   1  26
TORSDOF 6
