REMARK SMILES CC(C)C[C@H]([NH2+]Cc1ccc2c(c1)OCO2)c1cn(C[C@@H](O)c2ccncc2)nn1
REMARK SMILES IDX 17 1 18 2 19 3 29 4 30 5 5 7 4 8 2 9 1 10 3 11 6 12 7 15
REMARK SMILES IDX 8 16 9 17 13 18 10 19 12 20 11 21 14 22 16 23 15 24 20 25
REMARK SMILES IDX 21 26 22 27 23 29 24 30 28 31 25 32 27 33 26 34
REMARK H PARENT 18 6 6 13 6 14 22 28
ROOT
ATOM     1   C14 UNL     1      -1.077   0.653  -0.760  1.00  0.00     0.127 A   
ATOM     2   C15 UNL     1      -1.047   1.938  -0.262  1.00  0.00     0.045 A   
ATOM     3   N2  UNL     1      -2.338   2.372  -0.409  1.00  0.00    -0.209 N   
ATOM     4   N4  UNL     1      -3.063   1.485  -1.118  1.00  0.00    -0.076 NA  
ATOM     5   N5  UNL     1      -2.312   0.410  -1.303  1.00  0.00    -0.132 NA  
ATOM     6   H20 UNL     1      -0.302   2.504   0.281  1.00  0.00     0.083 HD  
ENDROOT
BRANCH   1   7
ATOM     7   C5  UNL     1      -0.069  -0.448  -0.654  1.00  0.00     0.114 C   
BRANCH   7   8
ATOM     8   C4  UNL     1       0.303  -1.032  -2.030  1.00  0.00     0.064 C   
BRANCH   8   9
ATOM     9   C2  UNL     1       0.957  -0.025  -3.003  1.00  0.00    -0.012 C   
ATOM     10  C1  UNL     1       1.218  -0.706  -4.350  1.00  0.00     0.007 C   
ATOM     11  C3  UNL     1       2.264   0.550  -2.454  1.00  0.00     0.007 C   
ENDBRANCH   8   9
ENDBRANCH   7   8
BRANCH   7  12
ATOM     12  N1  UNL     1      -0.663  -1.528   0.223  1.00  0.00     0.249 N   
ATOM     13  H11 UNL     1      -0.984  -1.086   1.103  1.00  0.00     0.199 HD  
ATOM     14  H12 UNL     1      -1.532  -1.843  -0.225  1.00  0.00     0.199 HD  
BRANCH  12  15
ATOM     15  C6  UNL     1       0.167  -2.697   0.609  1.00  0.00     0.164 C   
BRANCH  15  16
ATOM     16  C7  UNL     1       1.403  -2.327   1.381  1.00  0.00    -0.002 A   
ATOM     17  C8  UNL     1       1.318  -2.027   2.762  1.00  0.00     0.012 A   
ATOM     18  C12 UNL     1       2.647  -2.240   0.733  1.00  0.00     0.045 A   
ATOM     19  C9  UNL     1       2.449  -1.635   3.486  1.00  0.00     0.037 A   
ATOM     20  C11 UNL     1       3.741  -1.846   1.474  1.00  0.00     0.109 A   
ATOM     21  C10 UNL     1       3.646  -1.550   2.811  1.00  0.00     0.108 A   
ATOM     22  O1  UNL     1       5.005  -1.697   0.998  1.00  0.00    -0.316 OA  
ATOM     23  O2  UNL     1       4.838  -1.180   3.346  1.00  0.00    -0.316 OA  
ATOM     24  C13 UNL     1       5.706  -1.301   2.198  1.00  0.00     0.337 C   
ENDBRANCH  15  16
ENDBRANCH  12  15
ENDBRANCH   7  12
ENDBRANCH   1   7
BRANCH   3  25
ATOM     25  C16 UNL     1      -3.006   3.399   0.377  1.00  0.00     0.170 C   
BRANCH  25  26
ATOM     26  C17 UNL     1      -3.956   2.792   1.443  1.00  0.00     0.164 C   
BRANCH  26  27
ATOM     27  O3  UNL     1      -5.225   2.495   0.852  1.00  0.00    -0.387 OA  
ATOM     28  H24 UNL     1      -5.064   2.078  -0.017  1.00  0.00     0.211 HD  
ENDBRANCH  26  27
BRANCH  26  29
ATOM     29  C18 UNL     1      -3.380   1.560   2.133  1.00  0.00    -0.015 A   
ATOM     30  C19 UNL     1      -3.944   0.291   1.957  1.00  0.00     0.026 A   
ATOM     31  C22 UNL     1      -2.190   1.652   2.866  1.00  0.00     0.026 A   
ATOM     32  C20 UNL     1      -3.235  -0.820   2.377  1.00  0.00     0.111 A   
ATOM     33  C21 UNL     1      -1.546   0.480   3.233  1.00  0.00     0.111 A   
ATOM     34  N3  UNL     1      -1.994  -0.757   2.912  1.00  0.00    -0.265 NA  
ENDBRANCH  26  29
ENDBRANCH  25  26
ENDBRANCH   3  25
TORSDOF 10
