REMARK SMILES CC(C)C[C@H]([NH2+]Cc1ccc2c(c1)OCO2)c1cn(C[C@H](O)c2ccncc2)nn1
REMARK SMILES IDX 17 1 18 2 19 3 29 4 30 5 5 7 4 8 2 9 1 10 3 11 6 12 7 15
REMARK SMILES IDX 8 16 9 17 13 18 10 19 12 20 11 21 14 22 16 23 15 24 20 25
REMARK SMILES IDX 21 26 22 27 23 29 24 30 28 31 25 32 27 33 26 34
REMARK H PARENT 18 6 6 13 6 14 22 28
ROOT
ATOM     1   C14 UNL     1      -0.270  -1.668  -0.907  1.00  0.00     0.127 A   
ATOM     2   C15 UNL     1      -1.125  -1.732   0.171  1.00  0.00     0.045 A   
ATOM     3   N2  UNL     1      -0.988  -3.020   0.618  1.00  0.00    -0.209 N   
ATOM     4   N4  UNL     1      -0.236  -3.744  -0.232  1.00  0.00    -0.076 NA  
ATOM     5   N5  UNL     1       0.241  -2.917  -1.150  1.00  0.00    -0.132 NA  
ATOM     6   H20 UNL     1      -1.689  -0.987   0.715  1.00  0.00     0.083 HD  
ENDROOT
BRANCH   1   7
ATOM     7   C5  UNL     1       0.231  -0.485  -1.673  1.00  0.00     0.114 C   
BRANCH   7   8
ATOM     8   C4  UNL     1      -0.008  -0.626  -3.188  1.00  0.00     0.064 C   
BRANCH   8   9
ATOM     9   C2  UNL     1      -1.493  -0.741  -3.600  1.00  0.00    -0.012 C   
ATOM     10  C1  UNL     1      -2.302   0.495  -3.202  1.00  0.00     0.007 C   
ATOM     11  C3  UNL     1      -1.593  -0.958  -5.112  1.00  0.00     0.007 C   
ENDBRANCH   8   9
ENDBRANCH   7   8
BRANCH   7  12
ATOM     12  N1  UNL     1       1.712  -0.355  -1.399  1.00  0.00     0.249 N   
ATOM     13  H11 UNL     1       2.161  -1.223  -1.718  1.00  0.00     0.199 HD  
ATOM     14  H12 UNL     1       1.851  -0.373  -0.371  1.00  0.00     0.199 HD  
BRANCH  12  15
ATOM     15  C6  UNL     1       2.448   0.826  -1.915  1.00  0.00     0.164 C   
BRANCH  15  16
ATOM     16  C7  UNL     1       1.919   2.134  -1.395  1.00  0.00    -0.002 A   
ATOM     17  C8  UNL     1       1.085   2.947  -2.200  1.00  0.00     0.012 A   
ATOM     18  C12 UNL     1       2.221   2.541  -0.085  1.00  0.00     0.045 A   
ATOM     19  C9  UNL     1       0.548   4.140  -1.704  1.00  0.00     0.037 A   
ATOM     20  C11 UNL     1       1.673   3.720   0.376  1.00  0.00     0.109 A   
ATOM     21  C10 UNL     1       0.860   4.497  -0.411  1.00  0.00     0.108 A   
ATOM     22  O1  UNL     1       1.851   4.244   1.617  1.00  0.00    -0.316 OA  
ATOM     23  O2  UNL     1       0.427   5.611   0.234  1.00  0.00    -0.316 OA  
ATOM     24  C13 UNL     1       1.095   5.471   1.506  1.00  0.00     0.337 C   
ENDBRANCH  15  16
ENDBRANCH  12  15
ENDBRANCH   7  12
ENDBRANCH   1   7
BRANCH   3  25
ATOM     25  C16 UNL     1      -1.264  -3.502   1.956  1.00  0.00     0.170 C   
BRANCH  25  26
ATOM     26  C17 UNL     1       0.006  -3.672   2.824  1.00  0.00     0.164 C   
BRANCH  26  27
ATOM     27  O3  UNL     1      -0.360  -3.603   4.201  1.00  0.00    -0.387 OA  
ATOM     28  H24 UNL     1       0.457  -3.686   4.726  1.00  0.00     0.211 HD  
ENDBRANCH  26  27
BRANCH  26  29
ATOM     29  C18 UNL     1       1.067  -2.622   2.548  1.00  0.00    -0.015 A   
ATOM     30  C19 UNL     1       0.863  -1.276   2.866  1.00  0.00     0.026 A   
ATOM     31  C22 UNL     1       2.215  -2.968   1.825  1.00  0.00     0.026 A   
ATOM     32  C20 UNL     1       1.727  -0.334   2.332  1.00  0.00     0.111 A   
ATOM     33  C21 UNL     1       3.026  -1.957   1.343  1.00  0.00     0.111 A   
ATOM     34  N3  UNL     1       2.751  -0.640   1.496  1.00  0.00    -0.265 NA  
ENDBRANCH  26  29
ENDBRANCH  25  26
ENDBRANCH   3  25
TORSDOF 10
