REMARK SMILES COc1cc(F)ccc1Cn1cc([C@H](CC(C)C)[NH2+]Cc2ccc3c(c2)OCO3)nn1
REMARK SMILES IDX 11 1 12 2 13 3 30 4 31 5 10 7 9 8 3 9 4 10 5 11 8 12 7 13
REMARK SMILES IDX 6 14 2 15 1 16 14 17 15 18 16 19 17 20 18 21 19 22 20 25
REMARK SMILES IDX 21 26 22 27 26 28 23 29 25 30 24 31 27 32 29 33 28 34
REMARK H PARENT 12 6 19 23 19 24
ROOT
ATOM     1   N1  UNL     1       2.669   1.121  -0.765  1.00  0.00    -0.208 N   
ATOM     2   C9  UNL     1       1.822   0.079  -0.499  1.00  0.00     0.046 A   
ATOM     3   C10 UNL     1       0.801   0.657   0.222  1.00  0.00     0.127 A   
ATOM     4   N3  UNL     1       1.075   1.989   0.401  1.00  0.00    -0.132 NA  
ATOM     5   N4  UNL     1       2.229   2.256  -0.186  1.00  0.00    -0.076 NA  
ATOM     6   H9  UNL     1       2.012  -0.923  -0.858  1.00  0.00     0.083 HD  
ENDROOT
BRANCH   1   7
ATOM     7   C8  UNL     1       3.919   1.101  -1.504  1.00  0.00     0.172 C   
BRANCH   7   8
ATOM     8   C7  UNL     1       3.683   1.336  -2.976  1.00  0.00     0.002 A   
ATOM     9   C2  UNL     1       3.446   0.265  -3.862  1.00  0.00     0.082 A   
ATOM     10  C3  UNL     1       3.211   0.527  -5.215  1.00  0.00     0.073 A   
ATOM     11  C4  UNL     1       3.211   1.840  -5.676  1.00  0.00     0.125 A   
ATOM     12  C6  UNL     1       3.674   2.655  -3.467  1.00  0.00     0.011 A   
ATOM     13  C5  UNL     1       3.440   2.905  -4.818  1.00  0.00     0.040 A   
ATOM     14  F1  UNL     1       2.975   2.079  -6.972  1.00  0.00    -0.207 F   
BRANCH   9  15
ATOM     15  O1  UNL     1       3.446  -0.986  -3.301  1.00  0.00    -0.349 OA  
ATOM     16  C1  UNL     1       3.413  -2.093  -4.197  1.00  0.00     0.203 C   
ENDBRANCH   9  15
ENDBRANCH   7   8
ENDBRANCH   1   7
BRANCH   3  17
ATOM     17  C11 UNL     1      -0.447   0.076   0.807  1.00  0.00     0.114 C   
BRANCH  17  18
ATOM     18  C12 UNL     1      -1.569   0.004  -0.249  1.00  0.00     0.064 C   
BRANCH  18  19
ATOM     19  C13 UNL     1      -2.863  -0.720   0.183  1.00  0.00    -0.012 C   
ATOM     20  C14 UNL     1      -3.879  -0.683  -0.965  1.00  0.00     0.007 C   
ATOM     21  C15 UNL     1      -2.612  -2.169   0.601  1.00  0.00     0.007 C   
ENDBRANCH  18  19
ENDBRANCH  17  18
BRANCH  17  22
ATOM     22  N2  UNL     1      -0.918   0.928   1.961  1.00  0.00     0.249 N   
ATOM     23  H20 UNL     1      -0.826   1.905   1.644  1.00  0.00     0.199 HD  
ATOM     24  H21 UNL     1      -1.908   0.772   2.162  1.00  0.00     0.199 HD  
BRANCH  22  25
ATOM     25  C16 UNL     1      -0.141   0.797   3.228  1.00  0.00     0.164 C   
BRANCH  25  26
ATOM     26  C17 UNL     1      -0.394  -0.512   3.922  1.00  0.00    -0.002 A   
ATOM     27  C18 UNL     1       0.607  -1.512   3.951  1.00  0.00     0.012 A   
ATOM     28  C22 UNL     1      -1.639  -0.763   4.525  1.00  0.00     0.045 A   
ATOM     29  C19 UNL     1       0.372  -2.747   4.564  1.00  0.00     0.037 A   
ATOM     30  C21 UNL     1      -1.838  -1.993   5.118  1.00  0.00     0.109 A   
ATOM     31  C20 UNL     1      -0.862  -2.958   5.138  1.00  0.00     0.108 A   
ATOM     32  O2  UNL     1      -2.979  -2.396   5.736  1.00  0.00    -0.316 OA  
ATOM     33  O3  UNL     1      -1.263  -4.090   5.772  1.00  0.00    -0.316 OA  
ATOM     34  C23 UNL     1      -2.598  -3.719   6.179  1.00  0.00     0.337 C   
ENDBRANCH  25  26
ENDBRANCH  22  25
ENDBRANCH  17  22
ENDBRANCH   3  17
TORSDOF 9
