REMARK SMILES CC(C)(C)[C@H]([NH2+]Cc1ccc2c(c1)OCO2)c1cn(CCc2cc3c([nH]2)CCCC3)nn1
REMARK SMILES IDX 17 1 18 2 19 3 31 4 32 5 5 7 2 8 1 9 3 10 4 11 6 12 7 15
REMARK SMILES IDX 8 16 9 17 13 18 10 19 12 20 11 21 14 22 16 23 15 24 20 25
REMARK SMILES IDX 21 26 22 27 23 28 26 29 24 30 25 31 30 32 27 33 29 34 28 35
REMARK H PARENT 18 6 6 13 6 14 26 36
ROOT
ATOM     1   C14 UNL     1      -1.991   0.328   0.443  1.00  0.00     0.127 A   
ATOM     2   C15 UNL     1      -1.368   0.056   1.641  1.00  0.00     0.045 A   
ATOM     3   N2  UNL     1      -2.379   0.118   2.560  1.00  0.00    -0.212 N   
ATOM     4   N4  UNL     1      -3.564   0.326   1.958  1.00  0.00    -0.076 NA  
ATOM     5   N5  UNL     1      -3.339   0.473   0.662  1.00  0.00    -0.132 NA  
ATOM     6   H20 UNL     1      -0.340  -0.128   1.923  1.00  0.00     0.083 HD  
ENDROOT
BRANCH   1   7
ATOM     7   C5  UNL     1      -1.454   0.401  -0.954  1.00  0.00     0.120 C   
BRANCH   7   8
ATOM     8   C2  UNL     1      -1.042   1.845  -1.416  1.00  0.00     0.010 C   
ATOM     9   C1  UNL     1      -2.242   2.808  -1.507  1.00  0.00     0.017 C   
ATOM     10  C3  UNL     1      -0.012   2.446  -0.433  1.00  0.00     0.017 C   
ATOM     11  C4  UNL     1      -0.358   1.788  -2.802  1.00  0.00     0.017 C   
ENDBRANCH   7   8
BRANCH   7  12
ATOM     12  N1  UNL     1      -2.486  -0.176  -1.906  1.00  0.00     0.250 N   
ATOM     13  H11 UNL     1      -2.286   0.081  -2.874  1.00  0.00     0.199 HD  
ATOM     14  H12 UNL     1      -3.382   0.265  -1.654  1.00  0.00     0.199 HD  
BRANCH  12  15
ATOM     15  C6  UNL     1      -2.695  -1.654  -1.837  1.00  0.00     0.164 C   
BRANCH  15  16
ATOM     16  C7  UNL     1      -1.484  -2.439  -2.260  1.00  0.00    -0.002 A   
ATOM     17  C8  UNL     1      -0.748  -3.183  -1.306  1.00  0.00     0.012 A   
ATOM     18  C12 UNL     1      -1.056  -2.419  -3.600  1.00  0.00     0.045 A   
ATOM     19  C9  UNL     1       0.404  -3.888  -1.673  1.00  0.00     0.037 A   
ATOM     20  C11 UNL     1       0.083  -3.126  -3.929  1.00  0.00     0.109 A   
ATOM     21  C10 UNL     1       0.793  -3.839  -2.994  1.00  0.00     0.108 A   
ATOM     22  O1  UNL     1       0.633  -3.207  -5.169  1.00  0.00    -0.316 OA  
ATOM     23  O2  UNL     1       1.876  -4.460  -3.528  1.00  0.00    -0.316 OA  
ATOM     24  C13 UNL     1       1.750  -4.090  -4.918  1.00  0.00     0.337 C   
ENDBRANCH  15  16
ENDBRANCH  12  15
ENDBRANCH   7  12
ENDBRANCH   1   7
BRANCH   3  25
ATOM     25  C16 UNL     1      -2.299  -0.072   3.994  1.00  0.00     0.140 C   
BRANCH  25  26
ATOM     26  C17 UNL     1      -2.169   1.238   4.771  1.00  0.00     0.072 C   
BRANCH  26  27
ATOM     27  C18 UNL     1      -0.855   1.911   4.531  1.00  0.00     0.009 A   
ATOM     28  C19 UNL     1      -0.511   2.885   3.611  1.00  0.00     0.024 A   
ATOM     29  N3  UNL     1       0.269   1.618   5.272  1.00  0.00    -0.321 N   
ATOM     30  C20 UNL     1       0.871   3.135   3.752  1.00  0.00    -0.029 A   
ATOM     31  C21 UNL     1       1.324   2.330   4.776  1.00  0.00     0.010 A   
ATOM     32  C25 UNL     1       1.769   4.054   2.994  1.00  0.00     0.037 C   
ATOM     33  C22 UNL     1       2.716   2.286   5.308  1.00  0.00     0.051 C   
ATOM     34  C24 UNL     1       3.094   4.280   3.748  1.00  0.00     0.005 C   
ATOM     35  C23 UNL     1       3.675   2.969   4.314  1.00  0.00     0.006 C   
ATOM     36  H26 UNL     1       0.315   0.980   6.058  1.00  0.00     0.152 HD  
ENDBRANCH  26  27
ENDBRANCH  25  26
ENDBRANCH   3  25
TORSDOF 8
