REMARK SMILES CC(C)C[C@H]([NH2+]Cc1ccc2c(c1)OCO2)c1cn(Cc2cc(F)c(F)cc2F)nn1
REMARK SMILES IDX 17 1 18 2 19 3 30 4 31 5 5 7 4 8 2 9 1 10 3 11 6 12 7 15
REMARK SMILES IDX 8 16 9 17 13 18 10 19 12 20 11 21 14 22 16 23 15 24 20 25
REMARK SMILES IDX 21 26 22 27 28 28 23 29 27 30 25 31 29 32 24 33 26 34
REMARK H PARENT 18 6 6 13 6 14
ROOT
ATOM     1   C14 UNL     1      -0.072   0.915   0.382  1.00  0.00     0.127 A   
ATOM     2   C15 UNL     1       0.437   2.169   0.117  1.00  0.00     0.046 A   
ATOM     3   N2  UNL     1       1.589   1.921  -0.577  1.00  0.00    -0.208 N   
ATOM     4   N3  UNL     1       1.779   0.597  -0.733  1.00  0.00    -0.076 NA  
ATOM     5   N4  UNL     1       0.771  -0.028  -0.149  1.00  0.00    -0.132 NA  
ATOM     6   H20 UNL     1       0.103   3.173   0.342  1.00  0.00     0.083 HD  
ENDROOT
BRANCH   1   7
ATOM     7   C5  UNL     1      -1.319   0.485   1.083  1.00  0.00     0.114 C   
BRANCH   7   8
ATOM     8   C4  UNL     1      -1.356   0.857   2.580  1.00  0.00     0.064 C   
BRANCH   8   9
ATOM     9   C2  UNL     1      -0.534   0.004   3.573  1.00  0.00    -0.012 C   
ATOM     10  C1  UNL     1       0.974   0.065   3.334  1.00  0.00     0.007 C   
ATOM     11  C3  UNL     1      -0.835   0.466   5.004  1.00  0.00     0.007 C   
ENDBRANCH   8   9
ENDBRANCH   7   8
BRANCH   7  12
ATOM     12  N1  UNL     1      -1.570  -0.988   0.930  1.00  0.00     0.249 N   
ATOM     13  H11 UNL     1      -2.189  -1.346   1.664  1.00  0.00     0.199 HD  
ATOM     14  H12 UNL     1      -0.663  -1.460   1.054  1.00  0.00     0.199 HD  
BRANCH  12  15
ATOM     15  C6  UNL     1      -2.104  -1.411  -0.396  1.00  0.00     0.164 C   
BRANCH  15  16
ATOM     16  C7  UNL     1      -2.180  -2.909  -0.473  1.00  0.00    -0.002 A   
ATOM     17  C8  UNL     1      -3.379  -3.587  -0.156  1.00  0.00     0.012 A   
ATOM     18  C12 UNL     1      -1.033  -3.651  -0.812  1.00  0.00     0.045 A   
ATOM     19  C9  UNL     1      -3.444  -4.985  -0.185  1.00  0.00     0.037 A   
ATOM     20  C11 UNL     1      -1.130  -5.026  -0.830  1.00  0.00     0.109 A   
ATOM     21  C10 UNL     1      -2.302  -5.675  -0.528  1.00  0.00     0.108 A   
ATOM     22  O1  UNL     1      -0.124  -5.886  -1.135  1.00  0.00    -0.316 OA  
ATOM     23  O2  UNL     1      -2.182  -7.025  -0.608  1.00  0.00    -0.316 OA  
ATOM     24  C13 UNL     1      -0.804  -7.156  -1.017  1.00  0.00     0.337 C   
ENDBRANCH  15  16
ENDBRANCH  12  15
ENDBRANCH   7  12
ENDBRANCH   1   7
BRANCH   3  25
ATOM     25  C16 UNL     1       2.555   2.873  -1.097  1.00  0.00     0.172 C   
BRANCH  25  26
ATOM     26  C17 UNL     1       2.165   3.342  -2.471  1.00  0.00     0.010 A   
ATOM     27  C18 UNL     1       2.611   2.673  -3.621  1.00  0.00     0.051 A   
ATOM     28  C22 UNL     1       1.321   4.449  -2.624  1.00  0.00     0.131 A   
ATOM     29  C19 UNL     1       2.220   3.125  -4.880  1.00  0.00     0.159 A   
ATOM     30  C21 UNL     1       0.934   4.905  -3.880  1.00  0.00     0.082 A   
ATOM     31  C20 UNL     1       1.391   4.235  -5.007  1.00  0.00     0.161 A   
ATOM     32  F3  UNL     1       0.861   5.080  -1.535  1.00  0.00    -0.207 F   
ATOM     33  F1  UNL     1       2.648   2.475  -5.970  1.00  0.00    -0.204 F   
ATOM     34  F2  UNL     1       1.017   4.660  -6.220  1.00  0.00    -0.204 F   
ENDBRANCH  25  26
ENDBRANCH   3  25
TORSDOF 8
