REMARK SMILES CC(C)(C)[C@H]([NH2+]Cc1ccc2c(c1)OCO2)c1cn(CCn2ccccc2=O)nn1
REMARK SMILES IDX 17 1 18 2 19 3 29 4 30 5 5 7 2 8 1 9 3 10 4 11 6 12 7 15
REMARK SMILES IDX 8 16 9 17 13 18 10 19 12 20 11 21 14 22 16 23 15 24 20 25
REMARK SMILES IDX 21 26 22 27 23 28 27 29 24 30 26 31 25 32 28 33
REMARK H PARENT 18 6 6 13 6 14
ROOT
ATOM     1   C14 UNL     1      -2.448  -1.199   1.120  1.00  0.00     0.127 A   
ATOM     2   C15 UNL     1      -2.639  -0.049   1.857  1.00  0.00     0.045 A   
ATOM     3   N2  UNL     1      -3.558   0.648   1.123  1.00  0.00    -0.211 N   
ATOM     4   N4  UNL     1      -4.074  -0.114   0.146  1.00  0.00    -0.076 NA  
ATOM     5   N5  UNL     1      -3.407  -1.255   0.138  1.00  0.00    -0.132 NA  
ATOM     6   H20 UNL     1      -2.108   0.414   2.675  1.00  0.00     0.083 HD  
ENDROOT
BRANCH   1   7
ATOM     7   C5  UNL     1      -1.311  -2.172   1.055  1.00  0.00     0.120 C   
BRANCH   7   8
ATOM     8   C2  UNL     1      -0.601  -2.560   2.397  1.00  0.00     0.010 C   
ATOM     9   C1  UNL     1       0.277  -3.816   2.162  1.00  0.00     0.017 C   
ATOM     10  C3  UNL     1       0.318  -1.458   2.960  1.00  0.00     0.017 C   
ATOM     11  C4  UNL     1      -1.643  -2.942   3.470  1.00  0.00     0.017 C   
ENDBRANCH   7   8
BRANCH   7  12
ATOM     12  N1  UNL     1      -0.301  -1.649   0.055  1.00  0.00     0.250 N   
ATOM     13  H11 UNL     1      -0.159  -0.633   0.235  1.00  0.00     0.199 HD  
ATOM     14  H12 UNL     1       0.614  -2.091   0.159  1.00  0.00     0.199 HD  
BRANCH  12  15
ATOM     15  C6  UNL     1      -0.712  -1.741  -1.378  1.00  0.00     0.164 C   
BRANCH  15  16
ATOM     16  C7  UNL     1       0.484  -1.591  -2.280  1.00  0.00    -0.002 A   
ATOM     17  C8  UNL     1       1.127  -2.735  -2.809  1.00  0.00     0.012 A   
ATOM     18  C12 UNL     1       1.002  -0.315  -2.560  1.00  0.00     0.045 A   
ATOM     19  C9  UNL     1       2.263  -2.612  -3.617  1.00  0.00     0.037 A   
ATOM     20  C11 UNL     1       2.125  -0.227  -3.355  1.00  0.00     0.109 A   
ATOM     21  C10 UNL     1       2.737  -1.343  -3.870  1.00  0.00     0.108 A   
ATOM     22  O1  UNL     1       2.752   0.923  -3.718  1.00  0.00    -0.316 OA  
ATOM     23  O2  UNL     1       3.825  -1.038  -4.624  1.00  0.00    -0.316 OA  
ATOM     24  C13 UNL     1       3.823   0.404  -4.538  1.00  0.00     0.337 C   
ENDBRANCH  15  16
ENDBRANCH  12  15
ENDBRANCH   7  12
ENDBRANCH   1   7
BRANCH   3  25
ATOM     25  C16 UNL     1      -3.743   2.083   1.101  1.00  0.00     0.153 C   
BRANCH  25  26
ATOM     26  C17 UNL     1      -2.656   2.767   0.258  1.00  0.00     0.135 C   
BRANCH  26  27
ATOM     27  N3  UNL     1      -1.409   3.038   1.000  1.00  0.00    -0.273 N   
ATOM     28  C18 UNL     1      -1.351   4.198   1.763  1.00  0.00     0.078 A   
ATOM     29  C22 UNL     1      -0.324   2.156   0.925  1.00  0.00     0.242 A   
ATOM     30  C19 UNL     1      -0.253   4.529   2.451  1.00  0.00     0.016 A   
ATOM     31  C21 UNL     1       0.900   2.559   1.676  1.00  0.00     0.069 A   
ATOM     32  C20 UNL     1       0.910   3.685   2.399  1.00  0.00     0.007 A   
ATOM     33  O3  UNL     1      -0.312   1.076   0.328  1.00  0.00    -0.272 OA  
ENDBRANCH  26  27
ENDBRANCH  25  26
ENDBRANCH   3  25
TORSDOF 8
