REMARK SMILES CC(C)[C@H]([NH2+]Cc1ccc2c(c1)OCO2)c1cn([C@@H](CO)c2cccc(F)c2F)nn1
REMARK SMILES IDX 16 1 17 2 18 3 30 4 31 5 4 7 2 8 1 9 3 10 5 11 6 14 7 15
REMARK SMILES IDX 8 16 12 17 9 18 11 19 10 20 13 21 15 22 14 23 19 24 20 25
REMARK SMILES IDX 21 26 22 28 23 29 28 30 24 31 26 32 25 33 29 34 27 35
REMARK H PARENT 17 6 5 12 5 13 21 27
ROOT
ATOM     1   C13 UNL     1      -0.073  -0.714   1.483  1.00  0.00     0.127 A   
ATOM     2   C14 UNL     1       1.294  -0.851   1.392  1.00  0.00     0.046 A   
ATOM     3   N2  UNL     1       1.472  -2.143   0.965  1.00  0.00    -0.202 N   
ATOM     4   N3  UNL     1       0.285  -2.778   0.881  1.00  0.00    -0.075 NA  
ATOM     5   N4  UNL     1      -0.666  -1.914   1.193  1.00  0.00    -0.132 NA  
ATOM     6   H18 UNL     1       2.120  -0.165   1.520  1.00  0.00     0.083 HD  
ENDROOT
BRANCH   1   7
ATOM     7   C4  UNL     1      -0.922   0.488   1.743  1.00  0.00     0.117 C   
BRANCH   7   8
ATOM     8   C2  UNL     1      -1.235   0.674   3.252  1.00  0.00     0.037 C   
ATOM     9   C1  UNL     1      -1.802   2.070   3.542  1.00  0.00     0.014 C   
ATOM     10  C3  UNL     1      -2.168  -0.391   3.838  1.00  0.00     0.014 C   
ENDBRANCH   7   8
BRANCH   7  11
ATOM     11  N1  UNL     1      -2.203   0.421   0.944  1.00  0.00     0.249 N   
ATOM     12  H9  UNL     1      -2.855   1.149   1.244  1.00  0.00     0.199 HD  
ATOM     13  H10 UNL     1      -2.634  -0.488   1.159  1.00  0.00     0.199 HD  
BRANCH  11  14
ATOM     14  C5  UNL     1      -2.059   0.480  -0.546  1.00  0.00     0.164 C   
BRANCH  14  15
ATOM     15  C6  UNL     1      -1.420   1.750  -1.035  1.00  0.00    -0.002 A   
ATOM     16  C7  UNL     1      -0.148   1.709  -1.655  1.00  0.00     0.012 A   
ATOM     17  C11 UNL     1      -2.066   2.986  -0.863  1.00  0.00     0.045 A   
ATOM     18  C8  UNL     1       0.482   2.881  -2.084  1.00  0.00     0.037 A   
ATOM     19  C10 UNL     1      -1.416   4.123  -1.295  1.00  0.00     0.109 A   
ATOM     20  C9  UNL     1      -0.177   4.074  -1.886  1.00  0.00     0.108 A   
ATOM     21  O1  UNL     1      -1.894   5.391  -1.196  1.00  0.00    -0.316 OA  
ATOM     22  O2  UNL     1       0.280   5.304  -2.235  1.00  0.00    -0.316 OA  
ATOM     23  C12 UNL     1      -0.828   6.136  -1.829  1.00  0.00     0.337 C   
ENDBRANCH  14  15
ENDBRANCH  11  14
ENDBRANCH   7  11
ENDBRANCH   1   7
BRANCH   3  24
ATOM     24  C15 UNL     1       2.725  -2.789   0.571  1.00  0.00     0.158 C   
BRANCH  24  25
ATOM     25  C16 UNL     1       2.572  -4.282   0.225  1.00  0.00     0.186 C   
BRANCH  25  26
ATOM     26  O3  UNL     1       3.853  -4.915   0.211  1.00  0.00    -0.394 OA  
ATOM     27  H22 UNL     1       3.715  -5.843  -0.052  1.00  0.00     0.210 HD  
ENDBRANCH  25  26
ENDBRANCH  24  25
BRANCH  24  28
ATOM     28  C17 UNL     1       3.408  -2.027  -0.562  1.00  0.00     0.016 A   
ATOM     29  C18 UNL     1       4.794  -1.794  -0.514  1.00  0.00     0.009 A   
ATOM     30  C22 UNL     1       2.704  -1.569  -1.683  1.00  0.00     0.164 A   
ATOM     31  C19 UNL     1       5.441  -1.104  -1.546  1.00  0.00     0.004 A   
ATOM     32  C21 UNL     1       3.349  -0.874  -2.701  1.00  0.00     0.159 A   
ATOM     33  C20 UNL     1       4.716  -0.637  -2.640  1.00  0.00     0.042 A   
ATOM     34  F2  UNL     1       1.381  -1.772  -1.777  1.00  0.00    -0.203 F   
ATOM     35  F1  UNL     1       2.644  -0.411  -3.742  1.00  0.00    -0.204 F   
ENDBRANCH  24  28
ENDBRANCH   3  24
TORSDOF 9
