REMARK SMILES CC(C)[C@H]([NH2+]Cc1ccc2c(c1)OCO2)c1cn([C@H](CO)c2cccc(F)c2F)nn1
REMARK SMILES IDX 16 1 17 2 18 3 30 4 31 5 4 7 2 8 1 9 3 10 5 11 6 14 7 15
REMARK SMILES IDX 8 16 12 17 9 18 11 19 10 20 13 21 15 22 14 23 19 24 20 25
REMARK SMILES IDX 21 26 22 28 23 29 28 30 24 31 26 32 25 33 29 34 27 35
REMARK H PARENT 17 6 5 12 5 13 21 27
ROOT
ATOM     1   C13 UNL     1      -0.783   1.376   0.143  1.00  0.00     0.127 A   
ATOM     2   C14 UNL     1      -0.863   2.746   0.037  1.00  0.00     0.046 A   
ATOM     3   N2  UNL     1       0.320   3.191   0.566  1.00  0.00    -0.202 N   
ATOM     4   N3  UNL     1       1.087   2.151   0.959  1.00  0.00    -0.075 NA  
ATOM     5   N4  UNL     1       0.420   1.037   0.709  1.00  0.00    -0.132 NA  
ATOM     6   H18 UNL     1      -1.617   3.424  -0.339  1.00  0.00     0.083 HD  
ENDROOT
BRANCH   1   7
ATOM     7   C4  UNL     1      -1.738   0.300  -0.268  1.00  0.00     0.117 C   
BRANCH   7   8
ATOM     8   C2  UNL     1      -2.856   0.076   0.784  1.00  0.00     0.037 C   
ATOM     9   C1  UNL     1      -3.997  -0.782   0.224  1.00  0.00     0.014 C   
ATOM     10  C3  UNL     1      -2.358  -0.524   2.104  1.00  0.00     0.014 C   
ENDBRANCH   7   8
BRANCH   7  11
ATOM     11  N1  UNL     1      -0.997  -0.985  -0.526  1.00  0.00     0.249 N   
ATOM     12  H9  UNL     1      -1.614  -1.801  -0.491  1.00  0.00     0.199 HD  
ATOM     13  H10 UNL     1      -0.324  -1.096   0.247  1.00  0.00     0.199 HD  
BRANCH  11  14
ATOM     14  C5  UNL     1      -0.216  -1.020  -1.794  1.00  0.00     0.164 C   
BRANCH  14  15
ATOM     15  C6  UNL     1       0.538  -2.315  -1.908  1.00  0.00    -0.002 A   
ATOM     16  C7  UNL     1      -0.013  -3.407  -2.621  1.00  0.00     0.012 A   
ATOM     17  C11 UNL     1       1.776  -2.464  -1.259  1.00  0.00     0.045 A   
ATOM     18  C8  UNL     1       0.665  -4.628  -2.697  1.00  0.00     0.037 A   
ATOM     19  C10 UNL     1       2.417  -3.682  -1.354  1.00  0.00     0.109 A   
ATOM     20  C9  UNL     1       1.878  -4.733  -2.053  1.00  0.00     0.108 A   
ATOM     21  O1  UNL     1       3.613  -3.993  -0.788  1.00  0.00    -0.316 OA  
ATOM     22  O2  UNL     1       2.669  -5.838  -2.020  1.00  0.00    -0.316 OA  
ATOM     23  C12 UNL     1       3.779  -5.359  -1.231  1.00  0.00     0.337 C   
ENDBRANCH  14  15
ENDBRANCH  11  14
ENDBRANCH   7  11
ENDBRANCH   1   7
BRANCH   3  24
ATOM     24  C15 UNL     1       0.761   4.576   0.735  1.00  0.00     0.158 C   
BRANCH  24  25
ATOM     25  C16 UNL     1       2.084   4.837  -0.006  1.00  0.00     0.186 C   
BRANCH  25  26
ATOM     26  O3  UNL     1       1.873   4.796  -1.421  1.00  0.00    -0.394 OA  
ATOM     27  H22 UNL     1       2.719   5.037  -1.843  1.00  0.00     0.210 HD  
ENDBRANCH  25  26
ENDBRANCH  24  25
BRANCH  24  28
ATOM     28  C17 UNL     1       0.758   4.937   2.209  1.00  0.00     0.016 A   
ATOM     29  C18 UNL     1       1.895   4.840   3.029  1.00  0.00     0.009 A   
ATOM     30  C22 UNL     1      -0.446   5.346   2.799  1.00  0.00     0.164 A   
ATOM     31  C19 UNL     1       1.824   5.170   4.388  1.00  0.00     0.004 A   
ATOM     32  C21 UNL     1      -0.514   5.670   4.149  1.00  0.00     0.159 A   
ATOM     33  C20 UNL     1       0.618   5.590   4.949  1.00  0.00     0.042 A   
ATOM     34  F2  UNL     1      -1.557   5.411   2.048  1.00  0.00    -0.203 F   
ATOM     35  F1  UNL     1      -1.678   6.056   4.689  1.00  0.00    -0.204 F   
ENDBRANCH  24  28
ENDBRANCH   3  24
TORSDOF 9
