REMARK SMILES Cc1cncc([C@H](CO)n2cc([C@@H]([NH2+]Cc3ccc4c(c3)OCO4)C3CCCC3)nn2)c1
REMARK SMILES IDX 10 1 11 2 12 3 30 4 31 5 7 7 6 8 2 9 3 10 32 11 4 12 5 13
REMARK SMILES IDX 1 14 8 15 9 16 13 18 14 19 15 22 16 23 17 24 21 25 18 26
REMARK SMILES IDX 20 27 19 28 22 29 24 30 23 31 25 32 26 33 29 34 27 35 28 36
REMARK H PARENT 11 6 9 17 14 20 14 21
ROOT
ATOM     1   N2  UNL     1      -1.368  -2.281  -0.623  1.00  0.00    -0.202 N   
ATOM     2   C8  UNL     1      -2.086  -1.124  -0.462  1.00  0.00     0.046 A   
ATOM     3   C9  UNL     1      -1.281  -0.152  -1.014  1.00  0.00     0.127 A   
ATOM     4   N4  UNL     1      -0.135  -0.734  -1.492  1.00  0.00    -0.132 NA  
ATOM     5   N5  UNL     1      -0.198  -2.030  -1.245  1.00  0.00    -0.075 NA  
ATOM     6   H10 UNL     1      -3.047  -1.105   0.035  1.00  0.00     0.083 HD  
ENDROOT
BRANCH   1   7
ATOM     7   C6  UNL     1      -1.702  -3.615  -0.126  1.00  0.00     0.157 C   
BRANCH   7   8
ATOM     8   C5  UNL     1      -1.309  -3.741   1.335  1.00  0.00    -0.005 A   
ATOM     9   C2  UNL     1      -1.848  -4.337   3.625  1.00  0.00    -0.032 A   
ATOM     10  C3  UNL     1      -0.558  -3.953   3.967  1.00  0.00     0.114 A   
ATOM     11  C24 UNL     1      -2.218  -4.232   2.282  1.00  0.00     0.012 A   
ATOM     12  N1  UNL     1       0.347  -3.476   3.086  1.00  0.00    -0.264 NA  
ATOM     13  C4  UNL     1      -0.038  -3.403   1.795  1.00  0.00     0.116 A   
ATOM     14  C1  UNL     1      -2.776  -4.899   4.655  1.00  0.00     0.046 C   
ENDBRANCH   7   8
BRANCH   7  15
ATOM     15  C7  UNL     1      -1.117  -4.744  -0.991  1.00  0.00     0.186 C   
BRANCH  15  16
ATOM     16  O1  UNL     1      -1.837  -5.957  -0.753  1.00  0.00    -0.394 OA  
ATOM     17  H9  UNL     1      -1.365  -6.670  -1.221  1.00  0.00     0.210 HD  
ENDBRANCH  15  16
ENDBRANCH   7  15
ENDBRANCH   1   7
BRANCH   3  18
ATOM     18  C10 UNL     1      -1.438   1.333  -1.101  1.00  0.00     0.117 C   
BRANCH  18  19
ATOM     19  N3  UNL     1      -0.096   1.996  -0.959  1.00  0.00     0.249 N   
ATOM     20  H12 UNL     1       0.562   1.463  -1.548  1.00  0.00     0.199 HD  
ATOM     21  H13 UNL     1      -0.091   2.953  -1.323  1.00  0.00     0.199 HD  
BRANCH  19  22
ATOM     22  C11 UNL     1       0.469   2.004   0.420  1.00  0.00     0.164 C   
BRANCH  22  23
ATOM     23  C12 UNL     1       1.843   2.612   0.420  1.00  0.00    -0.002 A   
ATOM     24  C13 UNL     1       2.023   3.989   0.693  1.00  0.00     0.012 A   
ATOM     25  C17 UNL     1       2.958   1.820   0.092  1.00  0.00     0.045 A   
ATOM     26  C14 UNL     1       3.297   4.569   0.650  1.00  0.00     0.037 A   
ATOM     27  C16 UNL     1       4.198   2.424   0.059  1.00  0.00     0.109 A   
ATOM     28  C15 UNL     1       4.363   3.760   0.329  1.00  0.00     0.108 A   
ATOM     29  O2  UNL     1       5.370   1.805  -0.237  1.00  0.00    -0.316 OA  
ATOM     30  O3  UNL     1       5.661   4.150   0.237  1.00  0.00    -0.316 OA  
ATOM     31  C18 UNL     1       6.303   2.900  -0.096  1.00  0.00     0.337 C   
ENDBRANCH  22  23
ENDBRANCH  19  22
ENDBRANCH  18  19
BRANCH  18  32
ATOM     32  C19 UNL     1      -2.126   1.752  -2.415  1.00  0.00     0.043 C   
ATOM     33  C20 UNL     1      -1.321   1.551  -3.704  1.00  0.00     0.010 C   
ATOM     34  C23 UNL     1      -2.511   3.231  -2.496  1.00  0.00     0.010 C   
ATOM     35  C21 UNL     1      -2.002   2.447  -4.739  1.00  0.00     0.001 C   
ATOM     36  C22 UNL     1      -2.902   3.405  -3.958  1.00  0.00     0.001 C   
ENDBRANCH  18  32
ENDBRANCH   3  18
TORSDOF 9
