REMARK SMILES Cc1cncc([C@@H](CO)n2cc([C@@H]([NH2+]Cc3ccc4c(c3)OCO4)C3CCCC3)nn2)c1
REMARK SMILES IDX 10 1 11 2 12 3 30 4 31 5 7 7 6 8 2 9 3 10 32 11 4 12 5 13
REMARK SMILES IDX 1 14 8 15 9 16 13 18 14 19 15 22 16 23 17 24 21 25 18 26
REMARK SMILES IDX 20 27 19 28 22 29 24 30 23 31 25 32 26 33 29 34 27 35 28 36
REMARK H PARENT 11 6 9 17 14 20 14 21
ROOT
ATOM     1   N2  UNL     1      -0.274   1.586  -2.457  1.00  0.00    -0.202 N   
ATOM     2   C8  UNL     1       0.415   0.780  -1.591  1.00  0.00     0.046 A   
ATOM     3   C9  UNL     1      -0.549  -0.025  -1.033  1.00  0.00     0.127 A   
ATOM     4   N4  UNL     1      -1.772   0.320  -1.548  1.00  0.00    -0.132 NA  
ATOM     5   N5  UNL     1      -1.594   1.309  -2.407  1.00  0.00    -0.075 NA  
ATOM     6   H10 UNL     1       1.489   0.836  -1.478  1.00  0.00     0.083 HD  
ENDROOT
BRANCH   1   7
ATOM     7   C6  UNL     1       0.229   2.620  -3.362  1.00  0.00     0.157 C   
BRANCH   7   8
ATOM     8   C5  UNL     1       1.015   3.667  -2.595  1.00  0.00    -0.005 A   
ATOM     9   C2  UNL     1       1.074   5.736  -1.320  1.00  0.00    -0.032 A   
ATOM     10  C3  UNL     1       2.437   5.535  -1.164  1.00  0.00     0.114 A   
ATOM     11  C24 UNL     1       0.360   4.784  -2.053  1.00  0.00     0.012 A   
ATOM     12  N1  UNL     1       3.101   4.468  -1.657  1.00  0.00    -0.264 NA  
ATOM     13  C4  UNL     1       2.384   3.568  -2.363  1.00  0.00     0.116 A   
ATOM     14  C1  UNL     1       0.412   6.964  -0.781  1.00  0.00     0.046 C   
ENDBRANCH   7   8
BRANCH   7  15
ATOM     15  C7  UNL     1       0.922   2.010  -4.600  1.00  0.00     0.186 C   
BRANCH  15  16
ATOM     16  O1  UNL     1       2.013   1.153  -4.265  1.00  0.00    -0.394 OA  
ATOM     17  H9  UNL     1       2.423   0.870  -5.105  1.00  0.00     0.210 HD  
ENDBRANCH  15  16
ENDBRANCH   7  15
ENDBRANCH   1   7
BRANCH   3  18
ATOM     18  C10 UNL     1      -0.447  -1.134  -0.033  1.00  0.00     0.117 C   
BRANCH  18  19
ATOM     19  N3  UNL     1      -1.816  -1.446   0.523  1.00  0.00     0.249 N   
ATOM     20  H12 UNL     1      -1.897  -2.426   0.800  1.00  0.00     0.199 HD  
ATOM     21  H13 UNL     1      -2.474  -1.304  -0.258  1.00  0.00     0.199 HD  
BRANCH  19  22
ATOM     22  C11 UNL     1      -2.271  -0.580   1.649  1.00  0.00     0.164 C   
BRANCH  22  23
ATOM     23  C12 UNL     1      -1.560  -0.894   2.938  1.00  0.00    -0.002 A   
ATOM     24  C13 UNL     1      -0.678   0.051   3.514  1.00  0.00     0.012 A   
ATOM     25  C17 UNL     1      -1.744  -2.139   3.567  1.00  0.00     0.045 A   
ATOM     26  C14 UNL     1       0.022  -0.241   4.691  1.00  0.00     0.037 A   
ATOM     27  C16 UNL     1      -1.031  -2.398   4.720  1.00  0.00     0.109 A   
ATOM     28  C15 UNL     1      -0.174  -1.476   5.267  1.00  0.00     0.108 A   
ATOM     29  O2  UNL     1      -1.073  -3.555   5.431  1.00  0.00    -0.316 OA  
ATOM     30  O3  UNL     1       0.424  -1.931   6.399  1.00  0.00    -0.316 OA  
ATOM     31  C18 UNL     1      -0.145  -3.254   6.500  1.00  0.00     0.337 C   
ENDBRANCH  22  23
ENDBRANCH  19  22
ENDBRANCH  18  19
BRANCH  18  32
ATOM     32  C19 UNL     1       0.192  -2.395  -0.646  1.00  0.00     0.043 C   
ATOM     33  C20 UNL     1      -0.644  -3.150  -1.681  1.00  0.00     0.010 C   
ATOM     34  C23 UNL     1       0.543  -3.493   0.365  1.00  0.00     0.010 C   
ATOM     35  C21 UNL     1       0.124  -4.454  -1.848  1.00  0.00     0.001 C   
ATOM     36  C22 UNL     1       0.690  -4.771  -0.465  1.00  0.00     0.001 C   
ENDBRANCH  18  32
ENDBRANCH   3  18
TORSDOF 9
