REMARK SMILES CC(C)C[C@H]([NH2+]Cc1ccc2c(c1)OCO2)c1cn(-c2cncc(Cl)n2)nn1
REMARK SMILES IDX 5 1 4 2 2 3 1 4 3 5 6 6 7 9 8 10 9 11 13 12 10 13 12 14
REMARK SMILES IDX 11 15 14 16 16 17 15 18 17 19 18 20 28 21 19 22 27 23 20 24
REMARK SMILES IDX 21 25 26 26 22 27 24 28 23 29 25 30
REMARK H PARENT 6 7 6 8
ROOT
ATOM     1   C5  UNL     1       0.222  -0.837  -1.966  1.00  0.00     0.114 C   
ENDROOT
BRANCH   1   2
ATOM     2   C4  UNL     1       0.741  -1.814  -3.038  1.00  0.00     0.064 C   
BRANCH   2   3
ATOM     3   C2  UNL     1       0.534  -3.309  -2.714  1.00  0.00    -0.012 C   
ATOM     4   C1  UNL     1      -0.942  -3.672  -2.546  1.00  0.00     0.007 C   
ATOM     5   C3  UNL     1       1.152  -4.167  -3.823  1.00  0.00     0.007 C   
ENDBRANCH   2   3
ENDBRANCH   1   2
BRANCH   1   6
ATOM     6   N1  UNL     1       0.458   0.572  -2.489  1.00  0.00     0.249 N   
ATOM     7   H11 UNL     1       0.498   0.568  -3.513  1.00  0.00     0.199 HD  
ATOM     8   H12 UNL     1       1.401   0.844  -2.170  1.00  0.00     0.199 HD  
BRANCH   6   9
ATOM     9   C6  UNL     1      -0.516   1.621  -2.057  1.00  0.00     0.164 C   
BRANCH   9  10
ATOM     10  C7  UNL     1      -0.587   1.816  -0.568  1.00  0.00    -0.002 A   
ATOM     11  C8  UNL     1       0.478   2.437   0.128  1.00  0.00     0.012 A   
ATOM     12  C12 UNL     1      -1.687   1.322   0.154  1.00  0.00     0.045 A   
ATOM     13  C9  UNL     1       0.466   2.535   1.524  1.00  0.00     0.037 A   
ATOM     14  C11 UNL     1      -1.664   1.429   1.530  1.00  0.00     0.109 A   
ATOM     15  C10 UNL     1      -0.615   2.011   2.196  1.00  0.00     0.108 A   
ATOM     16  O1  UNL     1      -2.623   0.965   2.372  1.00  0.00    -0.316 OA  
ATOM     17  O2  UNL     1      -0.779   1.985   3.544  1.00  0.00    -0.316 OA  
ATOM     18  C13 UNL     1      -2.069   1.343   3.653  1.00  0.00     0.337 C   
ENDBRANCH   9  10
ENDBRANCH   6   9
ENDBRANCH   1   6
BRANCH   1  19
ATOM     19  C14 UNL     1       0.924  -1.001  -0.657  1.00  0.00     0.127 A   
ATOM     20  C15 UNL     1       0.476  -1.462   0.558  1.00  0.00     0.137 A   
ATOM     21  N6  UNL     1       2.210  -0.552  -0.520  1.00  0.00    -0.131 NA  
ATOM     22  N2  UNL     1       1.520  -1.227   1.432  1.00  0.00    -0.161 N   
ATOM     23  N5  UNL     1       2.568  -0.707   0.745  1.00  0.00    -0.069 NA  
BRANCH  22  24
ATOM     24  C16 UNL     1       1.523  -1.433   2.829  1.00  0.00     0.166 A   
ATOM     25  C17 UNL     1       2.669  -1.144   3.562  1.00  0.00     0.157 A   
ATOM     26  N4  UNL     1       0.383  -1.896   3.416  1.00  0.00    -0.216 NA  
ATOM     27  N3  UNL     1       2.726  -1.308   4.908  1.00  0.00    -0.258 NA  
ATOM     28  C19 UNL     1       0.453  -2.052   4.758  1.00  0.00     0.149 A   
ATOM     29  C18 UNL     1       1.591  -1.768   5.491  1.00  0.00     0.152 A   
ATOM     30  CL1 UNL     1      -0.986  -2.612   5.493  1.00  0.00    -0.061 Cl  
ENDBRANCH  22  24
ENDBRANCH   1  19
TORSDOF 7
