REMARK SMILES Cc1cccc(N([O-])[O-])c1Cn1cc([C@@H]([NH2+]Cc2ccc3c(c2)OCO3)C(C)(C)C)nn1
REMARK SMILES IDX 12 1 13 2 14 3 31 4 32 5 11 7 10 8 2 9 3 10 4 11 6 12 5 13
REMARK SMILES IDX 1 14 7 15 8 16 9 17 15 18 16 19 17 22 18 23 19 24 23 25
REMARK SMILES IDX 20 26 22 27 21 28 24 29 26 30 25 31 27 32 28 33 29 34 30 35
REMARK H PARENT 13 6 16 20 16 21
ROOT
ATOM     1   N2  UNL     1      -1.625   1.522   1.546  1.00  0.00    -0.208 N   
ATOM     2   C9  UNL     1      -1.946   1.768   0.239  1.00  0.00     0.046 A   
ATOM     3   C10 UNL     1      -1.575   0.615  -0.418  1.00  0.00     0.127 A   
ATOM     4   N4  UNL     1      -1.101  -0.289   0.497  1.00  0.00    -0.132 NA  
ATOM     5   N5  UNL     1      -1.148   0.272   1.694  1.00  0.00    -0.076 NA  
ATOM     6   H9  UNL     1      -2.328   2.724  -0.096  1.00  0.00     0.083 HD  
ENDROOT
BRANCH   1   7
ATOM     7   C8  UNL     1      -1.652   2.452   2.668  1.00  0.00     0.172 C   
BRANCH   7   8
ATOM     8   C7  UNL     1      -0.281   2.646   3.298  1.00  0.00     0.003 A   
ATOM     9   C2  UNL     1      -0.044   2.281   4.646  1.00  0.00    -0.044 A   
ATOM     10  C3  UNL     1       1.238   2.459   5.204  1.00  0.00     0.004 A   
ATOM     11  C4  UNL     1       2.292   2.983   4.457  1.00  0.00     0.002 A   
ATOM     12  C6  UNL     1       0.813   3.186   2.574  1.00  0.00     0.123 A   
ATOM     13  C5  UNL     1       2.086   3.349   3.134  1.00  0.00     0.031 A   
ATOM     14  C1  UNL     1      -1.118   1.689   5.525  1.00  0.00     0.045 C   
BRANCH  12  15
ATOM     15  N1  UNL     1       0.664   3.588   1.183  1.00  0.00     0.092 N   
ATOM     16  O1  UNL     1       1.352   2.994   0.339  1.00  0.00    -0.138 OA  
ATOM     17  O2  UNL     1      -0.179   4.457   0.930  1.00  0.00    -0.138 OA  
ENDBRANCH  12  15
ENDBRANCH   7   8
ENDBRANCH   1   7
BRANCH   3  18
ATOM     18  C11 UNL     1      -1.506   0.291  -1.880  1.00  0.00     0.120 C   
BRANCH  18  19
ATOM     19  N3  UNL     1      -0.224  -0.464  -2.143  1.00  0.00     0.250 N   
ATOM     20  H11 UNL     1      -0.234  -0.957  -3.038  1.00  0.00     0.199 HD  
ATOM     21  H12 UNL     1      -0.151  -1.188  -1.412  1.00  0.00     0.199 HD  
BRANCH  19  22
ATOM     22  C12 UNL     1       1.023   0.353  -2.067  1.00  0.00     0.164 C   
BRANCH  22  23
ATOM     23  C13 UNL     1       2.228  -0.519  -2.281  1.00  0.00    -0.002 A   
ATOM     24  C14 UNL     1       2.741  -0.730  -3.583  1.00  0.00     0.012 A   
ATOM     25  C18 UNL     1       2.818  -1.177  -1.187  1.00  0.00     0.045 A   
ATOM     26  C15 UNL     1       3.832  -1.581  -3.794  1.00  0.00     0.037 A   
ATOM     27  C17 UNL     1       3.892  -2.007  -1.431  1.00  0.00     0.109 A   
ATOM     28  C16 UNL     1       4.384  -2.205  -2.697  1.00  0.00     0.108 A   
ATOM     29  O3  UNL     1       4.573  -2.715  -0.492  1.00  0.00    -0.316 OA  
ATOM     30  O4  UNL     1       5.439  -3.061  -2.717  1.00  0.00    -0.316 OA  
ATOM     31  C19 UNL     1       5.566  -3.373  -1.312  1.00  0.00     0.337 C   
ENDBRANCH  22  23
ENDBRANCH  19  22
ENDBRANCH  18  19
BRANCH  18  32
ATOM     32  C20 UNL     1      -2.739  -0.514  -2.420  1.00  0.00     0.010 C   
ATOM     33  C21 UNL     1      -2.862  -1.913  -1.786  1.00  0.00     0.017 C   
ATOM     34  C22 UNL     1      -4.043   0.266  -2.139  1.00  0.00     0.017 C   
ATOM     35  C23 UNL     1      -2.640  -0.685  -3.954  1.00  0.00     0.017 C   
ENDBRANCH  18  32
ENDBRANCH   3  18
TORSDOF 8
