REMARK SMILES Cc1c(F)cccc1CCn1cc([C@@H]([NH2+]Cc2ccc3c(c2)OCO3)C2CCCC2)nn1
REMARK SMILES IDX 11 1 12 2 13 3 31 4 32 5 10 7 9 8 8 9 2 10 3 11 5 12 7 13
REMARK SMILES IDX 6 14 1 15 4 16 14 17 15 18 16 21 17 22 18 23 22 24 19 25
REMARK SMILES IDX 21 26 20 27 23 28 25 29 24 30 26 31 27 32 30 33 28 34 29 35
REMARK H PARENT 12 6 15 19 15 20
ROOT
ATOM     1   N1  UNL     1      -3.666  -0.348   0.169  1.00  0.00    -0.212 N   
ATOM     2   C10 UNL     1      -2.637  -0.664   1.010  1.00  0.00     0.045 A   
ATOM     3   C11 UNL     1      -1.558  -0.816   0.167  1.00  0.00     0.127 A   
ATOM     4   N3  UNL     1      -1.977  -0.662  -1.131  1.00  0.00    -0.132 NA  
ATOM     5   N4  UNL     1      -3.274  -0.402  -1.117  1.00  0.00    -0.076 NA  
ATOM     6   H11 UNL     1      -2.757  -0.706   2.087  1.00  0.00     0.083 HD  
ENDROOT
BRANCH   1   7
ATOM     7   C9  UNL     1      -5.015   0.046   0.517  1.00  0.00     0.139 C   
BRANCH   7   8
ATOM     8   C8  UNL     1      -5.224   1.564   0.460  1.00  0.00     0.057 C   
BRANCH   8   9
ATOM     9   C7  UNL     1      -4.365   2.315   1.460  1.00  0.00    -0.041 A   
ATOM     10  C2  UNL     1      -3.250   3.090   1.076  1.00  0.00    -0.012 A   
ATOM     11  C3  UNL     1      -2.471   3.688   2.078  1.00  0.00     0.126 A   
ATOM     12  C4  UNL     1      -2.786   3.567   3.427  1.00  0.00     0.039 A   
ATOM     13  C6  UNL     1      -4.681   2.208   2.828  1.00  0.00     0.004 A   
ATOM     14  C5  UNL     1      -3.901   2.831   3.804  1.00  0.00     0.003 A   
ATOM     15  C1  UNL     1      -2.869   3.310  -0.363  1.00  0.00     0.048 C   
ATOM     16  F1  UNL     1      -1.380   4.394   1.742  1.00  0.00    -0.207 F   
ENDBRANCH   8   9
ENDBRANCH   7   8
ENDBRANCH   1   7
BRANCH   3  17
ATOM     17  C12 UNL     1      -0.119  -1.109   0.448  1.00  0.00     0.117 C   
BRANCH  17  18
ATOM     18  N2  UNL     1       0.556  -1.660  -0.780  1.00  0.00     0.249 N   
ATOM     19  H13 UNL     1       1.573  -1.530  -0.760  1.00  0.00     0.199 HD  
ATOM     20  H14 UNL     1       0.214  -1.100  -1.577  1.00  0.00     0.199 HD  
BRANCH  18  21
ATOM     21  C13 UNL     1       0.250  -3.082  -1.099  1.00  0.00     0.164 C   
BRANCH  21  22
ATOM     22  C14 UNL     1       0.839  -3.447  -2.432  1.00  0.00    -0.002 A   
ATOM     23  C15 UNL     1       2.120  -4.040  -2.515  1.00  0.00     0.012 A   
ATOM     24  C19 UNL     1       0.141  -3.136  -3.612  1.00  0.00     0.045 A   
ATOM     25  C16 UNL     1       2.699  -4.325  -3.757  1.00  0.00     0.037 A   
ATOM     26  C18 UNL     1       0.741  -3.430  -4.819  1.00  0.00     0.109 A   
ATOM     27  C17 UNL     1       1.984  -4.006  -4.891  1.00  0.00     0.108 A   
ATOM     28  O1  UNL     1       0.204  -3.190  -6.045  1.00  0.00    -0.316 OA  
ATOM     29  O2  UNL     1       2.391  -4.203  -6.172  1.00  0.00    -0.316 OA  
ATOM     30  C20 UNL     1       1.256  -3.692  -6.905  1.00  0.00     0.337 C   
ENDBRANCH  21  22
ENDBRANCH  18  21
ENDBRANCH  17  18
BRANCH  17  31
ATOM     31  C21 UNL     1       0.631   0.147   0.954  1.00  0.00     0.043 C   
ATOM     32  C22 UNL     1       0.740   1.302  -0.062  1.00  0.00     0.010 C   
ATOM     33  C25 UNL     1       2.076  -0.135   1.411  1.00  0.00     0.010 C   
ATOM     34  C23 UNL     1       2.117   1.907   0.168  1.00  0.00     0.001 C   
ATOM     35  C24 UNL     1       2.972   0.700   0.507  1.00  0.00     0.001 C   
ENDBRANCH  17  31
ENDBRANCH   3  17
TORSDOF 8
