REMARK SMILES Cc1ccc([C@@H](CO)n2cc([C@@H]([NH2+]Cc3ccc4c(c3)OCO4)C3CCCC3)nn2)o1
REMARK SMILES IDX 9 1 10 2 11 3 29 4 30 5 6 7 5 8 2 9 3 10 31 11 4 12 1 13
REMARK SMILES IDX 7 14 8 15 12 17 13 18 14 21 15 22 16 23 20 24 17 25 19 26
REMARK SMILES IDX 18 27 21 28 23 29 22 30 24 31 25 32 28 33 26 34 27 35
REMARK H PARENT 10 6 8 16 13 19 13 20
ROOT
ATOM     1   N1  UNL     1       1.987   1.131   2.102  1.00  0.00    -0.200 N   
ATOM     2   C8  UNL     1       2.270   0.336   1.021  1.00  0.00     0.046 A   
ATOM     3   C9  UNL     1       1.133   0.398   0.249  1.00  0.00     0.127 A   
ATOM     4   N3  UNL     1       0.201   1.181   0.879  1.00  0.00    -0.132 NA  
ATOM     5   N4  UNL     1       0.723   1.607   2.015  1.00  0.00    -0.075 NA  
ATOM     6   H10 UNL     1       3.216  -0.176   0.910  1.00  0.00     0.083 HD  
ENDROOT
BRANCH   1   7
ATOM     7   C6  UNL     1       2.804   1.439   3.272  1.00  0.00     0.179 C   
BRANCH   7   8
ATOM     8   C5  UNL     1       2.686   0.323   4.259  1.00  0.00     0.084 A   
ATOM     9   C2  UNL     1       3.109  -1.701   4.998  1.00  0.00     0.056 A   
ATOM     10  C3  UNL     1       2.302  -1.104   5.941  1.00  0.00     0.031 A   
ATOM     11  O4  UNL     1       3.343  -0.840   3.968  1.00  0.00    -0.317 OA  
ATOM     12  C4  UNL     1       2.026   0.201   5.465  1.00  0.00     0.034 A   
ATOM     13  C1  UNL     1       3.746  -3.030   4.902  1.00  0.00     0.073 C   
ENDBRANCH   7   8
BRANCH   7  14
ATOM     14  C7  UNL     1       4.273   1.742   2.934  1.00  0.00     0.188 C   
BRANCH  14  15
ATOM     15  O1  UNL     1       4.379   2.893   2.097  1.00  0.00    -0.394 OA  
ATOM     16  H9  UNL     1       5.312   3.175   2.099  1.00  0.00     0.210 HD  
ENDBRANCH  14  15
ENDBRANCH   7  14
ENDBRANCH   1   7
BRANCH   3  17
ATOM     17  C10 UNL     1       0.778  -0.257  -1.045  1.00  0.00     0.117 C   
BRANCH  17  18
ATOM     18  N2  UNL     1      -0.701  -0.527  -1.088  1.00  0.00     0.249 N   
ATOM     19  H12 UNL     1      -1.162   0.319  -0.717  1.00  0.00     0.199 HD  
ATOM     20  H13 UNL     1      -1.052  -0.648  -2.042  1.00  0.00     0.199 HD  
BRANCH  18  21
ATOM     21  C11 UNL     1      -1.159  -1.669  -0.249  1.00  0.00     0.164 C   
BRANCH  21  22
ATOM     22  C12 UNL     1      -2.655  -1.799  -0.313  1.00  0.00    -0.002 A   
ATOM     23  C13 UNL     1      -3.260  -2.692  -1.228  1.00  0.00     0.012 A   
ATOM     24  C17 UNL     1      -3.463  -0.988   0.503  1.00  0.00     0.045 A   
ATOM     25  C14 UNL     1      -4.653  -2.785  -1.324  1.00  0.00     0.037 A   
ATOM     26  C16 UNL     1      -4.832  -1.104   0.382  1.00  0.00     0.109 A   
ATOM     27  C15 UNL     1      -5.411  -1.977  -0.506  1.00  0.00     0.108 A   
ATOM     28  O2  UNL     1      -5.752  -0.394   1.086  1.00  0.00    -0.316 OA  
ATOM     29  O3  UNL     1      -6.768  -1.930  -0.470  1.00  0.00    -0.316 OA  
ATOM     30  C18 UNL     1      -6.982  -0.938   0.557  1.00  0.00     0.337 C   
ENDBRANCH  21  22
ENDBRANCH  18  21
ENDBRANCH  17  18
BRANCH  17  31
ATOM     31  C19 UNL     1       1.219   0.596  -2.252  1.00  0.00     0.043 C   
ATOM     32  C20 UNL     1       1.088  -0.099  -3.609  1.00  0.00     0.010 C   
ATOM     33  C23 UNL     1       0.461   1.911  -2.474  1.00  0.00     0.010 C   
ATOM     34  C21 UNL     1       1.317   1.037  -4.597  1.00  0.00     0.001 C   
ATOM     35  C22 UNL     1       0.709   2.275  -3.939  1.00  0.00     0.001 C   
ENDBRANCH  17  31
ENDBRANCH   3  17
TORSDOF 9
