REMARK SMILES Cc1ccc([C@H](CO)n2cc([C@@H]([NH2+]Cc3ccc4c(c3)OCO4)C3CCCC3)nn2)o1
REMARK SMILES IDX 9 1 10 2 11 3 29 4 30 5 6 7 5 8 2 9 3 10 31 11 4 12 1 13
REMARK SMILES IDX 7 14 8 15 12 17 13 18 14 21 15 22 16 23 20 24 17 25 19 26
REMARK SMILES IDX 18 27 21 28 23 29 22 30 24 31 25 32 28 33 26 34 27 35
REMARK H PARENT 10 6 8 16 13 19 13 20
ROOT
ATOM     1   N1  UNL     1       0.750   0.135  -1.481  1.00  0.00    -0.200 N   
ATOM     2   C8  UNL     1      -0.190  -0.672  -0.894  1.00  0.00     0.046 A   
ATOM     3   C9  UNL     1      -1.098   0.211  -0.357  1.00  0.00     0.127 A   
ATOM     4   N3  UNL     1      -0.690   1.495  -0.615  1.00  0.00    -0.132 NA  
ATOM     5   N4  UNL     1       0.445   1.440  -1.289  1.00  0.00    -0.075 NA  
ATOM     6   H10 UNL     1      -0.114  -1.750  -0.904  1.00  0.00     0.083 HD  
ENDROOT
BRANCH   1   7
ATOM     7   C6  UNL     1       1.953  -0.277  -2.204  1.00  0.00     0.179 C   
BRANCH   7   8
ATOM     8   C5  UNL     1       3.157  -0.037  -1.352  1.00  0.00     0.084 A   
ATOM     9   C2  UNL     1       4.875  -0.732  -0.176  1.00  0.00     0.056 A   
ATOM     10  C3  UNL     1       4.918   0.642  -0.142  1.00  0.00     0.031 A   
ATOM     11  O4  UNL     1       3.804  -1.152  -0.905  1.00  0.00    -0.317 OA  
ATOM     12  C4  UNL     1       3.809   1.093  -0.899  1.00  0.00     0.034 A   
ATOM     13  C1  UNL     1       5.737  -1.786   0.394  1.00  0.00     0.073 C   
ENDBRANCH   7   8
BRANCH   7  14
ATOM     14  C7  UNL     1       2.066   0.411  -3.572  1.00  0.00     0.188 C   
BRANCH  14  15
ATOM     15  O1  UNL     1       1.071  -0.092  -4.468  1.00  0.00    -0.394 OA  
ATOM     16  H9  UNL     1       1.144   0.424  -5.294  1.00  0.00     0.210 HD  
ENDBRANCH  14  15
ENDBRANCH   7  14
ENDBRANCH   1   7
BRANCH   3  17
ATOM     17  C10 UNL     1      -2.323  -0.002   0.473  1.00  0.00     0.117 C   
BRANCH  17  18
ATOM     18  N2  UNL     1      -2.391   1.107   1.508  1.00  0.00     0.249 N   
ATOM     19  H12 UNL     1      -3.328   1.520   1.551  1.00  0.00     0.199 HD  
ATOM     20  H13 UNL     1      -1.785   1.862   1.142  1.00  0.00     0.199 HD  
BRANCH  18  21
ATOM     21  C11 UNL     1      -1.929   0.763   2.883  1.00  0.00     0.164 C   
BRANCH  21  22
ATOM     22  C12 UNL     1      -0.523   0.230   2.946  1.00  0.00    -0.002 A   
ATOM     23  C13 UNL     1       0.580   1.061   2.631  1.00  0.00     0.012 A   
ATOM     24  C17 UNL     1      -0.296  -1.115   3.288  1.00  0.00     0.045 A   
ATOM     25  C14 UNL     1       1.885   0.559   2.637  1.00  0.00     0.037 A   
ATOM     26  C16 UNL     1       1.004  -1.578   3.285  1.00  0.00     0.109 A   
ATOM     27  C15 UNL     1       2.064  -0.766   2.966  1.00  0.00     0.108 A   
ATOM     28  O2  UNL     1       1.391  -2.847   3.581  1.00  0.00    -0.316 OA  
ATOM     29  O3  UNL     1       3.252  -1.421   3.024  1.00  0.00    -0.316 OA  
ATOM     30  C18 UNL     1       2.824  -2.735   3.439  1.00  0.00     0.337 C   
ENDBRANCH  21  22
ENDBRANCH  18  21
ENDBRANCH  17  18
BRANCH  17  31
ATOM     31  C19 UNL     1      -3.613   0.019  -0.369  1.00  0.00     0.043 C   
ATOM     32  C20 UNL     1      -4.890  -0.242   0.437  1.00  0.00     0.010 C   
ATOM     33  C23 UNL     1      -3.670  -1.101  -1.417  1.00  0.00     0.010 C   
ATOM     34  C21 UNL     1      -5.923  -0.574  -0.630  1.00  0.00     0.001 C   
ATOM     35  C22 UNL     1      -5.152  -1.291  -1.735  1.00  0.00     0.001 C   
ENDBRANCH  17  31
ENDBRANCH   3  17
TORSDOF 9
