REMARK SMILES CC(C)(C)[C@H]([NH2+]Cc1ccc2c(c1)OCO2)c1cn(CCc2ccc3[nH]cnc3c2)nn1
REMARK SMILES IDX 17 1 18 2 19 3 31 4 32 5 5 7 2 8 1 9 3 10 4 11 6 12 7 15
REMARK SMILES IDX 8 16 9 17 13 18 10 19 12 20 11 21 14 22 16 23 15 24 20 25
REMARK SMILES IDX 21 26 22 27 23 28 30 29 24 30 29 31 25 32 28 33 26 34 27 35
REMARK H PARENT 18 6 6 13 6 14 26 36
ROOT
ATOM     1   C14 UNL     1      -1.400   0.689   0.573  1.00  0.00     0.127 A   
ATOM     2   C15 UNL     1      -1.175   1.664   1.520  1.00  0.00     0.045 A   
ATOM     3   N2  UNL     1      -1.687   1.132   2.670  1.00  0.00    -0.212 N   
ATOM     4   N5  UNL     1      -2.248  -0.069   2.438  1.00  0.00    -0.076 NA  
ATOM     5   N6  UNL     1      -2.074  -0.355   1.157  1.00  0.00    -0.132 NA  
ATOM     6   H20 UNL     1      -0.654   2.612   1.502  1.00  0.00     0.083 HD  
ENDROOT
BRANCH   1   7
ATOM     7   C5  UNL     1      -0.947   0.579  -0.851  1.00  0.00     0.120 C   
BRANCH   7   8
ATOM     8   C2  UNL     1      -2.003   1.077  -1.900  1.00  0.00     0.010 C   
ATOM     9   C1  UNL     1      -3.276   0.207  -1.921  1.00  0.00     0.017 C   
ATOM     10  C3  UNL     1      -2.416   2.534  -1.591  1.00  0.00     0.017 C   
ATOM     11  C4  UNL     1      -1.392   1.076  -3.321  1.00  0.00     0.017 C   
ENDBRANCH   7   8
BRANCH   7  12
ATOM     12  N1  UNL     1      -0.558  -0.852  -1.137  1.00  0.00     0.250 N   
ATOM     13  H11 UNL     1      -0.514  -1.053  -2.139  1.00  0.00     0.199 HD  
ATOM     14  H12 UNL     1      -1.302  -1.450  -0.750  1.00  0.00     0.199 HD  
BRANCH  12  15
ATOM     15  C6  UNL     1       0.725  -1.302  -0.516  1.00  0.00     0.164 C   
BRANCH  15  16
ATOM     16  C7  UNL     1       1.024  -2.718  -0.924  1.00  0.00    -0.002 A   
ATOM     17  C8  UNL     1       0.514  -3.799  -0.165  1.00  0.00     0.012 A   
ATOM     18  C12 UNL     1       1.761  -2.978  -2.092  1.00  0.00     0.045 A   
ATOM     19  C9  UNL     1       0.743  -5.122  -0.557  1.00  0.00     0.037 A   
ATOM     20  C11 UNL     1       1.968  -4.293  -2.450  1.00  0.00     0.109 A   
ATOM     21  C10 UNL     1       1.473  -5.336  -1.705  1.00  0.00     0.108 A   
ATOM     22  O1  UNL     1       2.654  -4.716  -3.544  1.00  0.00    -0.316 OA  
ATOM     23  O2  UNL     1       1.788  -6.546  -2.235  1.00  0.00    -0.316 OA  
ATOM     24  C13 UNL     1       2.559  -6.150  -3.389  1.00  0.00     0.337 C   
ENDBRANCH  15  16
ENDBRANCH  12  15
ENDBRANCH   7  12
ENDBRANCH   1   7
BRANCH   3  25
ATOM     25  C16 UNL     1      -1.536   1.630   4.024  1.00  0.00     0.139 C   
BRANCH  25  26
ATOM     26  C17 UNL     1      -0.440   0.902   4.814  1.00  0.00     0.057 C   
BRANCH  26  27
ATOM     27  C18 UNL     1       0.926   1.035   4.175  1.00  0.00    -0.044 A   
ATOM     28  C19 UNL     1       1.775   2.102   4.502  1.00  0.00     0.006 A   
ATOM     29  C24 UNL     1       1.313   0.113   3.184  1.00  0.00     0.034 A   
ATOM     30  C20 UNL     1       3.007   2.284   3.858  1.00  0.00     0.026 A   
ATOM     31  C23 UNL     1       2.510   0.318   2.484  1.00  0.00     0.086 A   
ATOM     32  C21 UNL     1       3.330   1.378   2.847  1.00  0.00     0.057 A   
ATOM     33  N4  UNL     1       3.032  -0.373   1.415  1.00  0.00    -0.239 NA  
ATOM     34  N3  UNL     1       4.419   1.257   2.021  1.00  0.00    -0.304 N   
ATOM     35  C22 UNL     1       4.195   0.197   1.184  1.00  0.00     0.186 A   
ATOM     36  H27 UNL     1       5.244   1.840   2.034  1.00  0.00     0.154 HD  
ENDBRANCH  26  27
ENDBRANCH  25  26
ENDBRANCH   3  25
TORSDOF 8
