REMARK SMILES Cc1cscc1CCn1cc([C@@H]([NH2+]Cc2ccc3c(c2)OCO3)C2CCCC2)nn1
REMARK SMILES IDX 9 1 10 2 11 3 29 4 30 5 8 7 7 8 6 9 2 10 3 11 4 12 5 13 1 14
REMARK SMILES IDX 12 15 13 16 14 19 15 20 16 21 20 22 17 23 19 24 18 25 21 26
REMARK SMILES IDX 23 27 22 28 24 29 25 30 28 31 26 32 27 33
REMARK H PARENT 10 6 13 17 13 18
ROOT
ATOM     1   N1  UNL     1       1.713  -2.772  -1.621  1.00  0.00    -0.212 N   
ATOM     2   C8  UNL     1       0.831  -2.989  -0.600  1.00  0.00     0.045 A   
ATOM     3   C9  UNL     1      -0.128  -2.018  -0.780  1.00  0.00     0.127 A   
ATOM     4   N3  UNL     1       0.179  -1.282  -1.897  1.00  0.00    -0.132 NA  
ATOM     5   N4  UNL     1       1.306  -1.756  -2.404  1.00  0.00    -0.076 NA  
ATOM     6   H10 UNL     1       0.991  -3.748   0.154  1.00  0.00     0.083 HD  
ENDROOT
BRANCH   1   7
ATOM     7   C7  UNL     1       2.995  -3.408  -1.839  1.00  0.00     0.139 C   
BRANCH   7   8
ATOM     8   C6  UNL     1       4.177  -2.500  -1.488  1.00  0.00     0.057 C   
BRANCH   8   9
ATOM     9   C5  UNL     1       4.128  -1.979  -0.072  1.00  0.00    -0.036 A   
ATOM     10  C2  UNL     1       4.533  -2.704   1.110  1.00  0.00    -0.041 A   
ATOM     11  C3  UNL     1       4.318  -1.954   2.252  1.00  0.00     0.049 A   
ATOM     12  S1  UNL     1       3.648  -0.419   1.927  1.00  0.00    -0.105 S   
ATOM     13  C4  UNL     1       3.670  -0.712   0.249  1.00  0.00     0.049 A   
ATOM     14  C1  UNL     1       5.121  -4.079   1.121  1.00  0.00     0.045 C   
ENDBRANCH   8   9
ENDBRANCH   7   8
ENDBRANCH   1   7
BRANCH   3  15
ATOM     15  C10 UNL     1      -1.306  -1.633   0.053  1.00  0.00     0.117 C   
BRANCH  15  16
ATOM     16  N2  UNL     1      -1.451  -0.136   0.067  1.00  0.00     0.249 N   
ATOM     17  H12 UNL     1      -2.387   0.164   0.355  1.00  0.00     0.199 HD  
ATOM     18  H13 UNL     1      -1.332   0.184  -0.906  1.00  0.00     0.199 HD  
BRANCH  16  19
ATOM     19  C11 UNL     1      -0.439   0.589   0.887  1.00  0.00     0.164 C   
BRANCH  19  20
ATOM     20  C12 UNL     1      -0.662   2.072   0.803  1.00  0.00    -0.002 A   
ATOM     21  C13 UNL     1      -1.422   2.740   1.793  1.00  0.00     0.012 A   
ATOM     22  C17 UNL     1      -0.158   2.796  -0.293  1.00  0.00     0.045 A   
ATOM     23  C14 UNL     1      -1.671   4.114   1.700  1.00  0.00     0.037 A   
ATOM     24  C16 UNL     1      -0.424   4.148  -0.355  1.00  0.00     0.109 A   
ATOM     25  C15 UNL     1      -1.158   4.789   0.613  1.00  0.00     0.108 A   
ATOM     26  O1  UNL     1      -0.017   4.989  -1.341  1.00  0.00    -0.316 OA  
ATOM     27  O2  UNL     1      -1.303   6.116   0.360  1.00  0.00    -0.316 OA  
ATOM     28  C18 UNL     1      -0.563   6.243  -0.875  1.00  0.00     0.337 C   
ENDBRANCH  19  20
ENDBRANCH  16  19
ENDBRANCH  15  16
BRANCH  15  29
ATOM     29  C19 UNL     1      -2.599  -2.312  -0.435  1.00  0.00     0.043 C   
ATOM     30  C20 UNL     1      -3.804  -2.136   0.491  1.00  0.00     0.010 C   
ATOM     31  C23 UNL     1      -3.139  -1.866  -1.802  1.00  0.00     0.010 C   
ATOM     32  C21 UNL     1      -4.956  -2.648  -0.360  1.00  0.00     0.001 C   
ATOM     33  C22 UNL     1      -4.643  -2.156  -1.769  1.00  0.00     0.001 C   
ENDBRANCH  15  29
ENDBRANCH   3  15
TORSDOF 8
