REMARK SMILES CC(C)C[C@H]([NH2+]Cc1ccc2c(c1)OCO2)c1cn(CCc2ccc(O)cc2O)nn1
REMARK SMILES IDX 17 1 18 2 19 3 30 4 31 5 5 7 4 8 2 9 1 10 3 11 6 12 7 15
REMARK SMILES IDX 8 16 9 17 13 18 10 19 12 20 11 21 14 22 16 23 15 24 20 25
REMARK SMILES IDX 21 26 22 27 23 28 28 29 24 30 27 31 25 32 29 33 26 35
REMARK H PARENT 18 6 6 13 6 14 29 34 26 36
ROOT
ATOM     1   C14 UNL     1      -1.841   0.541  -0.340  1.00  0.00     0.127 A   
ATOM     2   C15 UNL     1      -2.384  -0.170   0.711  1.00  0.00     0.045 A   
ATOM     3   N2  UNL     1      -2.896   0.801   1.526  1.00  0.00    -0.212 N   
ATOM     4   N3  UNL     1      -2.781   2.017   0.964  1.00  0.00    -0.076 NA  
ATOM     5   N4  UNL     1      -2.135   1.870  -0.180  1.00  0.00    -0.132 NA  
ATOM     6   H20 UNL     1      -2.330  -1.206   1.013  1.00  0.00     0.083 HD  
ENDROOT
BRANCH   1   7
ATOM     7   C5  UNL     1      -0.850   0.148  -1.385  1.00  0.00     0.114 C   
BRANCH   7   8
ATOM     8   C4  UNL     1      -0.972  -1.300  -1.885  1.00  0.00     0.064 C   
BRANCH   8   9
ATOM     9   C2  UNL     1      -2.298  -1.627  -2.604  1.00  0.00    -0.012 C   
ATOM     10  C1  UNL     1      -2.333  -3.115  -2.966  1.00  0.00     0.007 C   
ATOM     11  C3  UNL     1      -2.500  -0.784  -3.864  1.00  0.00     0.007 C   
ENDBRANCH   8   9
ENDBRANCH   7   8
BRANCH   7  12
ATOM     12  N1  UNL     1       0.527   0.332  -0.789  1.00  0.00     0.249 N   
ATOM     13  H11 UNL     1       0.823  -0.512  -0.285  1.00  0.00     0.199 HD  
ATOM     14  H12 UNL     1       0.454   1.038  -0.029  1.00  0.00     0.199 HD  
BRANCH  12  15
ATOM     15  C6  UNL     1       1.585   0.786  -1.719  1.00  0.00     0.164 C   
BRANCH  15  16
ATOM     16  C7  UNL     1       2.905   0.901  -1.012  1.00  0.00    -0.002 A   
ATOM     17  C8  UNL     1       3.839  -0.161  -1.060  1.00  0.00     0.012 A   
ATOM     18  C12 UNL     1       3.196   2.044  -0.246  1.00  0.00     0.045 A   
ATOM     19  C9  UNL     1       5.051  -0.083  -0.366  1.00  0.00     0.037 A   
ATOM     20  C11 UNL     1       4.398   2.087   0.429  1.00  0.00     0.109 A   
ATOM     21  C10 UNL     1       5.301   1.054   0.369  1.00  0.00     0.108 A   
ATOM     22  O1  UNL     1       4.828   3.109   1.214  1.00  0.00    -0.316 OA  
ATOM     23  O2  UNL     1       6.417   1.299   1.104  1.00  0.00    -0.316 OA  
ATOM     24  C13 UNL     1       6.115   2.605   1.639  1.00  0.00     0.337 C   
ENDBRANCH  15  16
ENDBRANCH  12  15
ENDBRANCH   7  12
ENDBRANCH   1   7
BRANCH   3  25
ATOM     25  C16 UNL     1      -3.188   0.693   2.941  1.00  0.00     0.139 C   
BRANCH  25  26
ATOM     26  C17 UNL     1      -2.041   1.239   3.804  1.00  0.00     0.059 C   
BRANCH  26  27
ATOM     27  C18 UNL     1      -0.760   0.434   3.695  1.00  0.00    -0.016 A   
ATOM     28  C19 UNL     1      -0.590  -0.651   4.576  1.00  0.00     0.009 A   
ATOM     29  C23 UNL     1       0.252   0.680   2.751  1.00  0.00     0.077 A   
ATOM     30  C20 UNL     1       0.548  -1.460   4.518  1.00  0.00     0.033 A   
ATOM     31  C22 UNL     1       1.393  -0.119   2.701  1.00  0.00     0.066 A   
ATOM     32  C21 UNL     1       1.529  -1.186   3.577  1.00  0.00     0.074 A   
BRANCH  29  33
ATOM     33  O4  UNL     1       0.188   1.660   1.794  1.00  0.00    -0.361 OA  
ATOM     34  H29 UNL     1      -0.558   2.262   1.992  1.00  0.00     0.218 HD  
ENDBRANCH  29  33
BRANCH  32  35
ATOM     35  O3  UNL     1       2.649  -1.954   3.466  1.00  0.00    -0.361 OA  
ATOM     36  H27 UNL     1       2.700  -2.555   4.230  1.00  0.00     0.218 HD  
ENDBRANCH  32  35
ENDBRANCH  26  27
ENDBRANCH  25  26
ENDBRANCH   3  25
TORSDOF 11
