REMARK SMILES OCc1cc(-n2cc([C@@H]([NH2+]Cc3ccc4c(c3)OCO4)C3CCCC3)nn2)ccc1F
REMARK SMILES IDX 6 1 7 2 8 3 26 4 27 5 5 6 3 7 4 8 30 9 29 10 28 11 31 12
REMARK SMILES IDX 2 13 1 14 9 16 10 17 11 20 12 21 13 22 17 23 14 24 16 25
REMARK SMILES IDX 15 26 18 27 20 28 19 29 21 30 22 31 25 32 23 33 24 34
REMARK H PARENT 1 15 10 18 10 19
ROOT
ATOM     1   N1  UNL     1      -1.329  -1.781  -1.165  1.00  0.00    -0.181 N   
ATOM     2   C5  UNL     1      -0.615  -1.132  -0.176  1.00  0.00     0.135 A   
ATOM     3   C6  UNL     1      -1.094   0.159  -0.176  1.00  0.00     0.127 A   
ATOM     4   N3  UNL     1      -2.044   0.283  -1.149  1.00  0.00    -0.131 NA  
ATOM     5   N4  UNL     1      -2.170  -0.888  -1.750  1.00  0.00    -0.071 NA  
ENDROOT
BRANCH   1   6
ATOM     6   C4  UNL     1      -1.251  -3.132  -1.587  1.00  0.00     0.058 A   
ATOM     7   C2  UNL     1      -0.278  -5.363  -1.400  1.00  0.00     0.015 A   
ATOM     8   C3  UNL     1      -0.359  -4.026  -0.973  1.00  0.00     0.035 A   
ATOM     9   C23 UNL     1      -1.113  -5.782  -2.439  1.00  0.00     0.128 A   
ATOM     10  C22 UNL     1      -2.003  -4.908  -3.054  1.00  0.00     0.041 A   
ATOM     11  C21 UNL     1      -2.075  -3.580  -2.631  1.00  0.00     0.029 A   
ATOM     12  F1  UNL     1      -1.061  -7.054  -2.859  1.00  0.00    -0.207 F   
BRANCH   7  13
ATOM     13  C1  UNL     1       0.653  -6.365  -0.774  1.00  0.00     0.194 C   
BRANCH  13  14
ATOM     14  O1  UNL     1       1.523  -5.745   0.169  1.00  0.00    -0.392 OA  
ATOM     15  H1  UNL     1       2.094  -6.455   0.514  1.00  0.00     0.211 HD  
ENDBRANCH  13  14
ENDBRANCH   7  13
ENDBRANCH   1   6
BRANCH   3  16
ATOM     16  C7  UNL     1      -0.715   1.351   0.643  1.00  0.00     0.117 C   
BRANCH  16  17
ATOM     17  N2  UNL     1      -0.769   2.602  -0.209  1.00  0.00     0.249 N   
ATOM     18  H7  UNL     1      -1.700   2.614  -0.651  1.00  0.00     0.199 HD  
ATOM     19  H8  UNL     1      -0.702   3.439   0.375  1.00  0.00     0.199 HD  
BRANCH  17  20
ATOM     20  C8  UNL     1       0.245   2.706  -1.302  1.00  0.00     0.164 C   
BRANCH  20  21
ATOM     21  C9  UNL     1       1.654   2.794  -0.785  1.00  0.00    -0.002 A   
ATOM     22  C10 UNL     1       2.544   1.706  -0.953  1.00  0.00     0.012 A   
ATOM     23  C14 UNL     1       2.089   3.944  -0.104  1.00  0.00     0.045 A   
ATOM     24  C11 UNL     1       3.846   1.757  -0.444  1.00  0.00     0.037 A   
ATOM     25  C13 UNL     1       3.378   3.960   0.387  1.00  0.00     0.109 A   
ATOM     26  C12 UNL     1       4.231   2.898   0.224  1.00  0.00     0.108 A   
ATOM     27  O2  UNL     1       3.948   4.985   1.073  1.00  0.00    -0.316 OA  
ATOM     28  O3  UNL     1       5.448   3.119   0.785  1.00  0.00    -0.316 OA  
ATOM     29  C15 UNL     1       5.277   4.458   1.298  1.00  0.00     0.337 C   
ENDBRANCH  20  21
ENDBRANCH  17  20
ENDBRANCH  16  17
BRANCH  16  30
ATOM     30  C16 UNL     1      -1.661   1.547   1.846  1.00  0.00     0.043 C   
ATOM     31  C17 UNL     1      -1.303   2.741   2.741  1.00  0.00     0.010 C   
ATOM     32  C20 UNL     1      -1.634   0.383   2.842  1.00  0.00     0.010 C   
ATOM     33  C18 UNL     1      -1.890   2.424   4.116  1.00  0.00     0.001 C   
ATOM     34  C19 UNL     1      -2.312   0.959   4.075  1.00  0.00     0.001 C   
ENDBRANCH  16  30
ENDBRANCH   3  16
TORSDOF 8
