REMARK SMILES Cc1nc(Cn2cc([C@@H]([NH2+]Cc3ccc4c(c3)OCO4)C3CCCC3)nn2)oc1C
REMARK SMILES IDX 6 1 7 2 8 3 26 4 27 5 5 7 4 8 2 9 3 10 29 11 28 12 1 13
REMARK SMILES IDX 30 14 9 15 10 16 11 19 12 20 13 21 17 22 14 23 16 24 15 25
REMARK SMILES IDX 18 26 20 27 19 28 21 29 22 30 25 31 23 32 24 33
REMARK H PARENT 7 6 10 17 10 18
ROOT
ATOM     1   N2  UNL     1      -2.816   0.789   1.393  1.00  0.00    -0.204 N   
ATOM     2   C5  UNL     1      -2.280  -0.129   0.529  1.00  0.00     0.046 A   
ATOM     3   C6  UNL     1      -1.419  -0.859   1.315  1.00  0.00     0.127 A   
ATOM     4   N4  UNL     1      -1.513  -0.425   2.612  1.00  0.00    -0.132 NA  
ATOM     5   N5  UNL     1      -2.376   0.577   2.649  1.00  0.00    -0.075 NA  
ATOM     6   H6  UNL     1      -2.488  -0.112  -0.532  1.00  0.00     0.083 HD  
ENDROOT
BRANCH   1   7
ATOM     7   C4  UNL     1      -3.671   1.918   1.080  1.00  0.00     0.217 C   
BRANCH   7   8
ATOM     8   C3  UNL     1      -2.852   3.011   0.505  1.00  0.00     0.167 A   
ATOM     9   C2  UNL     1      -1.496   4.257  -0.563  1.00  0.00     0.066 A   
ATOM     10  N1  UNL     1      -1.857   2.943  -0.361  1.00  0.00    -0.229 NA  
ATOM     11  C21 UNL     1      -2.289   5.075   0.215  1.00  0.00     0.079 A   
ATOM     12  O3  UNL     1      -3.168   4.282   0.897  1.00  0.00    -0.297 OA  
ATOM     13  C1  UNL     1      -0.402   4.618  -1.490  1.00  0.00     0.069 C   
ATOM     14  C22 UNL     1      -2.380   6.528   0.448  1.00  0.00     0.075 C   
ENDBRANCH   7   8
ENDBRANCH   1   7
BRANCH   3  15
ATOM     15  C7  UNL     1      -0.391  -1.875   0.947  1.00  0.00     0.117 C   
BRANCH  15  16
ATOM     16  N3  UNL     1       0.907  -1.579   1.663  1.00  0.00     0.249 N   
ATOM     17  H8  UNL     1       1.570  -2.349   1.553  1.00  0.00     0.199 HD  
ATOM     18  H9  UNL     1       0.679  -1.508   2.663  1.00  0.00     0.199 HD  
BRANCH  16  19
ATOM     19  C8  UNL     1       1.583  -0.294   1.298  1.00  0.00     0.164 C   
BRANCH  19  20
ATOM     20  C9  UNL     1       2.019  -0.235  -0.139  1.00  0.00    -0.002 A   
ATOM     21  C10 UNL     1       3.088  -1.040  -0.600  1.00  0.00     0.012 A   
ATOM     22  C14 UNL     1       1.349   0.610  -1.042  1.00  0.00     0.045 A   
ATOM     23  C11 UNL     1       3.479  -1.013  -1.943  1.00  0.00     0.037 A   
ATOM     24  C13 UNL     1       1.761   0.613  -2.358  1.00  0.00     0.109 A   
ATOM     25  C12 UNL     1       2.794  -0.177  -2.796  1.00  0.00     0.108 A   
ATOM     26  O1  UNL     1       1.224   1.365  -3.354  1.00  0.00    -0.316 OA  
ATOM     27  O2  UNL     1       3.035  -0.025  -4.125  1.00  0.00    -0.316 OA  
ATOM     28  C15 UNL     1       2.050   0.970  -4.472  1.00  0.00     0.337 C   
ENDBRANCH  19  20
ENDBRANCH  16  19
ENDBRANCH  15  16
BRANCH  15  29
ATOM     29  C16 UNL     1      -0.868  -3.313   1.240  1.00  0.00     0.043 C   
ATOM     30  C17 UNL     1       0.029  -4.410   0.651  1.00  0.00     0.010 C   
ATOM     31  C20 UNL     1      -1.044  -3.702   2.721  1.00  0.00     0.010 C   
ATOM     32  C18 UNL     1      -0.383  -5.646   1.432  1.00  0.00     0.001 C   
ATOM     33  C19 UNL     1      -0.508  -5.128   2.855  1.00  0.00     0.001 C   
ENDBRANCH  15  29
ENDBRANCH   3  15
TORSDOF 7
