REMARK SMILES Cc1ncc(CCn2cc([C@@H]([NH2+]Cc3ccc4c(c3)OCO4)C3CCCCC3)nn2)s1
REMARK SMILES IDX 8 1 9 2 10 3 29 4 30 5 7 7 6 8 5 9 2 10 3 11 31 12 4 13 1 14
REMARK SMILES IDX 11 15 12 16 13 19 14 20 15 21 19 22 16 23 18 24 17 25 20 26
REMARK SMILES IDX 22 27 21 28 23 29 24 30 28 31 25 32 27 33 26 34
REMARK H PARENT 9 6 12 17 12 18
ROOT
ATOM     1   N2  UNL     1       2.460   0.998  -1.241  1.00  0.00    -0.212 N   
ATOM     2   C7  UNL     1       1.128   0.821  -1.501  1.00  0.00     0.045 A   
ATOM     3   C8  UNL     1       0.515   1.102  -0.298  1.00  0.00     0.127 A   
ATOM     4   N4  UNL     1       1.461   1.523   0.599  1.00  0.00    -0.132 NA  
ATOM     5   N5  UNL     1       2.646   1.446   0.013  1.00  0.00    -0.076 NA  
ATOM     6   H9  UNL     1       0.762   0.463  -2.454  1.00  0.00     0.083 HD  
ENDROOT
BRANCH   1   7
ATOM     7   C6  UNL     1       3.597   0.670  -2.077  1.00  0.00     0.139 C   
BRANCH   7   8
ATOM     8   C5  UNL     1       3.649  -0.800  -2.511  1.00  0.00     0.066 C   
BRANCH   8   9
ATOM     9   C4  UNL     1       3.497  -1.761  -1.371  1.00  0.00     0.011 A   
ATOM     10  C2  UNL     1       3.745  -3.154   0.596  1.00  0.00     0.075 A   
ATOM     11  N1  UNL     1       2.494  -3.209   0.170  1.00  0.00    -0.254 NA  
ATOM     12  S1  UNL     1       4.796  -2.162  -0.328  1.00  0.00    -0.078 S   
ATOM     13  C3  UNL     1       2.370  -2.453  -0.980  1.00  0.00     0.123 A   
ATOM     14  C1  UNL     1       4.272  -3.920   1.757  1.00  0.00     0.075 C   
ENDBRANCH   8   9
ENDBRANCH   7   8
ENDBRANCH   1   7
BRANCH   3  15
ATOM     15  C9  UNL     1      -0.908   0.957   0.149  1.00  0.00     0.117 C   
BRANCH  15  16
ATOM     16  N3  UNL     1      -0.972   0.737   1.642  1.00  0.00     0.249 N   
ATOM     17  H11 UNL     1      -0.342   1.437   2.060  1.00  0.00     0.199 HD  
ATOM     18  H12 UNL     1      -1.911   0.917   2.007  1.00  0.00     0.199 HD  
BRANCH  16  19
ATOM     19  C10 UNL     1      -0.513  -0.599   2.132  1.00  0.00     0.164 C   
BRANCH  19  20
ATOM     20  C11 UNL     1      -1.509  -1.692   1.855  1.00  0.00    -0.002 A   
ATOM     21  C12 UNL     1      -1.171  -2.771   1.005  1.00  0.00     0.012 A   
ATOM     22  C16 UNL     1      -2.784  -1.656   2.443  1.00  0.00     0.045 A   
ATOM     23  C13 UNL     1      -2.087  -3.789   0.725  1.00  0.00     0.037 A   
ATOM     24  C15 UNL     1      -3.663  -2.676   2.150  1.00  0.00     0.109 A   
ATOM     25  C14 UNL     1      -3.327  -3.709   1.312  1.00  0.00     0.108 A   
ATOM     26  O1  UNL     1      -4.925  -2.793   2.639  1.00  0.00    -0.316 OA  
ATOM     27  O2  UNL     1      -4.333  -4.607   1.170  1.00  0.00    -0.316 OA  
ATOM     28  C17 UNL     1      -5.339  -4.042   2.037  1.00  0.00     0.337 C   
ENDBRANCH  19  20
ENDBRANCH  16  19
ENDBRANCH  15  16
BRANCH  15  29
ATOM     29  C18 UNL     1      -1.774   2.184  -0.246  1.00  0.00     0.043 C   
ATOM     30  C19 UNL     1      -1.431   3.469   0.534  1.00  0.00     0.010 C   
ATOM     31  C23 UNL     1      -3.279   1.871  -0.136  1.00  0.00     0.010 C   
ATOM     32  C20 UNL     1      -2.310   4.646   0.108  1.00  0.00     0.001 C   
ATOM     33  C22 UNL     1      -4.140   3.058  -0.567  1.00  0.00     0.001 C   
ATOM     34  C21 UNL     1      -3.792   4.316   0.223  1.00  0.00     0.000 C   
ENDBRANCH  15  29
ENDBRANCH   3  15
TORSDOF 8
