REMARK SMILES Cc1c(Cn2cc([C@@H]([NH2+]Cc3ccc4c(c3)OCO4)C(C)C)nn2)cnn1C
REMARK SMILES IDX 5 1 6 2 7 3 23 4 24 5 4 7 3 8 2 9 27 10 25 11 26 12 1 13
REMARK SMILES IDX 28 14 8 15 9 16 10 19 11 20 12 21 16 22 13 23 15 24 14 25
REMARK SMILES IDX 17 26 19 27 18 28 20 29 21 30 22 31
REMARK H PARENT 6 6 9 17 9 18
ROOT
ATOM     1   N1  UNL     1       2.620   0.277  -1.077  1.00  0.00    -0.208 N   
ATOM     2   C5  UNL     1       2.096   0.932   0.006  1.00  0.00     0.046 A   
ATOM     3   C6  UNL     1       1.259   0.003   0.583  1.00  0.00     0.127 A   
ATOM     4   N3  UNL     1       1.323  -1.166  -0.133  1.00  0.00    -0.132 NA  
ATOM     5   N4  UNL     1       2.153  -0.985  -1.146  1.00  0.00    -0.076 NA  
ATOM     6   H6  UNL     1       2.332   1.964   0.225  1.00  0.00     0.083 HD  
ENDROOT
BRANCH   1   7
ATOM     7   C4  UNL     1       3.504   0.801  -2.108  1.00  0.00     0.172 C   
BRANCH   7   8
ATOM     8   C3  UNL     1       2.778   1.788  -2.955  1.00  0.00     0.010 A   
ATOM     9   C2  UNL     1       3.050   3.131  -3.178  1.00  0.00     0.031 A   
ATOM     10  N6  UNL     1       2.079   3.568  -4.048  1.00  0.00    -0.233 N   
ATOM     11  C19 UNL     1       1.623   1.534  -3.731  1.00  0.00     0.138 A   
ATOM     12  N5  UNL     1       1.173   2.623  -4.347  1.00  0.00    -0.190 NA  
ATOM     13  C1  UNL     1       4.133   4.015  -2.675  1.00  0.00     0.064 C   
ATOM     14  C20 UNL     1       1.939   4.886  -4.625  1.00  0.00     0.159 C   
ENDBRANCH   7   8
ENDBRANCH   1   7
BRANCH   3  15
ATOM     15  C7  UNL     1       0.321   0.103   1.744  1.00  0.00     0.117 C   
BRANCH  15  16
ATOM     16  N2  UNL     1      -0.830  -0.850   1.566  1.00  0.00     0.249 N   
ATOM     17  H8  UNL     1      -0.426  -1.745   1.250  1.00  0.00     0.199 HD  
ATOM     18  H9  UNL     1      -1.312  -1.048   2.447  1.00  0.00     0.199 HD  
BRANCH  16  19
ATOM     19  C8  UNL     1      -1.837  -0.446   0.544  1.00  0.00     0.164 C   
BRANCH  19  20
ATOM     20  C9  UNL     1      -2.890  -1.508   0.400  1.00  0.00    -0.002 A   
ATOM     21  C10 UNL     1      -4.095  -1.432   1.139  1.00  0.00     0.012 A   
ATOM     22  C14 UNL     1      -2.657  -2.615  -0.435  1.00  0.00     0.045 A   
ATOM     23  C11 UNL     1      -5.061  -2.439   1.041  1.00  0.00     0.037 A   
ATOM     24  C13 UNL     1      -3.630  -3.590  -0.507  1.00  0.00     0.109 A   
ATOM     25  C12 UNL     1      -4.798  -3.505   0.210  1.00  0.00     0.108 A   
ATOM     26  O1  UNL     1      -3.563  -4.719  -1.260  1.00  0.00    -0.316 OA  
ATOM     27  O2  UNL     1      -5.615  -4.569  -0.004  1.00  0.00    -0.316 OA  
ATOM     28  C15 UNL     1      -4.839  -5.327  -0.956  1.00  0.00     0.337 C   
ENDBRANCH  19  20
ENDBRANCH  16  19
ENDBRANCH  15  16
BRANCH  15  29
ATOM     29  C16 UNL     1       1.032  -0.154   3.098  1.00  0.00     0.037 C   
ATOM     30  C17 UNL     1       0.158   0.271   4.284  1.00  0.00     0.014 C   
ATOM     31  C18 UNL     1       1.498  -1.601   3.292  1.00  0.00     0.014 C   
ENDBRANCH  15  29
ENDBRANCH   3  15
TORSDOF 7
