REMARK SMILES O=c1cc(-n2cc([C@@H]([NH2+]Cc3ccc4c(c3)OCO4)C3CCCC3)nn2)c2ccccc2o1
REMARK SMILES IDX 8 1 7 2 5 3 6 4 26 5 25 6 4 7 2 8 3 9 33 10 32 11 27 12
REMARK SMILES IDX 31 13 28 14 30 15 29 16 1 17 9 18 10 21 11 22 12 23 16 24
REMARK SMILES IDX 13 25 15 26 14 27 17 28 19 29 18 30 20 31 21 32 24 33 22 34
REMARK SMILES IDX 23 35
REMARK H PARENT 9 19 9 20
ROOT
ATOM     1   C6  UNL     1       0.884  -0.756   0.790  1.00  0.00     0.117 C   
ENDROOT
BRANCH   1   2
ATOM     2   C5  UNL     1      -0.511  -0.228   0.661  1.00  0.00     0.127 A   
ATOM     3   N1  UNL     1      -2.647   0.388   0.873  1.00  0.00    -0.180 N   
ATOM     4   C4  UNL     1      -1.585  -0.271   1.517  1.00  0.00     0.135 A   
ATOM     5   N4  UNL     1      -2.154   0.758  -0.350  1.00  0.00    -0.071 NA  
ATOM     6   N3  UNL     1      -0.887   0.413  -0.475  1.00  0.00    -0.131 NA  
BRANCH   3   7
ATOM     7   C3  UNL     1      -3.958   0.601   1.390  1.00  0.00     0.073 A   
ATOM     8   C1  UNL     1      -5.629   0.272   3.229  1.00  0.00     0.292 A   
ATOM     9   C2  UNL     1      -4.308   0.137   2.607  1.00  0.00     0.106 A   
ATOM     10  O4  UNL     1      -6.598   0.914   2.502  1.00  0.00    -0.274 OA  
ATOM     11  C25 UNL     1      -6.302   1.447   1.236  1.00  0.00     0.095 A   
ATOM     12  C20 UNL     1      -5.033   1.331   0.651  1.00  0.00     0.029 A   
ATOM     13  C24 UNL     1      -7.372   2.106   0.619  1.00  0.00     0.035 A   
ATOM     14  C21 UNL     1      -4.885   1.935  -0.608  1.00  0.00     0.013 A   
ATOM     15  C23 UNL     1      -7.192   2.683  -0.628  1.00  0.00     0.003 A   
ATOM     16  C22 UNL     1      -5.947   2.600  -1.240  1.00  0.00     0.001 A   
ATOM     17  O1  UNL     1      -5.827  -0.191   4.346  1.00  0.00    -0.261 OA  
ENDBRANCH   3   7
ENDBRANCH   1   2
BRANCH   1  18
ATOM     18  N2  UNL     1       1.495  -0.955  -0.570  1.00  0.00     0.249 N   
ATOM     19  H4  UNL     1       2.519  -0.968  -0.541  1.00  0.00     0.199 HD  
ATOM     20  H5  UNL     1       1.239  -0.133  -1.138  1.00  0.00     0.199 HD  
BRANCH  18  21
ATOM     21  C7  UNL     1       1.025  -2.158  -1.312  1.00  0.00     0.164 C   
BRANCH  21  22
ATOM     22  C8  UNL     1       1.634  -2.195  -2.684  1.00  0.00    -0.002 A   
ATOM     23  C9  UNL     1       1.010  -1.514  -3.757  1.00  0.00     0.012 A   
ATOM     24  C13 UNL     1       2.856  -2.855  -2.900  1.00  0.00     0.045 A   
ATOM     25  C10 UNL     1       1.587  -1.498  -5.031  1.00  0.00     0.037 A   
ATOM     26  C12 UNL     1       3.397  -2.820  -4.168  1.00  0.00     0.109 A   
ATOM     27  C11 UNL     1       2.782  -2.161  -5.204  1.00  0.00     0.108 A   
ATOM     28  O2  UNL     1       4.566  -3.402  -4.544  1.00  0.00    -0.316 OA  
ATOM     29  O3  UNL     1       3.484  -2.248  -6.363  1.00  0.00    -0.316 OA  
ATOM     30  C14 UNL     1       4.605  -3.058  -5.948  1.00  0.00     0.337 C   
ENDBRANCH  21  22
ENDBRANCH  18  21
ENDBRANCH   1  18
BRANCH   1  31
ATOM     31  C15 UNL     1       1.760   0.173   1.654  1.00  0.00     0.043 C   
ATOM     32  C16 UNL     1       3.123  -0.407   2.042  1.00  0.00     0.010 C   
ATOM     33  C19 UNL     1       2.146   1.516   1.030  1.00  0.00     0.010 C   
ATOM     34  C17 UNL     1       3.928   0.796   2.529  1.00  0.00     0.001 C   
ATOM     35  C18 UNL     1       3.242   2.035   1.953  1.00  0.00     0.001 C   
ENDBRANCH   1  31
TORSDOF 6
