REMARK SMILES FC1(F)Oc2cccc(-n3cc([C@@H]([NH2+]Cc4ccc5c(c4)OCO5)C4CCCCC4)nn3)c2O1
REMARK SMILES IDX 13 1 12 2 10 3 11 4 32 5 31 6 9 7 2 8 4 9 34 10 5 11 33 12
REMARK SMILES IDX 6 13 7 14 8 15 1 16 3 17 14 18 15 21 16 22 17 23 21 24 18 25
REMARK SMILES IDX 20 26 19 27 22 28 24 29 23 30 25 31 26 32 30 33 27 34 29 35
REMARK SMILES IDX 28 36
REMARK H PARENT 14 19 14 20
ROOT
ATOM     1   C9  UNL     1       0.625   0.095   1.470  1.00  0.00     0.117 C   
ENDROOT
BRANCH   1   2
ATOM     2   C8  UNL     1      -0.239   0.523   0.325  1.00  0.00     0.127 A   
ATOM     3   N1  UNL     1      -1.379   0.795  -1.530  1.00  0.00    -0.178 N   
ATOM     4   C7  UNL     1      -0.497  -0.060  -0.897  1.00  0.00     0.135 A   
ATOM     5   N4  UNL     1      -1.599   1.865  -0.715  1.00  0.00    -0.071 NA  
ATOM     6   N3  UNL     1      -0.920   1.705   0.408  1.00  0.00    -0.131 NA  
BRANCH   3   7
ATOM     7   C6  UNL     1      -2.017   0.678  -2.790  1.00  0.00     0.091 A   
ATOM     8   C1  UNL     1      -1.508  -2.354  -4.517  1.00  0.00     0.495 C   
ATOM     9   O1  UNL     1      -2.345  -1.689  -5.463  1.00  0.00    -0.255 OA  
ATOM     10  O4  UNL     1      -1.186  -1.574  -3.355  1.00  0.00    -0.253 OA  
ATOM     11  C2  UNL     1      -2.557  -0.515  -4.811  1.00  0.00     0.117 A   
ATOM     12  C24 UNL     1      -1.896  -0.439  -3.599  1.00  0.00     0.138 A   
ATOM     13  C3  UNL     1      -3.358   0.505  -5.283  1.00  0.00     0.037 A   
ATOM     14  C4  UNL     1      -3.497   1.638  -4.489  1.00  0.00     0.005 A   
ATOM     15  C5  UNL     1      -2.836   1.725  -3.251  1.00  0.00     0.029 A   
ATOM     16  F1  UNL     1      -2.127  -3.486  -4.105  1.00  0.00    -0.147 F   
ATOM     17  F2  UNL     1      -0.348  -2.705  -5.122  1.00  0.00    -0.147 F   
ENDBRANCH   3   7
ENDBRANCH   1   2
BRANCH   1  18
ATOM     18  N2  UNL     1       0.906   1.285   2.362  1.00  0.00     0.249 N   
ATOM     19  H6  UNL     1       0.371   2.072   1.956  1.00  0.00     0.199 HD  
ATOM     20  H7  UNL     1       0.500   1.156   3.294  1.00  0.00     0.199 HD  
BRANCH  18  21
ATOM     21  C10 UNL     1       2.327   1.712   2.488  1.00  0.00     0.164 C   
BRANCH  21  22
ATOM     22  C11 UNL     1       2.914   2.215   1.196  1.00  0.00    -0.002 A   
ATOM     23  C12 UNL     1       3.893   1.459   0.510  1.00  0.00     0.012 A   
ATOM     24  C16 UNL     1       2.472   3.430   0.645  1.00  0.00     0.045 A   
ATOM     25  C13 UNL     1       4.411   1.895  -0.717  1.00  0.00     0.037 A   
ATOM     26  C15 UNL     1       3.005   3.832  -0.564  1.00  0.00     0.109 A   
ATOM     27  C14 UNL     1       3.943   3.084  -1.229  1.00  0.00     0.108 A   
ATOM     28  O2  UNL     1       2.683   4.973  -1.227  1.00  0.00    -0.316 OA  
ATOM     29  O3  UNL     1       4.323   3.654  -2.402  1.00  0.00    -0.316 OA  
ATOM     30  C17 UNL     1       3.530   4.861  -2.394  1.00  0.00     0.337 C   
ENDBRANCH  21  22
ENDBRANCH  18  21
ENDBRANCH   1  18
BRANCH   1  31
ATOM     31  C18 UNL     1       0.006  -1.071   2.285  1.00  0.00     0.043 C   
ATOM     32  C19 UNL     1       0.972  -1.582   3.372  1.00  0.00     0.010 C   
ATOM     33  C23 UNL     1      -1.372  -0.748   2.899  1.00  0.00     0.010 C   
ATOM     34  C20 UNL     1       0.389  -2.770   4.137  1.00  0.00     0.001 C   
ATOM     35  C22 UNL     1      -1.942  -1.936   3.671  1.00  0.00     0.001 C   
ATOM     36  C21 UNL     1      -0.971  -2.435   4.737  1.00  0.00     0.000 C   
ENDBRANCH   1  31
TORSDOF 6
