REMARK SMILES CC(C)[C@H]([NH2+]Cc1ccc2c(c1)OCO2)c1cn([C@@H](CO)c2n[nH]c3c2CCC3)nn1
REMARK SMILES IDX 16 1 17 2 18 3 30 4 31 5 4 7 2 8 1 9 3 10 5 11 6 14 7 15
REMARK SMILES IDX 8 16 12 17 9 18 11 19 10 20 13 21 15 22 14 23 19 24 20 25
REMARK SMILES IDX 21 26 22 28 23 29 26 30 24 31 25 32 27 33 29 34 28 35
REMARK H PARENT 17 6 5 12 5 13 21 27 24 36
ROOT
ATOM     1   C13 UNL     1      -0.468   0.421   0.270  1.00  0.00     0.127 A   
ATOM     2   C14 UNL     1      -0.496  -0.785  -0.391  1.00  0.00     0.046 A   
ATOM     3   N2  UNL     1      -1.376  -0.585  -1.423  1.00  0.00    -0.201 N   
ATOM     4   N5  UNL     1      -1.845   0.682  -1.401  1.00  0.00    -0.075 NA  
ATOM     5   N6  UNL     1      -1.302   1.303  -0.366  1.00  0.00    -0.132 NA  
ATOM     6   H18 UNL     1       0.018  -1.726  -0.251  1.00  0.00     0.083 HD  
ENDROOT
BRANCH   1   7
ATOM     7   C4  UNL     1       0.354   0.879   1.430  1.00  0.00     0.117 C   
BRANCH   7   8
ATOM     8   C2  UNL     1      -0.488   1.029   2.728  1.00  0.00     0.037 C   
ATOM     9   C1  UNL     1       0.341   1.524   3.920  1.00  0.00     0.014 C   
ATOM     10  C3  UNL     1      -1.150  -0.302   3.121  1.00  0.00     0.014 C   
ENDBRANCH   7   8
BRANCH   7  11
ATOM     11  N1  UNL     1       0.986   2.207   1.089  1.00  0.00     0.249 N   
ATOM     12  H9  UNL     1       0.224   2.843   0.814  1.00  0.00     0.199 HD  
ATOM     13  H10 UNL     1       1.444   2.628   1.901  1.00  0.00     0.199 HD  
BRANCH  11  14
ATOM     14  C5  UNL     1       1.972   2.179  -0.032  1.00  0.00     0.164 C   
BRANCH  14  15
ATOM     15  C6  UNL     1       2.612   3.530  -0.192  1.00  0.00    -0.002 A   
ATOM     16  C7  UNL     1       3.844   3.819   0.442  1.00  0.00     0.012 A   
ATOM     17  C11 UNL     1       1.958   4.534  -0.927  1.00  0.00     0.045 A   
ATOM     18  C8  UNL     1       4.424   5.088   0.338  1.00  0.00     0.037 A   
ATOM     19  C10 UNL     1       2.557   5.774  -1.008  1.00  0.00     0.109 A   
ATOM     20  C9  UNL     1       3.755   6.044  -0.393  1.00  0.00     0.108 A   
ATOM     21  O1  UNL     1       2.060   6.850  -1.672  1.00  0.00    -0.316 OA  
ATOM     22  O2  UNL     1       4.164   7.323  -0.594  1.00  0.00    -0.316 OA  
ATOM     23  C12 UNL     1       3.096   7.828  -1.425  1.00  0.00     0.337 C   
ENDBRANCH  14  15
ENDBRANCH  11  14
ENDBRANCH   7  11
ENDBRANCH   1   7
BRANCH   3  24
ATOM     24  C15 UNL     1      -1.750  -1.488  -2.508  1.00  0.00     0.176 C   
BRANCH  24  25
ATOM     25  C16 UNL     1      -0.630  -1.583  -3.558  1.00  0.00     0.187 C   
BRANCH  25  26
ATOM     26  O3  UNL     1       0.583  -2.142  -3.038  1.00  0.00    -0.394 OA  
ATOM     27  H22 UNL     1       0.332  -3.032  -2.699  1.00  0.00     0.210 HD  
ENDBRANCH  25  26
ENDBRANCH  24  25
BRANCH  24  28
ATOM     28  C17 UNL     1      -2.181  -2.820  -1.959  1.00  0.00     0.088 A   
ATOM     29  N3  UNL     1      -1.305  -3.843  -1.801  1.00  0.00    -0.187 NA  
ATOM     30  C19 UNL     1      -3.462  -3.210  -1.554  1.00  0.00    -0.004 A   
ATOM     31  N4  UNL     1      -2.056  -4.875  -1.325  1.00  0.00    -0.242 N   
ATOM     32  C18 UNL     1      -3.340  -4.505  -1.159  1.00  0.00     0.030 A   
ATOM     33  C20 UNL     1      -4.849  -2.731  -1.421  1.00  0.00     0.039 C   
ATOM     34  C22 UNL     1      -4.578  -5.148  -0.701  1.00  0.00     0.054 C   
ATOM     35  C21 UNL     1      -5.627  -4.073  -1.159  1.00  0.00     0.011 C   
ATOM     36  H23 UNL     1      -1.612  -5.773  -1.150  1.00  0.00     0.175 HD  
ENDBRANCH  24  28
ENDBRANCH   3  24
TORSDOF 9
