REMARK SMILES CC(C)[C@H]([NH2+]Cc1ccc2c(c1)OCO2)c1cn([C@H](CO)c2n[nH]c3c2CCC3)nn1
REMARK SMILES IDX 16 1 17 2 18 3 30 4 31 5 4 7 2 8 1 9 3 10 5 11 6 14 7 15
REMARK SMILES IDX 8 16 12 17 9 18 11 19 10 20 13 21 15 22 14 23 19 24 20 25
REMARK SMILES IDX 21 26 22 28 23 29 26 30 24 31 25 32 27 33 29 34 28 35
REMARK H PARENT 17 6 5 12 5 13 21 27 24 36
ROOT
ATOM     1   C13 UNL     1      -0.698   0.165   0.568  1.00  0.00     0.127 A   
ATOM     2   C14 UNL     1      -0.186   1.009   1.526  1.00  0.00     0.046 A   
ATOM     3   N2  UNL     1       0.944   0.371   1.972  1.00  0.00    -0.201 N   
ATOM     4   N5  UNL     1       1.145  -0.770   1.274  1.00  0.00    -0.075 NA  
ATOM     5   N6  UNL     1       0.148  -0.903   0.413  1.00  0.00    -0.132 NA  
ATOM     6   H18 UNL     1      -0.539   1.932   1.968  1.00  0.00     0.083 HD  
ENDROOT
BRANCH   1   7
ATOM     7   C4  UNL     1      -1.965   0.235  -0.227  1.00  0.00     0.117 C   
BRANCH   7   8
ATOM     8   C2  UNL     1      -3.215  -0.018   0.659  1.00  0.00     0.037 C   
ATOM     9   C1  UNL     1      -4.510   0.366  -0.062  1.00  0.00     0.014 C   
ATOM     10  C3  UNL     1      -3.323  -1.458   1.187  1.00  0.00     0.014 C   
ENDBRANCH   7   8
BRANCH   7  11
ATOM     11  N1  UNL     1      -1.930  -0.758  -1.357  1.00  0.00     0.249 N   
ATOM     12  H9  UNL     1      -2.865  -1.021  -1.676  1.00  0.00     0.199 HD  
ATOM     13  H10 UNL     1      -1.506  -1.615  -0.975  1.00  0.00     0.199 HD  
BRANCH  11  14
ATOM     14  C5  UNL     1      -1.112  -0.362  -2.535  1.00  0.00     0.164 C   
BRANCH  14  15
ATOM     15  C6  UNL     1      -1.020  -1.507  -3.504  1.00  0.00    -0.002 A   
ATOM     16  C7  UNL     1      -0.048  -2.517  -3.316  1.00  0.00     0.012 A   
ATOM     17  C11 UNL     1      -1.954  -1.630  -4.551  1.00  0.00     0.045 A   
ATOM     18  C8  UNL     1       0.018  -3.619  -4.175  1.00  0.00     0.037 A   
ATOM     19  C10 UNL     1      -1.853  -2.726  -5.383  1.00  0.00     0.109 A   
ATOM     20  C9  UNL     1      -0.895  -3.692  -5.202  1.00  0.00     0.108 A   
ATOM     21  O1  UNL     1      -2.658  -2.985  -6.446  1.00  0.00    -0.316 OA  
ATOM     22  O2  UNL     1      -0.965  -4.675  -6.135  1.00  0.00    -0.316 OA  
ATOM     23  C12 UNL     1      -2.059  -4.202  -6.948  1.00  0.00     0.337 C   
ENDBRANCH  14  15
ENDBRANCH  11  14
ENDBRANCH   7  11
ENDBRANCH   1   7
BRANCH   3  24
ATOM     24  C15 UNL     1       1.805   0.702   3.105  1.00  0.00     0.176 C   
BRANCH  24  25
ATOM     25  C16 UNL     1       1.079   0.502   4.445  1.00  0.00     0.187 C   
BRANCH  25  26
ATOM     26  O3  UNL     1      -0.050   1.362   4.611  1.00  0.00    -0.394 OA  
ATOM     27  H22 UNL     1       0.276   2.281   4.517  1.00  0.00     0.210 HD  
ENDBRANCH  25  26
ENDBRANCH  24  25
BRANCH  24  28
ATOM     28  C17 UNL     1       2.399   2.072   2.956  1.00  0.00     0.088 A   
ATOM     29  N3  UNL     1       1.706   3.187   3.284  1.00  0.00    -0.187 NA  
ATOM     30  C19 UNL     1       3.695   2.409   2.544  1.00  0.00    -0.004 A   
ATOM     31  N4  UNL     1       2.585   4.210   3.102  1.00  0.00    -0.242 N   
ATOM     32  C18 UNL     1       3.772   3.761   2.666  1.00  0.00     0.030 A   
ATOM     33  C20 UNL     1       4.972   1.831   2.094  1.00  0.00     0.039 C   
ATOM     34  C22 UNL     1       5.075   4.352   2.360  1.00  0.00     0.054 C   
ATOM     35  C21 UNL     1       5.765   3.122   1.672  1.00  0.00     0.011 C   
ATOM     36  H23 UNL     1       2.290   5.160   3.320  1.00  0.00     0.175 HD  
ENDBRANCH  24  28
ENDBRANCH   3  24
TORSDOF 9
