REMARK SMILES Cn1ccc2cc(Cn3cc([C@@H]([NH2+]Cc4ccc5c(c4)OCO5)C(C)(C)C)nn3)ccc21
REMARK SMILES IDX 9 1 10 2 11 3 28 4 29 5 8 7 7 8 2 9 3 10 32 11 4 12 5 13
REMARK SMILES IDX 31 14 6 15 30 16 1 17 12 18 13 19 14 22 15 23 16 24 20 25
REMARK SMILES IDX 17 26 19 27 18 28 21 29 23 30 22 31 24 32 25 33 26 34 27 35
REMARK H PARENT 10 6 13 20 13 21
ROOT
ATOM     1   N2  UNL     1      -0.948  -0.221  -3.391  1.00  0.00    -0.208 N   
ATOM     2   C8  UNL     1      -1.550   0.330  -2.293  1.00  0.00     0.046 A   
ATOM     3   C9  UNL     1      -0.805   1.459  -2.038  1.00  0.00     0.127 A   
ATOM     4   N4  UNL     1       0.162   1.589  -3.001  1.00  0.00    -0.132 NA  
ATOM     5   N5  UNL     1       0.066   0.554  -3.822  1.00  0.00    -0.076 NA  
ATOM     6   H9  UNL     1      -2.365  -0.155  -1.773  1.00  0.00     0.083 HD  
ENDROOT
BRANCH   1   7
ATOM     7   C7  UNL     1      -1.185  -1.533  -3.971  1.00  0.00     0.169 C   
BRANCH   7   8
ATOM     8   C6  UNL     1      -0.650  -2.602  -3.047  1.00  0.00    -0.028 A   
ATOM     9   N1  UNL     1       0.610  -5.399  -0.255  1.00  0.00    -0.310 N   
ATOM     10  C2  UNL     1      -0.558  -5.702   0.392  1.00  0.00     0.075 A   
ATOM     11  C25 UNL     1       0.381  -4.458  -1.238  1.00  0.00     0.040 A   
ATOM     12  C3  UNL     1      -1.566  -4.968  -0.189  1.00  0.00     0.025 A   
ATOM     13  C4  UNL     1      -0.988  -4.178  -1.219  1.00  0.00    -0.002 A   
ATOM     14  C24 UNL     1       1.253  -3.840  -2.146  1.00  0.00     0.025 A   
ATOM     15  C5  UNL     1      -1.508  -3.245  -2.137  1.00  0.00     0.015 A   
ATOM     16  C23 UNL     1       0.717  -2.910  -3.042  1.00  0.00     0.007 A   
ATOM     17  C1  UNL     1       1.895  -5.989   0.049  1.00  0.00     0.136 C   
ENDBRANCH   7   8
ENDBRANCH   1   7
BRANCH   3  18
ATOM     18  C10 UNL     1      -0.823   2.388  -0.864  1.00  0.00     0.120 C   
BRANCH  18  19
ATOM     19  N3  UNL     1       0.598   2.644  -0.395  1.00  0.00     0.250 N   
ATOM     20  H11 UNL     1       1.100   3.064  -1.188  1.00  0.00     0.199 HD  
ATOM     21  H12 UNL     1       0.607   3.319   0.371  1.00  0.00     0.199 HD  
BRANCH  19  22
ATOM     22  C11 UNL     1       1.397   1.444   0.021  1.00  0.00     0.164 C   
BRANCH  22  23
ATOM     23  C12 UNL     1       0.760   0.635   1.115  1.00  0.00    -0.002 A   
ATOM     24  C13 UNL     1       0.327  -0.689   0.857  1.00  0.00     0.012 A   
ATOM     25  C17 UNL     1       0.573   1.184   2.395  1.00  0.00     0.045 A   
ATOM     26  C14 UNL     1      -0.293  -1.452   1.851  1.00  0.00     0.037 A   
ATOM     27  C16 UNL     1      -0.045   0.405   3.352  1.00  0.00     0.109 A   
ATOM     28  C15 UNL     1      -0.467  -0.875   3.088  1.00  0.00     0.108 A   
ATOM     29  O1  UNL     1      -0.311   0.787   4.628  1.00  0.00    -0.316 OA  
ATOM     30  O2  UNL     1      -1.051  -1.460   4.166  1.00  0.00    -0.316 OA  
ATOM     31  C18 UNL     1      -0.929  -0.412   5.150  1.00  0.00     0.337 C   
ENDBRANCH  22  23
ENDBRANCH  19  22
ENDBRANCH  18  19
BRANCH  18  32
ATOM     32  C19 UNL     1      -1.568   3.744  -1.126  1.00  0.00     0.010 C   
ATOM     33  C20 UNL     1      -1.635   4.581   0.172  1.00  0.00     0.017 C   
ATOM     34  C21 UNL     1      -0.896   4.603  -2.216  1.00  0.00     0.017 C   
ATOM     35  C22 UNL     1      -3.026   3.466  -1.560  1.00  0.00     0.017 C   
ENDBRANCH  18  32
ENDBRANCH   3  18
TORSDOF 7
