REMARK SMILES Cc1cc(Cn2cc([C@@H]([NH2+]Cc3ccc4c(c3)OCO4)C(C)C)nn2)c(C)nn1
REMARK SMILES IDX 6 1 7 2 8 3 24 4 25 5 5 7 4 8 2 9 3 10 29 11 28 12 26 13
REMARK SMILES IDX 1 14 27 15 9 16 10 17 11 20 12 21 13 22 17 23 14 24 16 25
REMARK SMILES IDX 15 26 18 27 20 28 19 29 21 30 22 31 23 32
REMARK H PARENT 7 6 10 18 10 19
ROOT
ATOM     1   N1  UNL     1       1.274   1.792   1.449  1.00  0.00    -0.208 N   
ATOM     2   C6  UNL     1       0.033   1.253   1.653  1.00  0.00     0.046 A   
ATOM     3   C7  UNL     1       0.285  -0.060   1.980  1.00  0.00     0.127 A   
ATOM     4   N3  UNL     1       1.639  -0.275   1.955  1.00  0.00    -0.132 NA  
ATOM     5   N4  UNL     1       2.233   0.862   1.632  1.00  0.00    -0.076 NA  
ATOM     6   H7  UNL     1      -0.876   1.828   1.550  1.00  0.00     0.083 HD  
ENDROOT
BRANCH   1   7
ATOM     7   C5  UNL     1       1.637   3.171   1.151  1.00  0.00     0.171 C   
BRANCH   7   8
ATOM     8   C4  UNL     1       0.850   3.728  -0.006  1.00  0.00    -0.004 A   
ATOM     9   C2  UNL     1      -1.047   4.971  -0.828  1.00  0.00     0.060 A   
ATOM     10  C3  UNL     1      -0.291   4.508   0.238  1.00  0.00     0.032 A   
ATOM     11  N6  UNL     1      -0.702   4.680  -2.096  1.00  0.00    -0.156 NA  
ATOM     12  N5  UNL     1       0.423   3.941  -2.348  1.00  0.00    -0.155 NA  
ATOM     13  C20 UNL     1       1.187   3.475  -1.336  1.00  0.00     0.065 A   
ATOM     14  C1  UNL     1      -2.271   5.805  -0.608  1.00  0.00     0.069 C   
ATOM     15  C21 UNL     1       2.404   2.704  -1.742  1.00  0.00     0.069 C   
ENDBRANCH   7   8
ENDBRANCH   1   7
BRANCH   3  16
ATOM     16  C8  UNL     1      -0.634  -1.199   2.291  1.00  0.00     0.117 C   
BRANCH  16  17
ATOM     17  N2  UNL     1      -0.003  -2.502   1.837  1.00  0.00     0.249 N   
ATOM     18  H9  UNL     1       1.014  -2.327   1.801  1.00  0.00     0.199 HD  
ATOM     19  H10 UNL     1      -0.136  -3.237   2.539  1.00  0.00     0.199 HD  
BRANCH  17  20
ATOM     20  C9  UNL     1      -0.439  -3.023   0.510  1.00  0.00     0.164 C   
BRANCH  20  21
ATOM     21  C10 UNL     1      -0.155  -2.098  -0.639  1.00  0.00    -0.002 A   
ATOM     22  C11 UNL     1       1.162  -1.956  -1.136  1.00  0.00     0.012 A   
ATOM     23  C15 UNL     1      -1.193  -1.345  -1.215  1.00  0.00     0.045 A   
ATOM     24  C12 UNL     1       1.441  -1.080  -2.192  1.00  0.00     0.037 A   
ATOM     25  C14 UNL     1      -0.882  -0.485  -2.246  1.00  0.00     0.109 A   
ATOM     26  C13 UNL     1       0.398  -0.355  -2.721  1.00  0.00     0.108 A   
ATOM     27  O1  UNL     1      -1.762   0.320  -2.896  1.00  0.00    -0.316 OA  
ATOM     28  O2  UNL     1       0.487   0.550  -3.732  1.00  0.00    -0.316 OA  
ATOM     29  C16 UNL     1      -0.889   0.977  -3.843  1.00  0.00     0.337 C   
ENDBRANCH  20  21
ENDBRANCH  17  20
ENDBRANCH  16  17
BRANCH  16  30
ATOM     30  C17 UNL     1      -0.999  -1.320   3.795  1.00  0.00     0.037 C   
ATOM     31  C18 UNL     1       0.208  -1.486   4.725  1.00  0.00     0.014 C   
ATOM     32  C19 UNL     1      -1.853  -0.134   4.265  1.00  0.00     0.014 C   
ENDBRANCH  16  30
ENDBRANCH   3  16
TORSDOF 7
