REMARK SMILES COc1ccc(CCn2cc([C@@H]([NH2+]Cc3ccc4c(c3)OCO4)C3CCCCC3)nn2)cn1
REMARK SMILES IDX 9 1 10 2 11 3 30 4 31 5 8 7 7 8 6 9 3 10 4 11 33 12 5 13
REMARK SMILES IDX 32 14 2 15 1 16 12 17 13 18 14 21 15 22 16 23 20 24 17 25
REMARK SMILES IDX 19 26 18 27 21 28 23 29 22 30 24 31 25 32 29 33 26 34 28 35
REMARK SMILES IDX 27 36
REMARK H PARENT 10 6 13 19 13 20
ROOT
ATOM     1   N1  UNL     1       0.941   0.575   3.615  1.00  0.00    -0.212 N   
ATOM     2   C8  UNL     1       1.080   1.240   2.424  1.00  0.00     0.045 A   
ATOM     3   C9  UNL     1       1.894   0.418   1.673  1.00  0.00     0.127 A   
ATOM     4   N3  UNL     1       2.339  -0.601   2.481  1.00  0.00    -0.132 NA  
ATOM     5   N4  UNL     1       1.743  -0.500   3.659  1.00  0.00    -0.076 NA  
ATOM     6   H10 UNL     1       0.496   2.121   2.200  1.00  0.00     0.083 HD  
ENDROOT
BRANCH   1   7
ATOM     7   C7  UNL     1      -0.159   0.712   4.555  1.00  0.00     0.139 C   
BRANCH   7   8
ATOM     8   C6  UNL     1      -1.287  -0.307   4.295  1.00  0.00     0.058 C   
BRANCH   8   9
ATOM     9   C5  UNL     1      -1.735  -0.316   2.851  1.00  0.00    -0.028 A   
ATOM     10  C2  UNL     1      -2.200  -0.206   0.157  1.00  0.00     0.166 A   
ATOM     11  C3  UNL     1      -2.857   0.696   0.978  1.00  0.00     0.055 A   
ATOM     12  N5  UNL     1      -1.295  -1.115   0.592  1.00  0.00    -0.233 NA  
ATOM     13  C4  UNL     1      -2.614   0.643   2.348  1.00  0.00     0.010 A   
ATOM     14  C25 UNL     1      -1.151  -1.196   1.938  1.00  0.00     0.117 A   
BRANCH  10  15
ATOM     15  O1  UNL     1      -2.391  -0.067  -1.198  1.00  0.00    -0.333 OA  
ATOM     16  C1  UNL     1      -2.462  -1.334  -1.851  1.00  0.00     0.205 C   
ENDBRANCH  10  15
ENDBRANCH   8   9
ENDBRANCH   7   8
ENDBRANCH   1   7
BRANCH   3  17
ATOM     17  C10 UNL     1       2.230   0.372   0.213  1.00  0.00     0.117 C   
BRANCH  17  18
ATOM     18  N2  UNL     1       1.446  -0.723  -0.480  1.00  0.00     0.249 N   
ATOM     19  H12 UNL     1       0.473  -0.748  -0.113  1.00  0.00     0.199 HD  
ATOM     20  H13 UNL     1       1.346  -0.525  -1.479  1.00  0.00     0.199 HD  
BRANCH  18  21
ATOM     21  C11 UNL     1       2.008  -2.096  -0.329  1.00  0.00     0.164 C   
BRANCH  21  22
ATOM     22  C12 UNL     1       1.281  -3.081  -1.205  1.00  0.00    -0.002 A   
ATOM     23  C13 UNL     1       1.544  -3.130  -2.597  1.00  0.00     0.012 A   
ATOM     24  C17 UNL     1       0.311  -3.935  -0.655  1.00  0.00     0.045 A   
ATOM     25  C14 UNL     1       0.845  -4.012  -3.429  1.00  0.00     0.037 A   
ATOM     26  C16 UNL     1      -0.354  -4.797  -1.502  1.00  0.00     0.109 A   
ATOM     27  C15 UNL     1      -0.098  -4.832  -2.850  1.00  0.00     0.108 A   
ATOM     28  O2  UNL     1      -1.315  -5.684  -1.134  1.00  0.00    -0.316 OA  
ATOM     29  O3  UNL     1      -0.868  -5.742  -3.501  1.00  0.00    -0.316 OA  
ATOM     30  C18 UNL     1      -1.615  -6.307  -2.403  1.00  0.00     0.337 C   
ENDBRANCH  21  22
ENDBRANCH  18  21
ENDBRANCH  17  18
BRANCH  17  31
ATOM     31  C19 UNL     1       2.093   1.682  -0.609  1.00  0.00     0.043 C   
ATOM     32  C20 UNL     1       2.944   2.825  -0.022  1.00  0.00     0.010 C   
ATOM     33  C24 UNL     1       0.650   2.145  -0.883  1.00  0.00     0.010 C   
ATOM     34  C21 UNL     1       2.891   4.076  -0.896  1.00  0.00     0.001 C   
ATOM     35  C23 UNL     1       0.611   3.414  -1.734  1.00  0.00     0.001 C   
ATOM     36  C22 UNL     1       1.456   4.531  -1.131  1.00  0.00     0.000 C   
ENDBRANCH  17  31
ENDBRANCH   3  17
TORSDOF 9
