REMARK SMILES Fc1ccnc(CCn2cc([C@@H]([NH2+]Cc3ccc4c(c3)OCO4)C3CCCCC3)nn2)c1
REMARK SMILES IDX 9 1 10 2 11 3 30 4 31 5 8 7 7 8 6 9 2 10 3 11 32 12 4 13
REMARK SMILES IDX 5 14 1 15 12 16 13 17 14 20 15 21 16 22 20 23 17 24 19 25
REMARK SMILES IDX 18 26 21 27 23 28 22 29 24 30 25 31 29 32 26 33 28 34 27 35
REMARK H PARENT 10 6 13 18 13 19
ROOT
ATOM     1   N2  UNL     1      -1.834   1.048   1.416  1.00  0.00    -0.212 N   
ATOM     2   C7  UNL     1      -0.481   1.091   1.242  1.00  0.00     0.045 A   
ATOM     3   C8  UNL     1      -0.316   1.834   0.095  1.00  0.00     0.127 A   
ATOM     4   N4  UNL     1      -1.548   2.208  -0.379  1.00  0.00    -0.132 NA  
ATOM     5   N5  UNL     1      -2.468   1.723   0.438  1.00  0.00    -0.076 NA  
ATOM     6   H7  UNL     1       0.203   0.580   1.907  1.00  0.00     0.083 HD  
ENDROOT
BRANCH   1   7
ATOM     7   C6  UNL     1      -2.586   0.368   2.450  1.00  0.00     0.140 C   
BRANCH   7   8
ATOM     8   C5  UNL     1      -3.382  -0.823   1.919  1.00  0.00     0.077 C   
BRANCH   8   9
ATOM     9   C4  UNL     1      -2.525  -1.931   1.353  1.00  0.00     0.045 A   
ATOM     10  C1  UNL     1      -2.238  -3.805  -0.082  1.00  0.00     0.126 A   
ATOM     11  C2  UNL     1      -0.985  -4.030   0.456  1.00  0.00     0.059 A   
ATOM     12  C24 UNL     1      -3.033  -2.761   0.363  1.00  0.00     0.063 A   
ATOM     13  C3  UNL     1      -0.559  -3.164   1.442  1.00  0.00     0.114 A   
ATOM     14  N1  UNL     1      -1.292  -2.116   1.888  1.00  0.00    -0.261 NA  
ATOM     15  F1  UNL     1      -2.695  -4.614  -1.046  1.00  0.00    -0.207 F   
ENDBRANCH   8   9
ENDBRANCH   7   8
ENDBRANCH   1   7
BRANCH   3  16
ATOM     16  C9  UNL     1       0.910   2.165  -0.687  1.00  0.00     0.117 C   
BRANCH  16  17
ATOM     17  N3  UNL     1       0.630   2.050  -2.172  1.00  0.00     0.249 N   
ATOM     18  H9  UNL     1       1.414   2.432  -2.708  1.00  0.00     0.199 HD  
ATOM     19  H10 UNL     1      -0.192   2.639  -2.358  1.00  0.00     0.199 HD  
BRANCH  17  20
ATOM     20  C10 UNL     1       0.298   0.684  -2.682  1.00  0.00     0.164 C   
BRANCH  20  21
ATOM     21  C11 UNL     1       1.414  -0.307  -2.505  1.00  0.00    -0.002 A   
ATOM     22  C12 UNL     1       2.574  -0.237  -3.313  1.00  0.00     0.012 A   
ATOM     23  C16 UNL     1       1.322  -1.295  -1.508  1.00  0.00     0.045 A   
ATOM     24  C13 UNL     1       3.631  -1.136  -3.129  1.00  0.00     0.037 A   
ATOM     25  C15 UNL     1       2.381  -2.165  -1.352  1.00  0.00     0.109 A   
ATOM     26  C14 UNL     1       3.504  -2.086  -2.139  1.00  0.00     0.108 A   
ATOM     27  O1  UNL     1       2.457  -3.167  -0.438  1.00  0.00    -0.316 OA  
ATOM     28  O2  UNL     1       4.428  -3.029  -1.821  1.00  0.00    -0.316 OA  
ATOM     29  C17 UNL     1       3.750  -3.733  -0.760  1.00  0.00     0.337 C   
ENDBRANCH  20  21
ENDBRANCH  17  20
ENDBRANCH  16  17
BRANCH  16  30
ATOM     30  C18 UNL     1       1.489   3.579  -0.405  1.00  0.00     0.043 C   
ATOM     31  C19 UNL     1       2.008   3.695   1.042  1.00  0.00     0.010 C   
ATOM     32  C23 UNL     1       0.525   4.741  -0.719  1.00  0.00     0.010 C   
ATOM     33  C20 UNL     1       2.650   5.056   1.306  1.00  0.00     0.001 C   
ATOM     34  C22 UNL     1       1.170   6.099  -0.446  1.00  0.00     0.001 C   
ATOM     35  C21 UNL     1       1.695   6.198   0.982  1.00  0.00     0.000 C   
ENDBRANCH  16  30
ENDBRANCH   3  16
TORSDOF 8
