REMARK SMILES CC(C)Cn1nccc1Cn1cc([C@@H]([NH2+]Cc2ccc3c(c2)OCO3)C(C)(C)C)nn1
REMARK SMILES IDX 11 1 12 2 13 3 30 4 31 5 10 7 9 8 5 9 6 10 7 11 8 12 4 13
REMARK SMILES IDX 2 14 1 15 3 16 14 17 15 18 16 21 17 22 18 23 22 24 19 25
REMARK SMILES IDX 21 26 20 27 23 28 25 29 24 30 26 31 27 32 28 33 29 34
REMARK H PARENT 12 6 15 19 15 20
ROOT
ATOM     1   N3  UNL     1       1.566   2.679  -0.134  1.00  0.00    -0.206 N   
ATOM     2   C9  UNL     1       0.472   1.942   0.230  1.00  0.00     0.046 A   
ATOM     3   C10 UNL     1       1.005   0.783   0.750  1.00  0.00     0.127 A   
ATOM     4   N5  UNL     1       2.374   0.848   0.675  1.00  0.00    -0.132 NA  
ATOM     5   N6  UNL     1       2.705   2.006   0.128  1.00  0.00    -0.076 NA  
ATOM     6   H14 UNL     1      -0.539   2.304   0.088  1.00  0.00     0.083 HD  
ENDROOT
BRANCH   1   7
ATOM     7   C8  UNL     1       1.614   3.990  -0.767  1.00  0.00     0.187 C   
BRANCH   7   8
ATOM     8   C7  UNL     1       0.845   4.008  -2.044  1.00  0.00     0.049 A   
ATOM     9   N1  UNL     1       1.245   3.402  -3.215  1.00  0.00    -0.228 N   
ATOM     10  N2  UNL     1       0.365   3.575  -4.220  1.00  0.00    -0.190 NA  
ATOM     11  C5  UNL     1      -0.597   4.331  -3.693  1.00  0.00     0.133 A   
ATOM     12  C6  UNL     1      -0.356   4.626  -2.341  1.00  0.00     0.044 A   
BRANCH   9  13
ATOM     13  C4  UNL     1       2.474   2.678  -3.499  1.00  0.00     0.135 C   
BRANCH  13  14
ATOM     14  C2  UNL     1       2.357   1.148  -3.366  1.00  0.00     0.002 C   
ATOM     15  C1  UNL     1       3.745   0.515  -3.482  1.00  0.00     0.009 C   
ATOM     16  C3  UNL     1       1.422   0.534  -4.413  1.00  0.00     0.009 C   
ENDBRANCH  13  14
ENDBRANCH   9  13
ENDBRANCH   7   8
ENDBRANCH   1   7
BRANCH   3  17
ATOM     17  C11 UNL     1       0.357  -0.465   1.275  1.00  0.00     0.120 C   
BRANCH  17  18
ATOM     18  N4  UNL     1       1.261  -1.638   0.946  1.00  0.00     0.250 N   
ATOM     19  H16 UNL     1       1.083  -2.436   1.559  1.00  0.00     0.199 HD  
ATOM     20  H17 UNL     1       2.220  -1.317   1.147  1.00  0.00     0.199 HD  
BRANCH  18  21
ATOM     21  C12 UNL     1       1.241  -2.108  -0.472  1.00  0.00     0.164 C   
BRANCH  21  22
ATOM     22  C13 UNL     1      -0.018  -2.856  -0.811  1.00  0.00    -0.002 A   
ATOM     23  C14 UNL     1      -0.986  -2.281  -1.669  1.00  0.00     0.012 A   
ATOM     24  C18 UNL     1      -0.256  -4.125  -0.251  1.00  0.00     0.045 A   
ATOM     25  C15 UNL     1      -2.178  -2.952  -1.961  1.00  0.00     0.037 A   
ATOM     26  C17 UNL     1      -1.440  -4.761  -0.560  1.00  0.00     0.109 A   
ATOM     27  C16 UNL     1      -2.377  -4.191  -1.388  1.00  0.00     0.108 A   
ATOM     28  O1  UNL     1      -1.826  -5.981  -0.102  1.00  0.00    -0.316 OA  
ATOM     29  O2  UNL     1      -3.470  -4.981  -1.552  1.00  0.00    -0.316 OA  
ATOM     30  C19 UNL     1      -3.078  -6.152  -0.807  1.00  0.00     0.337 C   
ENDBRANCH  21  22
ENDBRANCH  18  21
ENDBRANCH  17  18
BRANCH  17  31
ATOM     31  C20 UNL     1       0.051  -0.435   2.813  1.00  0.00     0.010 C   
ATOM     32  C21 UNL     1       1.328  -0.337   3.672  1.00  0.00     0.017 C   
ATOM     33  C22 UNL     1      -0.718  -1.712   3.231  1.00  0.00     0.017 C   
ATOM     34  C23 UNL     1      -0.858   0.765   3.157  1.00  0.00     0.017 C   
ENDBRANCH  17  31
ENDBRANCH   3  17
TORSDOF 9
