REMARK SMILES Cn1cc(Cn2cc([C@@H]([NH2+]Cc3ccc4c(c3)OCO4)C3CCCC3)nn2)c(Cl)n1
REMARK SMILES IDX 6 1 7 2 8 3 26 4 27 5 5 7 4 8 2 9 3 10 30 11 28 12 1 13
REMARK SMILES IDX 29 14 9 15 10 16 11 19 12 20 13 21 17 22 14 23 16 24 15 25
REMARK SMILES IDX 18 26 20 27 19 28 21 29 22 30 25 31 23 32 24 33
REMARK H PARENT 7 6 10 17 10 18
ROOT
ATOM     1   N2  UNL     1      -2.419  -1.259   1.014  1.00  0.00    -0.208 N   
ATOM     2   C5  UNL     1      -1.160  -1.789   1.099  1.00  0.00     0.046 A   
ATOM     3   C6  UNL     1      -0.350  -0.692   1.289  1.00  0.00     0.127 A   
ATOM     4   N4  UNL     1      -1.126   0.436   1.352  1.00  0.00    -0.132 NA  
ATOM     5   N5  UNL     1      -2.388   0.077   1.187  1.00  0.00    -0.076 NA  
ATOM     6   H7  UNL     1      -0.966  -2.847   0.986  1.00  0.00     0.083 HD  
ENDROOT
BRANCH   1   7
ATOM     7   C4  UNL     1      -3.672  -1.949   0.746  1.00  0.00     0.174 C   
BRANCH   7   8
ATOM     8   C3  UNL     1      -4.090  -1.755  -0.667  1.00  0.00     0.026 A   
ATOM     9   N1  UNL     1      -5.122  -1.121  -2.506  1.00  0.00    -0.234 N   
ATOM     10  C2  UNL     1      -5.142  -0.995  -1.147  1.00  0.00     0.104 A   
ATOM     11  N6  UNL     1      -4.121  -1.899  -2.951  1.00  0.00    -0.170 NA  
ATOM     12  C21 UNL     1      -3.513  -2.300  -1.837  1.00  0.00     0.153 A   
ATOM     13  C1  UNL     1      -6.035  -0.522  -3.452  1.00  0.00     0.159 C   
ATOM     14  CL1 UNL     1      -2.176  -3.340  -1.925  1.00  0.00    -0.060 Cl  
ENDBRANCH   7   8
ENDBRANCH   1   7
BRANCH   3  15
ATOM     15  C7  UNL     1       1.138  -0.561   1.354  1.00  0.00     0.117 C   
BRANCH  15  16
ATOM     16  N3  UNL     1       1.557   0.700   0.639  1.00  0.00     0.249 N   
ATOM     17  H9  UNL     1       2.515   0.975   0.872  1.00  0.00     0.199 HD  
ATOM     18  H10 UNL     1       0.946   1.454   0.989  1.00  0.00     0.199 HD  
BRANCH  16  19
ATOM     19  C8  UNL     1       1.415   0.668  -0.844  1.00  0.00     0.164 C   
BRANCH  19  20
ATOM     20  C9  UNL     1       1.772   2.004  -1.431  1.00  0.00    -0.002 A   
ATOM     21  C10 UNL     1       0.792   3.023  -1.520  1.00  0.00     0.012 A   
ATOM     22  C14 UNL     1       3.088   2.271  -1.841  1.00  0.00     0.045 A   
ATOM     23  C11 UNL     1       1.115   4.287  -2.025  1.00  0.00     0.037 A   
ATOM     24  C13 UNL     1       3.372   3.528  -2.333  1.00  0.00     0.109 A   
ATOM     25  C12 UNL     1       2.414   4.508  -2.424  1.00  0.00     0.108 A   
ATOM     26  O1  UNL     1       4.588   3.949  -2.771  1.00  0.00    -0.316 OA  
ATOM     27  O2  UNL     1       2.904   5.667  -2.935  1.00  0.00    -0.316 OA  
ATOM     28  C15 UNL     1       4.279   5.301  -3.180  1.00  0.00     0.337 C   
ENDBRANCH  19  20
ENDBRANCH  16  19
ENDBRANCH  15  16
BRANCH  15  29
ATOM     29  C16 UNL     1       1.651  -0.496   2.805  1.00  0.00     0.043 C   
ATOM     30  C17 UNL     1       1.360  -1.766   3.613  1.00  0.00     0.010 C   
ATOM     31  C20 UNL     1       3.176  -0.371   2.931  1.00  0.00     0.010 C   
ATOM     32  C18 UNL     1       2.267  -1.621   4.824  1.00  0.00     0.001 C   
ATOM     33  C19 UNL     1       3.541  -0.984   4.284  1.00  0.00     0.001 C   
ENDBRANCH  15  29
ENDBRANCH   3  15
TORSDOF 7
