REMARK SMILES CC(C)C[C@H]([NH2+]Cc1ccc2c(c1)OCO2)c1cn(CCc2[nH]nc3c2COCC3)nn1
REMARK SMILES IDX 17 1 18 2 19 3 31 4 32 5 5 7 4 8 2 9 1 10 3 11 6 12 7 15
REMARK SMILES IDX 8 16 9 17 13 18 10 19 12 20 11 21 14 22 16 23 15 24 20 25
REMARK SMILES IDX 21 26 22 27 23 28 26 29 24 30 25 31 27 32 30 33 28 34 29 35
REMARK H PARENT 18 6 6 13 6 14 23 36
ROOT
ATOM     1   C14 UNL     1      -1.786   0.752  -1.359  1.00  0.00     0.127 A   
ATOM     2   C15 UNL     1      -2.900   0.987  -0.582  1.00  0.00     0.045 A   
ATOM     3   N2  UNL     1      -3.805   0.058  -1.013  1.00  0.00    -0.212 N   
ATOM     4   N5  UNL     1      -3.322  -0.634  -2.060  1.00  0.00    -0.076 NA  
ATOM     5   N6  UNL     1      -2.087  -0.212  -2.286  1.00  0.00    -0.132 NA  
ATOM     6   H20 UNL     1      -3.092   1.633   0.266  1.00  0.00     0.083 HD  
ENDROOT
BRANCH   1   7
ATOM     7   C5  UNL     1      -0.406   1.315  -1.245  1.00  0.00     0.114 C   
BRANCH   7   8
ATOM     8   C4  UNL     1      -0.030   2.186  -2.458  1.00  0.00     0.064 C   
BRANCH   8   9
ATOM     9   C2  UNL     1       1.337   2.900  -2.380  1.00  0.00    -0.012 C   
ATOM     10  C1  UNL     1       1.407   3.891  -1.217  1.00  0.00     0.007 C   
ATOM     11  C3  UNL     1       1.608   3.630  -3.697  1.00  0.00     0.007 C   
ENDBRANCH   8   9
ENDBRANCH   7   8
BRANCH   7  12
ATOM     12  N1  UNL     1       0.627   0.260  -0.962  1.00  0.00     0.249 N   
ATOM     13  H11 UNL     1       0.259  -0.341  -0.196  1.00  0.00     0.199 HD  
ATOM     14  H12 UNL     1       1.468   0.688  -0.568  1.00  0.00     0.199 HD  
BRANCH  12  15
ATOM     15  C6  UNL     1       1.019  -0.669  -2.060  1.00  0.00     0.164 C   
BRANCH  15  16
ATOM     16  C7  UNL     1       2.044  -1.661  -1.577  1.00  0.00    -0.002 A   
ATOM     17  C8  UNL     1       3.405  -1.288  -1.449  1.00  0.00     0.012 A   
ATOM     18  C12 UNL     1       1.646  -2.960  -1.213  1.00  0.00     0.045 A   
ATOM     19  C9  UNL     1       4.358  -2.197  -0.971  1.00  0.00     0.037 A   
ATOM     20  C11 UNL     1       2.610  -3.831  -0.746  1.00  0.00     0.109 A   
ATOM     21  C10 UNL     1       3.928  -3.461  -0.628  1.00  0.00     0.108 A   
ATOM     22  O1  UNL     1       2.393  -5.115  -0.354  1.00  0.00    -0.316 OA  
ATOM     23  O2  UNL     1       4.708  -4.468  -0.152  1.00  0.00    -0.316 OA  
ATOM     24  C13 UNL     1       3.737  -5.529  -0.015  1.00  0.00     0.337 C   
ENDBRANCH  15  16
ENDBRANCH  12  15
ENDBRANCH   7  12
ENDBRANCH   1   7
BRANCH   3  25
ATOM     25  C16 UNL     1      -5.047  -0.332  -0.374  1.00  0.00     0.140 C   
BRANCH  25  26
ATOM     26  C17 UNL     1      -4.879  -1.540   0.562  1.00  0.00     0.075 C   
BRANCH  26  27
ATOM     27  C18 UNL     1      -3.911  -1.264   1.669  1.00  0.00     0.034 A   
ATOM     28  N3  UNL     1      -4.274  -0.641   2.841  1.00  0.00    -0.242 N   
ATOM     29  C20 UNL     1      -2.552  -1.474   1.776  1.00  0.00     0.020 A   
ATOM     30  N4  UNL     1      -3.222  -0.283   3.601  1.00  0.00    -0.189 NA  
ATOM     31  C19 UNL     1      -2.180  -0.816   2.965  1.00  0.00     0.068 A   
ATOM     32  C21 UNL     1      -1.535  -2.104   0.905  1.00  0.00     0.199 C   
ATOM     33  C23 UNL     1      -0.762  -0.629   3.367  1.00  0.00     0.087 C   
ATOM     34  O3  UNL     1      -0.258  -1.417   1.064  1.00  0.00    -0.376 OA  
ATOM     35  C22 UNL     1       0.152  -1.480   2.461  1.00  0.00     0.167 C   
ATOM     36  H25 UNL     1      -5.203  -0.376   3.158  1.00  0.00     0.175 HD  
ENDBRANCH  26  27
ENDBRANCH  25  26
ENDBRANCH   3  25
TORSDOF 9
