REMARK SMILES CC(C)(C)[C@H]([NH2+]Cc1ccc2c(c1)OCO2)c1cn(C[C@@H](O)c2ccncc2)nn1
REMARK SMILES IDX 17 1 18 2 19 3 29 4 30 5 5 7 2 8 1 9 3 10 4 11 6 12 7 15
REMARK SMILES IDX 8 16 9 17 13 18 10 19 12 20 11 21 14 22 16 23 15 24 20 25
REMARK SMILES IDX 21 26 22 27 23 29 24 30 28 31 25 32 27 33 26 34
REMARK H PARENT 18 6 6 13 6 14 22 28
ROOT
ATOM     1   C14 UNL     1       0.833   0.772   0.682  1.00  0.00     0.127 A   
ATOM     2   C15 UNL     1       0.264   0.918   1.928  1.00  0.00     0.046 A   
ATOM     3   N2  UNL     1       1.285   1.392   2.702  1.00  0.00    -0.209 N   
ATOM     4   N4  UNL     1       2.388   1.613   1.964  1.00  0.00    -0.076 NA  
ATOM     5   N5  UNL     1       2.130   1.220   0.727  1.00  0.00    -0.132 NA  
ATOM     6   H20 UNL     1      -0.715   0.693   2.329  1.00  0.00     0.083 HD  
ENDROOT
BRANCH   1   7
ATOM     7   C5  UNL     1       0.265   0.277  -0.616  1.00  0.00     0.120 C   
BRANCH   7   8
ATOM     8   C2  UNL     1       0.403  -1.274  -0.824  1.00  0.00     0.010 C   
ATOM     9   C1  UNL     1      -0.305  -1.709  -2.129  1.00  0.00     0.017 C   
ATOM     10  C3  UNL     1       1.872  -1.736  -0.892  1.00  0.00     0.017 C   
ATOM     11  C4  UNL     1      -0.291  -2.032   0.332  1.00  0.00     0.017 C   
ENDBRANCH   7   8
BRANCH   7  12
ATOM     12  N1  UNL     1       0.935   1.021  -1.756  1.00  0.00     0.250 N   
ATOM     13  H11 UNL     1       0.795   0.542  -2.648  1.00  0.00     0.199 HD  
ATOM     14  H12 UNL     1       1.945   0.999  -1.556  1.00  0.00     0.199 HD  
BRANCH  12  15
ATOM     15  C6  UNL     1       0.554   2.456  -1.923  1.00  0.00     0.164 C   
BRANCH  15  16
ATOM     16  C7  UNL     1      -0.871   2.632  -2.371  1.00  0.00    -0.002 A   
ATOM     17  C8  UNL     1      -1.835   3.171  -1.485  1.00  0.00     0.012 A   
ATOM     18  C12 UNL     1      -1.262   2.239  -3.663  1.00  0.00     0.045 A   
ATOM     19  C9  UNL     1      -3.172   3.309  -1.874  1.00  0.00     0.037 A   
ATOM     20  C11 UNL     1      -2.588   2.388  -4.013  1.00  0.00     0.109 A   
ATOM     21  C10 UNL     1      -3.516   2.907  -3.145  1.00  0.00     0.108 A   
ATOM     22  O1  UNL     1      -3.130   2.053  -5.213  1.00  0.00    -0.316 OA  
ATOM     23  O2  UNL     1      -4.760   2.964  -3.688  1.00  0.00    -0.316 OA  
ATOM     24  C13 UNL     1      -4.505   2.453  -5.015  1.00  0.00     0.337 C   
ENDBRANCH  15  16
ENDBRANCH  12  15
ENDBRANCH   7  12
ENDBRANCH   1   7
BRANCH   3  25
ATOM     25  C16 UNL     1       1.295   1.601   4.132  1.00  0.00     0.170 C   
BRANCH  25  26
ATOM     26  C17 UNL     1       2.201   0.614   4.878  1.00  0.00     0.164 C   
BRANCH  26  27
ATOM     27  O3  UNL     1       2.093   0.866   6.280  1.00  0.00    -0.387 OA  
ATOM     28  H24 UNL     1       2.569   0.151   6.742  1.00  0.00     0.211 HD  
ENDBRANCH  26  27
BRANCH  26  29
ATOM     29  C18 UNL     1       1.848  -0.833   4.607  1.00  0.00    -0.015 A   
ATOM     30  C19 UNL     1       2.667  -1.615   3.785  1.00  0.00     0.026 A   
ATOM     31  C22 UNL     1       0.684  -1.411   5.128  1.00  0.00     0.026 A   
ATOM     32  C20 UNL     1       2.283  -2.917   3.507  1.00  0.00     0.111 A   
ATOM     33  C21 UNL     1       0.384  -2.721   4.790  1.00  0.00     0.111 A   
ATOM     34  N3  UNL     1       1.149  -3.477   3.975  1.00  0.00    -0.265 NA  
ENDBRANCH  26  29
ENDBRANCH  25  26
ENDBRANCH   3  25
TORSDOF 9
