REMARK SMILES CC(C)(C)[C@H]([NH2+]Cc1ccc2c(c1)OCO2)c1cn(C[C@H](O)c2ccncc2)nn1
REMARK SMILES IDX 17 1 18 2 19 3 29 4 30 5 5 7 2 8 1 9 3 10 4 11 6 12 7 15
REMARK SMILES IDX 8 16 9 17 13 18 10 19 12 20 11 21 14 22 16 23 15 24 20 25
REMARK SMILES IDX 21 26 22 27 23 29 24 30 28 31 25 32 27 33 26 34
REMARK H PARENT 18 6 6 13 6 14 22 28
ROOT
ATOM     1   C14 UNL     1       1.147  -0.046  -1.036  1.00  0.00     0.127 A   
ATOM     2   C15 UNL     1       2.252   0.745  -0.813  1.00  0.00     0.046 A   
ATOM     3   N2  UNL     1       1.841   1.996  -1.179  1.00  0.00    -0.209 N   
ATOM     4   N4  UNL     1       0.580   1.972  -1.646  1.00  0.00    -0.076 NA  
ATOM     5   N5  UNL     1       0.138   0.729  -1.550  1.00  0.00    -0.132 NA  
ATOM     6   H20 UNL     1       3.228   0.555  -0.388  1.00  0.00     0.083 HD  
ENDROOT
BRANCH   1   7
ATOM     7   C5  UNL     1       0.880  -1.479  -0.686  1.00  0.00     0.120 C   
BRANCH   7   8
ATOM     8   C2  UNL     1       1.011  -2.474  -1.890  1.00  0.00     0.010 C   
ATOM     9   C1  UNL     1       0.882  -3.933  -1.391  1.00  0.00     0.017 C   
ATOM     10  C3  UNL     1      -0.054  -2.244  -2.979  1.00  0.00     0.017 C   
ATOM     11  C4  UNL     1       2.407  -2.340  -2.538  1.00  0.00     0.017 C   
ENDBRANCH   7   8
BRANCH   7  12
ATOM     12  N1  UNL     1      -0.494  -1.571  -0.067  1.00  0.00     0.250 N   
ATOM     13  H11 UNL     1      -0.856  -2.527  -0.047  1.00  0.00     0.199 HD  
ATOM     14  H12 UNL     1      -1.126  -1.036  -0.682  1.00  0.00     0.199 HD  
BRANCH  12  15
ATOM     15  C6  UNL     1      -0.616  -0.984   1.301  1.00  0.00     0.164 C   
BRANCH  15  16
ATOM     16  C7  UNL     1      -2.055  -0.964   1.730  1.00  0.00    -0.002 A   
ATOM     17  C8  UNL     1      -2.584  -2.003   2.531  1.00  0.00     0.012 A   
ATOM     18  C12 UNL     1      -2.901   0.068   1.281  1.00  0.00     0.045 A   
ATOM     19  C9  UNL     1      -3.936  -2.012   2.891  1.00  0.00     0.037 A   
ATOM     20  C11 UNL     1      -4.227   0.030   1.656  1.00  0.00     0.109 A   
ATOM     21  C10 UNL     1      -4.731  -0.981   2.439  1.00  0.00     0.108 A   
ATOM     22  O1  UNL     1      -5.173   0.938   1.304  1.00  0.00    -0.316 OA  
ATOM     23  O2  UNL     1      -6.059  -0.834   2.681  1.00  0.00    -0.316 OA  
ATOM     24  C13 UNL     1      -6.335   0.396   1.976  1.00  0.00     0.337 C   
ENDBRANCH  15  16
ENDBRANCH  12  15
ENDBRANCH   7  12
ENDBRANCH   1   7
BRANCH   3  25
ATOM     25  C16 UNL     1       2.526   3.249  -0.954  1.00  0.00     0.170 C   
BRANCH  25  26
ATOM     26  C17 UNL     1       1.826   4.157   0.071  1.00  0.00     0.164 C   
BRANCH  26  27
ATOM     27  O3  UNL     1       2.724   5.204   0.443  1.00  0.00    -0.387 OA  
ATOM     28  H24 UNL     1       2.317   5.695   1.181  1.00  0.00     0.211 HD  
ENDBRANCH  26  27
BRANCH  26  29
ATOM     29  C18 UNL     1       1.383   3.434   1.328  1.00  0.00    -0.015 A   
ATOM     30  C19 UNL     1       0.021   3.326   1.633  1.00  0.00     0.026 A   
ATOM     31  C22 UNL     1       2.306   2.820   2.182  1.00  0.00     0.026 A   
ATOM     32  C20 UNL     1      -0.356   2.570   2.730  1.00  0.00     0.111 A   
ATOM     33  C21 UNL     1       1.829   2.071   3.247  1.00  0.00     0.111 A   
ATOM     34  N3  UNL     1       0.517   1.896   3.510  1.00  0.00    -0.265 NA  
ENDBRANCH  26  29
ENDBRANCH  25  26
ENDBRANCH   3  25
TORSDOF 9
