REMARK SMILES CC(C)C[C@H]([NH2+]Cc1ccc2c(c1)OCO2)c1cn([C@H](CO)c2cc(F)ccc2F)nn1
REMARK SMILES IDX 17 1 18 2 19 3 31 4 32 5 5 7 4 8 2 9 1 10 3 11 6 12 7 15
REMARK SMILES IDX 8 16 9 17 13 18 10 19 12 20 11 21 14 22 16 23 15 24 20 25
REMARK SMILES IDX 21 26 22 27 23 29 24 30 29 31 25 32 28 33 27 34 30 35 26 36
REMARK H PARENT 18 6 6 13 6 14 22 28
ROOT
ATOM     1   C14 UNL     1       1.435   0.341  -0.235  1.00  0.00     0.127 A   
ATOM     2   C15 UNL     1       0.654  -0.083   0.815  1.00  0.00     0.046 A   
ATOM     3   N2  UNL     1       1.096   0.658   1.879  1.00  0.00    -0.202 N   
ATOM     4   N3  UNL     1       2.100   1.478   1.502  1.00  0.00    -0.075 NA  
ATOM     5   N4  UNL     1       2.313   1.294   0.210  1.00  0.00    -0.132 NA  
ATOM     6   H20 UNL     1      -0.140  -0.812   0.907  1.00  0.00     0.083 HD  
ENDROOT
BRANCH   1   7
ATOM     7   C5  UNL     1       1.427  -0.033  -1.680  1.00  0.00     0.114 C   
BRANCH   7   8
ATOM     8   C4  UNL     1       2.375  -1.215  -1.953  1.00  0.00     0.064 C   
BRANCH   8   9
ATOM     9   C2  UNL     1       2.334  -1.788  -3.386  1.00  0.00    -0.012 C   
ATOM     10  C1  UNL     1       0.953  -2.323  -3.766  1.00  0.00     0.007 C   
ATOM     11  C3  UNL     1       3.371  -2.907  -3.519  1.00  0.00     0.007 C   
ENDBRANCH   8   9
ENDBRANCH   7   8
BRANCH   7  12
ATOM     12  N1  UNL     1       1.859   1.158  -2.505  1.00  0.00     0.249 N   
ATOM     13  H11 UNL     1       2.568   0.898  -3.195  1.00  0.00     0.199 HD  
ATOM     14  H12 UNL     1       2.344   1.790  -1.847  1.00  0.00     0.199 HD  
BRANCH  12  15
ATOM     15  C6  UNL     1       0.770   1.929  -3.167  1.00  0.00     0.164 C   
BRANCH  15  16
ATOM     16  C7  UNL     1      -0.175   2.590  -2.203  1.00  0.00    -0.002 A   
ATOM     17  C8  UNL     1      -1.485   2.086  -2.019  1.00  0.00     0.012 A   
ATOM     18  C12 UNL     1       0.245   3.704  -1.455  1.00  0.00     0.045 A   
ATOM     19  C9  UNL     1      -2.363   2.678  -1.103  1.00  0.00     0.037 A   
ATOM     20  C11 UNL     1      -0.645   4.266  -0.564  1.00  0.00     0.109 A   
ATOM     21  C10 UNL     1      -1.912   3.768  -0.392  1.00  0.00     0.108 A   
ATOM     22  O1  UNL     1      -0.398   5.344   0.224  1.00  0.00    -0.316 OA  
ATOM     23  O2  UNL     1      -2.625   4.470   0.527  1.00  0.00    -0.316 OA  
ATOM     24  C13 UNL     1      -1.659   5.473   0.915  1.00  0.00     0.337 C   
ENDBRANCH  15  16
ENDBRANCH  12  15
ENDBRANCH   7  12
ENDBRANCH   1   7
BRANCH   3  25
ATOM     25  C16 UNL     1       0.642   0.638   3.271  1.00  0.00     0.158 C   
BRANCH  25  26
ATOM     26  C17 UNL     1       1.323  -0.508   4.045  1.00  0.00     0.186 C   
BRANCH  26  27
ATOM     27  O3  UNL     1       1.067  -1.792   3.473  1.00  0.00    -0.394 OA  
ATOM     28  H24 UNL     1       1.550  -2.448   4.012  1.00  0.00     0.210 HD  
ENDBRANCH  26  27
ENDBRANCH  25  26
BRANCH  25  29
ATOM     29  C18 UNL     1      -0.875   0.721   3.349  1.00  0.00     0.016 A   
ATOM     30  C19 UNL     1      -1.705  -0.386   3.580  1.00  0.00     0.048 A   
ATOM     31  C23 UNL     1      -1.492   1.966   3.150  1.00  0.00     0.128 A   
ATOM     32  C20 UNL     1      -3.091  -0.232   3.610  1.00  0.00     0.123 A   
ATOM     33  C22 UNL     1      -2.878   2.118   3.179  1.00  0.00     0.042 A   
ATOM     34  C21 UNL     1      -3.685   1.009   3.412  1.00  0.00     0.042 A   
ATOM     35  F2  UNL     1      -0.735   3.047   2.921  1.00  0.00    -0.207 F   
ATOM     36  F1  UNL     1      -3.862  -1.305   3.826  1.00  0.00    -0.207 F   
ENDBRANCH  25  29
ENDBRANCH   3  25
TORSDOF 10
