REMARK SMILES CC(C)C[C@H]([NH2+]Cc1ccc2c(c1)OCO2)c1cn([C@@H](CO)c2cc(F)ccc2F)nn1
REMARK SMILES IDX 17 1 18 2 19 3 31 4 32 5 5 7 4 8 2 9 1 10 3 11 6 12 7 15
REMARK SMILES IDX 8 16 9 17 13 18 10 19 12 20 11 21 14 22 16 23 15 24 20 25
REMARK SMILES IDX 21 26 22 27 23 29 24 30 29 31 25 32 28 33 27 34 30 35 26 36
REMARK H PARENT 18 6 6 13 6 14 22 28
ROOT
ATOM     1   C14 UNL     1       0.235  -0.333   1.138  1.00  0.00     0.127 A   
ATOM     2   C15 UNL     1       0.578  -0.833   2.374  1.00  0.00     0.046 A   
ATOM     3   N2  UNL     1       1.722  -0.160   2.708  1.00  0.00    -0.202 N   
ATOM     4   N3  UNL     1       2.055   0.721   1.736  1.00  0.00    -0.075 NA  
ATOM     5   N4  UNL     1       1.145   0.633   0.782  1.00  0.00    -0.132 NA  
ATOM     6   H20 UNL     1       0.148  -1.587   3.019  1.00  0.00     0.083 HD  
ENDROOT
BRANCH   1   7
ATOM     7   C5  UNL     1      -0.924  -0.649   0.242  1.00  0.00     0.114 C   
BRANCH   7   8
ATOM     8   C4  UNL     1      -0.964  -2.125  -0.194  1.00  0.00     0.064 C   
BRANCH   8   9
ATOM     9   C2  UNL     1      -2.184  -2.551  -1.041  1.00  0.00    -0.012 C   
ATOM     10  C1  UNL     1      -3.509  -2.324  -0.310  1.00  0.00     0.007 C   
ATOM     11  C3  UNL     1      -2.052  -4.028  -1.426  1.00  0.00     0.007 C   
ENDBRANCH   8   9
ENDBRANCH   7   8
BRANCH   7  12
ATOM     12  N1  UNL     1      -0.991   0.281  -0.939  1.00  0.00     0.249 N   
ATOM     13  H11 UNL     1      -1.938   0.309  -1.329  1.00  0.00     0.199 HD  
ATOM     14  H12 UNL     1      -0.815   1.223  -0.559  1.00  0.00     0.199 HD  
BRANCH  12  15
ATOM     15  C6  UNL     1      -0.002   0.098  -2.042  1.00  0.00     0.164 C   
BRANCH  15  16
ATOM     16  C7  UNL     1      -0.010   1.298  -2.949  1.00  0.00    -0.002 A   
ATOM     17  C8  UNL     1       0.906   2.352  -2.728  1.00  0.00     0.012 A   
ATOM     18  C12 UNL     1      -0.963   1.410  -3.974  1.00  0.00     0.045 A   
ATOM     19  C9  UNL     1       0.885   3.499  -3.527  1.00  0.00     0.037 A   
ATOM     20  C11 UNL     1      -0.962   2.559  -4.736  1.00  0.00     0.109 A   
ATOM     21  C10 UNL     1      -0.061   3.573  -4.521  1.00  0.00     0.108 A   
ATOM     22  O1  UNL     1      -1.820   2.832  -5.752  1.00  0.00    -0.316 OA  
ATOM     23  O2  UNL     1      -0.235   4.608  -5.382  1.00  0.00    -0.316 OA  
ATOM     24  C13 UNL     1      -1.359   4.142  -6.154  1.00  0.00     0.337 C   
ENDBRANCH  15  16
ENDBRANCH  12  15
ENDBRANCH   7  12
ENDBRANCH   1   7
BRANCH   3  25
ATOM     25  C16 UNL     1       2.545  -0.324   3.907  1.00  0.00     0.158 C   
BRANCH  25  26
ATOM     26  C17 UNL     1       3.859  -1.046   3.559  1.00  0.00     0.186 C   
BRANCH  26  27
ATOM     27  O3  UNL     1       3.594  -2.403   3.192  1.00  0.00    -0.394 OA  
ATOM     28  H24 UNL     1       4.457  -2.830   3.033  1.00  0.00     0.210 HD  
ENDBRANCH  26  27
ENDBRANCH  25  26
BRANCH  25  29
ATOM     29  C18 UNL     1       2.698   0.999   4.632  1.00  0.00     0.016 A   
ATOM     30  C19 UNL     1       3.809   1.841   4.469  1.00  0.00     0.048 A   
ATOM     31  C23 UNL     1       1.665   1.430   5.478  1.00  0.00     0.128 A   
ATOM     32  C20 UNL     1       3.877   3.049   5.162  1.00  0.00     0.123 A   
ATOM     33  C22 UNL     1       1.732   2.635   6.168  1.00  0.00     0.042 A   
ATOM     34  C21 UNL     1       2.853   3.450   6.013  1.00  0.00     0.042 A   
ATOM     35  F2  UNL     1       0.567   0.668   5.620  1.00  0.00    -0.207 F   
ATOM     36  F1  UNL     1       4.941   3.842   4.987  1.00  0.00    -0.207 F   
ENDBRANCH  25  29
ENDBRANCH   3  25
TORSDOF 10
