REMARK SMILES c1cc2c(cc1C[NH2+][C@H](c1cn(Cc3cn[nH]c3C3CCCC3)nn1)C1CCCC1)OCO2
REMARK SMILES IDX 10 1 11 2 12 3 24 4 25 5 9 7 8 8 7 11 6 12 1 13 2 14 3 15
REMARK SMILES IDX 5 16 4 17 33 18 31 19 32 20 26 21 27 22 30 23 28 24 29 25
REMARK SMILES IDX 13 26 14 27 15 28 18 29 16 30 17 31 19 33 20 34 23 35 21 36
REMARK SMILES IDX 22 37
REMARK H PARENT 11 6 8 9 8 10 17 32
ROOT
ATOM     1   C9  UNL     1      -0.780  -1.151   1.744  1.00  0.00     0.127 A   
ATOM     2   C10 UNL     1       0.106  -1.517   0.755  1.00  0.00     0.046 A   
ATOM     3   N2  UNL     1      -0.396  -2.700   0.287  1.00  0.00    -0.208 N   
ATOM     4   N5  UNL     1      -1.490  -3.066   0.983  1.00  0.00    -0.076 NA  
ATOM     5   N6  UNL     1      -1.734  -2.125   1.880  1.00  0.00    -0.132 NA  
ATOM     6   H9  UNL     1       0.965  -1.035   0.309  1.00  0.00     0.083 HD  
ENDROOT
BRANCH   1   7
ATOM     7   C8  UNL     1      -0.892   0.116   2.523  1.00  0.00     0.117 C   
BRANCH   7   8
ATOM     8   N1  UNL     1      -2.321   0.607   2.546  1.00  0.00     0.249 N   
ATOM     9   H6  UNL     1      -2.885  -0.141   2.971  1.00  0.00     0.199 HD  
ATOM     10  H7  UNL     1      -2.407   1.433   3.143  1.00  0.00     0.199 HD  
BRANCH   8  11
ATOM     11  C7  UNL     1      -2.953   0.899   1.218  1.00  0.00     0.164 C   
BRANCH  11  12
ATOM     12  C6  UNL     1      -2.169   1.854   0.361  1.00  0.00    -0.002 A   
ATOM     13  C1  UNL     1      -1.669   1.425  -0.893  1.00  0.00     0.012 A   
ATOM     14  C2  UNL     1      -0.907   2.280  -1.695  1.00  0.00     0.037 A   
ATOM     15  C3  UNL     1      -0.663   3.552  -1.227  1.00  0.00     0.108 A   
ATOM     16  C5  UNL     1      -1.912   3.165   0.796  1.00  0.00     0.045 A   
ATOM     17  C4  UNL     1      -1.154   3.981  -0.019  1.00  0.00     0.109 A   
ATOM     18  O2  UNL     1       0.059   4.510  -1.863  1.00  0.00    -0.316 OA  
ATOM     19  O1  UNL     1      -0.801   5.263   0.259  1.00  0.00    -0.316 OA  
ATOM     20  C25 UNL     1      -0.054   5.606  -0.930  1.00  0.00     0.337 C   
ENDBRANCH  11  12
ENDBRANCH   8  11
ENDBRANCH   7   8
BRANCH   7  21
ATOM     21  C20 UNL     1      -0.335  -0.040   3.953  1.00  0.00     0.043 C   
ATOM     22  C21 UNL     1      -1.164  -0.868   4.937  1.00  0.00     0.010 C   
ATOM     23  C24 UNL     1      -0.160   1.277   4.716  1.00  0.00     0.010 C   
ATOM     24  C22 UNL     1      -0.525  -0.560   6.288  1.00  0.00     0.001 C   
ATOM     25  C23 UNL     1       0.055   0.849   6.167  1.00  0.00     0.001 C   
ENDBRANCH   7  21
ENDBRANCH   1   7
BRANCH   3  26
ATOM     26  C11 UNL     1       0.012  -3.432  -0.903  1.00  0.00     0.172 C   
BRANCH  26  27
ATOM     27  C12 UNL     1      -0.455  -2.696  -2.113  1.00  0.00     0.010 A   
ATOM     28  C13 UNL     1      -1.798  -2.571  -2.542  1.00  0.00     0.138 A   
ATOM     29  C14 UNL     1       0.271  -1.967  -3.043  1.00  0.00     0.034 A   
ATOM     30  N3  UNL     1      -1.919  -1.790  -3.612  1.00  0.00    -0.192 NA  
ATOM     31  N4  UNL     1      -0.655  -1.494  -3.942  1.00  0.00    -0.242 N   
ATOM     32  H13 UNL     1      -0.494  -0.948  -4.784  1.00  0.00     0.175 HD  
BRANCH  29  33
ATOM     33  C15 UNL     1       1.732  -1.688  -3.175  1.00  0.00     0.035 C   
ATOM     34  C16 UNL     1       2.342  -2.186  -4.483  1.00  0.00     0.010 C   
ATOM     35  C19 UNL     1       2.077  -0.201  -3.193  1.00  0.00     0.010 C   
ATOM     36  C17 UNL     1       3.667  -1.437  -4.578  1.00  0.00     0.001 C   
ATOM     37  C18 UNL     1       3.490  -0.152  -3.766  1.00  0.00     0.001 C   
ENDBRANCH  29  33
ENDBRANCH  26  27
ENDBRANCH   3  26
TORSDOF 8
