REMARK SMILES CC(C)C[C@H]([NH2+]Cc1ccc2c(c1)OCO2)c1cn(CCc2ccccc2)nn1
REMARK SMILES IDX 17 1 18 2 19 3 28 4 29 5 5 7 4 8 2 9 1 10 3 11 6 12 7 15
REMARK SMILES IDX 8 16 9 17 13 18 10 19 12 20 11 21 14 22 16 23 15 24 20 25
REMARK SMILES IDX 21 26 22 27 23 28 27 29 24 30 26 31 25 32
REMARK H PARENT 18 6 6 13 6 14
ROOT
ATOM     1   C14 UNL     1       1.856  -0.750  -1.174  1.00  0.00     0.127 A   
ATOM     2   C15 UNL     1       0.752  -1.476  -1.561  1.00  0.00     0.045 A   
ATOM     3   N2  UNL     1       1.074  -2.761  -1.231  1.00  0.00    -0.212 N   
ATOM     4   N3  UNL     1       2.300  -2.827  -0.682  1.00  0.00    -0.076 NA  
ATOM     5   N4  UNL     1       2.791  -1.599  -0.639  1.00  0.00    -0.132 NA  
ATOM     6   H20 UNL     1      -0.201  -1.208  -1.995  1.00  0.00     0.083 HD  
ENDROOT
BRANCH   1   7
ATOM     7   C5  UNL     1       2.113   0.718  -1.176  1.00  0.00     0.114 C   
BRANCH   7   8
ATOM     8   C4  UNL     1       3.119   1.143  -2.263  1.00  0.00     0.064 C   
BRANCH   8   9
ATOM     9   C2  UNL     1       2.661   0.887  -3.715  1.00  0.00    -0.012 C   
ATOM     10  C1  UNL     1       1.380   1.647  -4.064  1.00  0.00     0.007 C   
ATOM     11  C3  UNL     1       3.777   1.285  -4.685  1.00  0.00     0.007 C   
ENDBRANCH   8   9
ENDBRANCH   7   8
BRANCH   7  12
ATOM     12  N1  UNL     1       2.703   1.136   0.157  1.00  0.00     0.249 N   
ATOM     13  H11 UNL     1       3.524   0.534   0.309  1.00  0.00     0.199 HD  
ATOM     14  H12 UNL     1       3.035   2.103   0.105  1.00  0.00     0.199 HD  
BRANCH  12  15
ATOM     15  C6  UNL     1       1.813   0.984   1.348  1.00  0.00     0.164 C   
BRANCH  15  16
ATOM     16  C7  UNL     1       0.613   1.888   1.302  1.00  0.00    -0.002 A   
ATOM     17  C8  UNL     1      -0.663   1.360   0.989  1.00  0.00     0.012 A   
ATOM     18  C12 UNL     1       0.752   3.267   1.532  1.00  0.00     0.045 A   
ATOM     19  C9  UNL     1      -1.786   2.189   0.907  1.00  0.00     0.037 A   
ATOM     20  C11 UNL     1      -0.375   4.057   1.442  1.00  0.00     0.109 A   
ATOM     21  C10 UNL     1      -1.608   3.535   1.138  1.00  0.00     0.108 A   
ATOM     22  O1  UNL     1      -0.412   5.402   1.630  1.00  0.00    -0.316 OA  
ATOM     23  O2  UNL     1      -2.578   4.485   1.098  1.00  0.00    -0.316 OA  
ATOM     24  C13 UNL     1      -1.821   5.667   1.439  1.00  0.00     0.337 C   
ENDBRANCH  15  16
ENDBRANCH  12  15
ENDBRANCH   7  12
ENDBRANCH   1   7
BRANCH   3  25
ATOM     25  C16 UNL     1       0.258  -3.949  -1.368  1.00  0.00     0.139 C   
BRANCH  25  26
ATOM     26  C17 UNL     1      -0.236  -4.495  -0.027  1.00  0.00     0.057 C   
BRANCH  26  27
ATOM     27  C18 UNL     1      -1.083  -3.515   0.752  1.00  0.00    -0.046 A   
ATOM     28  C19 UNL     1      -0.611  -2.977   1.958  1.00  0.00     0.004 A   
ATOM     29  C23 UNL     1      -2.353  -3.140   0.293  1.00  0.00     0.004 A   
ATOM     30  C20 UNL     1      -1.396  -2.087   2.693  1.00  0.00     0.000 A   
ATOM     31  C22 UNL     1      -3.133  -2.243   1.025  1.00  0.00     0.000 A   
ATOM     32  C21 UNL     1      -2.656  -1.719   2.225  1.00  0.00     0.000 A   
ENDBRANCH  26  27
ENDBRANCH  25  26
ENDBRANCH   3  25
TORSDOF 9
