REMARK SMILES Cc1cc(Cn2cc([C@@H]([NH2+]Cc3ccc4c(c3)OCO4)C(C)(C)C)nn2)cnc1Cl
REMARK SMILES IDX 6 1 7 2 8 3 25 4 26 5 5 7 4 8 2 9 3 10 29 11 28 12 27 13
REMARK SMILES IDX 1 14 30 15 9 16 10 17 11 20 12 21 13 22 17 23 14 24 16 25
REMARK SMILES IDX 15 26 18 27 20 28 19 29 21 30 22 31 23 32 24 33
REMARK H PARENT 7 6 10 18 10 19
ROOT
ATOM     1   N1  UNL     1       0.922  -1.060   1.610  1.00  0.00    -0.208 N   
ATOM     2   C6  UNL     1       0.848   0.205   1.093  1.00  0.00     0.046 A   
ATOM     3   C7  UNL     1      -0.439   0.606   1.379  1.00  0.00     0.127 A   
ATOM     4   N3  UNL     1      -1.071  -0.384   2.087  1.00  0.00    -0.132 NA  
ATOM     5   N4  UNL     1      -0.230  -1.398   2.218  1.00  0.00    -0.076 NA  
ATOM     6   H7  UNL     1       1.655   0.650   0.528  1.00  0.00     0.083 HD  
ENDROOT
BRANCH   1   7
ATOM     7   C5  UNL     1       1.959  -2.057   1.381  1.00  0.00     0.171 C   
BRANCH   7   8
ATOM     8   C4  UNL     1       1.907  -2.518  -0.051  1.00  0.00    -0.010 A   
ATOM     9   C2  UNL     1       2.778  -2.552  -2.318  1.00  0.00    -0.013 A   
ATOM     10  C3  UNL     1       2.907  -2.185  -0.972  1.00  0.00     0.013 A   
ATOM     11  C22 UNL     1       1.621  -3.237  -2.678  1.00  0.00     0.131 A   
ATOM     12  N5  UNL     1       0.638  -3.578  -1.815  1.00  0.00    -0.244 NA  
ATOM     13  C21 UNL     1       0.813  -3.237  -0.524  1.00  0.00     0.118 A   
ATOM     14  C1  UNL     1       3.842  -2.197  -3.311  1.00  0.00     0.048 C   
ATOM     15  CL1 UNL     1       1.287  -3.705  -4.298  1.00  0.00    -0.062 Cl  
ENDBRANCH   7   8
ENDBRANCH   1   7
BRANCH   3  16
ATOM     16  C8  UNL     1      -1.206   1.811   0.931  1.00  0.00     0.120 C   
BRANCH  16  17
ATOM     17  N2  UNL     1      -2.590   1.395   0.465  1.00  0.00     0.250 N   
ATOM     18  H9  UNL     1      -3.044   0.931   1.262  1.00  0.00     0.199 HD  
ATOM     19  H10 UNL     1      -3.151   2.215   0.224  1.00  0.00     0.199 HD  
BRANCH  17  20
ATOM     20  C9  UNL     1      -2.658   0.427  -0.679  1.00  0.00     0.164 C   
BRANCH  20  21
ATOM     21  C10 UNL     1      -1.948   0.899  -1.917  1.00  0.00    -0.002 A   
ATOM     22  C11 UNL     1      -2.434   2.005  -2.655  1.00  0.00     0.012 A   
ATOM     23  C15 UNL     1      -0.775   0.248  -2.340  1.00  0.00     0.045 A   
ATOM     24  C12 UNL     1      -1.756   2.462  -3.790  1.00  0.00     0.037 A   
ATOM     25  C14 UNL     1      -0.130   0.726  -3.460  1.00  0.00     0.109 A   
ATOM     26  C13 UNL     1      -0.607   1.802  -4.166  1.00  0.00     0.108 A   
ATOM     27  O1  UNL     1       1.016   0.223  -3.990  1.00  0.00    -0.316 OA  
ATOM     28  O2  UNL     1       0.173   2.107  -5.235  1.00  0.00    -0.316 OA  
ATOM     29  C16 UNL     1       1.167   1.062  -5.158  1.00  0.00     0.337 C   
ENDBRANCH  20  21
ENDBRANCH  17  20
ENDBRANCH  16  17
BRANCH  16  30
ATOM     30  C17 UNL     1      -1.310   2.946   2.013  1.00  0.00     0.010 C   
ATOM     31  C18 UNL     1      -1.996   4.196   1.416  1.00  0.00     0.017 C   
ATOM     32  C19 UNL     1      -2.101   2.517   3.264  1.00  0.00     0.017 C   
ATOM     33  C20 UNL     1       0.106   3.378   2.459  1.00  0.00     0.017 C   
ENDBRANCH  16  30
ENDBRANCH   3  16
TORSDOF 7
