REMARK SMILES CC(C)[C@H]([NH2+]Cc1ccc2c(c1)OCO2)c1cn(-c2ccc(CN)cc2)nn1
REMARK SMILES IDX 16 1 17 2 18 3 27 4 28 5 4 6 2 7 1 8 3 9 5 10 6 13 7 14 8 15
REMARK SMILES IDX 12 16 9 17 11 18 10 19 13 20 15 21 14 22 19 23 20 24 26 25
REMARK SMILES IDX 21 26 25 27 22 28 23 29 24 30
REMARK H PARENT 5 11 5 12 24 31 24 32
ROOT
ATOM     1   C13 UNL     1       0.306   0.691   0.836  1.00  0.00     0.127 A   
ATOM     2   C14 UNL     1       1.662   0.896   0.705  1.00  0.00     0.135 A   
ATOM     3   N2  UNL     1       2.227  -0.364   0.777  1.00  0.00    -0.181 N   
ATOM     4   N4  UNL     1       1.230  -1.278   0.908  1.00  0.00    -0.071 NA  
ATOM     5   N5  UNL     1       0.069  -0.649   0.955  1.00  0.00    -0.131 NA  
ENDROOT
BRANCH   1   6
ATOM     6   C4  UNL     1      -0.848   1.642   0.813  1.00  0.00     0.117 C   
BRANCH   6   7
ATOM     7   C2  UNL     1      -1.200   2.249   2.196  1.00  0.00     0.037 C   
ATOM     8   C1  UNL     1      -0.080   3.153   2.722  1.00  0.00     0.014 C   
ATOM     9   C3  UNL     1      -1.570   1.210   3.261  1.00  0.00     0.014 C   
ENDBRANCH   6   7
BRANCH   6  10
ATOM     10  N1  UNL     1      -2.076   0.949   0.274  1.00  0.00     0.249 N   
ATOM     11  H9  UNL     1      -2.935   1.444   0.535  1.00  0.00     0.199 HD  
ATOM     12  H10 UNL     1      -2.125   0.025   0.731  1.00  0.00     0.199 HD  
BRANCH  10  13
ATOM     13  C5  UNL     1      -2.082   0.708  -1.196  1.00  0.00     0.164 C   
BRANCH  13  14
ATOM     14  C6  UNL     1      -3.304  -0.071  -1.592  1.00  0.00    -0.002 A   
ATOM     15  C7  UNL     1      -3.288  -1.486  -1.545  1.00  0.00     0.012 A   
ATOM     16  C11 UNL     1      -4.485   0.597  -1.957  1.00  0.00     0.045 A   
ATOM     17  C8  UNL     1      -4.430  -2.228  -1.868  1.00  0.00     0.037 A   
ATOM     18  C10 UNL     1      -5.592  -0.165  -2.268  1.00  0.00     0.109 A   
ATOM     19  C9  UNL     1      -5.566  -1.537  -2.226  1.00  0.00     0.108 A   
ATOM     20  O1  UNL     1      -6.806   0.321  -2.638  1.00  0.00    -0.316 OA  
ATOM     21  O2  UNL     1      -6.759  -2.089  -2.566  1.00  0.00    -0.316 OA  
ATOM     22  C12 UNL     1      -7.539  -0.907  -2.850  1.00  0.00     0.337 C   
ENDBRANCH  13  14
ENDBRANCH  10  13
ENDBRANCH   6  10
ENDBRANCH   1   6
BRANCH   3  23
ATOM     23  C15 UNL     1       3.591  -0.737   0.712  1.00  0.00     0.058 A   
ATOM     24  C16 UNL     1       3.941  -2.094   0.791  1.00  0.00     0.026 A   
ATOM     25  C21 UNL     1       4.597   0.226   0.566  1.00  0.00     0.026 A   
ATOM     26  C17 UNL     1       5.283  -2.481   0.721  1.00  0.00     0.007 A   
ATOM     27  C20 UNL     1       5.936  -0.170   0.498  1.00  0.00     0.007 A   
ATOM     28  C18 UNL     1       6.293  -1.523   0.574  1.00  0.00    -0.034 A   
BRANCH  28  29
ATOM     29  C19 UNL     1       7.743  -1.932   0.494  1.00  0.00     0.113 C   
BRANCH  29  30
ATOM     30  N3  UNL     1       8.301  -1.630  -0.818  1.00  0.00    -0.327 NA  
ATOM     31  H23 UNL     1       7.797  -2.167  -1.522  1.00  0.00     0.119 HD  
ATOM     32  H24 UNL     1       9.265  -1.957  -0.851  1.00  0.00     0.119 HD  
ENDBRANCH  29  30
ENDBRANCH  28  29
ENDBRANCH   3  23
TORSDOF 8
