REMARK SMILES COc1ccccc1[C@H](O)Cn1cc([C@H](CC(C)C)[NH2+]Cc2ccc3c(c2)OCO3)nn1
REMARK SMILES IDX 12 1 13 2 14 3 31 4 32 5 11 7 9 8 8 9 3 10 4 11 5 12 7 13
REMARK SMILES IDX 6 14 2 15 1 16 10 17 15 19 16 20 17 21 18 22 19 23 20 24
REMARK SMILES IDX 21 27 22 28 23 29 27 30 24 31 26 32 25 33 28 34 30 35 29 36
REMARK H PARENT 13 6 10 18 20 25 20 26
ROOT
ATOM     1   N1  UNL     1      -0.343  -1.336  -2.598  1.00  0.00    -0.209 N   
ATOM     2   C10 UNL     1       0.492  -0.689  -1.731  1.00  0.00     0.045 A   
ATOM     3   C11 UNL     1       0.516  -1.507  -0.623  1.00  0.00     0.127 A   
ATOM     4   N3  UNL     1      -0.259  -2.613  -0.861  1.00  0.00    -0.132 NA  
ATOM     5   N4  UNL     1      -0.781  -2.495  -2.069  1.00  0.00    -0.076 NA  
ATOM     6   H12 UNL     1       0.948   0.264  -1.963  1.00  0.00     0.083 HD  
ENDROOT
BRANCH   1   7
ATOM     7   C9  UNL     1      -0.751  -0.935  -3.924  1.00  0.00     0.170 C   
BRANCH   7   8
ATOM     8   C8  UNL     1      -1.558   0.367  -3.955  1.00  0.00     0.166 C   
BRANCH   8   9
ATOM     9   C7  UNL     1      -2.845   0.311  -3.155  1.00  0.00     0.012 A   
ATOM     10  C2  UNL     1      -3.016   1.073  -1.985  1.00  0.00     0.080 A   
ATOM     11  C3  UNL     1      -4.202   0.984  -1.249  1.00  0.00     0.034 A   
ATOM     12  C4  UNL     1      -5.238   0.160  -1.688  1.00  0.00     0.003 A   
ATOM     13  C6  UNL     1      -3.900  -0.516  -3.579  1.00  0.00     0.009 A   
ATOM     14  C5  UNL     1      -5.088  -0.588  -2.852  1.00  0.00     0.001 A   
BRANCH  10  15
ATOM     15  O1  UNL     1      -1.961   1.840  -1.560  1.00  0.00    -0.349 OA  
ATOM     16  C1  UNL     1      -2.338   3.177  -1.217  1.00  0.00     0.203 C   
ENDBRANCH  10  15
ENDBRANCH   8   9
BRANCH   8  17
ATOM     17  O2  UNL     1      -1.858   0.679  -5.322  1.00  0.00    -0.387 OA  
ATOM     18  H9  UNL     1      -2.603   1.308  -5.322  1.00  0.00     0.211 HD  
ENDBRANCH   8  17
ENDBRANCH   7   8
ENDBRANCH   1   7
BRANCH   3  19
ATOM     19  C12 UNL     1       1.167  -1.346   0.711  1.00  0.00     0.114 C   
BRANCH  19  20
ATOM     20  C13 UNL     1       2.546  -2.036   0.731  1.00  0.00     0.064 C   
BRANCH  20  21
ATOM     21  C14 UNL     1       3.359  -1.915   2.038  1.00  0.00    -0.012 C   
ATOM     22  C15 UNL     1       3.571  -0.463   2.468  1.00  0.00     0.007 C   
ATOM     23  C16 UNL     1       4.715  -2.607   1.866  1.00  0.00     0.007 C   
ENDBRANCH  20  21
ENDBRANCH  19  20
BRANCH  19  24
ATOM     24  N2  UNL     1       0.296  -1.951   1.787  1.00  0.00     0.249 N   
ATOM     25  H23 UNL     1       0.804  -2.029   2.670  1.00  0.00     0.199 HD  
ATOM     26  H24 UNL     1       0.076  -2.906   1.468  1.00  0.00     0.199 HD  
BRANCH  24  27
ATOM     27  C17 UNL     1      -1.006  -1.263   2.044  1.00  0.00     0.164 C   
BRANCH  27  28
ATOM     28  C18 UNL     1      -0.830   0.079   2.700  1.00  0.00    -0.002 A   
ATOM     29  C19 UNL     1      -0.530   0.171   4.080  1.00  0.00     0.012 A   
ATOM     30  C23 UNL     1      -0.923   1.253   1.934  1.00  0.00     0.045 A   
ATOM     31  C20 UNL     1      -0.325   1.415   4.689  1.00  0.00     0.037 A   
ATOM     32  C22 UNL     1      -0.713   2.463   2.562  1.00  0.00     0.109 A   
ATOM     33  C21 UNL     1      -0.422   2.541   3.902  1.00  0.00     0.108 A   
ATOM     34  O3  UNL     1      -0.758   3.683   1.967  1.00  0.00    -0.316 OA  
ATOM     35  O4  UNL     1      -0.251   3.822   4.321  1.00  0.00    -0.316 OA  
ATOM     36  C24 UNL     1      -0.478   4.547   3.093  1.00  0.00     0.337 C   
ENDBRANCH  27  28
ENDBRANCH  24  27
ENDBRANCH  19  24
ENDBRANCH   3  19
TORSDOF 11
