REMARK SMILES COc1ccccc1[C@@H](O)Cn1cc([C@H](CC(C)C)[NH2+]Cc2ccc3c(c2)OCO3)nn1
REMARK SMILES IDX 12 1 13 2 14 3 31 4 32 5 11 7 9 8 8 9 3 10 4 11 5 12 7 13
REMARK SMILES IDX 6 14 2 15 1 16 10 17 15 19 16 20 17 21 18 22 19 23 20 24
REMARK SMILES IDX 21 27 22 28 23 29 27 30 24 31 26 32 25 33 28 34 30 35 29 36
REMARK H PARENT 13 6 10 18 20 25 20 26
ROOT
ATOM     1   N1  UNL     1       2.006  -0.229   2.263  1.00  0.00    -0.209 N   
ATOM     2   C10 UNL     1       2.376   0.583   1.228  1.00  0.00     0.045 A   
ATOM     3   C11 UNL     1       1.209   1.227   0.883  1.00  0.00     0.127 A   
ATOM     4   N3  UNL     1       0.201   0.817   1.721  1.00  0.00    -0.132 NA  
ATOM     5   N4  UNL     1       0.701  -0.074   2.560  1.00  0.00    -0.076 NA  
ATOM     6   H12 UNL     1       3.383   0.588   0.828  1.00  0.00     0.083 HD  
ENDROOT
BRANCH   1   7
ATOM     7   C9  UNL     1       2.809  -1.204   2.964  1.00  0.00     0.170 C   
BRANCH   7   8
ATOM     8   C8  UNL     1       2.623  -2.621   2.415  1.00  0.00     0.166 C   
BRANCH   8   9
ATOM     9   C7  UNL     1       3.192  -2.789   1.018  1.00  0.00     0.012 A   
ATOM     10  C2  UNL     1       2.365  -2.813  -0.119  1.00  0.00     0.080 A   
ATOM     11  C3  UNL     1       2.908  -2.932  -1.403  1.00  0.00     0.034 A   
ATOM     12  C4  UNL     1       4.287  -3.054  -1.567  1.00  0.00     0.003 A   
ATOM     13  C6  UNL     1       4.581  -2.905   0.828  1.00  0.00     0.009 A   
ATOM     14  C5  UNL     1       5.123  -3.036  -0.453  1.00  0.00     0.001 A   
BRANCH  10  15
ATOM     15  O1  UNL     1       1.012  -2.629   0.016  1.00  0.00    -0.349 OA  
ATOM     16  C1  UNL     1       0.320  -3.864  -0.198  1.00  0.00     0.203 C   
ENDBRANCH  10  15
ENDBRANCH   8   9
BRANCH   8  17
ATOM     17  O2  UNL     1       3.278  -3.536   3.304  1.00  0.00    -0.387 OA  
ATOM     18  H9  UNL     1       3.302  -4.405   2.865  1.00  0.00     0.211 HD  
ENDBRANCH   8  17
ENDBRANCH   7   8
ENDBRANCH   1   7
BRANCH   3  19
ATOM     19  C12 UNL     1       0.881   2.150  -0.240  1.00  0.00     0.114 C   
BRANCH  19  20
ATOM     20  C13 UNL     1       0.823   3.624   0.198  1.00  0.00     0.064 C   
BRANCH  20  21
ATOM     21  C14 UNL     1       2.149   4.205   0.731  1.00  0.00    -0.012 C   
ATOM     22  C15 UNL     1       1.932   5.648   1.197  1.00  0.00     0.007 C   
ATOM     23  C16 UNL     1       3.267   4.162  -0.312  1.00  0.00     0.007 C   
ENDBRANCH  20  21
ENDBRANCH  19  20
BRANCH  19  24
ATOM     24  N2  UNL     1      -0.487   1.795  -0.775  1.00  0.00     0.249 N   
ATOM     25  H23 UNL     1      -1.091   1.672   0.053  1.00  0.00     0.199 HD  
ATOM     26  H24 UNL     1      -0.899   2.558  -1.320  1.00  0.00     0.199 HD  
BRANCH  24  27
ATOM     27  C17 UNL     1      -0.554   0.527  -1.554  1.00  0.00     0.164 C   
BRANCH  27  28
ATOM     28  C18 UNL     1      -1.983   0.170  -1.845  1.00  0.00    -0.002 A   
ATOM     29  C19 UNL     1      -2.715  -0.614  -0.917  1.00  0.00     0.012 A   
ATOM     30  C23 UNL     1      -2.627   0.672  -2.990  1.00  0.00     0.045 A   
ATOM     31  C20 UNL     1      -4.065  -0.910  -1.133  1.00  0.00     0.037 A   
ATOM     32  C22 UNL     1      -3.961   0.367  -3.168  1.00  0.00     0.109 A   
ATOM     33  C21 UNL     1      -4.661  -0.401  -2.267  1.00  0.00     0.108 A   
ATOM     34  O3  UNL     1      -4.732   0.778  -4.207  1.00  0.00    -0.316 OA  
ATOM     35  O4  UNL     1      -5.957  -0.574  -2.629  1.00  0.00    -0.316 OA  
ATOM     36  C24 UNL     1      -6.002   0.177  -3.863  1.00  0.00     0.337 C   
ENDBRANCH  27  28
ENDBRANCH  24  27
ENDBRANCH  19  24
ENDBRANCH   3  19
TORSDOF 11
