REMARK SMILES Cc1nc(Cn2cc([C@H](CC(C)C)[NH2+]Cc3ccc4c(c3)OCO4)nn2)oc1C
REMARK SMILES IDX 6 1 7 2 8 3 25 4 26 5 5 7 4 8 2 9 3 10 28 11 27 12 1 13
REMARK SMILES IDX 29 14 9 15 10 16 11 17 12 18 13 19 14 20 15 23 16 24 17 25
REMARK SMILES IDX 21 26 18 27 20 28 19 29 22 30 24 31 23 32
REMARK H PARENT 7 6 14 21 14 22
ROOT
ATOM     1   N2  UNL     1      -1.001  -1.326   2.633  1.00  0.00    -0.204 N   
ATOM     2   C5  UNL     1      -1.454  -0.672   1.518  1.00  0.00     0.046 A   
ATOM     3   C6  UNL     1      -1.491  -1.652   0.552  1.00  0.00     0.127 A   
ATOM     4   N4  UNL     1      -1.143  -2.853   1.113  1.00  0.00    -0.132 NA  
ATOM     5   N5  UNL     1      -0.850  -2.643   2.386  1.00  0.00    -0.075 NA  
ATOM     6   H6  UNL     1      -1.615   0.398   1.502  1.00  0.00     0.083 HD  
ENDROOT
BRANCH   1   7
ATOM     7   C4  UNL     1      -0.639  -0.759   3.918  1.00  0.00     0.217 C   
BRANCH   7   8
ATOM     8   C3  UNL     1       0.657  -0.048   3.800  1.00  0.00     0.167 A   
ATOM     9   C2  UNL     1       2.341   1.137   3.260  1.00  0.00     0.066 A   
ATOM     10  N1  UNL     1       1.109   0.710   2.817  1.00  0.00    -0.229 NA  
ATOM     11  C20 UNL     1       2.592   0.600   4.506  1.00  0.00     0.079 A   
ATOM     12  O3  UNL     1       1.512  -0.158   4.862  1.00  0.00    -0.297 OA  
ATOM     13  C1  UNL     1       3.178   2.034   2.435  1.00  0.00     0.069 C   
ATOM     14  C21 UNL     1       3.702   0.677   5.472  1.00  0.00     0.075 C   
ENDBRANCH   7   8
ENDBRANCH   1   7
BRANCH   3  15
ATOM     15  C7  UNL     1      -1.717  -1.560  -0.917  1.00  0.00     0.114 C   
BRANCH  15  16
ATOM     16  C8  UNL     1      -3.074  -2.147  -1.349  1.00  0.00     0.064 C   
BRANCH  16  17
ATOM     17  C9  UNL     1      -4.312  -1.421  -0.781  1.00  0.00    -0.012 C   
ATOM     18  C10 UNL     1      -5.585  -2.147  -1.225  1.00  0.00     0.007 C   
ATOM     19  C11 UNL     1      -4.378   0.045  -1.213  1.00  0.00     0.007 C   
ENDBRANCH  16  17
ENDBRANCH  15  16
BRANCH  15  20
ATOM     20  N3  UNL     1      -0.644  -2.341  -1.652  1.00  0.00     0.249 N   
ATOM     21  H17 UNL     1      -0.683  -3.301  -1.282  1.00  0.00     0.199 HD  
ATOM     22  H18 UNL     1      -0.866  -2.385  -2.650  1.00  0.00     0.199 HD  
BRANCH  20  23
ATOM     23  C12 UNL     1       0.763  -1.864  -1.477  1.00  0.00     0.164 C   
BRANCH  23  24
ATOM     24  C13 UNL     1       0.991  -0.475  -2.006  1.00  0.00    -0.002 A   
ATOM     25  C14 UNL     1       0.999  -0.230  -3.400  1.00  0.00     0.012 A   
ATOM     26  C18 UNL     1       1.175   0.596  -1.113  1.00  0.00     0.045 A   
ATOM     27  C15 UNL     1       1.179   1.064  -3.900  1.00  0.00     0.037 A   
ATOM     28  C17 UNL     1       1.350   1.859  -1.639  1.00  0.00     0.109 A   
ATOM     29  C16 UNL     1       1.350   2.087  -2.993  1.00  0.00     0.108 A   
ATOM     30  O1  UNL     1       1.536   2.998  -0.921  1.00  0.00    -0.316 OA  
ATOM     31  O2  UNL     1       1.534   3.397  -3.298  1.00  0.00    -0.316 OA  
ATOM     32  C19 UNL     1       1.672   3.971  -1.981  1.00  0.00     0.337 C   
ENDBRANCH  23  24
ENDBRANCH  20  23
ENDBRANCH  15  20
ENDBRANCH   3  15
TORSDOF 8
