REMARK SMILES Cc1cc([C@H](CO)n2cc([C@@H]([NH2+]Cc3ccc4c(c3)OCO4)C(C)(C)C)nn2)ccc1F
REMARK SMILES IDX 8 1 9 2 10 3 27 4 28 5 5 7 4 8 2 9 3 10 31 11 30 12 29 13
REMARK SMILES IDX 1 14 32 15 6 16 7 17 11 19 12 20 13 23 14 24 15 25 19 26
REMARK SMILES IDX 16 27 18 28 17 29 20 30 22 31 21 32 23 33 24 34 25 35 26 36
REMARK H PARENT 9 6 7 18 12 21 12 22
ROOT
ATOM     1   N1  UNL     1      -1.520  -2.457   0.194  1.00  0.00    -0.202 N   
ATOM     2   C7  UNL     1      -0.712  -2.422  -0.914  1.00  0.00     0.046 A   
ATOM     3   C8  UNL     1       0.474  -1.897  -0.450  1.00  0.00     0.127 A   
ATOM     4   N3  UNL     1       0.342  -1.598   0.883  1.00  0.00    -0.132 NA  
ATOM     5   N4  UNL     1      -0.877  -1.937   1.264  1.00  0.00    -0.075 NA  
ATOM     6   H9  UNL     1      -1.044  -2.775  -1.880  1.00  0.00     0.083 HD  
ENDROOT
BRANCH   1   7
ATOM     7   C5  UNL     1      -2.898  -2.945   0.284  1.00  0.00     0.155 C   
BRANCH   7   8
ATOM     8   C4  UNL     1      -3.866  -1.777   0.425  1.00  0.00    -0.023 A   
ATOM     9   C2  UNL     1      -4.875   0.020   1.744  1.00  0.00    -0.015 A   
ATOM     10  C3  UNL     1      -3.991  -1.063   1.633  1.00  0.00     0.012 A   
ATOM     11  C24 UNL     1      -5.652   0.368   0.639  1.00  0.00     0.126 A   
ATOM     12  C23 UNL     1      -5.546  -0.323  -0.563  1.00  0.00     0.040 A   
ATOM     13  C22 UNL     1      -4.654  -1.390  -0.673  1.00  0.00     0.009 A   
ATOM     14  C1  UNL     1      -5.030   0.762   3.038  1.00  0.00     0.047 C   
ATOM     15  F1  UNL     1      -6.517   1.389   0.725  1.00  0.00    -0.207 F   
ENDBRANCH   7   8
BRANCH   7  16
ATOM     16  C6  UNL     1      -3.056  -4.020   1.372  1.00  0.00     0.185 C   
BRANCH  16  17
ATOM     17  O1  UNL     1      -2.413  -5.229   0.959  1.00  0.00    -0.394 OA  
ATOM     18  H8  UNL     1      -2.536  -5.877   1.678  1.00  0.00     0.210 HD  
ENDBRANCH  16  17
ENDBRANCH   7  16
ENDBRANCH   1   7
BRANCH   3  19
ATOM     19  C9  UNL     1       1.754  -1.561  -1.154  1.00  0.00     0.120 C   
BRANCH  19  20
ATOM     20  N2  UNL     1       2.340  -0.320  -0.519  1.00  0.00     0.250 N   
ATOM     21  H11 UNL     1       2.280  -0.457   0.501  1.00  0.00     0.199 HD  
ATOM     22  H12 UNL     1       3.333  -0.199  -0.735  1.00  0.00     0.199 HD  
BRANCH  20  23
ATOM     23  C10 UNL     1       1.627   0.951  -0.830  1.00  0.00     0.164 C   
BRANCH  23  24
ATOM     24  C11 UNL     1       2.264   2.099  -0.099  1.00  0.00    -0.002 A   
ATOM     25  C12 UNL     1       1.874   2.399   1.229  1.00  0.00     0.012 A   
ATOM     26  C16 UNL     1       3.288   2.846  -0.707  1.00  0.00     0.045 A   
ATOM     27  C13 UNL     1       2.486   3.437   1.940  1.00  0.00     0.037 A   
ATOM     28  C15 UNL     1       3.868   3.863   0.022  1.00  0.00     0.109 A   
ATOM     29  C14 UNL     1       3.481   4.150   1.308  1.00  0.00     0.108 A   
ATOM     30  O2  UNL     1       4.862   4.680  -0.416  1.00  0.00    -0.316 OA  
ATOM     31  O3  UNL     1       4.181   5.184   1.841  1.00  0.00    -0.316 OA  
ATOM     32  C17 UNL     1       5.037   5.539   0.734  1.00  0.00     0.337 C   
ENDBRANCH  23  24
ENDBRANCH  20  23
ENDBRANCH  19  20
BRANCH  19  33
ATOM     33  C18 UNL     1       2.810  -2.722  -1.157  1.00  0.00     0.010 C   
ATOM     34  C19 UNL     1       3.304  -3.079   0.259  1.00  0.00     0.017 C   
ATOM     35  C20 UNL     1       4.036  -2.330  -2.014  1.00  0.00     0.017 C   
ATOM     36  C21 UNL     1       2.204  -3.993  -1.796  1.00  0.00     0.017 C   
ENDBRANCH  19  33
ENDBRANCH   3  19
TORSDOF 9
