REMARK SMILES Cc1cc([C@@H](CO)n2cc([C@@H]([NH2+]Cc3ccc4c(c3)OCO4)C(C)(C)C)nn2)ccc1F
REMARK SMILES IDX 8 1 9 2 10 3 27 4 28 5 5 7 4 8 2 9 3 10 31 11 30 12 29 13
REMARK SMILES IDX 1 14 32 15 6 16 7 17 11 19 12 20 13 23 14 24 15 25 19 26
REMARK SMILES IDX 16 27 18 28 17 29 20 30 22 31 21 32 23 33 24 34 25 35 26 36
REMARK H PARENT 9 6 7 18 12 21 12 22
ROOT
ATOM     1   N1  UNL     1       2.380   0.525   0.691  1.00  0.00    -0.202 N   
ATOM     2   C7  UNL     1       1.430   1.511   0.722  1.00  0.00     0.046 A   
ATOM     3   C8  UNL     1       0.363   0.935   1.371  1.00  0.00     0.127 A   
ATOM     4   N3  UNL     1       0.672  -0.367   1.673  1.00  0.00    -0.132 NA  
ATOM     5   N4  UNL     1       1.902  -0.608   1.250  1.00  0.00    -0.075 NA  
ATOM     6   H9  UNL     1       1.608   2.494   0.305  1.00  0.00     0.083 HD  
ENDROOT
BRANCH   1   7
ATOM     7   C5  UNL     1       3.725   0.557   0.118  1.00  0.00     0.155 C   
BRANCH   7   8
ATOM     8   C4  UNL     1       3.651   0.786  -1.390  1.00  0.00    -0.023 A   
ATOM     9   C2  UNL     1       3.337  -0.171  -3.626  1.00  0.00    -0.015 A   
ATOM     10  C3  UNL     1       3.437  -0.323  -2.236  1.00  0.00     0.012 A   
ATOM     11  C24 UNL     1       3.446   1.109  -4.168  1.00  0.00     0.126 A   
ATOM     12  C23 UNL     1       3.651   2.218  -3.357  1.00  0.00     0.040 A   
ATOM     13  C22 UNL     1       3.752   2.060  -1.974  1.00  0.00     0.009 A   
ATOM     14  C1  UNL     1       3.127  -1.349  -4.529  1.00  0.00     0.047 C   
ATOM     15  F1  UNL     1       3.346   1.284  -5.493  1.00  0.00    -0.207 F   
ENDBRANCH   7   8
BRANCH   7  16
ATOM     16  C6  UNL     1       4.678   1.471   0.920  1.00  0.00     0.185 C   
BRANCH  16  17
ATOM     17  O1  UNL     1       4.219   2.818   1.028  1.00  0.00    -0.394 OA  
ATOM     18  H8  UNL     1       4.918   3.320   1.490  1.00  0.00     0.210 HD  
ENDBRANCH  16  17
ENDBRANCH   7  16
ENDBRANCH   1   7
BRANCH   3  19
ATOM     19  C9  UNL     1      -1.000   1.469   1.692  1.00  0.00     0.120 C   
BRANCH  19  20
ATOM     20  N2  UNL     1      -2.005   0.351   1.541  1.00  0.00     0.250 N   
ATOM     21  H11 UNL     1      -2.883   0.543   2.028  1.00  0.00     0.199 HD  
ATOM     22  H12 UNL     1      -1.596  -0.478   1.999  1.00  0.00     0.199 HD  
BRANCH  20  23
ATOM     23  C10 UNL     1      -2.314  -0.032   0.134  1.00  0.00     0.164 C   
BRANCH  23  24
ATOM     24  C11 UNL     1      -3.269  -1.191   0.105  1.00  0.00    -0.002 A   
ATOM     25  C12 UNL     1      -2.776  -2.518   0.073  1.00  0.00     0.012 A   
ATOM     26  C16 UNL     1      -4.655  -0.967   0.165  1.00  0.00     0.045 A   
ATOM     27  C13 UNL     1      -3.652  -3.609   0.082  1.00  0.00     0.037 A   
ATOM     28  C15 UNL     1      -5.489  -2.065   0.178  1.00  0.00     0.109 A   
ATOM     29  C14 UNL     1      -5.003  -3.349   0.135  1.00  0.00     0.108 A   
ATOM     30  O2  UNL     1      -6.846  -2.023   0.236  1.00  0.00    -0.316 OA  
ATOM     31  O3  UNL     1      -5.994  -4.278   0.154  1.00  0.00    -0.316 OA  
ATOM     32  C17 UNL     1      -7.165  -3.434   0.208  1.00  0.00     0.337 C   
ENDBRANCH  23  24
ENDBRANCH  20  23
ENDBRANCH  19  20
BRANCH  19  33
ATOM     33  C18 UNL     1      -1.115   2.125   3.113  1.00  0.00     0.010 C   
ATOM     34  C19 UNL     1      -0.078   3.263   3.260  1.00  0.00     0.017 C   
ATOM     35  C20 UNL     1      -2.510   2.767   3.296  1.00  0.00     0.017 C   
ATOM     36  C21 UNL     1      -0.892   1.113   4.255  1.00  0.00     0.017 C   
ENDBRANCH  19  33
ENDBRANCH   3  19
TORSDOF 9
