REMARK SMILES COc1ccc(Cn2cc([C@H](CC(C)C)[NH2+]Cc3ccc4c(c3)OCO4)nn2)nc1
REMARK SMILES IDX 8 1 9 2 10 3 27 4 28 5 7 7 6 8 3 9 4 10 30 11 5 12 29 13
REMARK SMILES IDX 2 14 1 15 11 16 12 17 13 18 14 19 15 20 16 21 17 24 18 25
REMARK SMILES IDX 19 26 23 27 20 28 22 29 21 30 24 31 26 32 25 33
REMARK H PARENT 9 6 16 22 16 23
ROOT
ATOM     1   N1  UNL     1       0.710  -0.837   2.430  1.00  0.00    -0.206 N   
ATOM     2   C7  UNL     1      -0.270  -1.248   1.569  1.00  0.00     0.046 A   
ATOM     3   C8  UNL     1       0.418  -1.893   0.567  1.00  0.00     0.127 A   
ATOM     4   N3  UNL     1       1.756  -1.897   0.867  1.00  0.00    -0.132 NA  
ATOM     5   N4  UNL     1       1.923  -1.249   2.010  1.00  0.00    -0.076 NA  
ATOM     6   H8  UNL     1      -1.310  -0.992   1.716  1.00  0.00     0.083 HD  
ENDROOT
BRANCH   1   7
ATOM     7   C6  UNL     1       0.569  -0.009   3.611  1.00  0.00     0.190 C   
BRANCH   7   8
ATOM     8   C5  UNL     1       0.590   1.446   3.220  1.00  0.00     0.060 A   
ATOM     9   C2  UNL     1       0.567   4.113   2.487  1.00  0.00     0.093 A   
ATOM     10  C3  UNL     1       1.665   3.600   3.167  1.00  0.00     0.037 A   
ATOM     11  C22 UNL     1      -0.472   3.236   2.205  1.00  0.00     0.144 A   
ATOM     12  C4  UNL     1       1.679   2.253   3.541  1.00  0.00     0.028 A   
ATOM     13  N5  UNL     1      -0.486   1.920   2.541  1.00  0.00    -0.257 NA  
BRANCH   9  14
ATOM     14  O1  UNL     1       0.402   5.395   2.054  1.00  0.00    -0.348 OA  
ATOM     15  C1  UNL     1       1.406   6.333   2.427  1.00  0.00     0.203 C   
ENDBRANCH   9  14
ENDBRANCH   7   8
ENDBRANCH   1   7
BRANCH   3  16
ATOM     16  C9  UNL     1      -0.052  -2.434  -0.738  1.00  0.00     0.114 C   
BRANCH  16  17
ATOM     17  C10 UNL     1      -0.040  -3.974  -0.784  1.00  0.00     0.064 C   
BRANCH  17  18
ATOM     18  C11 UNL     1      -0.986  -4.665   0.223  1.00  0.00    -0.012 C   
ATOM     19  C12 UNL     1      -2.452  -4.290  -0.002  1.00  0.00     0.007 C   
ATOM     20  C13 UNL     1      -0.821  -6.184   0.125  1.00  0.00     0.007 C   
ENDBRANCH  17  18
ENDBRANCH  16  17
BRANCH  16  21
ATOM     21  N2  UNL     1       0.853  -1.954  -1.858  1.00  0.00     0.249 N   
ATOM     22  H19 UNL     1       1.802  -2.276  -1.624  1.00  0.00     0.199 HD  
ATOM     23  H20 UNL     1       0.582  -2.404  -2.737  1.00  0.00     0.199 HD  
BRANCH  21  24
ATOM     24  C14 UNL     1       0.929  -0.474  -2.064  1.00  0.00     0.164 C   
BRANCH  24  25
ATOM     25  C15 UNL     1      -0.397   0.155  -2.387  1.00  0.00    -0.002 A   
ATOM     26  C16 UNL     1      -1.040   0.983  -1.435  1.00  0.00     0.012 A   
ATOM     27  C20 UNL     1      -1.023  -0.095  -3.620  1.00  0.00     0.045 A   
ATOM     28  C17 UNL     1      -2.293   1.546  -1.700  1.00  0.00     0.037 A   
ATOM     29  C19 UNL     1      -2.257   0.476  -3.849  1.00  0.00     0.109 A   
ATOM     30  C18 UNL     1      -2.875   1.272  -2.917  1.00  0.00     0.108 A   
ATOM     31  O2  UNL     1      -2.997   0.329  -4.979  1.00  0.00    -0.316 OA  
ATOM     32  O3  UNL     1      -4.082   1.728  -3.343  1.00  0.00    -0.316 OA  
ATOM     33  C21 UNL     1      -4.144   1.152  -4.665  1.00  0.00     0.337 C   
ENDBRANCH  24  25
ENDBRANCH  21  24
ENDBRANCH  16  21
ENDBRANCH   3  16
TORSDOF 9
