REMARK SMILES O[C@H](Cn1cc([C@@H]([NH2+]Cc2ccc3c(c2)OCO3)C2CCCC2)nn1)c1ccccn1
REMARK SMILES IDX 4 1 5 2 6 3 24 4 25 5 3 7 2 8 1 9 26 11 27 12 31 13 28 14
REMARK SMILES IDX 30 15 29 16 7 17 8 18 9 21 10 22 11 23 15 24 12 25 14 26
REMARK SMILES IDX 13 27 16 28 18 29 17 30 19 31 20 32 23 33 21 34 22 35
REMARK H PARENT 5 6 1 10 8 19 8 20
ROOT
ATOM     1   N1  UNL     1       0.287   2.052  -0.650  1.00  0.00    -0.209 N   
ATOM     2   C3  UNL     1      -0.283   0.907  -0.171  1.00  0.00     0.045 A   
ATOM     3   C4  UNL     1       0.784   0.064   0.036  1.00  0.00     0.127 A   
ATOM     4   N3  UNL     1       1.942   0.712  -0.324  1.00  0.00    -0.132 NA  
ATOM     5   N4  UNL     1       1.624   1.925  -0.740  1.00  0.00    -0.076 NA  
ATOM     6   H5  UNL     1      -1.349   0.809  -0.033  1.00  0.00     0.083 HD  
ENDROOT
BRANCH   1   7
ATOM     7   C2  UNL     1      -0.370   3.277  -1.058  1.00  0.00     0.172 C   
BRANCH   7   8
ATOM     8   C1  UNL     1      -0.362   3.432  -2.578  1.00  0.00     0.182 C   
BRANCH   8   9
ATOM     9   O1  UNL     1      -1.245   2.443  -3.146  1.00  0.00    -0.385 OA  
ATOM     10  H1  UNL     1      -1.959   2.965  -3.571  1.00  0.00     0.211 HD  
ENDBRANCH   8   9
BRANCH   8  11
ATOM     11  C19 UNL     1      -0.842   4.816  -2.964  1.00  0.00     0.071 A   
ATOM     12  C20 UNL     1       0.016   5.911  -2.923  1.00  0.00     0.026 A   
ATOM     13  N5  UNL     1      -2.150   4.917  -3.325  1.00  0.00    -0.258 NA  
ATOM     14  C21 UNL     1      -0.484   7.165  -3.267  1.00  0.00     0.004 A   
ATOM     15  C23 UNL     1      -2.604   6.149  -3.654  1.00  0.00     0.111 A   
ATOM     16  C22 UNL     1      -1.819   7.289  -3.639  1.00  0.00     0.020 A   
ENDBRANCH   8  11
ENDBRANCH   7   8
ENDBRANCH   1   7
BRANCH   3  17
ATOM     17  C5  UNL     1       0.858  -1.348   0.523  1.00  0.00     0.117 C   
BRANCH  17  18
ATOM     18  N2  UNL     1       2.097  -2.008  -0.045  1.00  0.00     0.249 N   
ATOM     19  H7  UNL     1       2.838  -1.294   0.003  1.00  0.00     0.199 HD  
ATOM     20  H8  UNL     1       2.394  -2.791   0.542  1.00  0.00     0.199 HD  
BRANCH  18  21
ATOM     21  C6  UNL     1       2.001  -2.462  -1.462  1.00  0.00     0.164 C   
BRANCH  21  22
ATOM     22  C7  UNL     1       1.285  -3.779  -1.581  1.00  0.00    -0.002 A   
ATOM     23  C8  UNL     1       1.944  -4.981  -1.225  1.00  0.00     0.012 A   
ATOM     24  C12 UNL     1      -0.052  -3.826  -2.009  1.00  0.00     0.045 A   
ATOM     25  C9  UNL     1       1.283  -6.213  -1.294  1.00  0.00     0.037 A   
ATOM     26  C11 UNL     1      -0.674  -5.058  -2.069  1.00  0.00     0.109 A   
ATOM     27  C10 UNL     1      -0.025  -6.218  -1.726  1.00  0.00     0.108 A   
ATOM     28  O2  UNL     1      -1.959  -5.277  -2.456  1.00  0.00    -0.316 OA  
ATOM     29  O3  UNL     1      -0.815  -7.316  -1.867  1.00  0.00    -0.316 OA  
ATOM     30  C13 UNL     1      -2.036  -6.717  -2.351  1.00  0.00     0.337 C   
ENDBRANCH  21  22
ENDBRANCH  18  21
ENDBRANCH  17  18
BRANCH  17  31
ATOM     31  C14 UNL     1       0.913  -1.491   2.061  1.00  0.00     0.043 C   
ATOM     32  C15 UNL     1      -0.354  -1.011   2.800  1.00  0.00     0.010 C   
ATOM     33  C18 UNL     1       2.086  -0.783   2.762  1.00  0.00     0.010 C   
ATOM     34  C16 UNL     1       0.130  -0.118   3.940  1.00  0.00     0.001 C   
ATOM     35  C17 UNL     1       1.570  -0.544   4.175  1.00  0.00     0.001 C   
ENDBRANCH  17  31
ENDBRANCH   3  17
TORSDOF 9
