REMARK SMILES O[C@@H](Cn1cc([C@@H]([NH2+]Cc2ccc3c(c2)OCO3)C2CCCC2)nn1)c1ccccn1
REMARK SMILES IDX 4 1 5 2 6 3 24 4 25 5 3 7 2 8 1 9 26 11 27 12 31 13 28 14
REMARK SMILES IDX 30 15 29 16 7 17 8 18 9 21 10 22 11 23 15 24 12 25 14 26
REMARK SMILES IDX 13 27 16 28 18 29 17 30 19 31 20 32 23 33 21 34 22 35
REMARK H PARENT 5 6 1 10 8 19 8 20
ROOT
ATOM     1   N1  UNL     1      -2.882   1.501   0.038  1.00  0.00    -0.209 N   
ATOM     2   C3  UNL     1      -1.672   2.059   0.337  1.00  0.00     0.045 A   
ATOM     3   C4  UNL     1      -0.809   1.465  -0.552  1.00  0.00     0.127 A   
ATOM     4   N3  UNL     1      -1.516   0.631  -1.382  1.00  0.00    -0.132 NA  
ATOM     5   N4  UNL     1      -2.786   0.671  -1.018  1.00  0.00    -0.076 NA  
ATOM     6   H5  UNL     1      -1.542   2.746   1.164  1.00  0.00     0.083 HD  
ENDROOT
BRANCH   1   7
ATOM     7   C2  UNL     1      -4.144   1.665   0.733  1.00  0.00     0.172 C   
BRANCH   7   8
ATOM     8   C1  UNL     1      -4.194   0.907   2.063  1.00  0.00     0.182 C   
BRANCH   8   9
ATOM     9   O1  UNL     1      -3.285   1.515   2.996  1.00  0.00    -0.385 OA  
ATOM     10  H1  UNL     1      -2.805   0.764   3.407  1.00  0.00     0.211 HD  
ENDBRANCH   8   9
BRANCH   8  11
ATOM     11  C19 UNL     1      -3.905  -0.579   1.948  1.00  0.00     0.071 A   
ATOM     12  C20 UNL     1      -4.837  -1.444   1.380  1.00  0.00     0.026 A   
ATOM     13  N5  UNL     1      -2.709  -1.008   2.448  1.00  0.00    -0.258 NA  
ATOM     14  C21 UNL     1      -4.540  -2.803   1.325  1.00  0.00     0.004 A   
ATOM     15  C23 UNL     1      -2.464  -2.338   2.393  1.00  0.00     0.111 A   
ATOM     16  C22 UNL     1      -3.336  -3.262   1.843  1.00  0.00     0.020 A   
ENDBRANCH   8  11
ENDBRANCH   7   8
ENDBRANCH   1   7
BRANCH   3  17
ATOM     17  C5  UNL     1       0.680   1.496  -0.653  1.00  0.00     0.117 C   
BRANCH  17  18
ATOM     18  N2  UNL     1       1.162   0.103  -0.964  1.00  0.00     0.249 N   
ATOM     19  H7  UNL     1       0.504  -0.272  -1.667  1.00  0.00     0.199 HD  
ATOM     20  H8  UNL     1       2.086   0.086  -1.403  1.00  0.00     0.199 HD  
BRANCH  18  21
ATOM     21  C6  UNL     1       1.140  -0.836   0.194  1.00  0.00     0.164 C   
BRANCH  21  22
ATOM     22  C7  UNL     1       1.277  -2.256  -0.275  1.00  0.00    -0.002 A   
ATOM     23  C8  UNL     1       0.133  -2.969  -0.712  1.00  0.00     0.012 A   
ATOM     24  C12 UNL     1       2.541  -2.866  -0.340  1.00  0.00     0.045 A   
ATOM     25  C9  UNL     1       0.244  -4.274  -1.200  1.00  0.00     0.037 A   
ATOM     26  C11 UNL     1       2.614  -4.156  -0.826  1.00  0.00     0.109 A   
ATOM     27  C10 UNL     1       1.500  -4.840  -1.244  1.00  0.00     0.108 A   
ATOM     28  O2  UNL     1       3.755  -4.886  -0.953  1.00  0.00    -0.316 OA  
ATOM     29  O3  UNL     1       1.798  -6.089  -1.688  1.00  0.00    -0.316 OA  
ATOM     30  C13 UNL     1       3.232  -6.115  -1.502  1.00  0.00     0.337 C   
ENDBRANCH  21  22
ENDBRANCH  18  21
ENDBRANCH  17  18
BRANCH  17  31
ATOM     31  C14 UNL     1       1.170   2.504  -1.707  1.00  0.00     0.043 C   
ATOM     32  C15 UNL     1       2.685   2.734  -1.708  1.00  0.00     0.010 C   
ATOM     33  C18 UNL     1       0.889   2.155  -3.170  1.00  0.00     0.010 C   
ATOM     34  C16 UNL     1       2.996   3.356  -3.071  1.00  0.00     0.001 C   
ATOM     35  C17 UNL     1       1.756   3.148  -3.935  1.00  0.00     0.001 C   
ENDBRANCH  17  31
ENDBRANCH   3  17
TORSDOF 9
