REMARK SMILES CC(C)[C@H]([NH2+]Cc1ccc2c(c1)OCO2)c1cn(Cc2c(O)cccc2Cl)nn1
REMARK SMILES IDX 16 1 17 2 18 3 28 4 29 5 4 7 2 8 1 9 3 10 5 11 6 14 7 15
REMARK SMILES IDX 8 16 12 17 9 18 11 19 10 20 13 21 15 22 14 23 19 24 20 25
REMARK SMILES IDX 21 26 26 27 23 28 25 29 24 30 27 31 22 32
REMARK H PARENT 17 6 5 12 5 13 22 33
ROOT
ATOM     1   C13 UNL     1       1.243  -0.608  -1.257  1.00  0.00     0.127 A   
ATOM     2   C14 UNL     1       0.416  -1.622  -1.685  1.00  0.00     0.046 A   
ATOM     3   N2  UNL     1       1.275  -2.637  -2.010  1.00  0.00    -0.208 N   
ATOM     4   N3  UNL     1       2.555  -2.250  -1.834  1.00  0.00    -0.076 NA  
ATOM     5   N4  UNL     1       2.547  -1.014  -1.364  1.00  0.00    -0.132 NA  
ATOM     6   H18 UNL     1      -0.658  -1.723  -1.767  1.00  0.00     0.083 HD  
ENDROOT
BRANCH   1   7
ATOM     7   C4  UNL     1       0.938   0.739  -0.686  1.00  0.00     0.117 C   
BRANCH   7   8
ATOM     8   C2  UNL     1       0.662   1.797  -1.788  1.00  0.00     0.037 C   
ATOM     9   C1  UNL     1       1.890   2.155  -2.634  1.00  0.00     0.014 C   
ATOM     10  C3  UNL     1       0.048   3.075  -1.205  1.00  0.00     0.014 C   
ENDBRANCH   7   8
BRANCH   7  11
ATOM     11  N1  UNL     1       2.064   1.199   0.212  1.00  0.00     0.249 N   
ATOM     12  H9  UNL     1       2.933   1.044  -0.319  1.00  0.00     0.199 HD  
ATOM     13  H10 UNL     1       1.997   2.201   0.403  1.00  0.00     0.199 HD  
BRANCH  11  14
ATOM     14  C5  UNL     1       2.215   0.464   1.505  1.00  0.00     0.164 C   
BRANCH  14  15
ATOM     15  C6  UNL     1       1.064   0.689   2.445  1.00  0.00    -0.002 A   
ATOM     16  C7  UNL     1       0.158  -0.363   2.726  1.00  0.00     0.012 A   
ATOM     17  C11 UNL     1       0.863   1.950   3.033  1.00  0.00     0.045 A   
ATOM     18  C8  UNL     1      -0.936  -0.163   3.575  1.00  0.00     0.037 A   
ATOM     19  C10 UNL     1      -0.227   2.114   3.863  1.00  0.00     0.109 A   
ATOM     20  C9  UNL     1      -1.100   1.088   4.127  1.00  0.00     0.108 A   
ATOM     21  O1  UNL     1      -0.565   3.263   4.504  1.00  0.00    -0.316 OA  
ATOM     22  O2  UNL     1      -2.096   1.461   4.970  1.00  0.00    -0.316 OA  
ATOM     23  C12 UNL     1      -1.734   2.832   5.238  1.00  0.00     0.337 C   
ENDBRANCH  14  15
ENDBRANCH  11  14
ENDBRANCH   7  11
ENDBRANCH   1   7
BRANCH   3  24
ATOM     24  C15 UNL     1       0.979  -3.968  -2.519  1.00  0.00     0.173 C   
BRANCH  24  25
ATOM     25  C16 UNL     1      -0.189  -4.614  -1.812  1.00  0.00     0.020 A   
ATOM     26  C17 UNL     1      -1.437  -4.699  -2.449  1.00  0.00     0.078 A   
ATOM     27  C21 UNL     1      -0.080  -5.139  -0.513  1.00  0.00     0.048 A   
ATOM     28  C18 UNL     1      -2.533  -5.305  -1.835  1.00  0.00     0.033 A   
ATOM     29  C20 UNL     1      -1.176  -5.747   0.109  1.00  0.00     0.021 A   
ATOM     30  C19 UNL     1      -2.399  -5.834  -0.554  1.00  0.00     0.004 A   
ATOM     31  CL1 UNL     1       1.391  -5.042   0.389  1.00  0.00    -0.084 Cl  
BRANCH  26  32
ATOM     32  O3  UNL     1      -1.576  -4.156  -3.695  1.00  0.00    -0.361 OA  
ATOM     33  H21 UNL     1      -2.439  -4.419  -4.065  1.00  0.00     0.218 HD  
ENDBRANCH  26  32
ENDBRANCH  24  25
ENDBRANCH   3  24
TORSDOF 8
