REMARK SMILES Cc1ccc(C)c(C(=O)Cn2cc([C@H](CC(C)C)[NH2+]Cc3ccc4c(c3)OCO4)nn2)c1
REMARK SMILES IDX 11 1 12 2 13 3 30 4 31 5 10 7 8 8 9 9 7 10 2 11 3 12 32 13
REMARK SMILES IDX 4 14 5 15 1 16 6 17 14 18 15 19 16 20 17 21 18 22 19 23
REMARK SMILES IDX 20 26 21 27 22 28 26 29 23 30 25 31 24 32 27 33 29 34 28 35
REMARK H PARENT 12 6 19 24 19 25
ROOT
ATOM     1   N1  UNL     1      -0.937  -0.122  -1.302  1.00  0.00    -0.204 N   
ATOM     2   C10 UNL     1      -0.575   0.537  -0.162  1.00  0.00     0.046 A   
ATOM     3   C11 UNL     1      -0.612  -0.436   0.811  1.00  0.00     0.127 A   
ATOM     4   N3  UNL     1      -1.061  -1.608   0.256  1.00  0.00    -0.132 NA  
ATOM     5   N4  UNL     1      -1.272  -1.398  -1.034  1.00  0.00    -0.076 NA  
ATOM     6   H11 UNL     1      -0.276   1.578  -0.165  1.00  0.00     0.083 HD  
ENDROOT
BRANCH   1   7
ATOM     7   C9  UNL     1      -0.987   0.384  -2.656  1.00  0.00     0.214 C   
BRANCH   7   8
ATOM     8   C8  UNL     1       0.406   0.516  -3.218  1.00  0.00     0.182 C   
ATOM     9   O1  UNL     1       1.256   1.224  -2.683  1.00  0.00    -0.292 OA  
BRANCH   8  10
ATOM     10  C7  UNL     1       0.729  -0.226  -4.464  1.00  0.00     0.022 A   
ATOM     11  C2  UNL     1       0.697  -2.330  -5.691  1.00  0.00    -0.050 A   
ATOM     12  C3  UNL     1       1.333  -1.693  -6.760  1.00  0.00     0.004 A   
ATOM     13  C25 UNL     1       0.412  -1.593  -4.535  1.00  0.00     0.015 A   
ATOM     14  C4  UNL     1       1.661  -0.337  -6.688  1.00  0.00     0.004 A   
ATOM     15  C5  UNL     1       1.358   0.418  -5.545  1.00  0.00    -0.040 A   
ATOM     16  C1  UNL     1       0.391  -3.798  -5.755  1.00  0.00     0.044 C   
ATOM     17  C6  UNL     1       1.744   1.871  -5.508  1.00  0.00     0.045 C   
ENDBRANCH   8  10
ENDBRANCH   7   8
ENDBRANCH   1   7
BRANCH   3  18
ATOM     18  C12 UNL     1      -0.281  -0.383   2.265  1.00  0.00     0.114 C   
BRANCH  18  19
ATOM     19  C13 UNL     1       1.151  -0.874   2.561  1.00  0.00     0.064 C   
BRANCH  19  20
ATOM     20  C14 UNL     1       2.281  -0.017   1.951  1.00  0.00    -0.012 C   
ATOM     21  C15 UNL     1       3.638  -0.659   2.258  1.00  0.00     0.007 C   
ATOM     22  C16 UNL     1       2.265   1.422   2.468  1.00  0.00     0.007 C   
ENDBRANCH  19  20
ENDBRANCH  18  19
BRANCH  18  23
ATOM     23  N2  UNL     1      -1.217  -1.285   3.047  1.00  0.00     0.249 N   
ATOM     24  H22 UNL     1      -1.187  -2.203   2.582  1.00  0.00     0.199 HD  
ATOM     25  H23 UNL     1      -0.864  -1.414   4.000  1.00  0.00     0.199 HD  
BRANCH  23  26
ATOM     26  C17 UNL     1      -2.647  -0.861   3.109  1.00  0.00     0.164 C   
BRANCH  26  27
ATOM     27  C18 UNL     1      -2.847   0.422   3.866  1.00  0.00    -0.002 A   
ATOM     28  C19 UNL     1      -3.177   1.613   3.175  1.00  0.00     0.012 A   
ATOM     29  C23 UNL     1      -2.678   0.456   5.261  1.00  0.00     0.045 A   
ATOM     30  C20 UNL     1      -3.330   2.824   3.860  1.00  0.00     0.037 A   
ATOM     31  C22 UNL     1      -2.835   1.666   5.905  1.00  0.00     0.109 A   
ATOM     32  C21 UNL     1      -3.151   2.817   5.225  1.00  0.00     0.108 A   
ATOM     33  O2  UNL     1      -2.701   1.872   7.241  1.00  0.00    -0.316 OA  
ATOM     34  O3  UNL     1      -3.256   3.892   6.048  1.00  0.00    -0.316 OA  
ATOM     35  C24 UNL     1      -2.997   3.285   7.332  1.00  0.00     0.337 C   
ENDBRANCH  26  27
ENDBRANCH  23  26
ENDBRANCH  18  23
ENDBRANCH   3  18
TORSDOF 9
