REMARK SMILES Cc1ccc(Cn2cc([C@H](CC(C)C)[NH2+]Cc3ccc4c(c3)OCO4)nn2)s1
REMARK SMILES IDX 7 1 8 2 9 3 26 4 27 5 6 7 5 8 2 9 3 10 28 11 4 12 1 13 10 14
REMARK SMILES IDX 11 15 12 16 13 17 14 18 15 19 16 22 17 23 18 24 22 25 19 26
REMARK SMILES IDX 21 27 20 28 23 29 25 30 24 31
REMARK H PARENT 8 6 15 20 15 21
ROOT
ATOM     1   N1  UNL     1      -2.787   0.048  -0.927  1.00  0.00    -0.207 N   
ATOM     2   C7  UNL     1      -1.667  -0.359  -1.600  1.00  0.00     0.046 A   
ATOM     3   C8  UNL     1      -0.825  -0.803  -0.605  1.00  0.00     0.127 A   
ATOM     4   N3  UNL     1      -1.444  -0.655   0.610  1.00  0.00    -0.132 NA  
ATOM     5   N4  UNL     1      -2.639  -0.131   0.401  1.00  0.00    -0.076 NA  
ATOM     6   H8  UNL     1      -1.581  -0.289  -2.675  1.00  0.00     0.083 HD  
ENDROOT
BRANCH   1   7
ATOM     7   C6  UNL     1      -4.021   0.591  -1.474  1.00  0.00     0.176 C   
BRANCH   7   8
ATOM     8   C5  UNL     1      -3.859   2.048  -1.778  1.00  0.00     0.009 A   
ATOM     9   C2  UNL     1      -3.510   4.211  -2.917  1.00  0.00    -0.014 A   
ATOM     10  C3  UNL     1      -3.770   4.367  -1.572  1.00  0.00     0.011 A   
ATOM     11  S1  UNL     1      -3.498   2.563  -3.371  1.00  0.00    -0.098 S   
ATOM     12  C4  UNL     1      -3.974   3.120  -0.915  1.00  0.00     0.013 A   
ATOM     13  C1  UNL     1      -3.265   5.268  -3.942  1.00  0.00     0.052 C   
ENDBRANCH   7   8
ENDBRANCH   1   7
BRANCH   3  14
ATOM     14  C9  UNL     1       0.571  -1.329  -0.653  1.00  0.00     0.114 C   
BRANCH  14  15
ATOM     15  C10 UNL     1       0.627  -2.869  -0.620  1.00  0.00     0.064 C   
BRANCH  15  16
ATOM     16  C11 UNL     1      -0.016  -3.577  -1.832  1.00  0.00    -0.012 C   
ATOM     17  C12 UNL     1       0.031  -5.095  -1.625  1.00  0.00     0.007 C   
ATOM     18  C13 UNL     1       0.671  -3.216  -3.150  1.00  0.00     0.007 C   
ENDBRANCH  15  16
ENDBRANCH  14  15
BRANCH  14  19
ATOM     19  N2  UNL     1       1.341  -0.840   0.551  1.00  0.00     0.249 N   
ATOM     20  H19 UNL     1       2.201  -1.381   0.688  1.00  0.00     0.199 HD  
ATOM     21  H20 UNL     1       0.749  -1.020   1.375  1.00  0.00     0.199 HD  
BRANCH  19  22
ATOM     22  C14 UNL     1       1.675   0.612   0.555  1.00  0.00     0.164 C   
BRANCH  22  23
ATOM     23  C15 UNL     1       2.461   0.959   1.789  1.00  0.00    -0.002 A   
ATOM     24  C16 UNL     1       3.876   0.984   1.754  1.00  0.00     0.012 A   
ATOM     25  C20 UNL     1       1.792   1.194   3.003  1.00  0.00     0.045 A   
ATOM     26  C17 UNL     1       4.618   1.242   2.911  1.00  0.00     0.037 A   
ATOM     27  C19 UNL     1       2.554   1.446   4.125  1.00  0.00     0.109 A   
ATOM     28  C18 UNL     1       3.927   1.468   4.081  1.00  0.00     0.108 A   
ATOM     29  O1  UNL     1       2.071   1.682   5.373  1.00  0.00    -0.316 OA  
ATOM     30  O2  UNL     1       4.480   1.722   5.295  1.00  0.00    -0.316 OA  
ATOM     31  C21 UNL     1       3.298   1.878   6.111  1.00  0.00     0.337 C   
ENDBRANCH  22  23
ENDBRANCH  19  22
ENDBRANCH  14  19
ENDBRANCH   3  14
TORSDOF 8
