REMARK SMILES COc1ccnc(Cn2cc([C@@H]([NH2+]Cc3ccc4c(c3)OCO4)C(C)C)nn2)c1C
REMARK SMILES IDX 9 1 10 2 11 3 27 4 28 5 8 7 7 8 3 9 4 10 29 11 5 12 6 13
REMARK SMILES IDX 30 14 2 15 1 16 12 17 13 18 14 21 15 22 16 23 20 24 17 25
REMARK SMILES IDX 19 26 18 27 21 28 23 29 22 30 24 31 25 32 26 33
REMARK H PARENT 10 6 13 19 13 20
ROOT
ATOM     1   N2  UNL     1       2.385   1.220  -0.036  1.00  0.00    -0.206 N   
ATOM     2   C7  UNL     1       2.511   0.448  -1.160  1.00  0.00     0.046 A   
ATOM     3   C8  UNL     1       1.457   0.837  -1.954  1.00  0.00     0.127 A   
ATOM     4   N4  UNL     1       0.742   1.812  -1.305  1.00  0.00    -0.132 NA  
ATOM     5   N5  UNL     1       1.320   2.040  -0.138  1.00  0.00    -0.076 NA  
ATOM     6   H8  UNL     1       3.301  -0.283  -1.266  1.00  0.00     0.083 HD  
ENDROOT
BRANCH   1   7
ATOM     7   C6  UNL     1       3.249   1.260   1.129  1.00  0.00     0.190 C   
BRANCH   7   8
ATOM     8   C5  UNL     1       3.097   0.004   1.947  1.00  0.00     0.065 A   
ATOM     9   C2  UNL     1       2.167  -1.313   3.735  1.00  0.00     0.081 A   
ATOM     10  C3  UNL     1       2.983  -2.368   3.338  1.00  0.00     0.054 A   
ATOM     11  C21 UNL     1       2.205  -0.097   3.027  1.00  0.00     0.003 A   
ATOM     12  C4  UNL     1       3.815  -2.181   2.252  1.00  0.00     0.114 A   
ATOM     13  N1  UNL     1       3.882  -1.034   1.547  1.00  0.00    -0.259 NA  
ATOM     14  C22 UNL     1       1.350   1.071   3.443  1.00  0.00     0.049 C   
BRANCH   9  15
ATOM     15  O1  UNL     1       1.295  -1.372   4.790  1.00  0.00    -0.349 OA  
ATOM     16  C1  UNL     1       1.342  -2.522   5.627  1.00  0.00     0.203 C   
ENDBRANCH   9  15
ENDBRANCH   7   8
ENDBRANCH   1   7
BRANCH   3  17
ATOM     17  C9  UNL     1       0.984   0.340  -3.282  1.00  0.00     0.117 C   
BRANCH  17  18
ATOM     18  N3  UNL     1      -0.516   0.485  -3.374  1.00  0.00     0.249 N   
ATOM     19  H10 UNL     1      -0.841   0.464  -4.346  1.00  0.00     0.199 HD  
ATOM     20  H11 UNL     1      -0.745   1.422  -3.008  1.00  0.00     0.199 HD  
BRANCH  18  21
ATOM     21  C10 UNL     1      -1.299  -0.497  -2.572  1.00  0.00     0.164 C   
BRANCH  21  22
ATOM     22  C11 UNL     1      -2.765  -0.176  -2.643  1.00  0.00    -0.002 A   
ATOM     23  C12 UNL     1      -3.330   0.755  -1.738  1.00  0.00     0.012 A   
ATOM     24  C16 UNL     1      -3.571  -0.750  -3.640  1.00  0.00     0.045 A   
ATOM     25  C13 UNL     1      -4.683   1.103  -1.816  1.00  0.00     0.037 A   
ATOM     26  C15 UNL     1      -4.901  -0.385  -3.689  1.00  0.00     0.109 A   
ATOM     27  C14 UNL     1      -5.441   0.515  -2.804  1.00  0.00     0.108 A   
ATOM     28  O2  UNL     1      -5.812  -0.843  -4.586  1.00  0.00    -0.316 OA  
ATOM     29  O3  UNL     1      -6.762   0.734  -3.030  1.00  0.00    -0.316 OA  
ATOM     30  C17 UNL     1      -7.002  -0.146  -4.149  1.00  0.00     0.337 C   
ENDBRANCH  21  22
ENDBRANCH  18  21
ENDBRANCH  17  18
BRANCH  17  31
ATOM     31  C18 UNL     1       1.619   1.065  -4.497  1.00  0.00     0.037 C   
ATOM     32  C19 UNL     1       3.124   0.791  -4.596  1.00  0.00     0.014 C   
ATOM     33  C20 UNL     1       1.364   2.576  -4.531  1.00  0.00     0.014 C   
ENDBRANCH  17  31
ENDBRANCH   3  17
TORSDOF 8
