REMARK SMILES CC(C)[C@H]([NH2+]Cc1ccc2c(c1)OCO2)c1cn(Cc2c[nH]c3ncccc23)nn1
REMARK SMILES IDX 16 1 17 2 18 3 29 4 30 5 4 7 2 8 1 9 3 10 5 11 6 14 7 15
REMARK SMILES IDX 8 16 12 17 9 18 11 19 10 20 13 21 15 22 14 23 19 24 20 25
REMARK SMILES IDX 21 26 28 27 22 28 23 29 27 30 24 31 26 32 25 33
REMARK H PARENT 17 6 5 12 5 13 22 34
ROOT
ATOM     1   C13 UNL     1      -1.158   0.193   1.604  1.00  0.00     0.127 A   
ATOM     2   C14 UNL     1      -1.621   1.058   0.638  1.00  0.00     0.046 A   
ATOM     3   N2  UNL     1      -1.216   2.291   1.073  1.00  0.00    -0.208 N   
ATOM     4   N5  UNL     1      -0.587   2.194   2.262  1.00  0.00    -0.076 NA  
ATOM     5   N6  UNL     1      -0.549   0.914   2.598  1.00  0.00    -0.132 NA  
ATOM     6   H18 UNL     1      -2.121   0.915  -0.310  1.00  0.00     0.083 HD  
ENDROOT
BRANCH   1   7
ATOM     7   C4  UNL     1      -1.137  -1.298   1.639  1.00  0.00     0.117 C   
BRANCH   7   8
ATOM     8   C2  UNL     1      -2.304  -1.936   2.438  1.00  0.00     0.037 C   
ATOM     9   C1  UNL     1      -3.657  -1.654   1.773  1.00  0.00     0.014 C   
ATOM     10  C3  UNL     1      -2.363  -1.529   3.915  1.00  0.00     0.014 C   
ENDBRANCH   7   8
BRANCH   7  11
ATOM     11  N1  UNL     1       0.172  -1.808   2.210  1.00  0.00     0.249 N   
ATOM     12  H9  UNL     1       0.260  -1.408   3.153  1.00  0.00     0.199 HD  
ATOM     13  H10 UNL     1       0.132  -2.827   2.309  1.00  0.00     0.199 HD  
BRANCH  11  14
ATOM     14  C5  UNL     1       1.420  -1.431   1.475  1.00  0.00     0.164 C   
BRANCH  14  15
ATOM     15  C6  UNL     1       1.426  -1.832   0.027  1.00  0.00    -0.002 A   
ATOM     16  C7  UNL     1       1.405  -0.838  -0.981  1.00  0.00     0.012 A   
ATOM     17  C11 UNL     1       1.440  -3.188  -0.341  1.00  0.00     0.045 A   
ATOM     18  C8  UNL     1       1.389  -1.183  -2.336  1.00  0.00     0.037 A   
ATOM     19  C10 UNL     1       1.421  -3.494  -1.687  1.00  0.00     0.109 A   
ATOM     20  C9  UNL     1       1.394  -2.521  -2.656  1.00  0.00     0.108 A   
ATOM     21  O1  UNL     1       1.424  -4.748  -2.209  1.00  0.00    -0.316 OA  
ATOM     22  O2  UNL     1       1.378  -3.041  -3.911  1.00  0.00    -0.316 OA  
ATOM     23  C12 UNL     1       1.433  -4.455  -3.626  1.00  0.00     0.337 C   
ENDBRANCH  14  15
ENDBRANCH  11  14
ENDBRANCH   7  11
ENDBRANCH   1   7
BRANCH   3  24
ATOM     24  C15 UNL     1      -1.293   3.560   0.365  1.00  0.00     0.171 C   
BRANCH  24  25
ATOM     25  C16 UNL     1      -0.523   3.474  -0.915  1.00  0.00    -0.004 A   
ATOM     26  C17 UNL     1      -1.046   3.473  -2.200  1.00  0.00     0.079 A   
ATOM     27  C22 UNL     1       0.898   3.347  -1.049  1.00  0.00     0.021 A   
ATOM     28  N3  UNL     1      -0.009   3.333  -3.088  1.00  0.00    -0.305 N   
ATOM     29  C18 UNL     1       1.171   3.229  -2.407  1.00  0.00     0.129 A   
ATOM     30  C21 UNL     1       1.994   3.299  -0.170  1.00  0.00     0.014 A   
ATOM     31  N4  UNL     1       2.368   3.048  -2.989  1.00  0.00    -0.241 NA  
ATOM     32  C20 UNL     1       3.265   3.140  -0.726  1.00  0.00     0.021 A   
ATOM     33  C19 UNL     1       3.389   3.023  -2.104  1.00  0.00     0.113 A   
ATOM     34  H22 UNL     1      -0.075   3.308  -4.096  1.00  0.00     0.154 HD  
ENDBRANCH  24  25
ENDBRANCH   3  24
TORSDOF 7
