REMARK SMILES Cc1cnc2c(c1)[C@H](n1cc([C@H](CC(C)C)[NH2+]Cc3ccc4c(c3)OCO4)nn1)CCO2
REMARK SMILES IDX 12 1 11 2 9 3 10 4 29 5 28 6 8 8 2 9 3 10 7 11 4 12 6 13
REMARK SMILES IDX 5 14 32 15 30 16 31 17 1 18 13 19 14 20 15 21 16 22 17 23
REMARK SMILES IDX 18 26 19 27 20 28 24 29 21 30 23 31 22 32 25 33 27 34 26 35
REMARK H PARENT 10 7 17 24 17 25
ROOT
ATOM     1   C10 UNL     1       0.247  -2.175   0.876  1.00  0.00     0.114 C   
ENDROOT
BRANCH   1   2
ATOM     2   C9  UNL     1       0.236  -1.902  -0.593  1.00  0.00     0.127 A   
ATOM     3   N2  UNL     1       0.339  -1.093  -2.600  1.00  0.00    -0.204 N   
ATOM     4   C8  UNL     1       0.697  -0.819  -1.306  1.00  0.00     0.046 A   
ATOM     5   N5  UNL     1      -0.299  -2.277  -2.675  1.00  0.00    -0.075 NA  
ATOM     6   N4  UNL     1      -0.355  -2.789  -1.455  1.00  0.00    -0.132 NA  
ATOM     7   H7  UNL     1       1.202   0.097  -1.026  1.00  0.00     0.083 HD  
BRANCH   3   8
ATOM     8   C7  UNL     1       0.521  -0.267  -3.795  1.00  0.00     0.136 C   
ATOM     9   C2  UNL     1      -1.841   2.615  -2.947  1.00  0.00    -0.032 A   
ATOM     10  C3  UNL     1      -0.952   3.661  -3.157  1.00  0.00     0.117 A   
ATOM     11  C6  UNL     1      -1.376   1.321  -3.185  1.00  0.00     0.015 A   
ATOM     12  N1  UNL     1       0.325   3.496  -3.563  1.00  0.00    -0.232 NA  
ATOM     13  C5  UNL     1      -0.046   1.115  -3.581  1.00  0.00     0.025 A   
ATOM     14  C4  UNL     1       0.744   2.240  -3.792  1.00  0.00     0.172 A   
ATOM     15  O3  UNL     1       2.036   2.154  -4.232  1.00  0.00    -0.329 OA  
ATOM     16  C23 UNL     1       1.997  -0.250  -4.205  1.00  0.00     0.059 C   
ATOM     17  C24 UNL     1       2.274   0.993  -5.026  1.00  0.00     0.172 C   
ATOM     18  C1  UNL     1      -3.258   2.875  -2.544  1.00  0.00     0.046 C   
ENDBRANCH   3   8
ENDBRANCH   1   2
BRANCH   1  19
ATOM     19  C11 UNL     1       1.462  -3.049   1.255  1.00  0.00     0.064 C   
BRANCH  19  20
ATOM     20  C12 UNL     1       1.633  -3.374   2.754  1.00  0.00    -0.012 C   
ATOM     21  C13 UNL     1       1.715  -2.118   3.622  1.00  0.00     0.007 C   
ATOM     22  C14 UNL     1       2.892  -4.224   2.954  1.00  0.00     0.007 C   
ENDBRANCH  19  20
ENDBRANCH   1  19
BRANCH   1  23
ATOM     23  N3  UNL     1      -1.017  -2.874   1.320  1.00  0.00     0.249 N   
ATOM     24  H18 UNL     1      -1.056  -3.766   0.809  1.00  0.00     0.199 HD  
ATOM     25  H19 UNL     1      -0.964  -3.092   2.317  1.00  0.00     0.199 HD  
BRANCH  23  26
ATOM     26  C15 UNL     1      -2.308  -2.163   1.065  1.00  0.00     0.164 C   
BRANCH  26  27
ATOM     27  C16 UNL     1      -2.379  -0.800   1.694  1.00  0.00    -0.002 A   
ATOM     28  C17 UNL     1      -2.520  -0.658   3.095  1.00  0.00     0.012 A   
ATOM     29  C21 UNL     1      -2.272   0.348   0.890  1.00  0.00     0.045 A   
ATOM     30  C18 UNL     1      -2.548   0.610   3.687  1.00  0.00     0.037 A   
ATOM     31  C20 UNL     1      -2.300   1.582   1.505  1.00  0.00     0.109 A   
ATOM     32  C19 UNL     1      -2.433   1.709   2.865  1.00  0.00     0.108 A   
ATOM     33  O1  UNL     1      -2.204   2.782   0.875  1.00  0.00    -0.316 OA  
ATOM     34  O2  UNL     1      -2.438   3.007   3.264  1.00  0.00    -0.316 OA  
ATOM     35  C22 UNL     1      -2.305   3.688   1.997  1.00  0.00     0.337 C   
ENDBRANCH  26  27
ENDBRANCH  23  26
ENDBRANCH   1  23
TORSDOF 7
