REMARK SMILES Cc1cnc2c(c1)[C@@H](n1cc([C@H](CC(C)C)[NH2+]Cc3ccc4c(c3)OCO4)nn1)CCO2
REMARK SMILES IDX 12 1 11 2 9 3 10 4 29 5 28 6 8 8 2 9 3 10 7 11 4 12 6 13
REMARK SMILES IDX 5 14 32 15 30 16 31 17 1 18 13 19 14 20 15 21 16 22 17 23
REMARK SMILES IDX 18 26 19 27 20 28 24 29 21 30 23 31 22 32 25 33 27 34 26 35
REMARK H PARENT 10 7 17 24 17 25
ROOT
ATOM     1   C10 UNL     1       0.067  -0.559  -1.696  1.00  0.00     0.114 C   
ENDROOT
BRANCH   1   2
ATOM     2   C9  UNL     1       1.158  -0.258  -0.724  1.00  0.00     0.127 A   
ATOM     3   N2  UNL     1       2.370   0.062   1.043  1.00  0.00    -0.204 N   
ATOM     4   C8  UNL     1       1.407  -0.770   0.529  1.00  0.00     0.046 A   
ATOM     5   N5  UNL     1       2.787   0.930   0.098  1.00  0.00    -0.075 NA  
ATOM     6   N4  UNL     1       2.029   0.767  -0.973  1.00  0.00    -0.132 NA  
ATOM     7   H7  UNL     1       0.936  -1.550   1.113  1.00  0.00     0.083 HD  
BRANCH   3   8
ATOM     8   C7  UNL     1       2.830   0.159   2.430  1.00  0.00     0.136 C   
ATOM     9   C2  UNL     1       0.076  -0.974   4.826  1.00  0.00    -0.032 A   
ATOM     10  C3  UNL     1      -0.638   0.220   4.837  1.00  0.00     0.117 A   
ATOM     11  C6  UNL     1       1.241  -1.024   4.056  1.00  0.00     0.015 A   
ATOM     12  N1  UNL     1      -0.260   1.337   4.174  1.00  0.00    -0.232 NA  
ATOM     13  C5  UNL     1       1.652   0.117   3.365  1.00  0.00     0.025 A   
ATOM     14  C4  UNL     1       0.893   1.273   3.491  1.00  0.00     0.172 A   
ATOM     15  O3  UNL     1       1.227   2.403   2.798  1.00  0.00    -0.329 OA  
ATOM     16  C23 UNL     1       3.567   1.456   2.764  1.00  0.00     0.059 C   
ATOM     17  C24 UNL     1       2.633   2.672   2.734  1.00  0.00     0.172 C   
ATOM     18  C1  UNL     1      -0.429  -2.180   5.554  1.00  0.00     0.046 C   
ENDBRANCH   3   8
ENDBRANCH   1   2
BRANCH   1  19
ATOM     19  C11 UNL     1       0.633  -1.173  -2.992  1.00  0.00     0.064 C   
BRANCH  19  20
ATOM     20  C12 UNL     1      -0.400  -1.599  -4.056  1.00  0.00    -0.012 C   
ATOM     21  C13 UNL     1      -1.408  -2.617  -3.523  1.00  0.00     0.007 C   
ATOM     22  C14 UNL     1       0.327  -2.183  -5.271  1.00  0.00     0.007 C   
ENDBRANCH  19  20
ENDBRANCH   1  19
BRANCH   1  23
ATOM     23  N3  UNL     1      -0.687   0.707  -2.034  1.00  0.00     0.249 N   
ATOM     24  H18 UNL     1      -1.365   0.530  -2.779  1.00  0.00     0.199 HD  
ATOM     25  H19 UNL     1       0.007   1.372  -2.400  1.00  0.00     0.199 HD  
BRANCH  23  26
ATOM     26  C15 UNL     1      -1.395   1.385  -0.899  1.00  0.00     0.164 C   
BRANCH  26  27
ATOM     27  C16 UNL     1      -2.456   0.528  -0.266  1.00  0.00    -0.002 A   
ATOM     28  C17 UNL     1      -3.619   0.167  -0.988  1.00  0.00     0.012 A   
ATOM     29  C21 UNL     1      -2.285   0.058   1.048  1.00  0.00     0.045 A   
ATOM     30  C18 UNL     1      -4.588  -0.666  -0.417  1.00  0.00     0.037 A   
ATOM     31  C20 UNL     1      -3.257  -0.762   1.580  1.00  0.00     0.109 A   
ATOM     32  C19 UNL     1      -4.376  -1.116   0.867  1.00  0.00     0.108 A   
ATOM     33  O1  UNL     1      -3.238  -1.313   2.823  1.00  0.00    -0.316 OA  
ATOM     34  O2  UNL     1      -5.204  -1.929   1.572  1.00  0.00    -0.316 OA  
ATOM     35  C22 UNL     1      -4.499  -2.018   2.829  1.00  0.00     0.337 C   
ENDBRANCH  26  27
ENDBRANCH  23  26
ENDBRANCH   1  23
TORSDOF 7
