REMARK SMILES CC(C)[C@H]([NH2+]Cc1ccc2c(c1)OCO2)c1cn(Cc2ccc(F)nc2)nn1
REMARK SMILES IDX 16 1 17 2 18 3 27 4 28 5 4 7 2 8 1 9 3 10 5 11 6 14 7 15
REMARK SMILES IDX 8 16 12 17 9 18 11 19 10 20 13 21 15 22 14 23 19 24 20 25
REMARK SMILES IDX 21 26 26 27 22 28 25 29 23 30 24 31
REMARK H PARENT 17 6 5 12 5 13
ROOT
ATOM     1   C13 UNL     1      -0.350   0.655  -2.205  1.00  0.00     0.127 A   
ATOM     2   C14 UNL     1       0.833   0.486  -2.892  1.00  0.00     0.046 A   
ATOM     3   N2  UNL     1       1.641   1.478  -2.408  1.00  0.00    -0.208 N   
ATOM     4   N4  UNL     1       0.998   2.212  -1.480  1.00  0.00    -0.076 NA  
ATOM     5   N5  UNL     1      -0.224   1.722  -1.351  1.00  0.00    -0.132 NA  
ATOM     6   H18 UNL     1       1.171  -0.229  -3.630  1.00  0.00     0.083 HD  
ENDROOT
BRANCH   1   7
ATOM     7   C4  UNL     1      -1.619  -0.137  -2.202  1.00  0.00     0.117 C   
BRANCH   7   8
ATOM     8   C2  UNL     1      -2.667   0.334  -3.244  1.00  0.00     0.037 C   
ATOM     9   C1  UNL     1      -2.176   0.114  -4.679  1.00  0.00     0.014 C   
ATOM     10  C3  UNL     1      -3.118   1.788  -3.067  1.00  0.00     0.014 C   
ENDBRANCH   7   8
BRANCH   7  11
ATOM     11  N1  UNL     1      -2.252  -0.085  -0.833  1.00  0.00     0.249 N   
ATOM     12  H9  UNL     1      -2.208   0.897  -0.521  1.00  0.00     0.199 HD  
ATOM     13  H10 UNL     1      -3.246  -0.334  -0.865  1.00  0.00     0.199 HD  
BRANCH  11  14
ATOM     14  C5  UNL     1      -1.578  -0.903   0.214  1.00  0.00     0.164 C   
BRANCH  14  15
ATOM     15  C6  UNL     1      -2.238  -0.692   1.546  1.00  0.00    -0.002 A   
ATOM     16  C7  UNL     1      -1.827   0.375   2.381  1.00  0.00     0.012 A   
ATOM     17  C11 UNL     1      -3.305  -1.514   1.948  1.00  0.00     0.045 A   
ATOM     18  C8  UNL     1      -2.460   0.615   3.605  1.00  0.00     0.037 A   
ATOM     19  C10 UNL     1      -3.907  -1.249   3.160  1.00  0.00     0.109 A   
ATOM     20  C9  UNL     1      -3.497  -0.215   3.966  1.00  0.00     0.108 A   
ATOM     21  O1  UNL     1      -4.947  -1.942   3.694  1.00  0.00    -0.316 OA  
ATOM     22  O2  UNL     1      -4.224  -0.130   5.110  1.00  0.00    -0.316 OA  
ATOM     23  C12 UNL     1      -5.128  -1.244   4.947  1.00  0.00     0.337 C   
ENDBRANCH  14  15
ENDBRANCH  11  14
ENDBRANCH   7  11
ENDBRANCH   1   7
BRANCH   3  24
ATOM     24  C15 UNL     1       3.037   1.741  -2.721  1.00  0.00     0.171 C   
BRANCH  24  25
ATOM     25  C16 UNL     1       3.932   0.708  -2.093  1.00  0.00    -0.010 A   
ATOM     26  C17 UNL     1       4.742  -0.131  -2.865  1.00  0.00     0.012 A   
ATOM     27  C20 UNL     1       3.982   0.549  -0.708  1.00  0.00     0.119 A   
ATOM     28  C18 UNL     1       5.539  -1.084  -2.237  1.00  0.00     0.061 A   
ATOM     29  N3  UNL     1       4.728  -0.382  -0.079  1.00  0.00    -0.228 NA  
ATOM     30  C19 UNL     1       5.496  -1.172  -0.857  1.00  0.00     0.212 A   
ATOM     31  F1  UNL     1       6.245  -2.102  -0.250  1.00  0.00    -0.185 F   
ENDBRANCH  24  25
ENDBRANCH   3  24
TORSDOF 7
