REMARK SMILES CC(C)[C@H]([NH2+]Cc1ccc2c(c1)OCO2)c1cn(Cc2cc(C(F)F)on2)nn1
REMARK SMILES IDX 16 1 17 2 18 3 28 4 29 5 4 7 2 8 1 9 3 10 5 11 6 14 7 15
REMARK SMILES IDX 8 16 12 17 9 18 11 19 10 20 13 21 15 22 14 23 19 24 20 25
REMARK SMILES IDX 21 26 27 27 22 28 26 29 23 30 24 31 25 32
REMARK H PARENT 17 6 5 12 5 13
ROOT
ATOM     1   C13 UNL     1      -1.265   0.334  -0.795  1.00  0.00     0.127 A   
ATOM     2   C14 UNL     1      -1.657  -0.065  -2.053  1.00  0.00     0.046 A   
ATOM     3   N2  UNL     1      -0.523   0.063  -2.810  1.00  0.00    -0.206 N   
ATOM     4   N4  UNL     1       0.499   0.534  -2.067  1.00  0.00    -0.076 NA  
ATOM     5   N5  UNL     1       0.052   0.719  -0.836  1.00  0.00    -0.132 NA  
ATOM     6   H18 UNL     1      -2.585  -0.441  -2.464  1.00  0.00     0.083 HD  
ENDROOT
BRANCH   1   7
ATOM     7   C4  UNL     1      -2.005   0.364   0.507  1.00  0.00     0.117 C   
BRANCH   7   8
ATOM     8   C2  UNL     1      -2.950   1.589   0.617  1.00  0.00     0.037 C   
ATOM     9   C1  UNL     1      -3.930   1.443   1.788  1.00  0.00     0.014 C   
ATOM     10  C3  UNL     1      -2.217   2.932   0.720  1.00  0.00     0.014 C   
ENDBRANCH   7   8
BRANCH   7  11
ATOM     11  N1  UNL     1      -1.032   0.348   1.656  1.00  0.00     0.249 N   
ATOM     12  H9  UNL     1      -1.447   0.694   2.526  1.00  0.00     0.199 HD  
ATOM     13  H10 UNL     1      -0.281   1.011   1.411  1.00  0.00     0.199 HD  
BRANCH  11  14
ATOM     14  C5  UNL     1      -0.382  -0.966   1.920  1.00  0.00     0.164 C   
BRANCH  14  15
ATOM     15  C6  UNL     1       0.716  -0.811   2.933  1.00  0.00    -0.002 A   
ATOM     16  C7  UNL     1       1.999  -0.372   2.522  1.00  0.00     0.012 A   
ATOM     17  C11 UNL     1       0.468  -1.048   4.295  1.00  0.00     0.045 A   
ATOM     18  C8  UNL     1       3.025  -0.181   3.453  1.00  0.00     0.037 A   
ATOM     19  C10 UNL     1       1.503  -0.849   5.187  1.00  0.00     0.109 A   
ATOM     20  C9  UNL     1       2.744  -0.427   4.779  1.00  0.00     0.108 A   
ATOM     21  O1  UNL     1       1.432  -1.027   6.532  1.00  0.00    -0.316 OA  
ATOM     22  O2  UNL     1       3.611  -0.288   5.814  1.00  0.00    -0.316 OA  
ATOM     23  C12 UNL     1       2.783  -0.694   6.925  1.00  0.00     0.337 C   
ENDBRANCH  14  15
ENDBRANCH  11  14
ENDBRANCH   7  11
ENDBRANCH   1   7
BRANCH   3  24
ATOM     24  C15 UNL     1      -0.337  -0.252  -4.217  1.00  0.00     0.192 C   
BRANCH  24  25
ATOM     25  C16 UNL     1      -0.277  -1.727  -4.395  1.00  0.00     0.090 A   
ATOM     26  C17 UNL     1       0.857  -2.574  -4.388  1.00  0.00     0.066 A   
ATOM     27  N3  UNL     1      -1.404  -2.430  -4.576  1.00  0.00    -0.132 NA  
ATOM     28  C18 UNL     1       0.340  -3.836  -4.560  1.00  0.00     0.153 A   
ATOM     29  O3  UNL     1      -1.013  -3.753  -4.673  1.00  0.00    -0.212 OA  
BRANCH  28  30
ATOM     30  C19 UNL     1       0.924  -5.190  -4.624  1.00  0.00     0.398 C   
ATOM     31  F1  UNL     1       0.858  -5.795  -3.407  1.00  0.00    -0.203 F   
ATOM     32  F2  UNL     1       2.247  -5.130  -4.942  1.00  0.00    -0.203 F   
ENDBRANCH  28  30
ENDBRANCH  24  25
ENDBRANCH   3  24
TORSDOF 8
