REMARK SMILES Cc1ccc(CCn2cc([C@@H]([NH2+]Cc3ccc4c(c3)OCO4)C3CCCC3)nn2)nc1
REMARK SMILES IDX 8 1 9 2 10 3 28 4 29 5 7 7 6 8 5 9 2 10 3 11 31 12 4 13
REMARK SMILES IDX 30 14 1 15 11 16 12 17 13 20 14 21 15 22 19 23 16 24 18 25
REMARK SMILES IDX 17 26 20 27 22 28 21 29 23 30 24 31 27 32 25 33 26 34
REMARK H PARENT 9 6 12 18 12 19
ROOT
ATOM     1   N1  UNL     1       1.822   0.643   3.025  1.00  0.00    -0.212 N   
ATOM     2   C8  UNL     1       0.506   0.707   2.665  1.00  0.00     0.045 A   
ATOM     3   C9  UNL     1       0.538   0.684   1.290  1.00  0.00     0.127 A   
ATOM     4   N3  UNL     1       1.845   0.704   0.871  1.00  0.00    -0.132 NA  
ATOM     5   N4  UNL     1       2.621   0.694   1.943  1.00  0.00    -0.076 NA  
ATOM     6   H10 UNL     1      -0.291   0.689   3.396  1.00  0.00     0.083 HD  
ENDROOT
BRANCH   1   7
ATOM     7   C7  UNL     1       2.380   0.490   4.353  1.00  0.00     0.140 C   
BRANCH   7   8
ATOM     8   C6  UNL     1       2.865  -0.934   4.622  1.00  0.00     0.077 C   
BRANCH   8   9
ATOM     9   C5  UNL     1       1.765  -1.967   4.567  1.00  0.00     0.042 A   
ATOM     10  C2  UNL     1      -0.253  -3.850   4.562  1.00  0.00    -0.033 A   
ATOM     11  C3  UNL     1       1.020  -4.203   4.119  1.00  0.00     0.007 A   
ATOM     12  C24 UNL     1      -0.430  -2.549   5.014  1.00  0.00     0.114 A   
ATOM     13  C4  UNL     1       2.043  -3.257   4.126  1.00  0.00     0.024 A   
ATOM     14  N5  UNL     1       0.538  -1.603   5.012  1.00  0.00    -0.261 NA  
ATOM     15  C1  UNL     1      -1.365  -4.847   4.622  1.00  0.00     0.046 C   
ENDBRANCH   8   9
ENDBRANCH   7   8
ENDBRANCH   1   7
BRANCH   3  16
ATOM     16  C10 UNL     1      -0.562   0.664   0.282  1.00  0.00     0.117 C   
BRANCH  16  17
ATOM     17  N2  UNL     1      -0.098   1.315  -0.999  1.00  0.00     0.249 N   
ATOM     18  H12 UNL     1       0.836   0.928  -1.204  1.00  0.00     0.199 HD  
ATOM     19  H13 UNL     1      -0.699   1.061  -1.789  1.00  0.00     0.199 HD  
BRANCH  17  20
ATOM     20  C11 UNL     1       0.042   2.796  -0.946  1.00  0.00     0.164 C   
BRANCH  20  21
ATOM     21  C12 UNL     1       0.520   3.325  -2.268  1.00  0.00    -0.002 A   
ATOM     22  C13 UNL     1      -0.404   3.806  -3.226  1.00  0.00     0.012 A   
ATOM     23  C17 UNL     1       1.891   3.296  -2.582  1.00  0.00     0.045 A   
ATOM     24  C14 UNL     1       0.029   4.263  -4.476  1.00  0.00     0.037 A   
ATOM     25  C16 UNL     1       2.283   3.752  -3.823  1.00  0.00     0.109 A   
ATOM     26  C15 UNL     1       1.379   4.222  -4.743  1.00  0.00     0.108 A   
ATOM     27  O1  UNL     1       3.561   3.792  -4.283  1.00  0.00    -0.316 OA  
ATOM     28  O2  UNL     1       1.974   4.620  -5.898  1.00  0.00    -0.316 OA  
ATOM     29  C18 UNL     1       3.362   4.364  -5.595  1.00  0.00     0.337 C   
ENDBRANCH  20  21
ENDBRANCH  17  20
ENDBRANCH  16  17
BRANCH  16  30
ATOM     30  C19 UNL     1      -1.082  -0.744  -0.070  1.00  0.00     0.043 C   
ATOM     31  C20 UNL     1      -1.677  -1.528   1.101  1.00  0.00     0.010 C   
ATOM     32  C23 UNL     1      -0.054  -1.731  -0.630  1.00  0.00     0.010 C   
ATOM     33  C21 UNL     1      -1.841  -2.934   0.536  1.00  0.00     0.001 C   
ATOM     34  C22 UNL     1      -0.715  -3.102  -0.485  1.00  0.00     0.001 C   
ENDBRANCH  16  30
ENDBRANCH   3  16
TORSDOF 8
