REMARK SMILES COc1cc(F)ccc1Cn1cc([C@@H]([NH2+]Cc2ccc3c(c2)OCO3)C(C)(C)C)nn1
REMARK SMILES IDX 11 1 12 2 13 3 30 4 31 5 10 7 9 8 3 9 4 10 5 11 8 12 7 13
REMARK SMILES IDX 6 14 2 15 1 16 14 17 15 18 16 21 17 22 18 23 22 24 19 25
REMARK SMILES IDX 21 26 20 27 23 28 25 29 24 30 26 31 27 32 28 33 29 34
REMARK H PARENT 12 6 15 19 15 20
ROOT
ATOM     1   N1  UNL     1      -0.421   1.921   0.928  1.00  0.00    -0.208 N   
ATOM     2   C9  UNL     1      -1.190   0.790   0.900  1.00  0.00     0.046 A   
ATOM     3   C10 UNL     1      -0.542  -0.075   1.752  1.00  0.00     0.127 A   
ATOM     4   N3  UNL     1       0.577   0.543   2.256  1.00  0.00    -0.132 NA  
ATOM     5   N4  UNL     1       0.636   1.763   1.751  1.00  0.00    -0.076 NA  
ATOM     6   H9  UNL     1      -2.075   0.710   0.284  1.00  0.00     0.083 HD  
ENDROOT
BRANCH   1   7
ATOM     7   C8  UNL     1      -0.647   3.181   0.243  1.00  0.00     0.172 C   
BRANCH   7   8
ATOM     8   C7  UNL     1      -0.054   3.164  -1.146  1.00  0.00     0.002 A   
ATOM     9   C2  UNL     1      -0.810   2.745  -2.260  1.00  0.00     0.082 A   
ATOM     10  C3  UNL     1      -0.228   2.753  -3.529  1.00  0.00     0.073 A   
ATOM     11  C4  UNL     1       1.094   3.161  -3.682  1.00  0.00     0.125 A   
ATOM     12  C6  UNL     1       1.284   3.564  -1.325  1.00  0.00     0.011 A   
ATOM     13  C5  UNL     1       1.856   3.563  -2.595  1.00  0.00     0.040 A   
ATOM     14  F1  UNL     1       1.641   3.159  -4.905  1.00  0.00    -0.207 F   
BRANCH   9  15
ATOM     15  O1  UNL     1      -2.092   2.340  -1.994  1.00  0.00    -0.349 OA  
ATOM     16  C1  UNL     1      -2.929   2.058  -3.112  1.00  0.00     0.203 C   
ENDBRANCH   9  15
ENDBRANCH   7   8
ENDBRANCH   1   7
BRANCH   3  17
ATOM     17  C11 UNL     1      -0.802  -1.506   2.108  1.00  0.00     0.120 C   
BRANCH  17  18
ATOM     18  N2  UNL     1       0.543  -2.200   2.251  1.00  0.00     0.250 N   
ATOM     19  H11 UNL     1       0.591  -2.759   3.105  1.00  0.00     0.199 HD  
ATOM     20  H12 UNL     1       1.231  -1.442   2.391  1.00  0.00     0.199 HD  
BRANCH  18  21
ATOM     21  C12 UNL     1       0.989  -3.028   1.097  1.00  0.00     0.164 C   
BRANCH  21  22
ATOM     22  C13 UNL     1       1.115  -2.276  -0.199  1.00  0.00    -0.002 A   
ATOM     23  C14 UNL     1       2.095  -1.265  -0.355  1.00  0.00     0.012 A   
ATOM     24  C18 UNL     1       0.251  -2.568  -1.268  1.00  0.00     0.045 A   
ATOM     25  C15 UNL     1       2.212  -0.554  -1.555  1.00  0.00     0.037 A   
ATOM     26  C17 UNL     1       0.397  -1.852  -2.439  1.00  0.00     0.109 A   
ATOM     27  C16 UNL     1       1.351  -0.876  -2.580  1.00  0.00     0.108 A   
ATOM     28  O2  UNL     1      -0.350  -2.015  -3.562  1.00  0.00    -0.316 OA  
ATOM     29  O3  UNL     1       1.332  -0.308  -3.813  1.00  0.00    -0.316 OA  
ATOM     30  C19 UNL     1       0.280  -1.063  -4.449  1.00  0.00     0.337 C   
ENDBRANCH  21  22
ENDBRANCH  18  21
ENDBRANCH  17  18
BRANCH  17  31
ATOM     31  C20 UNL     1      -1.666  -1.704   3.401  1.00  0.00     0.010 C   
ATOM     32  C21 UNL     1      -0.989  -1.143   4.667  1.00  0.00     0.017 C   
ATOM     33  C22 UNL     1      -1.953  -3.208   3.622  1.00  0.00     0.017 C   
ATOM     34  C23 UNL     1      -3.034  -1.005   3.235  1.00  0.00     0.017 C   
ENDBRANCH  17  31
ENDBRANCH   3  17
TORSDOF 8
