REMARK SMILES CC(C)(C)[C@H]([NH2+]Cc1ccc2c(c1)OCO2)c1cn([C@@H](CO)c2cc(F)cc(F)c2)nn1
REMARK SMILES IDX 17 1 18 2 19 3 31 4 32 5 5 7 2 8 1 9 3 10 4 11 6 12 7 15
REMARK SMILES IDX 8 16 9 17 13 18 10 19 12 20 11 21 14 22 16 23 15 24 20 25
REMARK SMILES IDX 21 26 22 27 23 29 24 30 30 31 25 32 28 33 27 34 26 35 29 36
REMARK H PARENT 18 6 6 13 6 14 22 28
ROOT
ATOM     1   C14 UNL     1       0.211   0.184   0.817  1.00  0.00     0.127 A   
ATOM     2   C15 UNL     1       1.309  -0.184   1.560  1.00  0.00     0.046 A   
ATOM     3   N2  UNL     1       1.171  -1.538   1.715  1.00  0.00    -0.202 N   
ATOM     4   N3  UNL     1       0.086  -1.983   1.048  1.00  0.00    -0.075 NA  
ATOM     5   N4  UNL     1      -0.513  -0.938   0.501  1.00  0.00    -0.132 NA  
ATOM     6   H20 UNL     1       2.137   0.363   1.991  1.00  0.00     0.083 HD  
ENDROOT
BRANCH   1   7
ATOM     7   C5  UNL     1      -0.224   1.519   0.292  1.00  0.00     0.120 C   
BRANCH   7   8
ATOM     8   C2  UNL     1      -1.183   2.305   1.254  1.00  0.00     0.010 C   
ATOM     9   C1  UNL     1      -2.541   1.601   1.444  1.00  0.00     0.017 C   
ATOM     10  C3  UNL     1      -1.444   3.727   0.704  1.00  0.00     0.017 C   
ATOM     11  C4  UNL     1      -0.527   2.478   2.644  1.00  0.00     0.017 C   
ENDBRANCH   7   8
BRANCH   7  12
ATOM     12  N1  UNL     1      -0.878   1.319  -1.055  1.00  0.00     0.250 N   
ATOM     13  H11 UNL     1      -1.500   0.500  -0.960  1.00  0.00     0.199 HD  
ATOM     14  H12 UNL     1      -1.480   2.102  -1.321  1.00  0.00     0.199 HD  
BRANCH  12  15
ATOM     15  C6  UNL     1       0.057   1.030  -2.177  1.00  0.00     0.164 C   
BRANCH  15  16
ATOM     16  C7  UNL     1      -0.708   0.780  -3.446  1.00  0.00    -0.002 A   
ATOM     17  C8  UNL     1      -0.991   1.844  -4.335  1.00  0.00     0.012 A   
ATOM     18  C12 UNL     1      -1.190  -0.509  -3.732  1.00  0.00     0.045 A   
ATOM     19  C9  UNL     1      -1.732   1.627  -5.502  1.00  0.00     0.037 A   
ATOM     20  C11 UNL     1      -1.913  -0.690  -4.893  1.00  0.00     0.109 A   
ATOM     21  C10 UNL     1      -2.177   0.348  -5.753  1.00  0.00     0.108 A   
ATOM     22  O1  UNL     1      -2.433  -1.869  -5.325  1.00  0.00    -0.316 OA  
ATOM     23  O2  UNL     1      -2.899  -0.046  -6.834  1.00  0.00    -0.316 OA  
ATOM     24  C13 UNL     1      -3.047  -1.458  -6.568  1.00  0.00     0.337 C   
ENDBRANCH  15  16
ENDBRANCH  12  15
ENDBRANCH   7  12
ENDBRANCH   1   7
BRANCH   3  25
ATOM     25  C16 UNL     1       1.996  -2.469   2.488  1.00  0.00     0.155 C   
BRANCH  25  26
ATOM     26  C17 UNL     1       3.270  -2.857   1.708  1.00  0.00     0.185 C   
BRANCH  26  27
ATOM     27  O3  UNL     1       4.068  -1.726   1.351  1.00  0.00    -0.394 OA  
ATOM     28  H24 UNL     1       4.889  -2.072   0.952  1.00  0.00     0.210 HD  
ENDBRANCH  26  27
ENDBRANCH  25  26
BRANCH  25  29
ATOM     29  C18 UNL     1       2.173  -1.964   3.917  1.00  0.00    -0.017 A   
ATOM     30  C19 UNL     1       3.371  -1.412   4.398  1.00  0.00     0.045 A   
ATOM     31  C23 UNL     1       1.080  -2.029   4.803  1.00  0.00     0.045 A   
ATOM     32  C20 UNL     1       3.462  -0.951   5.713  1.00  0.00     0.126 A   
ATOM     33  C22 UNL     1       1.194  -1.559   6.111  1.00  0.00     0.126 A   
ATOM     34  C21 UNL     1       2.382  -1.019   6.578  1.00  0.00     0.078 A   
ATOM     35  F1  UNL     1       4.616  -0.425   6.140  1.00  0.00    -0.207 F   
ATOM     36  F2  UNL     1       0.133  -1.627   6.925  1.00  0.00    -0.207 F   
ENDBRANCH  25  29
ENDBRANCH   3  25
TORSDOF 9
