REMARK SMILES CC(C)(C)[C@H]([NH2+]Cc1ccc2c(c1)OCO2)c1cn([C@H](CO)c2cc(F)cc(F)c2)nn1
REMARK SMILES IDX 17 1 18 2 19 3 31 4 32 5 5 7 2 8 1 9 3 10 4 11 6 12 7 15
REMARK SMILES IDX 8 16 9 17 13 18 10 19 12 20 11 21 14 22 16 23 15 24 20 25
REMARK SMILES IDX 21 26 22 27 23 29 24 30 30 31 25 32 28 33 27 34 26 35 29 36
REMARK H PARENT 18 6 6 13 6 14 22 28
ROOT
ATOM     1   C14 UNL     1      -0.150   0.961   1.200  1.00  0.00     0.127 A   
ATOM     2   C15 UNL     1       0.205  -0.290   1.647  1.00  0.00     0.046 A   
ATOM     3   N2  UNL     1      -0.515  -0.453   2.800  1.00  0.00    -0.202 N   
ATOM     4   N3  UNL     1      -1.296   0.624   3.026  1.00  0.00    -0.075 NA  
ATOM     5   N4  UNL     1      -1.075   1.498   2.058  1.00  0.00    -0.132 NA  
ATOM     6   H20 UNL     1       0.876  -1.053   1.275  1.00  0.00     0.083 HD  
ENDROOT
BRANCH   1   7
ATOM     7   C5  UNL     1       0.235   1.706  -0.041  1.00  0.00     0.120 C   
BRANCH   7   8
ATOM     8   C2  UNL     1       1.417   2.720   0.158  1.00  0.00     0.010 C   
ATOM     9   C1  UNL     1       1.058   3.882   1.106  1.00  0.00     0.017 C   
ATOM     10  C3  UNL     1       1.843   3.320  -1.203  1.00  0.00     0.017 C   
ATOM     11  C4  UNL     1       2.652   1.989   0.733  1.00  0.00     0.017 C   
ENDBRANCH   7   8
BRANCH   7  12
ATOM     12  N1  UNL     1      -0.989   2.421  -0.582  1.00  0.00     0.250 N   
ATOM     13  H11 UNL     1      -1.394   2.934   0.214  1.00  0.00     0.199 HD  
ATOM     14  H12 UNL     1      -0.732   3.111  -1.290  1.00  0.00     0.199 HD  
BRANCH  12  15
ATOM     15  C6  UNL     1      -2.073   1.552  -1.134  1.00  0.00     0.164 C   
BRANCH  15  16
ATOM     16  C7  UNL     1      -1.664   0.840  -2.393  1.00  0.00    -0.002 A   
ATOM     17  C8  UNL     1      -1.552   1.548  -3.614  1.00  0.00     0.012 A   
ATOM     18  C12 UNL     1      -1.356  -0.531  -2.358  1.00  0.00     0.045 A   
ATOM     19  C9  UNL     1      -1.132   0.902  -4.782  1.00  0.00     0.037 A   
ATOM     20  C11 UNL     1      -0.942  -1.135  -3.526  1.00  0.00     0.109 A   
ATOM     21  C10 UNL     1      -0.832  -0.439  -4.704  1.00  0.00     0.108 A   
ATOM     22  O1  UNL     1      -0.597  -2.443  -3.661  1.00  0.00    -0.316 OA  
ATOM     23  O2  UNL     1      -0.406  -1.221  -5.730  1.00  0.00    -0.316 OA  
ATOM     24  C13 UNL     1      -0.279  -2.499  -5.070  1.00  0.00     0.337 C   
ENDBRANCH  15  16
ENDBRANCH  12  15
ENDBRANCH   7  12
ENDBRANCH   1   7
BRANCH   3  25
ATOM     25  C16 UNL     1      -0.589  -1.617   3.684  1.00  0.00     0.155 C   
BRANCH  25  26
ATOM     26  C17 UNL     1       0.709  -1.792   4.500  1.00  0.00     0.185 C   
BRANCH  26  27
ATOM     27  O3  UNL     1       1.868  -1.953   3.681  1.00  0.00    -0.394 OA  
ATOM     28  H24 UNL     1       2.625  -2.092   4.282  1.00  0.00     0.210 HD  
ENDBRANCH  26  27
ENDBRANCH  25  26
BRANCH  25  29
ATOM     29  C18 UNL     1      -1.109  -2.826   2.913  1.00  0.00    -0.017 A   
ATOM     30  C19 UNL     1      -0.286  -3.875   2.473  1.00  0.00     0.045 A   
ATOM     31  C23 UNL     1      -2.479  -2.888   2.589  1.00  0.00     0.045 A   
ATOM     32  C20 UNL     1      -0.824  -4.940   1.746  1.00  0.00     0.126 A   
ATOM     33  C22 UNL     1      -2.991  -3.960   1.859  1.00  0.00     0.126 A   
ATOM     34  C21 UNL     1      -2.173  -4.993   1.434  1.00  0.00     0.078 A   
ATOM     35  F1  UNL     1      -0.014  -5.923   1.335  1.00  0.00    -0.207 F   
ATOM     36  F2  UNL     1      -4.295  -3.981   1.557  1.00  0.00    -0.207 F   
ENDBRANCH  25  29
ENDBRANCH   3  25
TORSDOF 9
