REMARK SMILES Cc1nc(C(C)C)oc1Cn1cc([C@H](CC(C)C)[NH2+]Cc2ccc3c(c2)OCO3)nn1
REMARK SMILES IDX 11 1 12 2 13 3 30 4 31 5 10 7 9 8 2 9 3 10 4 11 8 12 1 13
REMARK SMILES IDX 5 14 6 15 7 16 14 17 15 18 16 19 17 20 18 21 19 22 20 25
REMARK SMILES IDX 21 26 22 27 26 28 23 29 25 30 24 31 27 32 29 33 28 34
REMARK H PARENT 12 6 19 23 19 24
ROOT
ATOM     1   N2  UNL     1       0.995  -0.929  -1.869  1.00  0.00    -0.206 N   
ATOM     2   C9  UNL     1       1.242   0.367  -1.501  1.00  0.00     0.046 A   
ATOM     3   C10 UNL     1       2.287   0.262  -0.611  1.00  0.00     0.127 A   
ATOM     4   N4  UNL     1       2.654  -1.057  -0.497  1.00  0.00    -0.132 NA  
ATOM     5   N5  UNL     1       1.865  -1.774  -1.278  1.00  0.00    -0.076 NA  
ATOM     6   H13 UNL     1       0.644   1.193  -1.860  1.00  0.00     0.083 HD  
ENDROOT
BRANCH   1   7
ATOM     7   C8  UNL     1      -0.038  -1.431  -2.757  1.00  0.00     0.197 C   
BRANCH   7   8
ATOM     8   C7  UNL     1      -1.327  -1.485  -2.042  1.00  0.00     0.102 A   
ATOM     9   C2  UNL     1      -1.918  -2.386  -1.184  1.00  0.00     0.068 A   
ATOM     10  N1  UNL     1      -3.150  -1.911  -0.806  1.00  0.00    -0.231 NA  
ATOM     11  C3  UNL     1      -3.264  -0.758  -1.433  1.00  0.00     0.150 A   
ATOM     12  O1  UNL     1      -2.182  -0.430  -2.204  1.00  0.00    -0.296 OA  
ATOM     13  C1  UNL     1      -1.409  -3.680  -0.681  1.00  0.00     0.069 C   
BRANCH  11  14
ATOM     14  C4  UNL     1      -4.408   0.201  -1.415  1.00  0.00     0.057 C   
ATOM     15  C5  UNL     1      -3.971   1.571  -0.903  1.00  0.00     0.016 C   
ATOM     16  C6  UNL     1      -5.045   0.312  -2.799  1.00  0.00     0.016 C   
ENDBRANCH  11  14
ENDBRANCH   7   8
ENDBRANCH   1   7
BRANCH   3  17
ATOM     17  C11 UNL     1       2.984   1.278   0.234  1.00  0.00     0.114 C   
BRANCH  17  18
ATOM     18  C12 UNL     1       4.254   1.805  -0.460  1.00  0.00     0.064 C   
BRANCH  18  19
ATOM     19  C13 UNL     1       5.016   2.920   0.289  1.00  0.00    -0.012 C   
ATOM     20  C14 UNL     1       4.158   4.165   0.513  1.00  0.00     0.007 C   
ATOM     21  C15 UNL     1       6.278   3.295  -0.494  1.00  0.00     0.007 C   
ENDBRANCH  18  19
ENDBRANCH  17  18
BRANCH  17  22
ATOM     22  N3  UNL     1       3.360   0.635   1.551  1.00  0.00     0.249 N   
ATOM     23  H24 UNL     1       3.242  -0.382   1.412  1.00  0.00     0.199 HD  
ATOM     24  H25 UNL     1       4.357   0.750   1.746  1.00  0.00     0.199 HD  
BRANCH  22  25
ATOM     25  C16 UNL     1       2.566   1.042   2.740  1.00  0.00     0.164 C   
BRANCH  25  26
ATOM     26  C17 UNL     1       1.097   0.743   2.633  1.00  0.00    -0.002 A   
ATOM     27  C18 UNL     1       0.161   1.796   2.489  1.00  0.00     0.012 A   
ATOM     28  C22 UNL     1       0.638  -0.585   2.676  1.00  0.00     0.045 A   
ATOM     29  C19 UNL     1      -1.210   1.533   2.393  1.00  0.00     0.037 A   
ATOM     30  C21 UNL     1      -0.721  -0.809   2.589  1.00  0.00     0.109 A   
ATOM     31  C20 UNL     1      -1.619   0.219   2.450  1.00  0.00     0.108 A   
ATOM     32  O2  UNL     1      -1.327  -2.024   2.643  1.00  0.00    -0.316 OA  
ATOM     33  O3  UNL     1      -2.905  -0.217   2.397  1.00  0.00    -0.316 OA  
ATOM     34  C23 UNL     1      -2.720  -1.638   2.581  1.00  0.00     0.337 C   
ENDBRANCH  25  26
ENDBRANCH  22  25
ENDBRANCH  17  22
ENDBRANCH   3  17
TORSDOF 9
