REMARK SMILES COc1cc(OC)cc(-n2cc([C@@H]([NH2+]Cc3ccc4c(c3)OCO4)C3CCCC3)nn2)c1
REMARK SMILES IDX 10 1 11 2 12 3 30 4 31 5 9 6 3 7 4 8 32 9 5 10 8 11 2 12
REMARK SMILES IDX 1 13 6 14 7 15 13 16 14 17 15 20 16 21 17 22 21 23 18 24
REMARK SMILES IDX 20 25 19 26 22 27 24 28 23 29 25 30 26 31 29 32 27 33 28 34
REMARK H PARENT 14 18 14 19
ROOT
ATOM     1   N1  UNL     1       0.607  -0.063  -1.212  1.00  0.00    -0.180 N   
ATOM     2   C8  UNL     1       0.092  -0.811  -0.168  1.00  0.00     0.135 A   
ATOM     3   C9  UNL     1      -1.258  -0.544  -0.172  1.00  0.00     0.127 A   
ATOM     4   N3  UNL     1      -1.543   0.317  -1.194  1.00  0.00    -0.131 NA  
ATOM     5   N4  UNL     1      -0.410   0.607  -1.812  1.00  0.00    -0.071 NA  
ENDROOT
BRANCH   1   6
ATOM     6   C7  UNL     1       1.949   0.056  -1.647  1.00  0.00     0.063 A   
ATOM     7   C2  UNL     1       4.287  -0.581  -1.505  1.00  0.00     0.079 A   
ATOM     8   C3  UNL     1       4.595   0.307  -2.540  1.00  0.00     0.067 A   
ATOM     9   C24 UNL     1       2.968  -0.697  -1.054  1.00  0.00     0.059 A   
ATOM     10  C4  UNL     1       3.585   1.067  -3.135  1.00  0.00     0.079 A   
ATOM     11  C6  UNL     1       2.265   0.935  -2.691  1.00  0.00     0.059 A   
BRANCH   7  12
ATOM     12  O1  UNL     1       5.176  -1.394  -0.849  1.00  0.00    -0.349 OA  
ATOM     13  C1  UNL     1       6.513  -1.421  -1.338  1.00  0.00     0.203 C   
ENDBRANCH   7  12
BRANCH  10  14
ATOM     14  O2  UNL     1       3.748   1.965  -4.153  1.00  0.00    -0.349 OA  
ATOM     15  C5  UNL     1       5.069   2.168  -4.638  1.00  0.00     0.203 C   
ENDBRANCH  10  14
ENDBRANCH   1   6
BRANCH   3  16
ATOM     16  C10 UNL     1      -2.352  -0.952   0.761  1.00  0.00     0.117 C   
BRANCH  16  17
ATOM     17  N2  UNL     1      -3.260   0.242   0.998  1.00  0.00     0.249 N   
ATOM     18  H11 UNL     1      -4.246  -0.038   1.024  1.00  0.00     0.199 HD  
ATOM     19  H12 UNL     1      -3.166   0.838   0.158  1.00  0.00     0.199 HD  
BRANCH  17  20
ATOM     20  C11 UNL     1      -2.956   1.077   2.198  1.00  0.00     0.164 C   
BRANCH  20  21
ATOM     21  C12 UNL     1      -1.576   1.679   2.189  1.00  0.00    -0.002 A   
ATOM     22  C13 UNL     1      -1.256   2.731   1.296  1.00  0.00     0.012 A   
ATOM     23  C17 UNL     1      -0.577   1.163   3.035  1.00  0.00     0.045 A   
ATOM     24  C14 UNL     1       0.042   3.252   1.233  1.00  0.00     0.037 A   
ATOM     25  C16 UNL     1       0.693   1.698   2.944  1.00  0.00     0.109 A   
ATOM     26  C15 UNL     1       0.994   2.711   2.067  1.00  0.00     0.108 A   
ATOM     27  O3  UNL     1       1.772   1.303   3.670  1.00  0.00    -0.316 OA  
ATOM     28  O4  UNL     1       2.299   3.083   2.133  1.00  0.00    -0.316 OA  
ATOM     29  C18 UNL     1       2.784   2.212   3.178  1.00  0.00     0.337 C   
ENDBRANCH  20  21
ENDBRANCH  17  20
ENDBRANCH  16  17
BRANCH  16  30
ATOM     30  C19 UNL     1      -3.195  -2.114   0.203  1.00  0.00     0.043 C   
ATOM     31  C20 UNL     1      -2.380  -3.389  -0.050  1.00  0.00     0.010 C   
ATOM     32  C23 UNL     1      -4.269  -2.623   1.171  1.00  0.00     0.010 C   
ATOM     33  C21 UNL     1      -3.430  -4.487  -0.164  1.00  0.00     0.001 C   
ATOM     34  C22 UNL     1      -4.622  -4.019   0.665  1.00  0.00     0.001 C   
ENDBRANCH  16  30
ENDBRANCH   3  16
TORSDOF 8
