REMARK SMILES O[C@H](Cn1cc([C@@H]([NH2+]Cc2ccc3c(c2)OCO3)C2CCCC2)nn1)c1ccc(Cl)cn1
REMARK SMILES IDX 4 1 5 2 6 3 24 4 25 5 3 7 2 8 1 9 26 11 27 12 32 13 28 14
REMARK SMILES IDX 31 15 29 16 30 17 7 18 8 19 9 22 10 23 11 24 15 25 12 26
REMARK SMILES IDX 14 27 13 28 16 29 18 30 17 31 19 32 20 33 23 34 21 35 22 36
REMARK H PARENT 5 6 1 10 8 20 8 21
ROOT
ATOM     1   N1  UNL     1       1.939  -0.810   2.466  1.00  0.00    -0.209 N   
ATOM     2   C3  UNL     1       1.527   0.153   1.589  1.00  0.00     0.045 A   
ATOM     3   C4  UNL     1       1.115  -0.559   0.486  1.00  0.00     0.127 A   
ATOM     4   N3  UNL     1       1.363  -1.892   0.693  1.00  0.00    -0.132 NA  
ATOM     5   N4  UNL     1       1.885  -2.031   1.901  1.00  0.00    -0.076 NA  
ATOM     6   H5  UNL     1       1.503   1.201   1.854  1.00  0.00     0.083 HD  
ENDROOT
BRANCH   1   7
ATOM     7   C2  UNL     1       2.360  -0.654   3.844  1.00  0.00     0.172 C   
BRANCH   7   8
ATOM     8   C1  UNL     1       1.206  -0.307   4.788  1.00  0.00     0.182 C   
BRANCH   8   9
ATOM     9   O1  UNL     1       0.791   1.049   4.547  1.00  0.00    -0.385 OA  
ATOM     10  H1  UNL     1      -0.189   1.010   4.492  1.00  0.00     0.211 HD  
ENDBRANCH   8   9
BRANCH   8  11
ATOM     11  C19 UNL     1       0.017  -1.247   4.681  1.00  0.00     0.071 A   
ATOM     12  C20 UNL     1       0.108  -2.572   5.102  1.00  0.00     0.028 A   
ATOM     13  N5  UNL     1      -1.120  -0.722   4.144  1.00  0.00    -0.257 NA  
ATOM     14  C21 UNL     1      -1.002  -3.404   4.956  1.00  0.00     0.024 A   
ATOM     15  C23 UNL     1      -2.185  -1.556   4.028  1.00  0.00     0.131 A   
ATOM     16  C22 UNL     1      -2.167  -2.890   4.405  1.00  0.00     0.059 A   
ATOM     17  CL1 UNL     1      -3.548  -3.884   4.191  1.00  0.00    -0.083 Cl  
ENDBRANCH   8  11
ENDBRANCH   7   8
ENDBRANCH   1   7
BRANCH   3  18
ATOM     18  C5  UNL     1       0.468  -0.113  -0.786  1.00  0.00     0.117 C   
BRANCH  18  19
ATOM     19  N2  UNL     1       0.615  -1.186  -1.838  1.00  0.00     0.249 N   
ATOM     20  H7  UNL     1      -0.145  -1.151  -2.521  1.00  0.00     0.199 HD  
ATOM     21  H8  UNL     1       0.524  -2.084  -1.337  1.00  0.00     0.199 HD  
BRANCH  19  22
ATOM     22  C6  UNL     1       1.922  -1.214  -2.558  1.00  0.00     0.164 C   
BRANCH  22  23
ATOM     23  C7  UNL     1       2.054  -0.088  -3.549  1.00  0.00    -0.002 A   
ATOM     24  C8  UNL     1       1.270  -0.075  -4.728  1.00  0.00     0.012 A   
ATOM     25  C12 UNL     1       2.939   0.974  -3.296  1.00  0.00     0.045 A   
ATOM     26  C9  UNL     1       1.354   0.986  -5.636  1.00  0.00     0.037 A   
ATOM     27  C11 UNL     1       2.998   2.003  -4.212  1.00  0.00     0.109 A   
ATOM     28  C10 UNL     1       2.226   2.011  -5.347  1.00  0.00     0.108 A   
ATOM     29  O2  UNL     1       3.792   3.102  -4.116  1.00  0.00    -0.316 OA  
ATOM     30  O3  UNL     1       2.435   3.115  -6.109  1.00  0.00    -0.316 OA  
ATOM     31  C13 UNL     1       3.449   3.795  -5.338  1.00  0.00     0.337 C   
ENDBRANCH  22  23
ENDBRANCH  19  22
ENDBRANCH  18  19
BRANCH  18  32
ATOM     32  C14 UNL     1      -1.017   0.237  -0.567  1.00  0.00     0.043 C   
ATOM     33  C15 UNL     1      -1.962  -0.934  -0.288  1.00  0.00     0.010 C   
ATOM     34  C18 UNL     1      -1.693   0.926  -1.756  1.00  0.00     0.010 C   
ATOM     35  C16 UNL     1      -3.344  -0.308  -0.434  1.00  0.00     0.001 C   
ATOM     36  C17 UNL     1      -3.191   0.801  -1.475  1.00  0.00     0.001 C   
ENDBRANCH  18  32
ENDBRANCH   3  18
TORSDOF 9
