REMARK SMILES O[C@@H](Cn1cc([C@@H]([NH2+]Cc2ccc3c(c2)OCO3)C2CCCC2)nn1)c1ccc(Cl)cn1
REMARK SMILES IDX 4 1 5 2 6 3 24 4 25 5 3 7 2 8 1 9 26 11 27 12 32 13 28 14
REMARK SMILES IDX 31 15 29 16 30 17 7 18 8 19 9 22 10 23 11 24 15 25 12 26
REMARK SMILES IDX 14 27 13 28 16 29 18 30 17 31 19 32 20 33 23 34 21 35 22 36
REMARK H PARENT 5 6 1 10 8 20 8 21
ROOT
ATOM     1   N1  UNL     1       3.409  -0.190   0.186  1.00  0.00    -0.209 N   
ATOM     2   C3  UNL     1       2.233  -0.070   0.870  1.00  0.00     0.045 A   
ATOM     3   C4  UNL     1       1.363  -0.885   0.182  1.00  0.00     0.127 A   
ATOM     4   N3  UNL     1       2.028  -1.463  -0.872  1.00  0.00    -0.132 NA  
ATOM     5   N4  UNL     1       3.279  -1.036  -0.854  1.00  0.00    -0.076 NA  
ATOM     6   H5  UNL     1       2.131   0.574   1.733  1.00  0.00     0.083 HD  
ENDROOT
BRANCH   1   7
ATOM     7   C2  UNL     1       4.688   0.427   0.477  1.00  0.00     0.172 C   
BRANCH   7   8
ATOM     8   C1  UNL     1       4.738   1.917   0.134  1.00  0.00     0.182 C   
BRANCH   8   9
ATOM     9   O1  UNL     1       3.926   2.643   1.076  1.00  0.00    -0.385 OA  
ATOM     10  H1  UNL     1       3.407   3.272   0.528  1.00  0.00     0.211 HD  
ENDBRANCH   8   9
BRANCH   8  11
ATOM     11  C19 UNL     1       4.317   2.256  -1.286  1.00  0.00     0.071 A   
ATOM     12  C20 UNL     1       5.018   1.771  -2.388  1.00  0.00     0.028 A   
ATOM     13  N5  UNL     1       3.229   3.068  -1.409  1.00  0.00    -0.257 NA  
ATOM     14  C21 UNL     1       4.581   2.113  -3.669  1.00  0.00     0.024 A   
ATOM     15  C23 UNL     1       2.841   3.395  -2.668  1.00  0.00     0.131 A   
ATOM     16  C22 UNL     1       3.472   2.937  -3.812  1.00  0.00     0.059 A   
ATOM     17  CL1 UNL     1       2.897   3.370  -5.369  1.00  0.00    -0.083 Cl  
ENDBRANCH   8  11
ENDBRANCH   7   8
ENDBRANCH   1   7
BRANCH   3  18
ATOM     18  C5  UNL     1      -0.096  -1.157   0.367  1.00  0.00     0.117 C   
BRANCH  18  19
ATOM     19  N2  UNL     1      -0.676  -1.581  -0.969  1.00  0.00     0.249 N   
ATOM     20  H7  UNL     1       0.079  -1.435  -1.661  1.00  0.00     0.199 HD  
ATOM     21  H8  UNL     1      -0.823  -2.595  -0.979  1.00  0.00     0.199 HD  
BRANCH  19  22
ATOM     22  C6  UNL     1      -1.885  -0.864  -1.446  1.00  0.00     0.164 C   
BRANCH  22  23
ATOM     23  C7  UNL     1      -1.597   0.546  -1.880  1.00  0.00    -0.002 A   
ATOM     24  C8  UNL     1      -0.955   0.795  -3.118  1.00  0.00     0.012 A   
ATOM     25  C12 UNL     1      -1.937   1.628  -1.050  1.00  0.00     0.045 A   
ATOM     26  C9  UNL     1      -0.659   2.100  -3.525  1.00  0.00     0.037 A   
ATOM     27  C11 UNL     1      -1.624   2.901  -1.478  1.00  0.00     0.109 A   
ATOM     28  C10 UNL     1      -1.003   3.132  -2.680  1.00  0.00     0.108 A   
ATOM     29  O2  UNL     1      -1.875   4.048  -0.793  1.00  0.00    -0.316 OA  
ATOM     30  O3  UNL     1      -0.782   4.453  -2.904  1.00  0.00    -0.316 OA  
ATOM     31  C13 UNL     1      -1.361   5.035  -1.716  1.00  0.00     0.337 C   
ENDBRANCH  22  23
ENDBRANCH  19  22
ENDBRANCH  18  19
BRANCH  18  32
ATOM     32  C14 UNL     1      -0.367  -2.267   1.400  1.00  0.00     0.043 C   
ATOM     33  C15 UNL     1       0.080  -1.909   2.821  1.00  0.00     0.010 C   
ATOM     34  C18 UNL     1      -1.852  -2.574   1.617  1.00  0.00     0.010 C   
ATOM     35  C16 UNL     1      -0.665  -2.892   3.720  1.00  0.00     0.001 C   
ATOM     36  C17 UNL     1      -1.888  -3.348   2.929  1.00  0.00     0.001 C   
ENDBRANCH  18  32
ENDBRANCH   3  18
TORSDOF 9
