REMARK SMILES Fc1cccc(F)c1-n1cc([C@@H]([NH2+]Cc2ccc3c(c2)OCO3)C2CCCCC2)nn1
REMARK SMILES IDX 12 1 11 2 9 3 10 4 31 5 30 6 8 7 2 8 3 9 4 10 6 11 5 12 1 13
REMARK SMILES IDX 7 14 13 15 14 18 15 19 16 20 20 21 17 22 19 23 18 24 21 25
REMARK SMILES IDX 23 26 22 27 24 28 25 29 29 30 26 31 28 32 27 33
REMARK H PARENT 13 16 13 17
ROOT
ATOM     1   C9  UNL     1      -0.199   0.021   0.720  1.00  0.00     0.117 C   
ENDROOT
BRANCH   1   2
ATOM     2   C8  UNL     1       1.024  -0.357   1.502  1.00  0.00     0.127 A   
ATOM     3   N1  UNL     1       2.858  -1.218   2.360  1.00  0.00    -0.175 N   
ATOM     4   C7  UNL     1       1.985  -1.319   1.290  1.00  0.00     0.135 A   
ATOM     5   N4  UNL     1       2.383  -0.254   3.193  1.00  0.00    -0.071 NA  
ATOM     6   N3  UNL     1       1.284   0.273   2.683  1.00  0.00    -0.131 NA  
BRANCH   3   7
ATOM     7   C6  UNL     1       4.042  -1.940   2.636  1.00  0.00     0.129 A   
ATOM     8   C1  UNL     1       4.780  -1.681   3.796  1.00  0.00     0.149 A   
ATOM     9   C2  UNL     1       5.954  -2.384   4.078  1.00  0.00     0.041 A   
ATOM     10  C3  UNL     1       6.410  -3.365   3.202  1.00  0.00     0.006 A   
ATOM     11  C5  UNL     1       4.515  -2.926   1.767  1.00  0.00     0.149 A   
ATOM     12  C4  UNL     1       5.688  -3.633   2.043  1.00  0.00     0.041 A   
ATOM     13  F1  UNL     1       4.401  -0.753   4.685  1.00  0.00    -0.205 F   
ATOM     14  F2  UNL     1       3.872  -3.236   0.633  1.00  0.00    -0.205 F   
ENDBRANCH   3   7
ENDBRANCH   1   2
BRANCH   1  15
ATOM     15  N2  UNL     1      -1.235   0.517   1.707  1.00  0.00     0.249 N   
ATOM     16  H6  UNL     1      -0.843   1.339   2.187  1.00  0.00     0.199 HD  
ATOM     17  H7  UNL     1      -1.283  -0.189   2.454  1.00  0.00     0.199 HD  
BRANCH  15  18
ATOM     18  C10 UNL     1      -2.616   0.793   1.237  1.00  0.00     0.164 C   
BRANCH  18  19
ATOM     19  C11 UNL     1      -3.293  -0.409   0.643  1.00  0.00    -0.002 A   
ATOM     20  C12 UNL     1      -3.539  -0.478  -0.750  1.00  0.00     0.012 A   
ATOM     21  C16 UNL     1      -3.666  -1.488   1.464  1.00  0.00     0.045 A   
ATOM     22  C13 UNL     1      -4.144  -1.605  -1.319  1.00  0.00     0.037 A   
ATOM     23  C15 UNL     1      -4.261  -2.583   0.870  1.00  0.00     0.109 A   
ATOM     24  C14 UNL     1      -4.493  -2.640  -0.482  1.00  0.00     0.108 A   
ATOM     25  O1  UNL     1      -4.676  -3.703   1.517  1.00  0.00    -0.316 OA  
ATOM     26  O2  UNL     1      -5.084  -3.804  -0.857  1.00  0.00    -0.316 OA  
ATOM     27  C17 UNL     1      -5.234  -4.462   0.420  1.00  0.00     0.337 C   
ENDBRANCH  18  19
ENDBRANCH  15  18
ENDBRANCH   1  15
BRANCH   1  28
ATOM     28  C18 UNL     1       0.061   1.076  -0.388  1.00  0.00     0.043 C   
ATOM     29  C19 UNL     1       0.622   2.416   0.128  1.00  0.00     0.010 C   
ATOM     30  C23 UNL     1       0.969   0.515  -1.502  1.00  0.00     0.010 C   
ATOM     31  C20 UNL     1       0.826   3.418  -1.008  1.00  0.00     0.001 C   
ATOM     32  C22 UNL     1       1.157   1.522  -2.636  1.00  0.00     0.001 C   
ATOM     33  C21 UNL     1       1.702   2.848  -2.119  1.00  0.00     0.000 C   
ENDBRANCH   1  28
TORSDOF 6
