REMARK SMILES c1cc2c(cc1C[NH2+][C@H](c1cn(Cc3ccc4c(c3)CCOC4)nn1)C1CCCCC1)OCO2
REMARK SMILES IDX 9 1 8 2 7 5 6 6 1 7 2 8 3 9 5 10 4 11 34 12 32 13 33 14
REMARK SMILES IDX 10 15 11 16 25 17 12 18 24 19 13 21 14 22 15 23 19 24 16 25
REMARK SMILES IDX 18 26 17 27 20 28 23 29 21 30 22 31 26 32 27 33 31 34 28 35
REMARK SMILES IDX 30 36 29 37
REMARK H PARENT 8 3 8 4 11 20
ROOT
ATOM     1   C8  UNL     1      -0.894   0.607  -0.264  1.00  0.00     0.117 C   
ENDROOT
BRANCH   1   2
ATOM     2   N1  UNL     1      -1.950   1.253   0.603  1.00  0.00     0.249 N   
ATOM     3   H6  UNL     1      -1.820   0.861   1.547  1.00  0.00     0.199 HD  
ATOM     4   H7  UNL     1      -1.803   2.263   0.676  1.00  0.00     0.199 HD  
BRANCH   2   5
ATOM     5   C7  UNL     1      -3.367   0.992   0.216  1.00  0.00     0.164 C   
BRANCH   5   6
ATOM     6   C6  UNL     1      -3.754   1.669  -1.070  1.00  0.00    -0.002 A   
ATOM     7   C1  UNL     1      -4.014   0.901  -2.230  1.00  0.00     0.012 A   
ATOM     8   C2  UNL     1      -4.343   1.517  -3.442  1.00  0.00     0.037 A   
ATOM     9   C3  UNL     1      -4.407   2.892  -3.469  1.00  0.00     0.108 A   
ATOM     10  C5  UNL     1      -3.838   3.071  -1.137  1.00  0.00     0.045 A   
ATOM     11  C4  UNL     1      -4.163   3.646  -2.348  1.00  0.00     0.109 A   
ATOM     12  O3  UNL     1      -4.707   3.655  -4.551  1.00  0.00    -0.316 OA  
ATOM     13  O2  UNL     1      -4.277   4.980  -2.583  1.00  0.00    -0.316 OA  
ATOM     14  C27 UNL     1      -4.641   4.981  -3.983  1.00  0.00     0.337 C   
ENDBRANCH   5   6
ENDBRANCH   2   5
ENDBRANCH   1   2
BRANCH   1  15
ATOM     15  C9  UNL     1      -0.803  -0.857   0.032  1.00  0.00     0.127 A   
ATOM     16  C10 UNL     1      -0.321  -1.908  -0.716  1.00  0.00     0.046 A   
ATOM     17  N4  UNL     1      -1.266  -1.334   1.232  1.00  0.00    -0.132 NA  
ATOM     18  N2  UNL     1      -0.480  -2.995   0.101  1.00  0.00    -0.208 N   
ATOM     19  N3  UNL     1      -1.081  -2.643   1.255  1.00  0.00    -0.076 NA  
ATOM     20  H9  UNL     1       0.130  -1.982  -1.695  1.00  0.00     0.083 HD  
BRANCH  18  21
ATOM     21  C11 UNL     1      -0.122  -4.380  -0.159  1.00  0.00     0.169 C   
BRANCH  21  22
ATOM     22  C12 UNL     1       1.374  -4.560  -0.216  1.00  0.00    -0.028 A   
ATOM     23  C13 UNL     1       2.151  -4.424   0.944  1.00  0.00     0.006 A   
ATOM     24  C17 UNL     1       2.009  -4.876  -1.426  1.00  0.00     0.009 A   
ATOM     25  C14 UNL     1       3.534  -4.604   0.897  1.00  0.00     0.007 A   
ATOM     26  C16 UNL     1       3.400  -5.047  -1.480  1.00  0.00    -0.040 A   
ATOM     27  C15 UNL     1       4.167  -4.929  -0.308  1.00  0.00    -0.019 A   
ATOM     28  C18 UNL     1       4.075  -5.441  -2.770  1.00  0.00     0.064 C   
ATOM     29  C20 UNL     1       5.668  -5.109  -0.350  1.00  0.00     0.196 C   
ATOM     30  C19 UNL     1       5.573  -5.157  -2.708  1.00  0.00     0.165 C   
ATOM     31  O1  UNL     1       6.125  -5.762  -1.539  1.00  0.00    -0.376 OA  
ENDBRANCH  21  22
ENDBRANCH  18  21
ENDBRANCH   1  15
BRANCH   1  32
ATOM     32  C21 UNL     1       0.471   1.324  -0.073  1.00  0.00     0.043 C   
ATOM     33  C22 UNL     1       0.471   2.727  -0.713  1.00  0.00     0.010 C   
ATOM     34  C26 UNL     1       0.937   1.407   1.395  1.00  0.00     0.010 C   
ATOM     35  C23 UNL     1       1.834   3.405  -0.585  1.00  0.00     0.001 C   
ATOM     36  C25 UNL     1       2.298   2.091   1.516  1.00  0.00     0.001 C   
ATOM     37  C24 UNL     1       2.295   3.471   0.868  1.00  0.00     0.000 C   
ENDBRANCH   1  32
TORSDOF 7
