REMARK SMILES COc1ccc(CCn2cc([C@H](CC(C)C)[NH2+]Cc3ccc4c(c3)OCO4)nn2)cc1O
REMARK SMILES IDX 9 1 10 2 11 3 28 4 29 5 8 7 7 8 6 9 3 10 4 11 31 12 5 13
REMARK SMILES IDX 30 14 2 15 1 16 32 17 12 19 13 20 14 21 15 22 16 23 17 24
REMARK SMILES IDX 18 27 19 28 20 29 24 30 21 31 23 32 22 33 25 34 27 35 26 36
REMARK H PARENT 10 6 32 18 17 25 17 26
ROOT
ATOM     1   N1  UNL     1       2.526   2.416  -1.257  1.00  0.00    -0.212 N   
ATOM     2   C8  UNL     1       1.699   1.636  -2.020  1.00  0.00     0.045 A   
ATOM     3   C9  UNL     1       2.042   0.346  -1.667  1.00  0.00     0.127 A   
ATOM     4   N3  UNL     1       3.142   0.392  -0.848  1.00  0.00    -0.132 NA  
ATOM     5   N4  UNL     1       3.418   1.661  -0.591  1.00  0.00    -0.076 NA  
ATOM     6   H10 UNL     1       0.895   2.057  -2.607  1.00  0.00     0.083 HD  
ENDROOT
BRANCH   1   7
ATOM     7   C7  UNL     1       2.340   3.813  -0.910  1.00  0.00     0.139 C   
BRANCH   7   8
ATOM     8   C6  UNL     1       1.585   3.996   0.419  1.00  0.00     0.057 C   
BRANCH   8   9
ATOM     9   C5  UNL     1       0.198   3.386   0.395  1.00  0.00    -0.044 A   
ATOM     10  C2  UNL     1      -2.322   2.165   0.088  1.00  0.00     0.104 A   
ATOM     11  C3  UNL     1      -2.170   3.528  -0.162  1.00  0.00     0.036 A   
ATOM     12  C24 UNL     1      -1.208   1.429   0.501  1.00  0.00     0.102 A   
ATOM     13  C4  UNL     1      -0.911   4.131  -0.027  1.00  0.00     0.006 A   
ATOM     14  C23 UNL     1       0.026   2.030   0.703  1.00  0.00     0.039 A   
BRANCH  10  15
ATOM     15  O1  UNL     1      -3.473   1.434  -0.049  1.00  0.00    -0.347 OA  
ATOM     16  C1  UNL     1      -4.651   2.165  -0.383  1.00  0.00     0.203 C   
ENDBRANCH  10  15
BRANCH  12  17
ATOM     17  O4  UNL     1      -1.307   0.068   0.659  1.00  0.00    -0.358 OA  
ATOM     18  H31 UNL     1      -2.281  -0.073   0.736  1.00  0.00     0.218 HD  
ENDBRANCH  12  17
ENDBRANCH   8   9
ENDBRANCH   7   8
ENDBRANCH   1   7
BRANCH   3  19
ATOM     19  C10 UNL     1       1.375  -0.970  -1.930  1.00  0.00     0.114 C   
BRANCH  19  20
ATOM     20  C11 UNL     1       0.347  -0.899  -3.079  1.00  0.00     0.064 C   
BRANCH  20  21
ATOM     21  C12 UNL     1      -0.335  -2.225  -3.482  1.00  0.00    -0.012 C   
ATOM     22  C13 UNL     1       0.666  -3.335  -3.806  1.00  0.00     0.007 C   
ATOM     23  C14 UNL     1      -1.247  -1.985  -4.689  1.00  0.00     0.007 C   
ENDBRANCH  20  21
ENDBRANCH  19  20
BRANCH  19  24
ATOM     24  N2  UNL     1       0.690  -1.499  -0.695  1.00  0.00     0.249 N   
ATOM     25  H21 UNL     1       0.018  -0.799  -0.329  1.00  0.00     0.199 HD  
ATOM     26  H22 UNL     1       0.129  -2.323  -0.922  1.00  0.00     0.199 HD  
BRANCH  24  27
ATOM     27  C15 UNL     1       1.594  -1.875   0.433  1.00  0.00     0.164 C   
BRANCH  27  28
ATOM     28  C16 UNL     1       0.880  -2.772   1.408  1.00  0.00    -0.002 A   
ATOM     29  C17 UNL     1       0.263  -2.231   2.561  1.00  0.00     0.012 A   
ATOM     30  C21 UNL     1       0.777  -4.151   1.152  1.00  0.00     0.045 A   
ATOM     31  C18 UNL     1      -0.435  -3.050   3.456  1.00  0.00     0.037 A   
ATOM     32  C20 UNL     1       0.079  -4.929   2.051  1.00  0.00     0.109 A   
ATOM     33  C19 UNL     1      -0.509  -4.395   3.172  1.00  0.00     0.108 A   
ATOM     34  O2  UNL     1      -0.117  -6.269   1.949  1.00  0.00    -0.316 OA  
ATOM     35  O3  UNL     1      -1.142  -5.333   3.923  1.00  0.00    -0.316 OA  
ATOM     36  C22 UNL     1      -0.883  -6.526   3.150  1.00  0.00     0.337 C   
ENDBRANCH  27  28
ENDBRANCH  24  27
ENDBRANCH  19  24
ENDBRANCH   3  19
TORSDOF 11
