REMARK SMILES Oc1ccccc1CCn1cc([C@@H]([NH2+]Cc2ccc3c(c2)OCO3)C2CCCCC2)nn1
REMARK SMILES IDX 10 1 11 2 12 3 31 4 32 5 9 7 8 8 7 9 2 10 3 11 4 12 6 13
REMARK SMILES IDX 5 14 1 15 13 17 14 18 15 21 16 22 17 23 21 24 18 25 20 26
REMARK SMILES IDX 19 27 22 28 24 29 23 30 25 31 26 32 30 33 27 34 29 35 28 36
REMARK H PARENT 11 6 1 16 14 19 14 20
ROOT
ATOM     1   N1  UNL     1       0.024  -0.613   3.107  1.00  0.00    -0.212 N   
ATOM     2   C9  UNL     1       0.587  -0.773   1.874  1.00  0.00     0.045 A   
ATOM     3   C10 UNL     1       0.741   0.515   1.413  1.00  0.00     0.127 A   
ATOM     4   N3  UNL     1       0.290   1.393   2.363  1.00  0.00    -0.132 NA  
ATOM     5   N4  UNL     1      -0.140   0.691   3.398  1.00  0.00    -0.076 NA  
ATOM     6   H10 UNL     1       0.778  -1.748   1.448  1.00  0.00     0.083 HD  
ENDROOT
BRANCH   1   7
ATOM     7   C8  UNL     1      -0.407  -1.641   4.031  1.00  0.00     0.139 C   
BRANCH   7   8
ATOM     8   C7  UNL     1      -1.926  -1.694   4.201  1.00  0.00     0.059 C   
BRANCH   8   9
ATOM     9   C6  UNL     1      -2.697  -1.921   2.917  1.00  0.00    -0.016 A   
ATOM     10  C1  UNL     1      -2.618  -3.128   2.212  1.00  0.00     0.074 A   
ATOM     11  C2  UNL     1      -3.364  -3.341   1.054  1.00  0.00     0.033 A   
ATOM     12  C3  UNL     1      -4.209  -2.334   0.585  1.00  0.00     0.003 A   
ATOM     13  C5  UNL     1      -3.547  -0.916   2.428  1.00  0.00     0.006 A   
ATOM     14  C4  UNL     1      -4.299  -1.122   1.270  1.00  0.00     0.000 A   
BRANCH  10  15
ATOM     15  O1  UNL     1      -1.791  -4.108   2.682  1.00  0.00    -0.361 OA  
ATOM     16  H1  UNL     1      -2.054  -4.955   2.278  1.00  0.00     0.218 HD  
ENDBRANCH  10  15
ENDBRANCH   8   9
ENDBRANCH   7   8
ENDBRANCH   1   7
BRANCH   3  17
ATOM     17  C11 UNL     1       1.197   1.038   0.089  1.00  0.00     0.117 C   
BRANCH  17  18
ATOM     18  N2  UNL     1       0.160   2.025  -0.415  1.00  0.00     0.249 N   
ATOM     19  H12 UNL     1       0.483   2.501  -1.260  1.00  0.00     0.199 HD  
ATOM     20  H13 UNL     1       0.064   2.736   0.323  1.00  0.00     0.199 HD  
BRANCH  18  21
ATOM     21  C12 UNL     1      -1.206   1.476  -0.681  1.00  0.00     0.164 C   
BRANCH  21  22
ATOM     22  C13 UNL     1      -1.227   0.482  -1.809  1.00  0.00    -0.002 A   
ATOM     23  C14 UNL     1      -1.395  -0.897  -1.538  1.00  0.00     0.012 A   
ATOM     24  C18 UNL     1      -1.050   0.909  -3.136  1.00  0.00     0.045 A   
ATOM     25  C15 UNL     1      -1.387  -1.841  -2.571  1.00  0.00     0.037 A   
ATOM     26  C17 UNL     1      -1.046  -0.049  -4.130  1.00  0.00     0.109 A   
ATOM     27  C16 UNL     1      -1.210  -1.384  -3.857  1.00  0.00     0.108 A   
ATOM     28  O2  UNL     1      -0.883   0.194  -5.457  1.00  0.00    -0.316 OA  
ATOM     29  O3  UNL     1      -1.171  -2.152  -4.977  1.00  0.00    -0.316 OA  
ATOM     30  C19 UNL     1      -0.979  -1.146  -5.995  1.00  0.00     0.337 C   
ENDBRANCH  21  22
ENDBRANCH  18  21
ENDBRANCH  17  18
BRANCH  17  31
ATOM     31  C20 UNL     1       2.582   1.749   0.174  1.00  0.00     0.043 C   
ATOM     32  C21 UNL     1       3.053   2.286  -1.196  1.00  0.00     0.010 C   
ATOM     33  C25 UNL     1       3.659   0.800   0.754  1.00  0.00     0.010 C   
ATOM     34  C22 UNL     1       4.444   2.916  -1.134  1.00  0.00     0.001 C   
ATOM     35  C24 UNL     1       5.042   1.445   0.806  1.00  0.00     0.001 C   
ATOM     36  C23 UNL     1       5.476   1.954  -0.560  1.00  0.00     0.000 C   
ENDBRANCH  17  31
ENDBRANCH   3  17
TORSDOF 9
