REMARK SMILES CC(C)C[C@H]([NH2+]Cc1ccc2c(c1)OCO2)c1cn(CCc2cnn(C(C)(C)C)c2)nn1
REMARK SMILES IDX 17 1 18 2 19 3 31 4 32 5 5 7 4 8 2 9 1 10 3 11 6 12 7 15
REMARK SMILES IDX 8 16 9 17 13 18 10 19 12 20 11 21 14 22 16 23 15 24 20 25
REMARK SMILES IDX 21 26 22 27 23 28 30 29 24 30 25 31 26 32 27 33 28 34 29 35
REMARK H PARENT 18 6 6 13 6 14
ROOT
ATOM     1   C14 UNL     1       0.818  -1.448   0.623  1.00  0.00     0.127 A   
ATOM     2   C15 UNL     1       1.775  -1.161   1.575  1.00  0.00     0.045 A   
ATOM     3   N2  UNL     1       1.336  -1.828   2.689  1.00  0.00    -0.212 N   
ATOM     4   N5  UNL     1       0.285  -2.612   2.394  1.00  0.00    -0.076 NA  
ATOM     5   N6  UNL     1      -0.044  -2.385   1.131  1.00  0.00    -0.132 NA  
ATOM     6   H20 UNL     1       2.594  -0.457   1.613  1.00  0.00     0.083 HD  
ENDROOT
BRANCH   1   7
ATOM     7   C5  UNL     1       0.524  -0.804  -0.698  1.00  0.00     0.114 C   
BRANCH   7   8
ATOM     8   C4  UNL     1       1.754  -0.109  -1.317  1.00  0.00     0.064 C   
BRANCH   8   9
ATOM     9   C2  UNL     1       1.590   0.349  -2.784  1.00  0.00    -0.012 C   
ATOM     10  C1  UNL     1       2.803   1.187  -3.200  1.00  0.00     0.007 C   
ATOM     11  C3  UNL     1       1.434  -0.830  -3.747  1.00  0.00     0.007 C   
ENDBRANCH   8   9
ENDBRANCH   7   8
BRANCH   7  12
ATOM     12  N1  UNL     1      -0.581   0.220  -0.541  1.00  0.00     0.249 N   
ATOM     13  H11 UNL     1      -0.508   0.966  -1.233  1.00  0.00     0.199 HD  
ATOM     14  H12 UNL     1      -0.475   0.698   0.378  1.00  0.00     0.199 HD  
BRANCH  12  15
ATOM     15  C6  UNL     1      -1.974  -0.309  -0.574  1.00  0.00     0.164 C   
BRANCH  15  16
ATOM     16  C7  UNL     1      -2.383  -0.773  -1.945  1.00  0.00    -0.002 A   
ATOM     17  C8  UNL     1      -2.529  -2.154  -2.217  1.00  0.00     0.012 A   
ATOM     18  C12 UNL     1      -2.595   0.161  -2.975  1.00  0.00     0.045 A   
ATOM     19  C9  UNL     1      -2.873  -2.604  -3.496  1.00  0.00     0.037 A   
ATOM     20  C11 UNL     1      -2.930  -0.317  -4.226  1.00  0.00     0.109 A   
ATOM     21  C10 UNL     1      -3.063  -1.659  -4.480  1.00  0.00     0.108 A   
ATOM     22  O1  UNL     1      -3.160   0.446  -5.327  1.00  0.00    -0.316 OA  
ATOM     23  O2  UNL     1      -3.396  -1.911  -5.773  1.00  0.00    -0.316 OA  
ATOM     24  C13 UNL     1      -3.463  -0.572  -6.308  1.00  0.00     0.337 C   
ENDBRANCH  15  16
ENDBRANCH  12  15
ENDBRANCH   7  12
ENDBRANCH   1   7
BRANCH   3  25
ATOM     25  C16 UNL     1       1.635  -1.482   4.069  1.00  0.00     0.139 C   
BRANCH  25  26
ATOM     26  C17 UNL     1       0.581  -0.542   4.684  1.00  0.00     0.060 C   
BRANCH  26  27
ATOM     27  C18 UNL     1       0.215   0.591   3.777  1.00  0.00    -0.011 A   
ATOM     28  C19 UNL     1      -0.848   0.611   2.849  1.00  0.00     0.136 A   
ATOM     29  C24 UNL     1       0.853   1.796   3.578  1.00  0.00     0.101 A   
ATOM     30  N3  UNL     1      -0.749   1.628   1.982  1.00  0.00    -0.189 NA  
ATOM     31  N4  UNL     1       0.204   2.426   2.547  1.00  0.00    -0.227 N   
BRANCH  31  32
ATOM     32  C20 UNL     1       0.435   3.783   2.013  1.00  0.00     0.047 C   
ATOM     33  C21 UNL     1       0.466   3.751   0.470  1.00  0.00     0.034 C   
ATOM     34  C22 UNL     1       1.774   4.382   2.493  1.00  0.00     0.034 C   
ATOM     35  C23 UNL     1      -0.708   4.699   2.480  1.00  0.00     0.034 C   
ENDBRANCH  31  32
ENDBRANCH  26  27
ENDBRANCH  25  26
ENDBRANCH   3  25
TORSDOF 10
