REMARK SMILES CC(C)[C@H]([NH2+]Cc1ccc2c(c1)OCO2)c1cn(CCc2ccccc2F)nn1
REMARK SMILES IDX 16 1 17 2 18 3 28 4 29 5 4 7 2 8 1 9 3 10 5 11 6 14 7 15
REMARK SMILES IDX 8 16 12 17 9 18 11 19 10 20 13 21 15 22 14 23 19 24 20 25
REMARK SMILES IDX 21 26 22 27 26 28 23 29 25 30 24 31 27 32
REMARK H PARENT 17 6 5 12 5 13
ROOT
ATOM     1   C13 UNL     1       1.444   1.666  -0.982  1.00  0.00     0.127 A   
ATOM     2   C14 UNL     1       0.360   1.907  -1.797  1.00  0.00     0.045 A   
ATOM     3   N2  UNL     1       0.896   1.925  -3.053  1.00  0.00    -0.212 N   
ATOM     4   N3  UNL     1       2.227   1.733  -3.015  1.00  0.00    -0.076 NA  
ATOM     5   N4  UNL     1       2.575   1.568  -1.751  1.00  0.00    -0.132 NA  
ATOM     6   H18 UNL     1      -0.698   2.029  -1.615  1.00  0.00     0.083 HD  
ENDROOT
BRANCH   1   7
ATOM     7   C4  UNL     1       1.541   1.417   0.487  1.00  0.00     0.117 C   
BRANCH   7   8
ATOM     8   C2  UNL     1       1.908   2.670   1.323  1.00  0.00     0.037 C   
ATOM     9   C1  UNL     1       0.809   3.736   1.249  1.00  0.00     0.014 C   
ATOM     10  C3  UNL     1       3.261   3.298   0.966  1.00  0.00     0.014 C   
ENDBRANCH   7   8
BRANCH   7  11
ATOM     11  N1  UNL     1       2.576   0.343   0.750  1.00  0.00     0.249 N   
ATOM     12  H9  UNL     1       2.844   0.334   1.739  1.00  0.00     0.199 HD  
ATOM     13  H10 UNL     1       3.409   0.612   0.206  1.00  0.00     0.199 HD  
BRANCH  11  14
ATOM     14  C5  UNL     1       2.213  -1.041   0.320  1.00  0.00     0.164 C   
BRANCH  14  15
ATOM     15  C6  UNL     1       1.155  -1.656   1.193  1.00  0.00    -0.002 A   
ATOM     16  C7  UNL     1      -0.186  -1.732   0.745  1.00  0.00     0.012 A   
ATOM     17  C11 UNL     1       1.483  -2.130   2.474  1.00  0.00     0.045 A   
ATOM     18  C8  UNL     1      -1.189  -2.269   1.559  1.00  0.00     0.037 A   
ATOM     19  C10 UNL     1       0.471  -2.654   3.252  1.00  0.00     0.109 A   
ATOM     20  C9  UNL     1      -0.827  -2.721   2.808  1.00  0.00     0.108 A   
ATOM     21  O1  UNL     1       0.616  -3.150   4.509  1.00  0.00    -0.316 OA  
ATOM     22  O2  UNL     1      -1.662  -3.267   3.730  1.00  0.00    -0.316 OA  
ATOM     23  C12 UNL     1      -0.737  -3.569   4.797  1.00  0.00     0.337 C   
ENDBRANCH  14  15
ENDBRANCH  11  14
ENDBRANCH   7  11
ENDBRANCH   1   7
BRANCH   3  24
ATOM     24  C15 UNL     1       0.218   2.087  -4.322  1.00  0.00     0.139 C   
BRANCH  24  25
ATOM     25  C16 UNL     1       0.016   0.761  -5.059  1.00  0.00     0.060 C   
BRANCH  25  26
ATOM     26  C17 UNL     1      -1.134  -0.053  -4.519  1.00  0.00    -0.011 A   
ATOM     27  C18 UNL     1      -2.428   0.127  -5.030  1.00  0.00     0.007 A   
ATOM     28  C22 UNL     1      -0.945  -0.999  -3.506  1.00  0.00     0.126 A   
ATOM     29  C19 UNL     1      -3.494  -0.633  -4.542  1.00  0.00     0.000 A   
ATOM     30  C21 UNL     1      -2.003  -1.764  -3.021  1.00  0.00     0.039 A   
ATOM     31  C20 UNL     1      -3.282  -1.580  -3.541  1.00  0.00     0.003 A   
ATOM     32  F1  UNL     1       0.271  -1.173  -2.966  1.00  0.00    -0.207 F   
ENDBRANCH  25  26
ENDBRANCH  24  25
ENDBRANCH   3  24
TORSDOF 8
