REMARK SMILES CC(C)(C)[C@H]([NH2+]Cc1ccc2c(c1)OCO2)c1cn(-c2cccc(N([O-])[O-])c2)nn1
REMARK SMILES IDX 17 1 18 2 19 3 29 4 30 5 5 6 2 7 1 8 3 9 4 10 6 11 7 14 8 15
REMARK SMILES IDX 9 16 13 17 10 18 12 19 11 20 14 21 16 22 15 23 20 24 21 25
REMARK SMILES IDX 28 26 22 27 24 28 23 29 25 30 26 31 27 32
REMARK H PARENT 6 12 6 13
ROOT
ATOM     1   C14 UNL     1       0.139  -0.976   0.309  1.00  0.00     0.128 A   
ATOM     2   C15 UNL     1      -0.407   0.127   0.927  1.00  0.00     0.135 A   
ATOM     3   N2  UNL     1       0.610   0.638   1.710  1.00  0.00    -0.181 N   
ATOM     4   N4  UNL     1       1.689  -0.181   1.613  1.00  0.00    -0.071 NA  
ATOM     5   N5  UNL     1       1.425  -1.139   0.741  1.00  0.00    -0.131 NA  
ENDROOT
BRANCH   1   6
ATOM     6   C5  UNL     1      -0.385  -1.853  -0.790  1.00  0.00     0.120 C   
BRANCH   6   7
ATOM     7   C2  UNL     1      -0.827  -3.282  -0.324  1.00  0.00     0.010 C   
ATOM     8   C1  UNL     1      -1.885  -3.165   0.798  1.00  0.00     0.017 C   
ATOM     9   C3  UNL     1      -1.495  -4.038  -1.496  1.00  0.00     0.017 C   
ATOM     10  C4  UNL     1       0.343  -4.138   0.202  1.00  0.00     0.017 C   
ENDBRANCH   6   7
BRANCH   6  11
ATOM     11  N1  UNL     1       0.683  -1.940  -1.868  1.00  0.00     0.250 N   
ATOM     12  H11 UNL     1       1.586  -1.812  -1.385  1.00  0.00     0.199 HD  
ATOM     13  H12 UNL     1       0.727  -2.878  -2.275  1.00  0.00     0.199 HD  
BRANCH  11  14
ATOM     14  C6  UNL     1       0.597  -0.943  -2.979  1.00  0.00     0.164 C   
BRANCH  14  15
ATOM     15  C7  UNL     1       0.610   0.491  -2.525  1.00  0.00    -0.002 A   
ATOM     16  C8  UNL     1       1.793   1.073  -2.007  1.00  0.00     0.012 A   
ATOM     17  C12 UNL     1      -0.574   1.249  -2.555  1.00  0.00     0.045 A   
ATOM     18  C9  UNL     1       1.791   2.378  -1.500  1.00  0.00     0.037 A   
ATOM     19  C11 UNL     1      -0.541   2.530  -2.045  1.00  0.00     0.109 A   
ATOM     20  C10 UNL     1       0.606   3.078  -1.527  1.00  0.00     0.108 A   
ATOM     21  O1  UNL     1      -1.601   3.376  -1.968  1.00  0.00    -0.316 OA  
ATOM     22  O2  UNL     1       0.410   4.336  -1.054  1.00  0.00    -0.316 OA  
ATOM     23  C13 UNL     1      -0.976   4.551  -1.404  1.00  0.00     0.337 C   
ENDBRANCH  14  15
ENDBRANCH  11  14
ENDBRANCH   6  11
ENDBRANCH   1   6
BRANCH   3  24
ATOM     24  C16 UNL     1       0.642   1.836   2.467  1.00  0.00     0.060 A   
ATOM     25  C17 UNL     1       1.772   2.131   3.248  1.00  0.00     0.026 A   
ATOM     26  C21 UNL     1      -0.425   2.743   2.423  1.00  0.00     0.057 A   
ATOM     27  C18 UNL     1       1.835   3.320   3.983  1.00  0.00     0.004 A   
ATOM     28  C20 UNL     1      -0.342   3.940   3.154  1.00  0.00     0.120 A   
ATOM     29  C19 UNL     1       0.780   4.230   3.939  1.00  0.00     0.031 A   
BRANCH  28  30
ATOM     30  N3  UNL     1      -1.443   4.909   3.075  1.00  0.00     0.092 N   
ATOM     31  O3  UNL     1      -2.312   4.710   2.213  1.00  0.00    -0.138 OA  
ATOM     32  O4  UNL     1      -1.433   5.862   3.863  1.00  0.00    -0.138 OA  
ENDBRANCH  28  30
ENDBRANCH   3  24
TORSDOF 7
