REMARK SMILES c1cnc2c(c1)CC[C@H]2n1cc([C@@H]([NH2+]Cc2ccc3c(c2)OCO3)C2CCCCC2)nn1
REMARK SMILES IDX 13 1 12 2 10 3 11 4 32 5 31 6 9 8 1 9 2 10 6 11 3 12 5 13
REMARK SMILES IDX 4 14 7 15 8 16 14 17 15 20 16 21 17 22 21 23 18 24 20 25
REMARK SMILES IDX 19 26 22 27 24 28 23 29 25 30 26 31 30 32 27 33 29 34 28 35
REMARK H PARENT 11 7 14 18 14 19
ROOT
ATOM     1   C11 UNL     1      -0.825  -1.568  -1.424  1.00  0.00     0.117 C   
ENDROOT
BRANCH   1   2
ATOM     2   C10 UNL     1       0.634  -1.715  -1.143  1.00  0.00     0.127 A   
ATOM     3   N2  UNL     1       2.717  -1.462  -0.613  1.00  0.00    -0.203 N   
ATOM     4   C9  UNL     1       1.465  -0.994  -0.317  1.00  0.00     0.046 A   
ATOM     5   N5  UNL     1       2.644  -2.467  -1.512  1.00  0.00    -0.075 NA  
ATOM     6   N4  UNL     1       1.375  -2.623  -1.849  1.00  0.00    -0.132 NA  
ATOM     7   H9  UNL     1       1.298  -0.180   0.375  1.00  0.00     0.083 HD  
BRANCH   3   8
ATOM     8   C8  UNL     1       4.009  -1.028  -0.127  1.00  0.00     0.149 C   
ATOM     9   C1  UNL     1       4.528   3.022   0.911  1.00  0.00     0.020 A   
ATOM     10  C2  UNL     1       3.813   2.689  -0.239  1.00  0.00     0.111 A   
ATOM     11  C5  UNL     1       5.043   1.999   1.706  1.00  0.00     0.007 A   
ATOM     12  N1  UNL     1       3.568   1.420  -0.646  1.00  0.00    -0.259 NA  
ATOM     13  C4  UNL     1       4.808   0.698   1.310  1.00  0.00    -0.024 A   
ATOM     14  C3  UNL     1       4.080   0.459   0.148  1.00  0.00     0.066 A   
ATOM     15  C6  UNL     1       5.287  -0.575   1.930  1.00  0.00     0.040 C   
ATOM     16  C7  UNL     1       4.372  -1.608   1.254  1.00  0.00     0.036 C   
ENDBRANCH   3   8
ENDBRANCH   1   2
BRANCH   1  17
ATOM     17  N3  UNL     1      -1.028  -1.475  -2.925  1.00  0.00     0.249 N   
ATOM     18  H11 UNL     1      -0.636  -2.338  -3.325  1.00  0.00     0.199 HD  
ATOM     19  H12 UNL     1      -2.021  -1.449  -3.157  1.00  0.00     0.199 HD  
BRANCH  17  20
ATOM     20  C12 UNL     1      -0.360  -0.327  -3.618  1.00  0.00     0.164 C   
BRANCH  20  21
ATOM     21  C13 UNL     1      -0.808   1.017  -3.111  1.00  0.00    -0.002 A   
ATOM     22  C14 UNL     1       0.091   1.842  -2.394  1.00  0.00     0.012 A   
ATOM     23  C18 UNL     1      -2.127   1.455  -3.325  1.00  0.00     0.045 A   
ATOM     24  C15 UNL     1      -0.317   3.080  -1.885  1.00  0.00     0.037 A   
ATOM     25  C17 UNL     1      -2.497   2.679  -2.808  1.00  0.00     0.109 A   
ATOM     26  C16 UNL     1      -1.618   3.469  -2.107  1.00  0.00     0.108 A   
ATOM     27  O1  UNL     1      -3.729   3.241  -2.914  1.00  0.00    -0.316 OA  
ATOM     28  O2  UNL     1      -2.184   4.630  -1.690  1.00  0.00    -0.316 OA  
ATOM     29  C19 UNL     1      -3.522   4.489  -2.214  1.00  0.00     0.337 C   
ENDBRANCH  20  21
ENDBRANCH  17  20
ENDBRANCH   1  17
BRANCH   1  30
ATOM     30  C20 UNL     1      -1.663  -2.757  -0.862  1.00  0.00     0.043 C   
ATOM     31  C21 UNL     1      -3.168  -2.618  -1.184  1.00  0.00     0.010 C   
ATOM     32  C25 UNL     1      -1.469  -2.884   0.668  1.00  0.00     0.010 C   
ATOM     33  C22 UNL     1      -4.010  -3.726  -0.554  1.00  0.00     0.001 C   
ATOM     34  C24 UNL     1      -2.318  -3.994   1.279  1.00  0.00     0.001 C   
ATOM     35  C23 UNL     1      -3.794  -3.818   0.950  1.00  0.00     0.000 C   
ENDBRANCH   1  30
TORSDOF 6
