REMARK SMILES c1cnc2c(c1)CC[C@@H]2n1cc([C@@H]([NH2+]Cc2ccc3c(c2)OCO3)C2CCCCC2)nn1
REMARK SMILES IDX 13 1 12 2 10 3 11 4 32 5 31 6 9 8 1 9 2 10 6 11 3 12 5 13
REMARK SMILES IDX 4 14 7 15 8 16 14 17 15 20 16 21 17 22 21 23 18 24 20 25
REMARK SMILES IDX 19 26 22 27 24 28 23 29 25 30 26 31 30 32 27 33 29 34 28 35
REMARK H PARENT 11 7 14 18 14 19
ROOT
ATOM     1   C11 UNL     1      -0.139  -0.677  -1.086  1.00  0.00     0.117 C   
ENDROOT
BRANCH   1   2
ATOM     2   C10 UNL     1       0.091   0.608  -0.364  1.00  0.00     0.127 A   
ATOM     3   N2  UNL     1       0.769   2.287   0.831  1.00  0.00    -0.203 N   
ATOM     4   C9  UNL     1       1.158   1.055   0.377  1.00  0.00     0.046 A   
ATOM     5   N5  UNL     1      -0.477   2.572   0.388  1.00  0.00    -0.075 NA  
ATOM     6   N4  UNL     1      -0.907   1.544  -0.326  1.00  0.00    -0.132 NA  
ATOM     7   H9  UNL     1       2.124   0.628   0.605  1.00  0.00     0.083 HD  
BRANCH   3   8
ATOM     8   C8  UNL     1       1.496   3.279   1.609  1.00  0.00     0.149 C   
ATOM     9   C1  UNL     1       4.737   1.657   3.759  1.00  0.00     0.020 A   
ATOM     10  C2  UNL     1       4.869   1.922   2.397  1.00  0.00     0.111 A   
ATOM     11  C5  UNL     1       3.524   1.935   4.389  1.00  0.00     0.007 A   
ATOM     12  N1  UNL     1       3.882   2.435   1.623  1.00  0.00    -0.259 NA  
ATOM     13  C4  UNL     1       2.515   2.483   3.623  1.00  0.00    -0.024 A   
ATOM     14  C3  UNL     1       2.732   2.710   2.268  1.00  0.00     0.066 A   
ATOM     15  C6  UNL     1       1.128   2.861   4.021  1.00  0.00     0.040 C   
ATOM     16  C7  UNL     1       0.726   3.778   2.854  1.00  0.00     0.036 C   
ENDBRANCH   3   8
ENDBRANCH   1   2
BRANCH   1  17
ATOM     17  N3  UNL     1      -1.603  -1.045  -1.007  1.00  0.00     0.249 N   
ATOM     18  H11 UNL     1      -2.100  -0.165  -0.786  1.00  0.00     0.199 HD  
ATOM     19  H12 UNL     1      -1.964  -1.336  -1.921  1.00  0.00     0.199 HD  
BRANCH  17  20
ATOM     20  C12 UNL     1      -1.965  -2.062   0.018  1.00  0.00     0.164 C   
BRANCH  20  21
ATOM     21  C13 UNL     1      -1.681  -1.643   1.435  1.00  0.00    -0.002 A   
ATOM     22  C14 UNL     1      -0.678  -2.302   2.188  1.00  0.00     0.012 A   
ATOM     23  C18 UNL     1      -2.405  -0.593   2.027  1.00  0.00     0.045 A   
ATOM     24  C15 UNL     1      -0.406  -1.935   3.513  1.00  0.00     0.037 A   
ATOM     25  C17 UNL     1      -2.111  -0.255   3.334  1.00  0.00     0.109 A   
ATOM     26  C16 UNL     1      -1.143  -0.909   4.057  1.00  0.00     0.108 A   
ATOM     27  O1  UNL     1      -2.718   0.727   4.050  1.00  0.00    -0.316 OA  
ATOM     28  O2  UNL     1      -1.025  -0.430   5.323  1.00  0.00    -0.316 OA  
ATOM     29  C19 UNL     1      -2.049   0.591   5.325  1.00  0.00     0.337 C   
ENDBRANCH  20  21
ENDBRANCH  17  20
ENDBRANCH   1  17
BRANCH   1  30
ATOM     30  C20 UNL     1       0.342  -0.632  -2.561  1.00  0.00     0.043 C   
ATOM     31  C21 UNL     1      -0.438   0.349  -3.459  1.00  0.00     0.010 C   
ATOM     32  C25 UNL     1       0.347  -2.042  -3.186  1.00  0.00     0.010 C   
ATOM     33  C22 UNL     1       0.109   0.358  -4.888  1.00  0.00     0.001 C   
ATOM     34  C24 UNL     1       0.889  -2.027  -4.613  1.00  0.00     0.001 C   
ATOM     35  C23 UNL     1       0.135  -1.039  -5.499  1.00  0.00     0.000 C   
ENDBRANCH   1  30
TORSDOF 6
