REMARK SMILES CS(=O)(=O)c1cccc(-n2cc([C@@H]([NH2+]Cc3ccc4c(c3)OCO4)C3CCCCC3)nn2)c1
REMARK SMILES IDX 10 1 11 2 12 3 31 4 32 5 9 6 5 7 6 8 33 9 7 10 8 11 2 12
REMARK SMILES IDX 1 13 3 14 4 15 13 16 14 17 15 20 16 21 17 22 21 23 18 24
REMARK SMILES IDX 20 25 19 26 22 27 24 28 23 29 25 30 26 31 30 32 27 33 29 34
REMARK SMILES IDX 28 35
REMARK H PARENT 14 18 14 19
ROOT
ATOM     1   N1  UNL     1      -1.311  -3.093   0.650  1.00  0.00    -0.180 N   
ATOM     2   C7  UNL     1      -0.452  -2.100   0.219  1.00  0.00     0.135 A   
ATOM     3   C8  UNL     1      -1.194  -0.940   0.262  1.00  0.00     0.127 A   
ATOM     4   N3  UNL     1      -2.460  -1.236   0.684  1.00  0.00    -0.131 NA  
ATOM     5   N4  UNL     1      -2.525  -2.538   0.905  1.00  0.00    -0.071 NA  
ENDROOT
BRANCH   1   6
ATOM     6   C6  UNL     1      -1.064  -4.479   0.821  1.00  0.00     0.069 A   
ATOM     7   C2  UNL     1       0.410  -6.395   0.734  1.00  0.00     0.308 A   
ATOM     8   C3  UNL     1      -0.600  -7.221   1.229  1.00  0.00     0.134 A   
ATOM     9   C24 UNL     1       0.193  -5.026   0.533  1.00  0.00     0.160 A   
ATOM     10  C4  UNL     1      -1.853  -6.676   1.503  1.00  0.00     0.014 A   
ATOM     11  C5  UNL     1      -2.088  -5.313   1.299  1.00  0.00     0.027 A   
BRANCH   7  12
ATOM     12  S1  UNL     1       2.017  -7.088   0.401  1.00  0.00    -0.239 S   
ATOM     13  C1  UNL     1       1.729  -8.253  -0.907  1.00  0.00     0.674 C   
ATOM     14  O1  UNL     1       2.414  -7.806   1.595  1.00  0.00    -0.517 OA  
ATOM     15  O2  UNL     1       2.832  -6.013  -0.137  1.00  0.00    -0.517 OA  
ENDBRANCH   7  12
ENDBRANCH   1   6
BRANCH   3  16
ATOM     16  C9  UNL     1      -0.836   0.476  -0.074  1.00  0.00     0.117 C   
BRANCH  16  17
ATOM     17  N2  UNL     1      -2.087   1.289  -0.308  1.00  0.00     0.249 N   
ATOM     18  H9  UNL     1      -2.763   0.988   0.410  1.00  0.00     0.199 HD  
ATOM     19  H10 UNL     1      -1.917   2.286  -0.153  1.00  0.00     0.199 HD  
BRANCH  17  20
ATOM     20  C10 UNL     1      -2.744   1.109  -1.636  1.00  0.00     0.164 C   
BRANCH  20  21
ATOM     21  C11 UNL     1      -1.969   1.750  -2.755  1.00  0.00    -0.002 A   
ATOM     22  C12 UNL     1      -1.313   0.950  -3.721  1.00  0.00     0.012 A   
ATOM     23  C16 UNL     1      -1.872   3.151  -2.838  1.00  0.00     0.045 A   
ATOM     24  C13 UNL     1      -0.565   1.532  -4.750  1.00  0.00     0.037 A   
ATOM     25  C15 UNL     1      -1.125   3.692  -3.864  1.00  0.00     0.109 A   
ATOM     26  C14 UNL     1      -0.490   2.907  -4.793  1.00  0.00     0.108 A   
ATOM     27  O3  UNL     1      -0.927   5.019  -4.082  1.00  0.00    -0.316 OA  
ATOM     28  O4  UNL     1       0.187   3.639  -5.715  1.00  0.00    -0.316 OA  
ATOM     29  C17 UNL     1      -0.120   4.982  -5.282  1.00  0.00     0.337 C   
ENDBRANCH  20  21
ENDBRANCH  17  20
ENDBRANCH  16  17
BRANCH  16  30
ATOM     30  C18 UNL     1       0.037   1.136   1.028  1.00  0.00     0.043 C   
ATOM     31  C19 UNL     1      -0.709   1.380   2.355  1.00  0.00     0.010 C   
ATOM     32  C23 UNL     1       0.686   2.444   0.530  1.00  0.00     0.010 C   
ATOM     33  C20 UNL     1       0.208   2.001   3.408  1.00  0.00     0.001 C   
ATOM     34  C22 UNL     1       1.597   3.060   1.591  1.00  0.00     0.001 C   
ATOM     35  C21 UNL     1       0.856   3.285   2.905  1.00  0.00     0.000 C   
ENDBRANCH  16  30
ENDBRANCH   3  16
TORSDOF 7
