REMARK SMILES Cc1n[nH]c(C2CC2)c1Cn1cc([C@@H]([NH2+]Cc2ccc3c(c2)OCO3)C(C)C)nn1
REMARK SMILES IDX 11 1 12 2 13 3 29 4 30 5 10 7 9 8 2 9 3 10 4 11 5 12 1 13
REMARK SMILES IDX 6 15 7 16 8 17 14 18 15 19 16 22 17 23 18 24 22 25 19 26
REMARK SMILES IDX 21 27 20 28 23 29 25 30 24 31 26 32 27 33 28 34
REMARK H PARENT 12 6 4 14 15 20 15 21
ROOT
ATOM     1   N3  UNL     1      -1.558  -0.882   2.274  1.00  0.00    -0.208 N   
ATOM     2   C9  UNL     1      -0.944  -1.105   1.072  1.00  0.00     0.046 A   
ATOM     3   C10 UNL     1       0.377  -0.801   1.313  1.00  0.00     0.127 A   
ATOM     4   N5  UNL     1       0.530  -0.466   2.633  1.00  0.00    -0.132 NA  
ATOM     5   N6  UNL     1      -0.656  -0.531   3.215  1.00  0.00    -0.076 NA  
ATOM     6   H12 UNL     1      -1.498  -1.372   0.181  1.00  0.00     0.083 HD  
ENDROOT
BRANCH   1   7
ATOM     7   C8  UNL     1      -2.986  -0.867   2.559  1.00  0.00     0.173 C   
BRANCH   7   8
ATOM     8   C7  UNL     1      -3.585   0.387   2.017  1.00  0.00     0.013 A   
ATOM     9   C2  UNL     1      -3.468   1.709   2.556  1.00  0.00     0.062 A   
ATOM     10  N1  UNL     1      -4.046   2.626   1.770  1.00  0.00    -0.189 NA  
ATOM     11  N2  UNL     1      -4.605   1.902   0.786  1.00  0.00    -0.242 N   
ATOM     12  C3  UNL     1      -4.340   0.564   0.878  1.00  0.00     0.035 A   
ATOM     13  C1  UNL     1      -2.775   2.145   3.795  1.00  0.00     0.069 C   
ATOM     14  H4  UNL     1      -5.143   2.388   0.074  1.00  0.00     0.175 HD  
BRANCH  12  15
ATOM     15  C4  UNL     1      -4.778  -0.507  -0.149  1.00  0.00     0.036 C   
ATOM     16  C5  UNL     1      -5.599  -1.681   0.318  1.00  0.00     0.010 C   
ATOM     17  C6  UNL     1      -6.234  -0.614  -0.522  1.00  0.00     0.010 C   
ENDBRANCH  12  15
ENDBRANCH   7   8
ENDBRANCH   1   7
BRANCH   3  18
ATOM     18  C11 UNL     1       1.532  -0.681   0.372  1.00  0.00     0.117 C   
BRANCH  18  19
ATOM     19  N4  UNL     1       2.348   0.559   0.672  1.00  0.00     0.249 N   
ATOM     20  H14 UNL     1       3.178   0.592   0.076  1.00  0.00     0.199 HD  
ATOM     21  H15 UNL     1       2.664   0.473   1.646  1.00  0.00     0.199 HD  
BRANCH  19  22
ATOM     22  C12 UNL     1       1.633   1.872   0.579  1.00  0.00     0.164 C   
BRANCH  22  23
ATOM     23  C13 UNL     1       0.987   2.121  -0.754  1.00  0.00    -0.002 A   
ATOM     24  C14 UNL     1       1.780   2.317  -1.910  1.00  0.00     0.012 A   
ATOM     25  C18 UNL     1      -0.416   2.143  -0.860  1.00  0.00     0.045 A   
ATOM     26  C15 UNL     1       1.183   2.523  -3.159  1.00  0.00     0.037 A   
ATOM     27  C17 UNL     1      -0.971   2.340  -2.107  1.00  0.00     0.109 A   
ATOM     28  C16 UNL     1      -0.194   2.526  -3.224  1.00  0.00     0.108 A   
ATOM     29  O1  UNL     1      -2.302   2.363  -2.390  1.00  0.00    -0.316 OA  
ATOM     30  O2  UNL     1      -0.936   2.702  -4.350  1.00  0.00    -0.316 OA  
ATOM     31  C19 UNL     1      -2.275   2.612  -3.814  1.00  0.00     0.337 C   
ENDBRANCH  22  23
ENDBRANCH  19  22
ENDBRANCH  18  19
BRANCH  18  32
ATOM     32  C20 UNL     1       2.436  -1.943   0.379  1.00  0.00     0.037 C   
ATOM     33  C21 UNL     1       3.258  -2.131   1.659  1.00  0.00     0.014 C   
ATOM     34  C22 UNL     1       3.376  -1.971  -0.835  1.00  0.00     0.014 C   
ENDBRANCH  18  32
ENDBRANCH   3  18
TORSDOF 8
