REMARK SMILES Cc1ccccc1CCn1cc([C@@H]([NH2+]Cc2ccc3c(c2)OCO3)C(C)C)nn1
REMARK SMILES IDX 10 1 11 2 12 3 28 4 29 5 9 7 8 8 7 9 2 10 3 11 4 12 6 13
REMARK SMILES IDX 5 14 1 15 13 16 14 17 15 20 16 21 17 22 21 23 18 24 20 25
REMARK SMILES IDX 19 26 22 27 24 28 23 29 25 30 26 31 27 32
REMARK H PARENT 11 6 14 18 14 19
ROOT
ATOM     1   N1  UNL     1       1.137  -1.605  -1.784  1.00  0.00    -0.212 N   
ATOM     2   C10 UNL     1       1.313  -0.515  -0.980  1.00  0.00     0.045 A   
ATOM     3   C11 UNL     1       0.938  -0.960   0.267  1.00  0.00     0.127 A   
ATOM     4   N3  UNL     1       0.573  -2.280   0.183  1.00  0.00    -0.132 NA  
ATOM     5   N4  UNL     1       0.706  -2.664  -1.076  1.00  0.00    -0.076 NA  
ATOM     6   H12 UNL     1       1.636   0.443  -1.363  1.00  0.00     0.083 HD  
ENDROOT
BRANCH   1   7
ATOM     7   C9  UNL     1       1.317  -1.693  -3.218  1.00  0.00     0.139 C   
BRANCH   7   8
ATOM     8   C8  UNL     1      -0.004  -1.646  -3.991  1.00  0.00     0.057 C   
BRANCH   8   9
ATOM     9   C7  UNL     1      -0.800  -0.375  -3.758  1.00  0.00    -0.043 A   
ATOM     10  C2  UNL     1      -2.050  -0.370  -3.102  1.00  0.00    -0.048 A   
ATOM     11  C3  UNL     1      -2.723   0.850  -2.919  1.00  0.00     0.004 A   
ATOM     12  C4  UNL     1      -2.169   2.050  -3.364  1.00  0.00     0.000 A   
ATOM     13  C6  UNL     1      -0.267   0.844  -4.218  1.00  0.00     0.004 A   
ATOM     14  C5  UNL     1      -0.942   2.046  -4.015  1.00  0.00     0.000 A   
ATOM     15  C1  UNL     1      -2.710  -1.633  -2.618  1.00  0.00     0.044 C   
ENDBRANCH   8   9
ENDBRANCH   7   8
ENDBRANCH   1   7
BRANCH   3  16
ATOM     16  C12 UNL     1       0.804  -0.235   1.565  1.00  0.00     0.117 C   
BRANCH  16  17
ATOM     17  N2  UNL     1      -0.384  -0.761   2.336  1.00  0.00     0.249 N   
ATOM     18  H14 UNL     1      -0.358  -0.446   3.308  1.00  0.00     0.199 HD  
ATOM     19  H15 UNL     1      -0.289  -1.786   2.339  1.00  0.00     0.199 HD  
BRANCH  17  20
ATOM     20  C13 UNL     1      -1.727  -0.452   1.758  1.00  0.00     0.164 C   
BRANCH  20  21
ATOM     21  C14 UNL     1      -2.088   1.003   1.870  1.00  0.00    -0.002 A   
ATOM     22  C15 UNL     1      -2.515   1.544   3.107  1.00  0.00     0.012 A   
ATOM     23  C19 UNL     1      -1.974   1.845   0.750  1.00  0.00     0.045 A   
ATOM     24  C16 UNL     1      -2.824   2.903   3.227  1.00  0.00     0.037 A   
ATOM     25  C18 UNL     1      -2.287   3.180   0.902  1.00  0.00     0.109 A   
ATOM     26  C17 UNL     1      -2.699   3.694   2.107  1.00  0.00     0.108 A   
ATOM     27  O1  UNL     1      -2.226   4.123  -0.073  1.00  0.00    -0.316 OA  
ATOM     28  O2  UNL     1      -2.952   5.027   2.041  1.00  0.00    -0.316 OA  
ATOM     29  C20 UNL     1      -2.676   5.293   0.649  1.00  0.00     0.337 C   
ENDBRANCH  20  21
ENDBRANCH  17  20
ENDBRANCH  16  17
BRANCH  16  30
ATOM     30  C21 UNL     1       2.091  -0.323   2.428  1.00  0.00     0.037 C   
ATOM     31  C22 UNL     1       2.065   0.691   3.580  1.00  0.00     0.014 C   
ATOM     32  C23 UNL     1       2.385  -1.721   2.982  1.00  0.00     0.014 C   
ENDBRANCH  16  30
ENDBRANCH   3  16
TORSDOF 8
