REMARK SMILES COc1cc(CCn2cc([C@@H]([NH2+]Cc3ccc4c(c3)OCO4)C(C)C)nn2)ccn1
REMARK SMILES IDX 8 1 9 2 10 3 26 4 27 5 7 7 6 8 5 9 3 10 4 11 30 12 29 13
REMARK SMILES IDX 28 14 2 15 1 16 11 17 12 18 13 21 14 22 15 23 19 24 16 25
REMARK SMILES IDX 18 26 17 27 20 28 22 29 21 30 23 31 24 32 25 33
REMARK H PARENT 9 6 12 19 12 20
ROOT
ATOM     1   N1  UNL     1      -2.023  -0.504   2.611  1.00  0.00    -0.212 N   
ATOM     2   C7  UNL     1      -2.559  -0.256   1.378  1.00  0.00     0.045 A   
ATOM     3   C8  UNL     1      -2.061  -1.270   0.591  1.00  0.00     0.127 A   
ATOM     4   N3  UNL     1      -1.285  -2.099   1.362  1.00  0.00    -0.132 NA  
ATOM     5   N4  UNL     1      -1.279  -1.625   2.597  1.00  0.00    -0.076 NA  
ATOM     6   H9  UNL     1      -3.171   0.612   1.173  1.00  0.00     0.083 HD  
ENDROOT
BRANCH   1   7
ATOM     7   C6  UNL     1      -2.063   0.345   3.784  1.00  0.00     0.139 C   
BRANCH   7   8
ATOM     8   C5  UNL     1      -0.717   1.013   4.090  1.00  0.00     0.057 C   
BRANCH   8   9
ATOM     9   C4  UNL     1      -0.192   1.829   2.932  1.00  0.00    -0.041 A   
ATOM     10  C2  UNL     1       1.145   2.020   0.950  1.00  0.00     0.166 A   
ATOM     11  C3  UNL     1       0.740   1.276   2.047  1.00  0.00     0.058 A   
ATOM     12  N5  UNL     1       0.673   3.250   0.665  1.00  0.00    -0.233 NA  
ATOM     13  C22 UNL     1      -0.195   3.784   1.552  1.00  0.00     0.114 A   
ATOM     14  C21 UNL     1      -0.659   3.120   2.681  1.00  0.00     0.024 A   
BRANCH  10  15
ATOM     15  O1  UNL     1       2.004   1.398   0.066  1.00  0.00    -0.333 OA  
ATOM     16  C1  UNL     1       2.709   2.336  -0.743  1.00  0.00     0.205 C   
ENDBRANCH  10  15
ENDBRANCH   8   9
ENDBRANCH   7   8
ENDBRANCH   1   7
BRANCH   3  17
ATOM     17  C9  UNL     1      -2.163  -1.511  -0.881  1.00  0.00     0.117 C   
BRANCH  17  18
ATOM     18  N2  UNL     1      -0.859  -2.047  -1.410  1.00  0.00     0.249 N   
ATOM     19  H11 UNL     1      -0.964  -2.488  -2.327  1.00  0.00     0.199 HD  
ATOM     20  H12 UNL     1      -0.556  -2.793  -0.766  1.00  0.00     0.199 HD  
BRANCH  18  21
ATOM     21  C10 UNL     1       0.249  -1.049  -1.470  1.00  0.00     0.164 C   
BRANCH  21  22
ATOM     22  C11 UNL     1       1.498  -1.676  -2.023  1.00  0.00    -0.002 A   
ATOM     23  C12 UNL     1       1.707  -1.743  -3.422  1.00  0.00     0.012 A   
ATOM     24  C16 UNL     1       2.449  -2.235  -1.151  1.00  0.00     0.045 A   
ATOM     25  C13 UNL     1       2.855  -2.345  -3.948  1.00  0.00     0.037 A   
ATOM     26  C15 UNL     1       3.570  -2.821  -1.702  1.00  0.00     0.109 A   
ATOM     27  C14 UNL     1       3.767  -2.873  -3.061  1.00  0.00     0.108 A   
ATOM     28  O2  UNL     1       4.590  -3.389  -1.006  1.00  0.00    -0.316 OA  
ATOM     29  O3  UNL     1       4.936  -3.481  -3.392  1.00  0.00    -0.316 OA  
ATOM     30  C17 UNL     1       5.471  -3.777  -2.082  1.00  0.00     0.337 C   
ENDBRANCH  21  22
ENDBRANCH  18  21
ENDBRANCH  17  18
BRANCH  17  31
ATOM     31  C18 UNL     1      -3.334  -2.461  -1.248  1.00  0.00     0.037 C   
ATOM     32  C19 UNL     1      -3.152  -3.901  -0.754  1.00  0.00     0.014 C   
ATOM     33  C20 UNL     1      -3.610  -2.466  -2.756  1.00  0.00     0.014 C   
ENDBRANCH  17  31
ENDBRANCH   3  17
TORSDOF 9
