REMARK SMILES [O-]N([O-])c1ccccc1Cn1cc([C@@H]([NH2+]Cc2ccc3c(c2)OCO3)C2CCCCC2)nn1
REMARK SMILES IDX 11 1 12 2 13 3 32 4 33 5 10 7 9 8 4 9 5 10 6 11 8 12 7 13
REMARK SMILES IDX 2 14 1 15 3 16 14 17 15 18 16 21 17 22 18 23 22 24 19 25
REMARK SMILES IDX 21 26 20 27 23 28 25 29 24 30 26 31 27 32 31 33 28 34 30 35
REMARK SMILES IDX 29 36
REMARK H PARENT 12 6 15 19 15 20
ROOT
ATOM     1   N2  UNL     1      -2.411   0.589  -1.937  1.00  0.00    -0.208 N   
ATOM     2   C8  UNL     1      -1.626  -0.313  -1.272  1.00  0.00     0.046 A   
ATOM     3   C9  UNL     1      -1.508   0.213  -0.007  1.00  0.00     0.127 A   
ATOM     4   N4  UNL     1      -2.244   1.368   0.070  1.00  0.00    -0.132 NA  
ATOM     5   N5  UNL     1      -2.806   1.577  -1.109  1.00  0.00    -0.076 NA  
ATOM     6   H7  UNL     1      -1.209  -1.187  -1.756  1.00  0.00     0.083 HD  
ENDROOT
BRANCH   1   7
ATOM     7   C7  UNL     1      -2.865   0.537  -3.319  1.00  0.00     0.171 C   
BRANCH   7   8
ATOM     8   C6  UNL     1      -2.418   1.734  -4.130  1.00  0.00     0.000 A   
ATOM     9   C1  UNL     1      -1.223   1.786  -4.879  1.00  0.00     0.122 A   
ATOM     10  C2  UNL     1      -0.881   2.908  -5.651  1.00  0.00     0.031 A   
ATOM     11  C3  UNL     1      -1.728   4.012  -5.668  1.00  0.00     0.002 A   
ATOM     12  C5  UNL     1      -3.248   2.872  -4.162  1.00  0.00     0.007 A   
ATOM     13  C4  UNL     1      -2.905   3.996  -4.921  1.00  0.00     0.000 A   
BRANCH   9  14
ATOM     14  N1  UNL     1      -0.280   0.674  -4.881  1.00  0.00     0.092 N   
ATOM     15  O1  UNL     1       0.091   0.243  -5.976  1.00  0.00    -0.138 OA  
ATOM     16  O2  UNL     1       0.078   0.235  -3.778  1.00  0.00    -0.138 OA  
ENDBRANCH   9  14
ENDBRANCH   7   8
ENDBRANCH   1   7
BRANCH   3  17
ATOM     17  C10 UNL     1      -0.699  -0.231   1.169  1.00  0.00     0.117 C   
BRANCH  17  18
ATOM     18  N3  UNL     1      -0.241   0.969   1.964  1.00  0.00     0.249 N   
ATOM     19  H9  UNL     1       0.051   0.699   2.905  1.00  0.00     0.199 HD  
ATOM     20  H10 UNL     1      -1.067   1.577   2.062  1.00  0.00     0.199 HD  
BRANCH  18  21
ATOM     21  C11 UNL     1       0.836   1.794   1.338  1.00  0.00     0.164 C   
BRANCH  21  22
ATOM     22  C12 UNL     1       2.165   1.092   1.321  1.00  0.00    -0.002 A   
ATOM     23  C13 UNL     1       2.909   0.939   2.517  1.00  0.00     0.012 A   
ATOM     24  C17 UNL     1       2.664   0.552   0.122  1.00  0.00     0.045 A   
ATOM     25  C14 UNL     1       4.128   0.251   2.521  1.00  0.00     0.037 A   
ATOM     26  C16 UNL     1       3.867  -0.121   0.163  1.00  0.00     0.109 A   
ATOM     27  C15 UNL     1       4.578  -0.269   1.328  1.00  0.00     0.108 A   
ATOM     28  O3  UNL     1       4.481  -0.706  -0.898  1.00  0.00    -0.316 OA  
ATOM     29  O4  UNL     1       5.730  -0.965   1.147  1.00  0.00    -0.316 OA  
ATOM     30  C18 UNL     1       5.679  -1.221  -0.274  1.00  0.00     0.337 C   
ENDBRANCH  21  22
ENDBRANCH  18  21
ENDBRANCH  17  18
BRANCH  17  31
ATOM     31  C19 UNL     1      -1.474  -1.223   2.079  1.00  0.00     0.043 C   
ATOM     32  C20 UNL     1      -0.530  -1.940   3.067  1.00  0.00     0.010 C   
ATOM     33  C24 UNL     1      -2.657  -0.591   2.839  1.00  0.00     0.010 C   
ATOM     34  C21 UNL     1      -1.274  -2.968   3.917  1.00  0.00     0.001 C   
ATOM     35  C23 UNL     1      -3.395  -1.625   3.690  1.00  0.00     0.001 C   
ATOM     36  C22 UNL     1      -2.453  -2.341   4.652  1.00  0.00     0.000 C   
ENDBRANCH  17  31
ENDBRANCH   3  17
TORSDOF 8
