REMARK SMILES Cc1cc(Cn2cc([C@H](CC(C)C)[NH2+]Cc3ccc4c(c3)OCO4)nn2)ccc1N([O-])[O-]
REMARK SMILES IDX 6 1 7 2 8 3 25 4 26 5 5 7 4 8 2 9 3 10 29 11 28 12 27 13
REMARK SMILES IDX 1 14 30 15 31 16 32 17 9 18 10 19 11 20 12 21 13 22 14 23
REMARK SMILES IDX 15 26 16 27 17 28 21 29 18 30 20 31 19 32 22 33 24 34 23 35
REMARK H PARENT 7 6 14 24 14 25
ROOT
ATOM     1   N1  UNL     1      -1.613  -1.964   1.905  1.00  0.00    -0.208 N   
ATOM     2   C6  UNL     1      -0.420  -1.385   1.565  1.00  0.00     0.046 A   
ATOM     3   C7  UNL     1      -0.316  -0.312   2.422  1.00  0.00     0.127 A   
ATOM     4   N3  UNL     1      -1.392  -0.306   3.269  1.00  0.00    -0.132 NA  
ATOM     5   N4  UNL     1      -2.185  -1.312   2.935  1.00  0.00    -0.076 NA  
ATOM     6   H7  UNL     1       0.184  -1.740   0.742  1.00  0.00     0.083 HD  
ENDROOT
BRANCH   1   7
ATOM     7   C5  UNL     1      -2.312  -3.041   1.220  1.00  0.00     0.169 C   
BRANCH   7   8
ATOM     8   C4  UNL     1      -2.778  -2.574  -0.141  1.00  0.00    -0.028 A   
ATOM     9   C2  UNL     1      -2.420  -2.427  -2.563  1.00  0.00    -0.022 A   
ATOM     10  C3  UNL     1      -2.060  -2.926  -1.299  1.00  0.00     0.011 A   
ATOM     11  C23 UNL     1      -3.540  -1.581  -2.640  1.00  0.00     0.121 A   
ATOM     12  C22 UNL     1      -4.276  -1.232  -1.498  1.00  0.00     0.032 A   
ATOM     13  C21 UNL     1      -3.893  -1.730  -0.254  1.00  0.00     0.007 A   
ATOM     14  C1  UNL     1      -1.605  -2.823  -3.764  1.00  0.00     0.046 C   
BRANCH  11  15
ATOM     15  N5  UNL     1      -3.963  -1.001  -3.911  1.00  0.00     0.092 N   
ATOM     16  O3  UNL     1      -4.160   0.222  -3.930  1.00  0.00    -0.138 OA  
ATOM     17  O4  UNL     1      -4.101  -1.765  -4.873  1.00  0.00    -0.138 OA  
ENDBRANCH  11  15
ENDBRANCH   7   8
ENDBRANCH   1   7
BRANCH   3  18
ATOM     18  C8  UNL     1       0.676   0.800   2.466  1.00  0.00     0.114 C   
BRANCH  18  19
ATOM     19  C9  UNL     1       1.707   0.632   3.600  1.00  0.00     0.064 C   
BRANCH  19  20
ATOM     20  C10 UNL     1       2.613  -0.613   3.487  1.00  0.00    -0.012 C   
ATOM     21  C11 UNL     1       3.532  -0.694   4.709  1.00  0.00     0.007 C   
ATOM     22  C12 UNL     1       3.455  -0.608   2.210  1.00  0.00     0.007 C   
ENDBRANCH  19  20
ENDBRANCH  18  19
BRANCH  18  23
ATOM     23  N2  UNL     1      -0.011   2.135   2.697  1.00  0.00     0.249 N   
ATOM     24  H18 UNL     1      -0.475   2.071   3.613  1.00  0.00     0.199 HD  
ATOM     25  H19 UNL     1       0.693   2.875   2.760  1.00  0.00     0.199 HD  
BRANCH  23  26
ATOM     26  C13 UNL     1      -1.061   2.540   1.710  1.00  0.00     0.164 C   
BRANCH  26  27
ATOM     27  C14 UNL     1      -0.592   2.552   0.283  1.00  0.00    -0.002 A   
ATOM     28  C15 UNL     1       0.318   3.537  -0.172  1.00  0.00     0.012 A   
ATOM     29  C19 UNL     1      -1.049   1.568  -0.612  1.00  0.00     0.045 A   
ATOM     30  C16 UNL     1       0.766   3.540  -1.498  1.00  0.00     0.037 A   
ATOM     31  C18 UNL     1      -0.586   1.598  -1.910  1.00  0.00     0.109 A   
ATOM     32  C17 UNL     1       0.295   2.558  -2.341  1.00  0.00     0.108 A   
ATOM     33  O1  UNL     1      -0.922   0.721  -2.892  1.00  0.00    -0.316 OA  
ATOM     34  O2  UNL     1       0.617   2.412  -3.653  1.00  0.00    -0.316 OA  
ATOM     35  C20 UNL     1      -0.220   1.294  -4.019  1.00  0.00     0.337 C   
ENDBRANCH  26  27
ENDBRANCH  23  26
ENDBRANCH  18  23
ENDBRANCH   3  18
TORSDOF 9
