REMARK SMILES CC(C)[C@H]([NH2+]Cc1ccc2c(c1)OCO2)c1cn(Cc2cc(F)cc(F)c2)nn1
REMARK SMILES IDX 16 1 17 2 18 3 28 4 29 5 4 7 2 8 1 9 3 10 5 11 6 14 7 15
REMARK SMILES IDX 8 16 12 17 9 18 11 19 10 20 13 21 15 22 14 23 19 24 20 25
REMARK SMILES IDX 21 26 27 27 22 28 25 29 24 30 23 31 26 32
REMARK H PARENT 17 6 5 12 5 13
ROOT
ATOM     1   C13 UNL     1      -1.259  -0.908   0.505  1.00  0.00     0.127 A   
ATOM     2   C14 UNL     1      -0.942  -1.815   1.494  1.00  0.00     0.046 A   
ATOM     3   N2  UNL     1      -0.309  -2.827   0.825  1.00  0.00    -0.208 N   
ATOM     4   N3  UNL     1      -0.240  -2.561  -0.494  1.00  0.00    -0.076 NA  
ATOM     5   N4  UNL     1      -0.827  -1.394  -0.703  1.00  0.00    -0.132 NA  
ATOM     6   H18 UNL     1      -1.092  -1.833   2.565  1.00  0.00     0.083 HD  
ENDROOT
BRANCH   1   7
ATOM     7   C4  UNL     1      -1.933   0.428   0.564  1.00  0.00     0.117 C   
BRANCH   7   8
ATOM     8   C2  UNL     1      -3.469   0.300   0.747  1.00  0.00     0.037 C   
ATOM     9   C1  UNL     1      -4.191  -0.289  -0.471  1.00  0.00     0.014 C   
ATOM     10  C3  UNL     1      -4.107   1.641   1.130  1.00  0.00     0.014 C   
ENDBRANCH   7   8
BRANCH   7  11
ATOM     11  N1  UNL     1      -1.621   1.228  -0.671  1.00  0.00     0.249 N   
ATOM     12  H9  UNL     1      -1.688   0.578  -1.470  1.00  0.00     0.199 HD  
ATOM     13  H10 UNL     1      -2.312   1.964  -0.844  1.00  0.00     0.199 HD  
BRANCH  11  14
ATOM     14  C5  UNL     1      -0.258   1.828  -0.717  1.00  0.00     0.164 C   
BRANCH  14  15
ATOM     15  C6  UNL     1      -0.035   2.505  -2.039  1.00  0.00    -0.002 A   
ATOM     16  C7  UNL     1       0.478   1.769  -3.135  1.00  0.00     0.012 A   
ATOM     17  C11 UNL     1      -0.392   3.852  -2.216  1.00  0.00     0.045 A   
ATOM     18  C8  UNL     1       0.642   2.368  -4.388  1.00  0.00     0.037 A   
ATOM     19  C10 UNL     1      -0.219   4.411  -3.465  1.00  0.00     0.109 A   
ATOM     20  C9  UNL     1       0.282   3.691  -4.521  1.00  0.00     0.108 A   
ATOM     21  O1  UNL     1      -0.516   5.692  -3.804  1.00  0.00    -0.316 OA  
ATOM     22  O2  UNL     1       0.367   4.428  -5.658  1.00  0.00    -0.316 OA  
ATOM     23  C12 UNL     1      -0.121   5.706  -5.196  1.00  0.00     0.337 C   
ENDBRANCH  14  15
ENDBRANCH  11  14
ENDBRANCH   7  11
ENDBRANCH   1   7
BRANCH   3  24
ATOM     24  C15 UNL     1       0.251  -4.055   1.365  1.00  0.00     0.169 C   
BRANCH  24  25
ATOM     25  C16 UNL     1       1.541  -3.787   2.099  1.00  0.00    -0.023 A   
ATOM     26  C17 UNL     1       2.709  -3.454   1.395  1.00  0.00     0.045 A   
ATOM     27  C21 UNL     1       1.598  -3.853   3.499  1.00  0.00     0.045 A   
ATOM     28  C18 UNL     1       3.893  -3.190   2.084  1.00  0.00     0.126 A   
ATOM     29  C20 UNL     1       2.795  -3.587   4.164  1.00  0.00     0.126 A   
ATOM     30  C19 UNL     1       3.947  -3.253   3.468  1.00  0.00     0.078 A   
ATOM     31  F1  UNL     1       4.991  -2.860   1.393  1.00  0.00    -0.207 F   
ATOM     32  F2  UNL     1       2.825  -3.647   5.501  1.00  0.00    -0.207 F   
ENDBRANCH  24  25
ENDBRANCH   3  24
TORSDOF 7
