REMARK SMILES CC(C)n1cc(CCn2cc([C@@H]([NH2+]Cc3ccc4c(c3)OCO4)C3CCCCC3)nn2)cn1
REMARK SMILES IDX 9 1 10 2 11 3 30 4 31 5 8 7 7 8 6 9 4 10 5 11 33 12 32 13
REMARK SMILES IDX 2 14 1 15 3 16 12 17 13 18 14 21 15 22 16 23 20 24 17 25
REMARK SMILES IDX 19 26 18 27 21 28 23 29 22 30 24 31 25 32 29 33 26 34 28 35
REMARK SMILES IDX 27 36
REMARK H PARENT 10 6 13 19 13 20
ROOT
ATOM     1   N2  UNL     1      -1.378   3.950  -1.204  1.00  0.00    -0.212 N   
ATOM     2   C8  UNL     1      -0.961   3.097  -0.215  1.00  0.00     0.045 A   
ATOM     3   C9  UNL     1      -1.973   2.162  -0.143  1.00  0.00     0.127 A   
ATOM     4   N4  UNL     1      -3.002   2.560  -0.954  1.00  0.00    -0.132 NA  
ATOM     5   N5  UNL     1      -2.632   3.662  -1.587  1.00  0.00    -0.076 NA  
ATOM     6   H13 UNL     1       0.032   3.155   0.207  1.00  0.00     0.083 HD  
ENDROOT
BRANCH   1   7
ATOM     7   C7  UNL     1      -0.533   4.785  -2.042  1.00  0.00     0.139 C   
BRANCH   7   8
ATOM     8   C6  UNL     1      -0.102   4.059  -3.331  1.00  0.00     0.060 C   
BRANCH   8   9
ATOM     9   C5  UNL     1       0.470   2.704  -3.055  1.00  0.00    -0.011 A   
ATOM     10  N1  UNL     1       1.742   1.015  -2.447  1.00  0.00    -0.230 N   
ATOM     11  C4  UNL     1       1.754   2.362  -2.694  1.00  0.00     0.101 A   
ATOM     12  N6  UNL     1       0.483   0.498  -2.447  1.00  0.00    -0.190 NA  
ATOM     13  C25 UNL     1      -0.236   1.478  -3.013  1.00  0.00     0.136 A   
BRANCH  10  14
ATOM     14  C2  UNL     1       2.885   0.170  -2.110  1.00  0.00     0.091 C   
ATOM     15  C1  UNL     1       3.390   0.467  -0.700  1.00  0.00     0.030 C   
ATOM     16  C3  UNL     1       4.006   0.283  -3.143  1.00  0.00     0.030 C   
ENDBRANCH  10  14
ENDBRANCH   8   9
ENDBRANCH   7   8
ENDBRANCH   1   7
BRANCH   3  17
ATOM     17  C10 UNL     1      -2.036   0.824   0.522  1.00  0.00     0.117 C   
BRANCH  17  18
ATOM     18  N3  UNL     1      -0.865  -0.038   0.113  1.00  0.00     0.249 N   
ATOM     19  H15 UNL     1      -0.605   0.172  -0.876  1.00  0.00     0.199 HD  
ATOM     20  H16 UNL     1      -0.020   0.223   0.625  1.00  0.00     0.199 HD  
BRANCH  18  21
ATOM     21  C11 UNL     1      -1.089  -1.505   0.177  1.00  0.00     0.164 C   
BRANCH  21  22
ATOM     22  C12 UNL     1       0.188  -2.274  -0.017  1.00  0.00    -0.002 A   
ATOM     23  C13 UNL     1       0.483  -2.870  -1.265  1.00  0.00     0.012 A   
ATOM     24  C17 UNL     1       1.109  -2.386   1.039  1.00  0.00     0.045 A   
ATOM     25  C14 UNL     1       1.675  -3.578  -1.461  1.00  0.00     0.037 A   
ATOM     26  C16 UNL     1       2.277  -3.083   0.810  1.00  0.00     0.109 A   
ATOM     27  C15 UNL     1       2.553  -3.663  -0.404  1.00  0.00     0.108 A   
ATOM     28  O1  UNL     1       3.273  -3.275   1.715  1.00  0.00    -0.316 OA  
ATOM     29  O2  UNL     1       3.758  -4.290  -0.417  1.00  0.00    -0.316 OA  
ATOM     30  C18 UNL     1       4.192  -4.082   0.944  1.00  0.00     0.337 C   
ENDBRANCH  21  22
ENDBRANCH  18  21
ENDBRANCH  17  18
BRANCH  17  31
ATOM     31  C19 UNL     1      -2.179   0.874   2.068  1.00  0.00     0.043 C   
ATOM     32  C20 UNL     1      -3.462   1.628   2.483  1.00  0.00     0.010 C   
ATOM     33  C24 UNL     1      -0.962   1.447   2.821  1.00  0.00     0.010 C   
ATOM     34  C21 UNL     1      -3.668   1.611   3.996  1.00  0.00     0.001 C   
ATOM     35  C23 UNL     1      -1.177   1.431   4.335  1.00  0.00     0.001 C   
ATOM     36  C22 UNL     1      -2.453   2.162   4.733  1.00  0.00     0.000 C   
ENDBRANCH  17  31
ENDBRANCH   3  17
TORSDOF 9
