REMARK SMILES CC(C)C[C@H]([NH2+]Cc1ccc2c(c1)OCO2)c1cn(-c2cc(CO)ccc2F)nn1
REMARK SMILES IDX 17 1 18 2 19 3 29 4 30 5 5 6 4 7 2 8 1 9 3 10 6 11 7 14 8 15
REMARK SMILES IDX 9 16 13 17 10 18 12 19 11 20 14 21 16 22 15 23 20 24 21 25
REMARK SMILES IDX 27 26 22 27 26 28 25 29 28 30 23 31 24 32
REMARK H PARENT 6 12 6 13 24 33
ROOT
ATOM     1   C14 UNL     1      -0.802  -0.708  -0.839  1.00  0.00     0.127 A   
ATOM     2   C15 UNL     1       0.213  -1.136  -0.014  1.00  0.00     0.135 A   
ATOM     3   N2  UNL     1       1.203  -0.179  -0.137  1.00  0.00    -0.178 N   
ATOM     4   N3  UNL     1       0.821   0.713  -1.092  1.00  0.00    -0.071 NA  
ATOM     5   N4  UNL     1      -0.396   0.409  -1.510  1.00  0.00    -0.131 NA  
ENDROOT
BRANCH   1   6
ATOM     6   C5  UNL     1      -2.212  -1.179  -0.991  1.00  0.00     0.114 C   
BRANCH   6   7
ATOM     7   C4  UNL     1      -2.420  -1.886  -2.345  1.00  0.00     0.064 C   
BRANCH   7   8
ATOM     8   C2  UNL     1      -3.512  -2.979  -2.342  1.00  0.00    -0.012 C   
ATOM     9   C1  UNL     1      -3.514  -3.705  -3.692  1.00  0.00     0.007 C   
ATOM     10  C3  UNL     1      -4.914  -2.449  -2.050  1.00  0.00     0.007 C   
ENDBRANCH   7   8
ENDBRANCH   6   7
BRANCH   6  11
ATOM     11  N1  UNL     1      -3.132   0.023  -0.909  1.00  0.00     0.249 N   
ATOM     12  H11 UNL     1      -3.935  -0.088  -1.535  1.00  0.00     0.199 HD  
ATOM     13  H12 UNL     1      -2.594   0.817  -1.292  1.00  0.00     0.199 HD  
BRANCH  11  14
ATOM     14  C6  UNL     1      -3.620   0.403   0.452  1.00  0.00     0.164 C   
BRANCH  14  15
ATOM     15  C7  UNL     1      -2.529   0.770   1.419  1.00  0.00    -0.002 A   
ATOM     16  C8  UNL     1      -2.196  -0.099   2.487  1.00  0.00     0.012 A   
ATOM     17  C12 UNL     1      -1.790   1.954   1.239  1.00  0.00     0.045 A   
ATOM     18  C9  UNL     1      -1.125   0.187   3.341  1.00  0.00     0.037 A   
ATOM     19  C11 UNL     1      -0.737   2.202   2.095  1.00  0.00     0.109 A   
ATOM     20  C10 UNL     1      -0.409   1.341   3.112  1.00  0.00     0.108 A   
ATOM     21  O1  UNL     1       0.095   3.274   2.034  1.00  0.00    -0.316 OA  
ATOM     22  O2  UNL     1       0.673   1.760   3.818  1.00  0.00    -0.316 OA  
ATOM     23  C13 UNL     1       0.998   2.987   3.126  1.00  0.00     0.337 C   
ENDBRANCH  14  15
ENDBRANCH  11  14
ENDBRANCH   6  11
ENDBRANCH   1   6
BRANCH   3  24
ATOM     24  C16 UNL     1       2.404  -0.016   0.591  1.00  0.00     0.094 A   
ATOM     25  C17 UNL     1       3.193   1.126   0.371  1.00  0.00     0.035 A   
ATOM     26  C22 UNL     1       2.810  -0.939   1.555  1.00  0.00     0.146 A   
ATOM     27  C18 UNL     1       4.365   1.348   1.116  1.00  0.00    -0.020 A   
ATOM     28  C21 UNL     1       3.975  -0.735   2.291  1.00  0.00     0.042 A   
ATOM     29  C20 UNL     1       4.749   0.405   2.078  1.00  0.00     0.009 A   
ATOM     30  F1  UNL     1       2.107  -2.051   1.810  1.00  0.00    -0.205 F   
BRANCH  27  31
ATOM     31  C19 UNL     1       5.168   2.601   0.900  1.00  0.00     0.191 C   
BRANCH  31  32
ATOM     32  O3  UNL     1       4.393   3.708   1.337  1.00  0.00    -0.392 OA  
ATOM     33  H24 UNL     1       4.926   4.503   1.165  1.00  0.00     0.211 HD  
ENDBRANCH  31  32
ENDBRANCH  27  31
ENDBRANCH   3  24
TORSDOF 9
