REMARK SMILES c1cc2c(cc1C[NH2+][C@H](c1cn(Cc3csc(C4CC4)n3)nn1)C1CCCC1)OCO2
REMARK SMILES IDX 10 1 11 2 12 3 22 4 23 5 9 7 8 8 7 11 6 12 1 13 2 14 3 15
REMARK SMILES IDX 5 16 4 17 31 18 29 19 30 20 24 21 25 22 28 23 26 24 27 25
REMARK SMILES IDX 13 26 14 27 15 28 21 29 16 30 17 31 18 32 19 33 20 34
REMARK H PARENT 11 6 8 9 8 10
ROOT
ATOM     1   C9  UNL     1      -1.359   0.044  -1.109  1.00  0.00     0.127 A   
ATOM     2   C10 UNL     1      -2.430  -0.214  -0.285  1.00  0.00     0.046 A   
ATOM     3   N2  UNL     1      -3.126  -1.191  -0.943  1.00  0.00    -0.206 N   
ATOM     4   N4  UNL     1      -2.546  -1.479  -2.126  1.00  0.00    -0.076 NA  
ATOM     5   N5  UNL     1      -1.463  -0.727  -2.239  1.00  0.00    -0.132 NA  
ATOM     6   H9  UNL     1      -2.719   0.135   0.698  1.00  0.00     0.083 HD  
ENDROOT
BRANCH   1   7
ATOM     7   C8  UNL     1      -0.151   0.892  -0.894  1.00  0.00     0.117 C   
BRANCH   7   8
ATOM     8   N1  UNL     1       1.089   0.165  -1.357  1.00  0.00     0.249 N   
ATOM     9   H6  UNL     1       0.923  -0.098  -2.338  1.00  0.00     0.199 HD  
ATOM     10  H7  UNL     1       1.901   0.786  -1.337  1.00  0.00     0.199 HD  
BRANCH   8  11
ATOM     11  C7  UNL     1       1.423  -1.102  -0.634  1.00  0.00     0.164 C   
BRANCH  11  12
ATOM     12  C6  UNL     1       1.671  -0.906   0.835  1.00  0.00    -0.002 A   
ATOM     13  C1  UNL     1       0.723  -1.362   1.784  1.00  0.00     0.012 A   
ATOM     14  C2  UNL     1       0.919  -1.156   3.153  1.00  0.00     0.037 A   
ATOM     15  C3  UNL     1       2.063  -0.498   3.546  1.00  0.00     0.108 A   
ATOM     16  C5  UNL     1       2.828  -0.241   1.277  1.00  0.00     0.045 A   
ATOM     17  C4  UNL     1       2.990  -0.055   2.635  1.00  0.00     0.109 A   
ATOM     18  O2  UNL     1       2.416  -0.210   4.825  1.00  0.00    -0.316 OA  
ATOM     19  O1  UNL     1       4.043   0.569   3.225  1.00  0.00    -0.316 OA  
ATOM     20  C23 UNL     1       3.689   0.442   4.621  1.00  0.00     0.337 C   
ENDBRANCH  11  12
ENDBRANCH   8  11
ENDBRANCH   7   8
BRANCH   7  21
ATOM     21  C18 UNL     1      -0.280   2.261  -1.592  1.00  0.00     0.043 C   
ATOM     22  C19 UNL     1      -0.162   2.274  -3.118  1.00  0.00     0.010 C   
ATOM     23  C22 UNL     1       0.768   3.296  -1.158  1.00  0.00     0.010 C   
ATOM     24  C20 UNL     1      -0.024   3.758  -3.428  1.00  0.00     0.001 C   
ATOM     25  C21 UNL     1       0.843   4.311  -2.301  1.00  0.00     0.001 C   
ENDBRANCH   7  21
ENDBRANCH   1   7
BRANCH   3  26
ATOM     26  C11 UNL     1      -4.293  -1.921  -0.482  1.00  0.00     0.190 C   
BRANCH  26  27
ATOM     27  C12 UNL     1      -3.868  -3.011   0.448  1.00  0.00     0.067 A   
ATOM     28  C13 UNL     1      -3.950  -4.373   0.215  1.00  0.00     0.073 A   
ATOM     29  N3  UNL     1      -3.332  -2.668   1.687  1.00  0.00    -0.248 NA  
ATOM     30  S1  UNL     1      -3.368  -5.241   1.574  1.00  0.00    -0.080 S   
ATOM     31  C14 UNL     1      -3.062  -3.760   2.368  1.00  0.00     0.081 A   
BRANCH  31  32
ATOM     32  C15 UNL     1      -2.480  -3.704   3.818  1.00  0.00     0.045 C   
ATOM     33  C16 UNL     1      -3.434  -3.783   4.983  1.00  0.00     0.011 C   
ATOM     34  C17 UNL     1      -2.739  -2.489   4.675  1.00  0.00     0.011 C   
ENDBRANCH  31  32
ENDBRANCH  26  27
ENDBRANCH   3  26
TORSDOF 8
