REMARK SMILES c1ccc2nc(-n3cc([C@@H]([NH2+]Cc4ccc5c(c4)OCO5)C4CCCC4)nn3)cnc2c1
REMARK SMILES IDX 10 1 9 2 7 3 8 4 28 5 27 6 6 7 1 8 2 9 32 10 3 11 31 12 4 13
REMARK SMILES IDX 30 14 5 15 29 16 11 17 12 20 13 21 14 22 18 23 15 24 17 25
REMARK SMILES IDX 16 26 19 27 21 28 20 29 22 30 23 31 26 32 24 33 25 34
REMARK H PARENT 11 18 11 19
ROOT
ATOM     1   C8  UNL     1       0.612  -1.274  -0.076  1.00  0.00     0.117 C   
ENDROOT
BRANCH   1   2
ATOM     2   C7  UNL     1      -0.850  -0.971   0.039  1.00  0.00     0.128 A   
ATOM     3   N2  UNL     1      -3.036  -0.942   0.118  1.00  0.00    -0.161 N   
ATOM     4   C6  UNL     1      -1.956  -1.777  -0.099  1.00  0.00     0.137 A   
ATOM     5   N5  UNL     1      -2.585   0.317   0.348  1.00  0.00    -0.069 NA  
ATOM     6   N4  UNL     1      -1.262   0.307   0.313  1.00  0.00    -0.131 NA  
BRANCH   3   7
ATOM     7   C5  UNL     1      -4.403  -1.295   0.099  1.00  0.00     0.165 A   
ATOM     8   C1  UNL     1      -8.773  -3.562  -0.209  1.00  0.00     0.002 A   
ATOM     9   C2  UNL     1      -7.812  -4.535  -0.449  1.00  0.00     0.002 A   
ATOM     10  C24 UNL     1      -8.375  -2.250   0.050  1.00  0.00     0.030 A   
ATOM     11  C3  UNL     1      -6.460  -4.189  -0.429  1.00  0.00     0.031 A   
ATOM     12  C23 UNL     1      -7.033  -1.893   0.074  1.00  0.00     0.089 A   
ATOM     13  C4  UNL     1      -6.050  -2.886  -0.172  1.00  0.00     0.091 A   
ATOM     14  N6  UNL     1      -6.686  -0.616   0.328  1.00  0.00    -0.251 NA  
ATOM     15  N1  UNL     1      -4.732  -2.589  -0.162  1.00  0.00    -0.227 NA  
ATOM     16  C22 UNL     1      -5.364  -0.329   0.339  1.00  0.00     0.158 A   
ENDBRANCH   3   7
ENDBRANCH   1   2
BRANCH   1  17
ATOM     17  N3  UNL     1       1.380  -0.021  -0.397  1.00  0.00     0.249 N   
ATOM     18  H6  UNL     1       2.364  -0.085  -0.123  1.00  0.00     0.199 HD  
ATOM     19  H7  UNL     1       0.976   0.737   0.175  1.00  0.00     0.199 HD  
BRANCH  17  20
ATOM     20  C9  UNL     1       1.307   0.425  -1.817  1.00  0.00     0.164 C   
BRANCH  20  21
ATOM     21  C10 UNL     1       2.036   1.727  -1.990  1.00  0.00    -0.002 A   
ATOM     22  C11 UNL     1       1.364   2.953  -1.767  1.00  0.00     0.012 A   
ATOM     23  C15 UNL     1       3.403   1.736  -2.314  1.00  0.00     0.045 A   
ATOM     24  C12 UNL     1       2.040   4.173  -1.875  1.00  0.00     0.037 A   
ATOM     25  C14 UNL     1       4.040   2.956  -2.412  1.00  0.00     0.109 A   
ATOM     26  C13 UNL     1       3.378   4.140  -2.199  1.00  0.00     0.108 A   
ATOM     27  O1  UNL     1       5.352   3.140  -2.713  1.00  0.00    -0.316 OA  
ATOM     28  O2  UNL     1       4.190   5.219  -2.341  1.00  0.00    -0.316 OA  
ATOM     29  C16 UNL     1       5.439   4.583  -2.689  1.00  0.00     0.337 C   
ENDBRANCH  20  21
ENDBRANCH  17  20
ENDBRANCH   1  17
BRANCH   1  30
ATOM     30  C17 UNL     1       1.156  -1.935   1.206  1.00  0.00     0.043 C   
ATOM     31  C18 UNL     1       1.202  -1.053   2.464  1.00  0.00     0.010 C   
ATOM     32  C21 UNL     1       2.582  -2.480   1.091  1.00  0.00     0.010 C   
ATOM     33  C19 UNL     1       2.366  -1.582   3.307  1.00  0.00     0.001 C   
ATOM     34  C20 UNL     1       2.945  -2.764   2.540  1.00  0.00     0.001 C   
ENDBRANCH   1  30
TORSDOF 6
