REMARK SMILES CC(C)[C@H]([NH2+]Cc1ccc2c(c1)OCO2)c1cn([C@@H](CO)c2c(F)cccc2F)nn1
REMARK SMILES IDX 16 1 17 2 18 3 30 4 31 5 4 7 2 8 1 9 3 10 5 11 6 14 7 15
REMARK SMILES IDX 8 16 12 17 9 18 11 19 10 20 13 21 15 22 14 23 19 24 20 25
REMARK SMILES IDX 21 26 22 28 23 29 28 30 25 31 27 32 26 33 24 34 29 35
REMARK H PARENT 17 6 5 12 5 13 21 27
ROOT
ATOM     1   C13 UNL     1       0.233  -0.756   0.643  1.00  0.00     0.127 A   
ATOM     2   C14 UNL     1       0.702   0.508   0.364  1.00  0.00     0.046 A   
ATOM     3   N2  UNL     1       1.783   0.296  -0.449  1.00  0.00    -0.202 N   
ATOM     4   N3  UNL     1       1.959  -1.029  -0.657  1.00  0.00    -0.075 NA  
ATOM     5   N4  UNL     1       1.019  -1.679   0.007  1.00  0.00    -0.132 NA  
ATOM     6   H18 UNL     1       0.368   1.496   0.647  1.00  0.00     0.083 HD  
ENDROOT
BRANCH   1   7
ATOM     7   C4  UNL     1      -0.967  -1.210   1.404  1.00  0.00     0.117 C   
BRANCH   7   8
ATOM     8   C2  UNL     1      -0.677  -1.590   2.881  1.00  0.00     0.037 C   
ATOM     9   C1  UNL     1       0.333  -2.729   3.059  1.00  0.00     0.014 C   
ATOM     10  C3  UNL     1      -0.228  -0.371   3.695  1.00  0.00     0.014 C   
ENDBRANCH   7   8
BRANCH   7  11
ATOM     11  N1  UNL     1      -1.596  -2.404   0.715  1.00  0.00     0.249 N   
ATOM     12  H9  UNL     1      -2.286  -2.845   1.329  1.00  0.00     0.199 HD  
ATOM     13  H10 UNL     1      -0.835  -3.081   0.563  1.00  0.00     0.199 HD  
BRANCH  11  14
ATOM     14  C5  UNL     1      -2.212  -2.147  -0.622  1.00  0.00     0.164 C   
BRANCH  14  15
ATOM     15  C6  UNL     1      -3.409  -1.240  -0.555  1.00  0.00    -0.002 A   
ATOM     16  C7  UNL     1      -4.640  -1.712  -0.038  1.00  0.00     0.012 A   
ATOM     17  C11 UNL     1      -3.303   0.097  -0.977  1.00  0.00     0.045 A   
ATOM     18  C8  UNL     1      -5.748  -0.864   0.061  1.00  0.00     0.037 A   
ATOM     19  C10 UNL     1      -4.414   0.906  -0.863  1.00  0.00     0.109 A   
ATOM     20  C9  UNL     1      -5.602   0.440  -0.358  1.00  0.00     0.108 A   
ATOM     21  O1  UNL     1      -4.477   2.217  -1.213  1.00  0.00    -0.316 OA  
ATOM     22  O2  UNL     1      -6.565   1.397  -0.331  1.00  0.00    -0.316 OA  
ATOM     23  C12 UNL     1      -5.858   2.517  -0.905  1.00  0.00     0.337 C   
ENDBRANCH  14  15
ENDBRANCH  11  14
ENDBRANCH   7  11
ENDBRANCH   1   7
BRANCH   3  24
ATOM     24  C15 UNL     1       2.680   1.257  -1.095  1.00  0.00     0.161 C   
BRANCH  24  25
ATOM     25  C16 UNL     1       2.055   2.647  -1.322  1.00  0.00     0.186 C   
BRANCH  25  26
ATOM     26  O3  UNL     1       0.901   2.558  -2.159  1.00  0.00    -0.394 OA  
ATOM     27  H22 UNL     1       0.673   3.466  -2.434  1.00  0.00     0.210 HD  
ENDBRANCH  25  26
ENDBRANCH  24  25
BRANCH  24  28
ATOM     28  C17 UNL     1       3.984   1.346  -0.335  1.00  0.00     0.048 A   
ATOM     29  C18 UNL     1       4.051   1.827   0.975  1.00  0.00     0.131 A   
ATOM     30  C22 UNL     1       5.178   0.944  -0.936  1.00  0.00     0.131 A   
ATOM     31  C19 UNL     1       5.259   1.905   1.666  1.00  0.00     0.040 A   
ATOM     32  C21 UNL     1       6.396   1.014  -0.261  1.00  0.00     0.040 A   
ATOM     33  C20 UNL     1       6.437   1.496   1.046  1.00  0.00     0.006 A   
ATOM     34  F1  UNL     1       2.932   2.230   1.594  1.00  0.00    -0.207 F   
ATOM     35  F2  UNL     1       5.168   0.488  -2.196  1.00  0.00    -0.207 F   
ENDBRANCH  24  28
ENDBRANCH   3  24
TORSDOF 9
