REMARK SMILES CC(C)[C@H]([NH2+]Cc1ccc2c(c1)OCO2)c1cn([C@H](CO)c2c(F)cccc2F)nn1
REMARK SMILES IDX 16 1 17 2 18 3 30 4 31 5 4 7 2 8 1 9 3 10 5 11 6 14 7 15
REMARK SMILES IDX 8 16 12 17 9 18 11 19 10 20 13 21 15 22 14 23 19 24 20 25
REMARK SMILES IDX 21 26 22 28 23 29 28 30 25 31 27 32 26 33 24 34 29 35
REMARK H PARENT 17 6 5 12 5 13 21 27
ROOT
ATOM     1   C13 UNL     1      -0.190   1.217  -0.332  1.00  0.00     0.127 A   
ATOM     2   C14 UNL     1      -0.410   2.546  -0.043  1.00  0.00     0.046 A   
ATOM     3   N2  UNL     1      -1.247   2.517   1.043  1.00  0.00    -0.202 N   
ATOM     4   N3  UNL     1      -1.500   1.244   1.414  1.00  0.00    -0.075 NA  
ATOM     5   N4  UNL     1      -0.860   0.441   0.580  1.00  0.00    -0.132 NA  
ATOM     6   H18 UNL     1      -0.075   3.474  -0.486  1.00  0.00     0.083 HD  
ENDROOT
BRANCH   1   7
ATOM     7   C4  UNL     1       0.660   0.560  -1.368  1.00  0.00     0.117 C   
BRANCH   7   8
ATOM     8   C2  UNL     1      -0.090   0.220  -2.682  1.00  0.00     0.037 C   
ATOM     9   C1  UNL     1      -0.550   1.485  -3.414  1.00  0.00     0.014 C   
ATOM     10  C3  UNL     1      -1.277  -0.734  -2.503  1.00  0.00     0.014 C   
ENDBRANCH   7   8
BRANCH   7  11
ATOM     11  N1  UNL     1       1.248  -0.714  -0.811  1.00  0.00     0.249 N   
ATOM     12  H9  UNL     1       1.570  -1.340  -1.556  1.00  0.00     0.199 HD  
ATOM     13  H10 UNL     1       0.479  -1.206  -0.328  1.00  0.00     0.199 HD  
BRANCH  11  14
ATOM     14  C5  UNL     1       2.341  -0.528   0.183  1.00  0.00     0.164 C   
BRANCH  14  15
ATOM     15  C6  UNL     1       2.790  -1.855   0.725  1.00  0.00    -0.002 A   
ATOM     16  C7  UNL     1       3.916  -2.513   0.176  1.00  0.00     0.012 A   
ATOM     17  C11 UNL     1       2.056  -2.476   1.752  1.00  0.00     0.045 A   
ATOM     18  C8  UNL     1       4.317  -3.767   0.652  1.00  0.00     0.037 A   
ATOM     19  C10 UNL     1       2.477  -3.714   2.194  1.00  0.00     0.109 A   
ATOM     20  C9  UNL     1       3.577  -4.340   1.662  1.00  0.00     0.108 A   
ATOM     21  O1  UNL     1       1.882  -4.448   3.170  1.00  0.00    -0.316 OA  
ATOM     22  O2  UNL     1       3.818  -5.545   2.240  1.00  0.00    -0.316 OA  
ATOM     23  C12 UNL     1       2.755  -5.600   3.216  1.00  0.00     0.337 C   
ENDBRANCH  14  15
ENDBRANCH  11  14
ENDBRANCH   7  11
ENDBRANCH   1   7
BRANCH   3  24
ATOM     24  C15 UNL     1      -1.839   3.655   1.749  1.00  0.00     0.161 C   
BRANCH  24  25
ATOM     25  C16 UNL     1      -1.390   3.684   3.221  1.00  0.00     0.186 C   
BRANCH  25  26
ATOM     26  O3  UNL     1      -0.009   4.056   3.305  1.00  0.00    -0.394 OA  
ATOM     27  H22 UNL     1       0.209   4.107   4.255  1.00  0.00     0.210 HD  
ENDBRANCH  25  26
ENDBRANCH  24  25
BRANCH  24  28
ATOM     28  C17 UNL     1      -3.329   3.691   1.498  1.00  0.00     0.048 A   
ATOM     29  C18 UNL     1      -4.273   3.169   2.386  1.00  0.00     0.131 A   
ATOM     30  C22 UNL     1      -3.808   4.233   0.300  1.00  0.00     0.131 A   
ATOM     31  C19 UNL     1      -5.639   3.205   2.104  1.00  0.00     0.040 A   
ATOM     32  C21 UNL     1      -5.169   4.277   0.001  1.00  0.00     0.040 A   
ATOM     33  C20 UNL     1      -6.090   3.763   0.911  1.00  0.00     0.006 A   
ATOM     34  F1  UNL     1      -3.880   2.621   3.542  1.00  0.00    -0.207 F   
ATOM     35  F2  UNL     1      -2.938   4.720  -0.596  1.00  0.00    -0.207 F   
ENDBRANCH  24  28
ENDBRANCH   3  24
TORSDOF 9
