REMARK SMILES CC(C)C[C@H]([NH2+]Cc1ccc2c(c1)OCO2)c1cn(-c2nc(Cl)ccc2O)nn1
REMARK SMILES IDX 17 1 18 2 19 3 28 4 29 5 5 6 4 7 2 8 1 9 3 10 6 11 7 14 8 15
REMARK SMILES IDX 9 16 13 17 10 18 12 19 11 20 14 21 16 22 15 23 20 24 21 25
REMARK SMILES IDX 26 26 22 27 25 28 24 29 23 30 27 31
REMARK H PARENT 6 12 6 13 27 32
ROOT
ATOM     1   C14 UNL     1       0.457  -0.845  -0.297  1.00  0.00     0.127 A   
ATOM     2   C15 UNL     1       1.365  -1.664   0.332  1.00  0.00     0.137 A   
ATOM     3   N2  UNL     1       2.522  -0.913   0.426  1.00  0.00    -0.160 N   
ATOM     4   N4  UNL     1       2.291   0.322  -0.096  1.00  0.00    -0.069 NA  
ATOM     5   N5  UNL     1       1.044   0.368  -0.539  1.00  0.00    -0.131 NA  
ENDROOT
BRANCH   1   6
ATOM     6   C5  UNL     1      -0.971  -1.073  -0.674  1.00  0.00     0.114 C   
BRANCH   6   7
ATOM     7   C4  UNL     1      -1.137  -1.451  -2.159  1.00  0.00     0.064 C   
BRANCH   7   8
ATOM     8   C2  UNL     1      -0.477  -2.783  -2.578  1.00  0.00    -0.012 C   
ATOM     9   C1  UNL     1      -1.046  -3.981  -1.817  1.00  0.00     0.007 C   
ATOM     10  C3  UNL     1      -0.659  -2.995  -4.084  1.00  0.00     0.007 C   
ENDBRANCH   7   8
ENDBRANCH   6   7
BRANCH   6  11
ATOM     11  N1  UNL     1      -1.773   0.188  -0.453  1.00  0.00     0.249 N   
ATOM     12  H11 UNL     1      -2.674   0.143  -0.942  1.00  0.00     0.199 HD  
ATOM     13  H12 UNL     1      -1.251   0.964  -0.887  1.00  0.00     0.199 HD  
BRANCH  11  14
ATOM     14  C6  UNL     1      -2.022   0.548   0.971  1.00  0.00     0.164 C   
BRANCH  14  15
ATOM     15  C7  UNL     1      -2.798   1.832   1.059  1.00  0.00    -0.002 A   
ATOM     16  C8  UNL     1      -4.208   1.812   1.165  1.00  0.00     0.012 A   
ATOM     17  C12 UNL     1      -2.125   3.064   0.982  1.00  0.00     0.045 A   
ATOM     18  C9  UNL     1      -4.942   3.003   1.205  1.00  0.00     0.037 A   
ATOM     19  C11 UNL     1      -2.879   4.219   1.024  1.00  0.00     0.109 A   
ATOM     20  C10 UNL     1      -4.247   4.190   1.132  1.00  0.00     0.108 A   
ATOM     21  O1  UNL     1      -2.389   5.485   0.961  1.00  0.00    -0.316 OA  
ATOM     22  O2  UNL     1      -4.792   5.434   1.153  1.00  0.00    -0.316 OA  
ATOM     23  C13 UNL     1      -3.608   6.256   1.067  1.00  0.00     0.337 C   
ENDBRANCH  14  15
ENDBRANCH  11  14
ENDBRANCH   6  11
ENDBRANCH   1   6
BRANCH   3  24
ATOM     24  C16 UNL     1       3.763  -1.313   0.981  1.00  0.00     0.177 A   
ATOM     25  N3  UNL     1       3.815  -2.576   1.486  1.00  0.00    -0.216 NA  
ATOM     26  C20 UNL     1       4.856  -0.442   1.002  1.00  0.00     0.114 A   
ATOM     27  C17 UNL     1       4.992  -2.969   2.019  1.00  0.00     0.131 A   
ATOM     28  C19 UNL     1       6.049  -0.891   1.563  1.00  0.00     0.040 A   
ATOM     29  C18 UNL     1       6.125  -2.179   2.084  1.00  0.00     0.044 A   
ATOM     30  CL1 UNL     1       4.988  -4.566   2.637  1.00  0.00    -0.062 Cl  
BRANCH  26  31
ATOM     31  O3  UNL     1       4.876   0.833   0.516  1.00  0.00    -0.357 OA  
ATOM     32  H23 UNL     1       4.012   1.065   0.120  1.00  0.00     0.218 HD  
ENDBRANCH  26  31
ENDBRANCH   3  24
TORSDOF 8
