REMARK SMILES Cc1cnccc1CCn1cc([C@@H]([NH2+]Cc2ccc3c(c2)OCO3)C(C)C)nn1
REMARK SMILES IDX 10 1 11 2 12 3 28 4 29 5 9 7 8 8 7 9 2 10 3 11 4 12 6 13
REMARK SMILES IDX 5 14 1 15 13 16 14 17 15 20 16 21 17 22 21 23 18 24 20 25
REMARK SMILES IDX 19 26 22 27 24 28 23 29 25 30 26 31 27 32
REMARK H PARENT 11 6 14 18 14 19
ROOT
ATOM     1   N2  UNL     1      -1.659   0.141   2.486  1.00  0.00    -0.212 N   
ATOM     2   C9  UNL     1      -0.487  -0.563   2.427  1.00  0.00     0.045 A   
ATOM     3   C10 UNL     1       0.431   0.364   1.986  1.00  0.00     0.127 A   
ATOM     4   N4  UNL     1      -0.187   1.580   1.847  1.00  0.00    -0.132 NA  
ATOM     5   N5  UNL     1      -1.463   1.433   2.168  1.00  0.00    -0.076 NA  
ATOM     6   H11 UNL     1      -0.436  -1.624   2.626  1.00  0.00     0.083 HD  
ENDROOT
BRANCH   1   7
ATOM     7   C8  UNL     1      -2.995  -0.383   2.684  1.00  0.00     0.139 C   
BRANCH   7   8
ATOM     8   C7  UNL     1      -3.854  -0.354   1.410  1.00  0.00     0.057 C   
BRANCH   8   9
ATOM     9   C6  UNL     1      -3.175  -0.952   0.191  1.00  0.00    -0.040 A   
ATOM     10  C2  UNL     1      -2.936  -0.209  -0.981  1.00  0.00    -0.029 A   
ATOM     11  C3  UNL     1      -2.220  -0.828  -2.005  1.00  0.00     0.114 A   
ATOM     12  N1  UNL     1      -1.716  -2.079  -1.937  1.00  0.00    -0.264 NA  
ATOM     13  C5  UNL     1      -2.749  -2.288   0.228  1.00  0.00     0.024 A   
ATOM     14  C4  UNL     1      -2.034  -2.798  -0.843  1.00  0.00     0.111 A   
ATOM     15  C1  UNL     1      -3.405   1.205  -1.166  1.00  0.00     0.046 C   
ENDBRANCH   8   9
ENDBRANCH   7   8
ENDBRANCH   1   7
BRANCH   3  16
ATOM     16  C11 UNL     1       1.849   0.200   1.535  1.00  0.00     0.117 C   
BRANCH  16  17
ATOM     17  N3  UNL     1       1.974   0.793   0.151  1.00  0.00     0.249 N   
ATOM     18  H13 UNL     1       2.947   0.884  -0.150  1.00  0.00     0.199 HD  
ATOM     19  H14 UNL     1       1.594   1.749   0.208  1.00  0.00     0.199 HD  
BRANCH  17  20
ATOM     20  C12 UNL     1       1.222   0.071  -0.920  1.00  0.00     0.164 C   
BRANCH  20  21
ATOM     21  C13 UNL     1       1.244   0.858  -2.200  1.00  0.00    -0.002 A   
ATOM     22  C14 UNL     1       2.132   0.513  -3.244  1.00  0.00     0.012 A   
ATOM     23  C18 UNL     1       0.395   1.969  -2.349  1.00  0.00     0.045 A   
ATOM     24  C15 UNL     1       2.170   1.259  -4.428  1.00  0.00     0.037 A   
ATOM     25  C17 UNL     1       0.456   2.681  -3.528  1.00  0.00     0.109 A   
ATOM     26  C16 UNL     1       1.320   2.337  -4.538  1.00  0.00     0.108 A   
ATOM     27  O1  UNL     1      -0.296   3.769  -3.835  1.00  0.00    -0.316 OA  
ATOM     28  O2  UNL     1       1.221   3.167  -5.609  1.00  0.00    -0.316 OA  
ATOM     29  C19 UNL     1       0.185   4.069  -5.165  1.00  0.00     0.337 C   
ENDBRANCH  20  21
ENDBRANCH  17  20
ENDBRANCH  16  17
BRANCH  16  30
ATOM     30  C20 UNL     1       2.859   0.889   2.491  1.00  0.00     0.037 C   
ATOM     31  C21 UNL     1       4.311   0.763   2.010  1.00  0.00     0.014 C   
ATOM     32  C22 UNL     1       2.768   0.301   3.908  1.00  0.00     0.014 C   
ENDBRANCH  16  30
ENDBRANCH   3  16
TORSDOF 8
