REMARK SMILES [O-]N([O-])c1cccc(Cn2cc([C@@H]([NH2+]Cc3ccc4c(c3)OCO4)C3CCCCC3)nn2)c1F
REMARK SMILES IDX 10 1 11 2 12 3 31 4 32 5 9 7 8 8 4 9 5 10 33 11 6 12 7 13
REMARK SMILES IDX 34 14 2 15 1 16 3 17 13 18 14 19 15 22 16 23 17 24 21 25
REMARK SMILES IDX 18 26 20 27 19 28 22 29 24 30 23 31 25 32 26 33 30 34 27 35
REMARK SMILES IDX 29 36 28 37
REMARK H PARENT 11 6 14 20 14 21
ROOT
ATOM     1   N2  UNL     1       1.422  -0.488   1.980  1.00  0.00    -0.208 N   
ATOM     2   C7  UNL     1       1.238   0.490   1.041  1.00  0.00     0.046 A   
ATOM     3   C8  UNL     1      -0.095   0.811   1.157  1.00  0.00     0.127 A   
ATOM     4   N4  UNL     1      -0.657   0.059   2.163  1.00  0.00    -0.132 NA  
ATOM     5   N5  UNL     1       0.280  -0.734   2.654  1.00  0.00    -0.076 NA  
ATOM     6   H6  UNL     1       2.032   0.831   0.389  1.00  0.00     0.083 HD  
ENDROOT
BRANCH   1   7
ATOM     7   C6  UNL     1       2.633  -1.239   2.270  1.00  0.00     0.172 C   
BRANCH   7   8
ATOM     8   C5  UNL     1       2.736  -2.456   1.388  1.00  0.00     0.009 A   
ATOM     9   C1  UNL     1       3.273  -3.445  -0.753  1.00  0.00     0.154 A   
ATOM     10  C2  UNL     1       2.887  -4.709  -0.298  1.00  0.00     0.034 A   
ATOM     11  C24 UNL     1       3.208  -2.332   0.078  1.00  0.00     0.156 A   
ATOM     12  C3  UNL     1       2.411  -4.840   1.004  1.00  0.00     0.003 A   
ATOM     13  C4  UNL     1       2.331  -3.721   1.842  1.00  0.00     0.008 A   
ATOM     14  F1  UNL     1       3.601  -1.122  -0.346  1.00  0.00    -0.204 F   
BRANCH   9  15
ATOM     15  N1  UNL     1       3.724  -3.285  -2.118  1.00  0.00     0.095 N   
ATOM     16  O1  UNL     1       4.453  -4.172  -2.582  1.00  0.00    -0.138 OA  
ATOM     17  O2  UNL     1       3.323  -2.293  -2.741  1.00  0.00    -0.138 OA  
ENDBRANCH   9  15
ENDBRANCH   7   8
ENDBRANCH   1   7
BRANCH   3  18
ATOM     18  C9  UNL     1      -0.959   1.760   0.386  1.00  0.00     0.117 C   
BRANCH  18  19
ATOM     19  N3  UNL     1      -2.391   1.273   0.414  1.00  0.00     0.249 N   
ATOM     20  H8  UNL     1      -3.036   2.036   0.626  1.00  0.00     0.199 HD  
ATOM     21  H9  UNL     1      -2.453   0.633   1.221  1.00  0.00     0.199 HD  
BRANCH  19  22
ATOM     22  C10 UNL     1      -2.882   0.559  -0.796  1.00  0.00     0.164 C   
BRANCH  22  23
ATOM     23  C11 UNL     1      -2.066  -0.630  -1.221  1.00  0.00    -0.002 A   
ATOM     24  C12 UNL     1      -1.871  -1.737  -0.358  1.00  0.00     0.012 A   
ATOM     25  C16 UNL     1      -1.502  -0.663  -2.506  1.00  0.00     0.045 A   
ATOM     26  C13 UNL     1      -1.101  -2.842  -0.751  1.00  0.00     0.037 A   
ATOM     27  C15 UNL     1      -0.774  -1.777  -2.873  1.00  0.00     0.109 A   
ATOM     28  C14 UNL     1      -0.574  -2.834  -2.019  1.00  0.00     0.108 A   
ATOM     29  O3  UNL     1      -0.191  -1.972  -4.084  1.00  0.00    -0.316 OA  
ATOM     30  O4  UNL     1       0.167  -3.820  -2.584  1.00  0.00    -0.316 OA  
ATOM     31  C17 UNL     1       0.311  -3.318  -3.932  1.00  0.00     0.337 C   
ENDBRANCH  22  23
ENDBRANCH  19  22
ENDBRANCH  18  19
BRANCH  18  32
ATOM     32  C18 UNL     1      -0.854   3.209   0.934  1.00  0.00     0.043 C   
ATOM     33  C19 UNL     1      -1.527   4.226  -0.008  1.00  0.00     0.010 C   
ATOM     34  C23 UNL     1      -1.389   3.386   2.370  1.00  0.00     0.010 C   
ATOM     35  C20 UNL     1      -1.331   5.656   0.483  1.00  0.00     0.001 C   
ATOM     36  C22 UNL     1      -1.201   4.824   2.861  1.00  0.00     0.001 C   
ATOM     37  C21 UNL     1      -1.835   5.832   1.910  1.00  0.00     0.000 C   
ENDBRANCH  18  32
ENDBRANCH   3  18
TORSDOF 8
