REMARK SMILES CN(C)c1ccc(CCn2cc([C@@H]([NH2+]Cc3ccc4c(c3)OCO4)C3CCCCC3)nn2)cc1
REMARK SMILES IDX 10 1 11 2 12 3 31 4 32 5 9 7 8 8 7 9 4 10 5 11 34 12 6 13
REMARK SMILES IDX 33 14 2 15 1 16 3 17 13 18 14 19 15 22 16 23 17 24 21 25
REMARK SMILES IDX 18 26 20 27 19 28 22 29 24 30 23 31 25 32 26 33 30 34 27 35
REMARK SMILES IDX 29 36 28 37
REMARK H PARENT 11 6 14 20 14 21
ROOT
ATOM     1   N2  UNL     1       0.587  -3.161  -1.486  1.00  0.00    -0.212 N   
ATOM     2   C9  UNL     1       1.234  -1.959  -1.561  1.00  0.00     0.045 A   
ATOM     3   C10 UNL     1       1.410  -1.595  -0.245  1.00  0.00     0.127 A   
ATOM     4   N4  UNL     1       0.933  -2.593   0.565  1.00  0.00    -0.132 NA  
ATOM     5   N5  UNL     1       0.441  -3.550  -0.207  1.00  0.00    -0.076 NA  
ATOM     6   H13 UNL     1       1.431  -1.464  -2.502  1.00  0.00     0.083 HD  
ENDROOT
BRANCH   1   7
ATOM     7   C8  UNL     1      -0.037  -3.895  -2.568  1.00  0.00     0.139 C   
BRANCH   7   8
ATOM     8   C7  UNL     1      -1.570  -3.812  -2.554  1.00  0.00     0.057 C   
BRANCH   8   9
ATOM     9   C6  UNL     1      -2.107  -2.408  -2.387  1.00  0.00    -0.046 A   
ATOM     10  C3  UNL     1      -2.964   0.286  -1.916  1.00  0.00     0.028 A   
ATOM     11  C4  UNL     1      -3.326  -0.772  -1.065  1.00  0.00     0.024 A   
ATOM     12  C27 UNL     1      -2.192  -0.069  -3.037  1.00  0.00     0.024 A   
ATOM     13  C5  UNL     1      -2.907  -2.091  -1.289  1.00  0.00     0.006 A   
ATOM     14  C26 UNL     1      -1.786  -1.390  -3.283  1.00  0.00     0.006 A   
BRANCH  10  15
ATOM     15  N1  UNL     1      -3.288   1.622  -1.619  1.00  0.00    -0.337 N   
ATOM     16  C1  UNL     1      -3.167   2.610  -2.699  1.00  0.00     0.129 C   
ATOM     17  C2  UNL     1      -4.449   1.851  -0.744  1.00  0.00     0.129 C   
ENDBRANCH  10  15
ENDBRANCH   8   9
ENDBRANCH   7   8
ENDBRANCH   1   7
BRANCH   3  18
ATOM     18  C11 UNL     1       1.893  -0.311   0.351  1.00  0.00     0.117 C   
BRANCH  18  19
ATOM     19  N3  UNL     1       0.849   0.216   1.305  1.00  0.00     0.249 N   
ATOM     20  H15 UNL     1       0.708  -0.498   2.032  1.00  0.00     0.199 HD  
ATOM     21  H16 UNL     1       1.165   1.067   1.775  1.00  0.00     0.199 HD  
BRANCH  19  22
ATOM     22  C12 UNL     1      -0.488   0.506   0.700  1.00  0.00     0.164 C   
BRANCH  22  23
ATOM     23  C13 UNL     1      -1.363   1.218   1.695  1.00  0.00    -0.002 A   
ATOM     24  C14 UNL     1      -1.518   2.623   1.632  1.00  0.00     0.012 A   
ATOM     25  C18 UNL     1      -1.997   0.496   2.720  1.00  0.00     0.045 A   
ATOM     26  C15 UNL     1      -2.299   3.303   2.572  1.00  0.00     0.037 A   
ATOM     27  C17 UNL     1      -2.757   1.197   3.633  1.00  0.00     0.109 A   
ATOM     28  C16 UNL     1      -2.905   2.560   3.561  1.00  0.00     0.108 A   
ATOM     29  O1  UNL     1      -3.429   0.656   4.683  1.00  0.00    -0.316 OA  
ATOM     30  O2  UNL     1      -3.693   3.050   4.553  1.00  0.00    -0.316 OA  
ATOM     31  C19 UNL     1      -4.027   1.837   5.264  1.00  0.00     0.337 C   
ENDBRANCH  22  23
ENDBRANCH  19  22
ENDBRANCH  18  19
BRANCH  18  32
ATOM     32  C20 UNL     1       3.246  -0.488   1.106  1.00  0.00     0.043 C   
ATOM     33  C21 UNL     1       3.741   0.778   1.840  1.00  0.00     0.010 C   
ATOM     34  C25 UNL     1       4.379  -0.960   0.164  1.00  0.00     0.010 C   
ATOM     35  C22 UNL     1       4.156   1.889   0.877  1.00  0.00     0.001 C   
ATOM     36  C24 UNL     1       4.827   0.127  -0.815  1.00  0.00     0.001 C   
ATOM     37  C23 UNL     1       5.233   1.408  -0.091  1.00  0.00     0.000 C   
ENDBRANCH  18  32
ENDBRANCH   3  18
TORSDOF 9
