REMARK SMILES Cc1cc(Cn2cc([C@@H]([NH2+]Cc3ccc4c(c3)OCO4)C(C)C)nn2)ccc1N([O-])[O-]
REMARK SMILES IDX 6 1 7 2 8 3 24 4 25 5 5 7 4 8 2 9 3 10 28 11 27 12 26 13
REMARK SMILES IDX 1 14 29 15 30 16 31 17 9 18 10 19 11 22 12 23 13 24 17 25
REMARK SMILES IDX 14 26 16 27 15 28 18 29 20 30 19 31 21 32 22 33 23 34
REMARK H PARENT 7 6 10 20 10 21
ROOT
ATOM     1   N1  UNL     1       2.469  -1.803  -0.485  1.00  0.00    -0.208 N   
ATOM     2   C6  UNL     1       2.097  -0.494  -0.625  1.00  0.00     0.046 A   
ATOM     3   C7  UNL     1       2.385   0.067   0.600  1.00  0.00     0.127 A   
ATOM     4   N3  UNL     1       2.957  -0.883   1.405  1.00  0.00    -0.132 NA  
ATOM     5   N4  UNL     1       2.990  -2.025   0.737  1.00  0.00    -0.076 NA  
ATOM     6   H7  UNL     1       1.632  -0.115  -1.524  1.00  0.00     0.083 HD  
ENDROOT
BRANCH   1   7
ATOM     7   C5  UNL     1       2.287  -2.894  -1.430  1.00  0.00     0.169 C   
BRANCH   7   8
ATOM     8   C4  UNL     1       0.818  -3.204  -1.606  1.00  0.00    -0.028 A   
ATOM     9   C2  UNL     1      -1.249  -3.001  -2.913  1.00  0.00    -0.022 A   
ATOM     10  C3  UNL     1       0.129  -2.770  -2.753  1.00  0.00     0.011 A   
ATOM     11  C22 UNL     1      -1.929  -3.663  -1.874  1.00  0.00     0.121 A   
ATOM     12  C21 UNL     1      -1.253  -4.121  -0.734  1.00  0.00     0.032 A   
ATOM     13  C20 UNL     1       0.116  -3.892  -0.605  1.00  0.00     0.007 A   
ATOM     14  C1  UNL     1      -1.929  -2.514  -4.163  1.00  0.00     0.046 C   
BRANCH  11  15
ATOM     15  N5  UNL     1      -3.372  -3.880  -1.930  1.00  0.00     0.092 N   
ATOM     16  O3  UNL     1      -4.086  -2.918  -2.248  1.00  0.00    -0.138 OA  
ATOM     17  O4  UNL     1      -3.785  -5.006  -1.623  1.00  0.00    -0.138 OA  
ENDBRANCH  11  15
ENDBRANCH   7   8
ENDBRANCH   1   7
BRANCH   3  18
ATOM     18  C8  UNL     1       2.096   1.434   1.131  1.00  0.00     0.117 C   
BRANCH  18  19
ATOM     19  N2  UNL     1       1.791   1.421   2.612  1.00  0.00     0.249 N   
ATOM     20  H9  UNL     1       1.629   2.375   2.943  1.00  0.00     0.199 HD  
ATOM     21  H10 UNL     1       2.630   1.066   3.088  1.00  0.00     0.199 HD  
BRANCH  19  22
ATOM     22  C9  UNL     1       0.656   0.558   3.071  1.00  0.00     0.164 C   
BRANCH  22  23
ATOM     23  C10 UNL     1      -0.626   0.763   2.314  1.00  0.00    -0.002 A   
ATOM     24  C11 UNL     1      -1.379   1.951   2.466  1.00  0.00     0.012 A   
ATOM     25  C15 UNL     1      -1.071  -0.229   1.421  1.00  0.00     0.045 A   
ATOM     26  C12 UNL     1      -2.554   2.153   1.732  1.00  0.00     0.037 A   
ATOM     27  C14 UNL     1      -2.231   0.003   0.714  1.00  0.00     0.109 A   
ATOM     28  C13 UNL     1      -2.952   1.160   0.863  1.00  0.00     0.108 A   
ATOM     29  O1  UNL     1      -2.787  -0.845  -0.189  1.00  0.00    -0.316 OA  
ATOM     30  O2  UNL     1      -4.057   1.187   0.074  1.00  0.00    -0.316 OA  
ATOM     31  C16 UNL     1      -3.973  -0.106  -0.568  1.00  0.00     0.337 C   
ENDBRANCH  22  23
ENDBRANCH  19  22
ENDBRANCH  18  19
BRANCH  18  32
ATOM     32  C17 UNL     1       3.244   2.436   0.826  1.00  0.00     0.037 C   
ATOM     33  C18 UNL     1       2.812   3.887   1.070  1.00  0.00     0.014 C   
ATOM     34  C19 UNL     1       4.545   2.154   1.586  1.00  0.00     0.014 C   
ENDBRANCH  18  32
ENDBRANCH   3  18
TORSDOF 8
