REMARK SMILES CC(C)[C@H]([NH2+]Cc1ccc2c(c1)OCO2)c1cn(Cc2ccccc2[S+]([O-])[O-])nn1
REMARK SMILES IDX 16 1 17 2 18 3 29 4 30 5 4 7 2 8 1 9 3 10 5 11 6 14 7 15
REMARK SMILES IDX 8 16 12 17 9 18 11 19 10 20 13 21 15 22 14 23 19 24 20 25
REMARK SMILES IDX 21 26 25 27 22 28 24 29 23 30 26 31 27 32 28 33
REMARK H PARENT 17 6 5 12 5 13
ROOT
ATOM     1   C13 UNL     1      -2.163  -0.350  -1.734  1.00  0.00     0.127 A   
ATOM     2   C14 UNL     1      -1.355  -0.173  -2.839  1.00  0.00     0.046 A   
ATOM     3   N2  UNL     1      -1.720  -1.232  -3.627  1.00  0.00    -0.208 N   
ATOM     4   N3  UNL     1      -2.953  -1.665  -3.274  1.00  0.00    -0.076 NA  
ATOM     5   N4  UNL     1      -3.207  -1.171  -2.070  1.00  0.00    -0.132 NA  
ATOM     6   H18 UNL     1      -0.409   0.335  -2.967  1.00  0.00     0.083 HD  
ENDROOT
BRANCH   1   7
ATOM     7   C4  UNL     1      -1.842  -0.082  -0.295  1.00  0.00     0.117 C   
BRANCH   7   8
ATOM     8   C2  UNL     1      -1.718   1.410   0.093  1.00  0.00     0.037 C   
ATOM     9   C1  UNL     1      -0.544   2.168  -0.533  1.00  0.00     0.014 C   
ATOM     10  C3  UNL     1      -3.023   2.164  -0.193  1.00  0.00     0.014 C   
ENDBRANCH   7   8
BRANCH   7  11
ATOM     11  N1  UNL     1      -0.620  -0.868   0.050  1.00  0.00     0.249 N   
ATOM     12  H9  UNL     1      -0.598  -1.693  -0.597  1.00  0.00     0.199 HD  
ATOM     13  H10 UNL     1       0.261  -0.445  -0.314  1.00  0.00     0.199 HD  
BRANCH  11  14
ATOM     14  C5  UNL     1      -0.418  -1.442   1.382  1.00  0.00     0.164 C   
BRANCH  14  15
ATOM     15  C6  UNL     1      -0.037  -0.439   2.436  1.00  0.00    -0.002 A   
ATOM     16  C7  UNL     1      -0.910  -0.165   3.517  1.00  0.00     0.012 A   
ATOM     17  C11 UNL     1       1.192   0.239   2.350  1.00  0.00     0.045 A   
ATOM     18  C8  UNL     1      -0.572   0.779   4.492  1.00  0.00     0.037 A   
ATOM     19  C10 UNL     1       1.495   1.163   3.328  1.00  0.00     0.109 A   
ATOM     20  C9  UNL     1       0.636   1.427   4.367  1.00  0.00     0.108 A   
ATOM     21  O1  UNL     1       2.630   1.908   3.391  1.00  0.00    -0.316 OA  
ATOM     22  O2  UNL     1       1.122   2.373   5.215  1.00  0.00    -0.316 OA  
ATOM     23  C12 UNL     1       2.392   2.667   4.594  1.00  0.00     0.337 C   
ENDBRANCH  14  15
ENDBRANCH  11  14
ENDBRANCH   7  11
ENDBRANCH   1   7
BRANCH   3  24
ATOM     24  C15 UNL     1      -0.883  -2.073  -4.474  1.00  0.00     0.174 C   
BRANCH  24  25
ATOM     25  C16 UNL     1       0.499  -1.532  -4.764  1.00  0.00     0.028 A   
ATOM     26  C17 UNL     1       0.730  -1.037  -6.068  1.00  0.00     0.011 A   
ATOM     27  C21 UNL     1       1.566  -1.498  -3.838  1.00  0.00     0.172 A   
ATOM     28  C18 UNL     1       1.971  -0.526  -6.447  1.00  0.00     0.001 A   
ATOM     29  C20 UNL     1       2.810  -0.977  -4.239  1.00  0.00     0.063 A   
ATOM     30  C19 UNL     1       3.013  -0.496  -5.532  1.00  0.00     0.005 A   
BRANCH  27  31
ATOM     31  S1  UNL     1       1.495  -2.023  -2.078  1.00  0.00     0.041 S   
ATOM     32  O3  UNL     1       0.188  -2.718  -1.783  1.00  0.00    -0.672 OA  
ATOM     33  O4  UNL     1       1.627  -0.762  -1.247  1.00  0.00    -0.672 OA  
ENDBRANCH  27  31
ENDBRANCH  24  25
ENDBRANCH   3  24
TORSDOF 8
