REMARK SMILES c1cc2c(cc1C[NH2+][C@H](c1cn(Cc3n[nH]c4c3CCCN4)nn1)C1CCCCC1)OCO2
REMARK SMILES IDX 10 1 11 2 12 3 23 4 24 5 9 7 8 8 7 11 6 12 1 13 2 14 3 15
REMARK SMILES IDX 5 16 4 17 33 18 31 19 32 20 25 21 26 22 30 23 27 24 29 25
REMARK SMILES IDX 28 26 13 27 14 28 15 29 18 30 16 31 17 32 19 33 22 34 20 35
REMARK SMILES IDX 21 36
REMARK H PARENT 11 6 8 9 8 10 16 37 22 38
ROOT
ATOM     1   C9  UNL     1       0.482   1.751   1.647  1.00  0.00     0.127 A   
ATOM     2   C10 UNL     1       0.066   1.589   0.344  1.00  0.00     0.046 A   
ATOM     3   N2  UNL     1      -1.301   1.624   0.420  1.00  0.00    -0.206 N   
ATOM     4   N6  UNL     1      -1.699   1.871   1.682  1.00  0.00    -0.076 NA  
ATOM     5   N7  UNL     1      -0.616   1.942   2.442  1.00  0.00    -0.132 NA  
ATOM     6   H9  UNL     1       0.569   1.371  -0.588  1.00  0.00     0.083 HD  
ENDROOT
BRANCH   1   7
ATOM     7   C8  UNL     1       1.829   1.575   2.270  1.00  0.00     0.117 C   
BRANCH   7   8
ATOM     8   N1  UNL     1       2.359   0.192   1.975  1.00  0.00     0.249 N   
ATOM     9   H6  UNL     1       2.279   0.020   0.964  1.00  0.00     0.199 HD  
ATOM     10  H7  UNL     1       3.356   0.130   2.204  1.00  0.00     0.199 HD  
BRANCH   8  11
ATOM     11  C7  UNL     1       1.644  -0.914   2.685  1.00  0.00     0.164 C   
BRANCH  11  12
ATOM     12  C6  UNL     1       1.870  -2.218   1.973  1.00  0.00    -0.002 A   
ATOM     13  C1  UNL     1       3.038  -2.982   2.203  1.00  0.00     0.012 A   
ATOM     14  C2  UNL     1       3.270  -4.166   1.493  1.00  0.00     0.037 A   
ATOM     15  C3  UNL     1       2.331  -4.555   0.561  1.00  0.00     0.108 A   
ATOM     16  C5  UNL     1       0.936  -2.651   1.012  1.00  0.00     0.045 A   
ATOM     17  C4  UNL     1       1.196  -3.819   0.327  1.00  0.00     0.109 A   
ATOM     18  O2  UNL     1       2.393  -5.669  -0.213  1.00  0.00    -0.316 OA  
ATOM     19  O1  UNL     1       0.402  -4.372  -0.630  1.00  0.00    -0.316 OA  
ATOM     20  C24 UNL     1       1.141  -5.581  -0.925  1.00  0.00     0.337 C   
ENDBRANCH  11  12
ENDBRANCH   8  11
ENDBRANCH   7   8
BRANCH   7  21
ATOM     21  C18 UNL     1       2.900   2.624   1.879  1.00  0.00     0.043 C   
ATOM     22  C19 UNL     1       2.487   4.042   2.318  1.00  0.00     0.010 C   
ATOM     23  C23 UNL     1       3.307   2.626   0.393  1.00  0.00     0.010 C   
ATOM     24  C20 UNL     1       3.588   5.061   2.037  1.00  0.00     0.001 C   
ATOM     25  C22 UNL     1       4.410   3.648   0.115  1.00  0.00     0.001 C   
ATOM     26  C21 UNL     1       4.014   5.048   0.572  1.00  0.00     0.000 C   
ENDBRANCH   7  21
ENDBRANCH   1   7
BRANCH   3  27
ATOM     27  C11 UNL     1      -2.259   1.360  -0.639  1.00  0.00     0.192 C   
BRANCH  27  28
ATOM     28  C12 UNL     1      -2.338  -0.109  -0.906  1.00  0.00     0.084 A   
ATOM     29  N3  UNL     1      -1.266  -0.793  -1.364  1.00  0.00    -0.186 NA  
ATOM     30  C14 UNL     1      -3.461  -0.958  -0.744  1.00  0.00     0.014 A   
ATOM     31  N4  UNL     1      -1.724  -2.061  -1.509  1.00  0.00    -0.225 N   
ATOM     32  C13 UNL     1      -3.026  -2.194  -1.141  1.00  0.00     0.107 A   
ATOM     33  C15 UNL     1      -4.857  -0.734  -0.288  1.00  0.00     0.042 C   
ATOM     34  N5  UNL     1      -3.741  -3.338  -1.140  1.00  0.00    -0.331 N   
ATOM     35  C16 UNL     1      -5.511  -2.082   0.083  1.00  0.00     0.024 C   
ATOM     36  C17 UNL     1      -5.192  -3.186  -0.948  1.00  0.00     0.103 C   
ATOM     37  H12 UNL     1      -1.088  -2.788  -1.819  1.00  0.00     0.177 HD  
ATOM     38  H19 UNL     1      -3.473  -4.128  -1.724  1.00  0.00     0.148 HD  
ENDBRANCH  27  28
ENDBRANCH   3  27
TORSDOF 7
