REMARK SMILES Cc1cnc(CCn2cc([C@@H]([NH2+]Cc3ccc4c(c3)OCO4)C(C)(C)C)nn2)cn1
REMARK SMILES IDX 8 1 9 2 10 3 27 4 28 5 7 7 6 8 5 9 2 10 3 11 30 12 4 13
REMARK SMILES IDX 29 14 1 15 11 16 12 17 13 20 14 21 15 22 19 23 16 24 18 25
REMARK SMILES IDX 17 26 20 27 22 28 21 29 23 30 24 31 25 32 26 33
REMARK H PARENT 9 6 12 18 12 19
ROOT
ATOM     1   N2  UNL     1       0.691  -1.786   3.431  1.00  0.00    -0.212 N   
ATOM     2   C7  UNL     1       0.215  -1.914   2.158  1.00  0.00     0.045 A   
ATOM     3   C8  UNL     1       1.279  -1.543   1.367  1.00  0.00     0.127 A   
ATOM     4   N4  UNL     1       2.337  -1.199   2.168  1.00  0.00    -0.132 NA  
ATOM     5   N5  UNL     1       1.966  -1.355   3.429  1.00  0.00    -0.076 NA  
ATOM     6   H9  UNL     1      -0.804  -2.213   1.947  1.00  0.00     0.083 HD  
ENDROOT
BRANCH   1   7
ATOM     7   C6  UNL     1      -0.025  -1.969   4.677  1.00  0.00     0.140 C   
BRANCH   7   8
ATOM     8   C5  UNL     1      -0.166  -0.672   5.473  1.00  0.00     0.079 C   
BRANCH   8   9
ATOM     9   C4  UNL     1      -0.903   0.395   4.709  1.00  0.00     0.060 A   
ATOM     10  C2  UNL     1      -2.256   2.367   3.447  1.00  0.00     0.056 A   
ATOM     11  C3  UNL     1      -2.772   1.083   3.559  1.00  0.00     0.134 A   
ATOM     12  N6  UNL     1      -1.025   2.669   3.928  1.00  0.00    -0.258 NA  
ATOM     13  N1  UNL     1      -2.102   0.070   4.165  1.00  0.00    -0.258 NA  
ATOM     14  C22 UNL     1      -0.383   1.677   4.587  1.00  0.00     0.135 A   
ATOM     15  C1  UNL     1      -3.031   3.452   2.769  1.00  0.00     0.068 C   
ENDBRANCH   8   9
ENDBRANCH   7   8
ENDBRANCH   1   7
BRANCH   3  16
ATOM     16  C9  UNL     1       1.383  -1.370  -0.116  1.00  0.00     0.120 C   
BRANCH  16  17
ATOM     17  N3  UNL     1       2.094  -0.064  -0.416  1.00  0.00     0.250 N   
ATOM     18  H11 UNL     1       2.984  -0.095   0.098  1.00  0.00     0.199 HD  
ATOM     19  H12 UNL     1       2.313   0.011  -1.410  1.00  0.00     0.199 HD  
BRANCH  17  20
ATOM     20  C10 UNL     1       1.393   1.189   0.007  1.00  0.00     0.164 C   
BRANCH  20  21
ATOM     21  C11 UNL     1       0.072   1.385  -0.685  1.00  0.00    -0.002 A   
ATOM     22  C12 UNL     1       0.018   1.771  -2.045  1.00  0.00     0.012 A   
ATOM     23  C16 UNL     1      -1.123   1.139   0.013  1.00  0.00     0.045 A   
ATOM     24  C13 UNL     1      -1.209   1.906  -2.704  1.00  0.00     0.037 A   
ATOM     25  C15 UNL     1      -2.315   1.281  -0.664  1.00  0.00     0.109 A   
ATOM     26  C14 UNL     1      -2.357   1.652  -1.985  1.00  0.00     0.108 A   
ATOM     27  O1  UNL     1      -3.552   1.077  -0.139  1.00  0.00    -0.316 OA  
ATOM     28  O2  UNL     1      -3.627   1.727  -2.462  1.00  0.00    -0.316 OA  
ATOM     29  C17 UNL     1      -4.385   1.385  -1.281  1.00  0.00     0.337 C   
ENDBRANCH  20  21
ENDBRANCH  17  20
ENDBRANCH  16  17
BRANCH  16  30
ATOM     30  C18 UNL     1       2.089  -2.561  -0.856  1.00  0.00     0.010 C   
ATOM     31  C19 UNL     1       3.569  -2.728  -0.459  1.00  0.00     0.017 C   
ATOM     32  C20 UNL     1       2.021  -2.357  -2.388  1.00  0.00     0.017 C   
ATOM     33  C21 UNL     1       1.351  -3.884  -0.546  1.00  0.00     0.017 C   
ENDBRANCH  16  30
ENDBRANCH   3  16
TORSDOF 8
