REMARK SMILES CC(C)C[C@H]([NH2+]Cc1ccc2c(c1)OCO2)c1cn(Cc2cc(Cl)cnc2F)nn1
REMARK SMILES IDX 17 1 18 2 19 3 29 4 30 5 5 7 4 8 2 9 1 10 3 11 6 12 7 15
REMARK SMILES IDX 8 16 9 17 13 18 10 19 12 20 11 21 14 22 16 23 15 24 20 25
REMARK SMILES IDX 21 26 22 27 27 28 23 29 26 30 25 31 28 32 24 33
REMARK H PARENT 18 6 6 13 6 14
ROOT
ATOM     1   C14 UNL     1      -0.111   0.293  -0.900  1.00  0.00     0.127 A   
ATOM     2   C15 UNL     1      -1.475   0.248  -0.720  1.00  0.00     0.046 A   
ATOM     3   N2  UNL     1      -1.778  -1.079  -0.833  1.00  0.00    -0.208 N   
ATOM     4   N4  UNL     1      -0.673  -1.805  -1.093  1.00  0.00    -0.076 NA  
ATOM     5   N5  UNL     1       0.354  -0.975  -1.140  1.00  0.00    -0.132 NA  
ATOM     6   H20 UNL     1      -2.225   1.000  -0.515  1.00  0.00     0.083 HD  
ENDROOT
BRANCH   1   7
ATOM     7   C5  UNL     1       0.850   1.436  -0.852  1.00  0.00     0.114 C   
BRANCH   7   8
ATOM     8   C4  UNL     1       1.071   2.008  -2.265  1.00  0.00     0.064 C   
BRANCH   8   9
ATOM     9   C2  UNL     1       1.889   3.313  -2.353  1.00  0.00    -0.012 C   
ATOM     10  C1  UNL     1       2.027   3.731  -3.820  1.00  0.00     0.007 C   
ATOM     11  C3  UNL     1       1.256   4.455  -1.554  1.00  0.00     0.007 C   
ENDBRANCH   8   9
ENDBRANCH   7   8
BRANCH   7  12
ATOM     12  N1  UNL     1       2.176   0.980  -0.293  1.00  0.00     0.249 N   
ATOM     13  H11 UNL     1       2.269  -0.014  -0.562  1.00  0.00     0.199 HD  
ATOM     14  H12 UNL     1       2.954   1.467  -0.748  1.00  0.00     0.199 HD  
BRANCH  12  15
ATOM     15  C6  UNL     1       2.339   1.079   1.187  1.00  0.00     0.164 C   
BRANCH  15  16
ATOM     16  C7  UNL     1       1.535   0.067   1.952  1.00  0.00    -0.002 A   
ATOM     17  C8  UNL     1       0.337   0.439   2.608  1.00  0.00     0.012 A   
ATOM     18  C12 UNL     1       1.945  -1.277   1.980  1.00  0.00     0.045 A   
ATOM     19  C9  UNL     1      -0.446  -0.514   3.271  1.00  0.00     0.037 A   
ATOM     20  C11 UNL     1       1.153  -2.188   2.647  1.00  0.00     0.109 A   
ATOM     21  C10 UNL     1      -0.012  -1.820   3.270  1.00  0.00     0.108 A   
ATOM     22  O1  UNL     1       1.409  -3.516   2.765  1.00  0.00    -0.316 OA  
ATOM     23  O2  UNL     1      -0.640  -2.872   3.855  1.00  0.00    -0.316 OA  
ATOM     24  C13 UNL     1       0.275  -3.947   3.545  1.00  0.00     0.337 C   
ENDBRANCH  15  16
ENDBRANCH  12  15
ENDBRANCH   7  12
ENDBRANCH   1   7
BRANCH   3  25
ATOM     25  C16 UNL     1      -3.082  -1.714  -0.753  1.00  0.00     0.174 C   
BRANCH  25  26
ATOM     26  C17 UNL     1      -3.415  -2.109   0.652  1.00  0.00     0.028 A   
ATOM     27  C18 UNL     1      -3.274  -3.426   1.105  1.00  0.00     0.032 A   
ATOM     28  C21 UNL     1      -3.867  -1.160   1.562  1.00  0.00     0.217 A   
ATOM     29  C19 UNL     1      -3.603  -3.736   2.422  1.00  0.00     0.059 A   
ATOM     30  N3  UNL     1      -4.182  -1.425   2.846  1.00  0.00    -0.226 NA  
ATOM     31  C20 UNL     1      -4.050  -2.713   3.246  1.00  0.00     0.134 A   
ATOM     32  F1  UNL     1      -3.980   0.113   1.163  1.00  0.00    -0.185 F   
ATOM     33  CL1 UNL     1      -3.446  -5.342   3.006  1.00  0.00    -0.083 Cl  
ENDBRANCH  25  26
ENDBRANCH   3  25
TORSDOF 8
