REMARK SMILES CN(C)c1ccc(Cn2cc([C@@H]([NH2+]Cc3ccc4c(c3)OCO4)C(C)(C)C)nn2)cn1
REMARK SMILES IDX 9 1 10 2 11 3 28 4 29 5 8 7 7 8 4 9 5 10 31 11 6 12 30 13
REMARK SMILES IDX 2 14 1 15 3 16 12 17 13 18 14 21 15 22 16 23 20 24 17 25
REMARK SMILES IDX 19 26 18 27 21 28 23 29 22 30 24 31 25 32 26 33 27 34
REMARK H PARENT 10 6 13 19 13 20
ROOT
ATOM     1   N2  UNL     1      -2.967  -1.288  -0.451  1.00  0.00    -0.208 N   
ATOM     2   C8  UNL     1      -2.149  -2.034   0.353  1.00  0.00     0.046 A   
ATOM     3   C9  UNL     1      -1.553  -1.104   1.176  1.00  0.00     0.127 A   
ATOM     4   N4  UNL     1      -2.025   0.144   0.858  1.00  0.00    -0.132 NA  
ATOM     5   N5  UNL     1      -2.888   0.018  -0.135  1.00  0.00    -0.076 NA  
ATOM     6   H11 UNL     1      -2.046  -3.103   0.239  1.00  0.00     0.083 HD  
ENDROOT
BRANCH   1   7
ATOM     7   C7  UNL     1      -3.747  -1.726  -1.597  1.00  0.00     0.171 C   
BRANCH   7   8
ATOM     8   C6  UNL     1      -2.850  -1.968  -2.777  1.00  0.00    -0.010 A   
ATOM     9   C3  UNL     1      -1.082  -2.313  -4.905  1.00  0.00     0.119 A   
ATOM     10  C4  UNL     1      -1.750  -3.413  -4.360  1.00  0.00     0.045 A   
ATOM     11  N6  UNL     1      -1.282  -1.077  -4.395  1.00  0.00    -0.241 NA  
ATOM     12  C5  UNL     1      -2.636  -3.244  -3.294  1.00  0.00     0.010 A   
ATOM     13  C23 UNL     1      -2.159  -0.924  -3.379  1.00  0.00     0.118 A   
BRANCH   9  14
ATOM     14  N1  UNL     1      -0.158  -2.500  -5.951  1.00  0.00    -0.322 N   
ATOM     15  C1  UNL     1       0.625  -1.298  -6.245  1.00  0.00     0.131 C   
ATOM     16  C2  UNL     1      -0.752  -3.119  -7.139  1.00  0.00     0.131 C   
ENDBRANCH   9  14
ENDBRANCH   7   8
ENDBRANCH   1   7
BRANCH   3  17
ATOM     17  C10 UNL     1      -0.467  -1.236   2.202  1.00  0.00     0.120 C   
BRANCH  17  18
ATOM     18  N3  UNL     1       0.469  -0.058   2.054  1.00  0.00     0.250 N   
ATOM     19  H13 UNL     1       1.036   0.105   2.889  1.00  0.00     0.199 HD  
ATOM     20  H14 UNL     1      -0.127   0.778   1.944  1.00  0.00     0.199 HD  
BRANCH  18  21
ATOM     21  C11 UNL     1       1.370  -0.110   0.867  1.00  0.00     0.164 C   
BRANCH  21  22
ATOM     22  C12 UNL     1       2.133   1.177   0.733  1.00  0.00    -0.002 A   
ATOM     23  C13 UNL     1       1.597   2.238  -0.038  1.00  0.00     0.012 A   
ATOM     24  C17 UNL     1       3.351   1.357   1.412  1.00  0.00     0.045 A   
ATOM     25  C14 UNL     1       2.271   3.460  -0.143  1.00  0.00     0.037 A   
ATOM     26  C16 UNL     1       3.988   2.575   1.288  1.00  0.00     0.109 A   
ATOM     27  C15 UNL     1       3.464   3.596   0.534  1.00  0.00     0.108 A   
ATOM     28  O1  UNL     1       5.169   2.910   1.872  1.00  0.00    -0.316 OA  
ATOM     29  O2  UNL     1       4.246   4.706   0.549  1.00  0.00    -0.316 OA  
ATOM     30  C18 UNL     1       5.346   4.257   1.373  1.00  0.00     0.337 C   
ENDBRANCH  21  22
ENDBRANCH  18  21
ENDBRANCH  17  18
BRANCH  17  31
ATOM     31  C19 UNL     1      -0.986  -1.347   3.677  1.00  0.00     0.010 C   
ATOM     32  C20 UNL     1       0.192  -1.605   4.645  1.00  0.00     0.017 C   
ATOM     33  C21 UNL     1      -1.727  -0.079   4.146  1.00  0.00     0.017 C   
ATOM     34  C22 UNL     1      -1.949  -2.549   3.808  1.00  0.00     0.017 C   
ENDBRANCH  17  31
ENDBRANCH   3  17
TORSDOF 8
