REMARK SMILES Cc1ccc(CCn2cc([C@@H]([NH2+]Cc3ccc4c(c3)OCO4)C(C)C)nn2)c(O)c1
REMARK SMILES IDX 8 1 9 2 10 3 26 4 27 5 7 7 6 8 5 9 2 10 3 11 30 12 4 13
REMARK SMILES IDX 28 14 1 15 29 16 11 18 12 19 13 22 14 23 15 24 19 25 16 26
REMARK SMILES IDX 18 27 17 28 20 29 22 30 21 31 23 32 24 33 25 34
REMARK H PARENT 9 6 29 17 12 20 12 21
ROOT
ATOM     1   N1  UNL     1       1.692   1.993  -2.298  1.00  0.00    -0.212 N   
ATOM     2   C8  UNL     1       0.926   1.990  -1.165  1.00  0.00     0.045 A   
ATOM     3   C9  UNL     1       1.636   1.185  -0.300  1.00  0.00     0.127 A   
ATOM     4   N3  UNL     1       2.827   0.831  -0.883  1.00  0.00    -0.132 NA  
ATOM     5   N4  UNL     1       2.853   1.338  -2.104  1.00  0.00    -0.076 NA  
ATOM     6   H10 UNL     1      -0.070   2.415  -1.134  1.00  0.00     0.083 HD  
ENDROOT
BRANCH   1   7
ATOM     7   C7  UNL     1       1.268   2.324  -3.643  1.00  0.00     0.139 C   
BRANCH   7   8
ATOM     8   C6  UNL     1       0.951   1.065  -4.464  1.00  0.00     0.059 C   
BRANCH   8   9
ATOM     9   C5  UNL     1      -0.289   0.335  -3.981  1.00  0.00    -0.016 A   
ATOM     10  C2  UNL     1      -2.714  -0.873  -3.146  1.00  0.00    -0.049 A   
ATOM     11  C3  UNL     1      -2.721   0.124  -4.122  1.00  0.00     0.004 A   
ATOM     12  C23 UNL     1      -1.492  -1.258  -2.584  1.00  0.00     0.036 A   
ATOM     13  C4  UNL     1      -1.525   0.718  -4.534  1.00  0.00     0.007 A   
ATOM     14  C22 UNL     1      -0.295  -0.662  -2.992  1.00  0.00     0.075 A   
ATOM     15  C1  UNL     1      -4.001  -1.476  -2.665  1.00  0.00     0.044 C   
BRANCH  14  16
ATOM     16  O3  UNL     1       0.830  -1.099  -2.335  1.00  0.00    -0.361 OA  
ATOM     17  H28 UNL     1       1.612  -0.801  -2.843  1.00  0.00     0.218 HD  
ENDBRANCH  14  16
ENDBRANCH   8   9
ENDBRANCH   7   8
ENDBRANCH   1   7
BRANCH   3  18
ATOM     18  C10 UNL     1       1.218   0.528   0.979  1.00  0.00     0.117 C   
BRANCH  18  19
ATOM     19  N2  UNL     1       1.536  -0.940   0.824  1.00  0.00     0.249 N   
ATOM     20  H12 UNL     1       1.092  -1.230  -0.063  1.00  0.00     0.199 HD  
ATOM     21  H13 UNL     1       2.541  -1.014   0.620  1.00  0.00     0.199 HD  
BRANCH  19  22
ATOM     22  C11 UNL     1       1.144  -1.894   1.889  1.00  0.00     0.164 C   
BRANCH  22  23
ATOM     23  C12 UNL     1      -0.336  -1.912   2.160  1.00  0.00    -0.002 A   
ATOM     24  C13 UNL     1      -0.856  -1.369   3.361  1.00  0.00     0.012 A   
ATOM     25  C17 UNL     1      -1.217  -2.446   1.204  1.00  0.00     0.045 A   
ATOM     26  C14 UNL     1      -2.233  -1.343   3.601  1.00  0.00     0.037 A   
ATOM     27  C16 UNL     1      -2.572  -2.397   1.467  1.00  0.00     0.109 A   
ATOM     28  C15 UNL     1      -3.065  -1.859   2.631  1.00  0.00     0.108 A   
ATOM     29  O1  UNL     1      -3.558  -2.840   0.641  1.00  0.00    -0.316 OA  
ATOM     30  O2  UNL     1      -4.420  -1.899   2.688  1.00  0.00    -0.316 OA  
ATOM     31  C18 UNL     1      -4.729  -2.559   1.440  1.00  0.00     0.337 C   
ENDBRANCH  22  23
ENDBRANCH  19  22
ENDBRANCH  18  19
BRANCH  18  32
ATOM     32  C19 UNL     1       1.865   1.137   2.248  1.00  0.00     0.037 C   
ATOM     33  C20 UNL     1       3.393   1.026   2.308  1.00  0.00     0.014 C   
ATOM     34  C21 UNL     1       1.445   2.603   2.426  1.00  0.00     0.014 C   
ENDBRANCH  18  32
ENDBRANCH   3  18
TORSDOF 9
