REMARK SMILES C[C@@H]1Cc2cc(Cn3cc([C@@H]([NH2+]Cc4ccc5c(c4)OCO5)C(C)(C)C)nn3)ccc2O1
REMARK SMILES IDX 8 1 9 2 10 3 27 4 28 5 7 7 6 8 2 9 3 10 32 11 4 12 31 13
REMARK SMILES IDX 5 14 30 15 29 16 1 17 11 18 12 19 13 22 14 23 15 24 19 25
REMARK SMILES IDX 16 26 18 27 17 28 20 29 22 30 21 31 23 32 24 33 25 34 26 35
REMARK H PARENT 9 6 12 20 12 21
ROOT
ATOM     1   N1  UNL     1       2.047  -1.307   1.752  1.00  0.00    -0.208 N   
ATOM     2   C8  UNL     1       1.864  -1.147   0.405  1.00  0.00     0.046 A   
ATOM     3   C9  UNL     1       1.894   0.218   0.224  1.00  0.00     0.127 A   
ATOM     4   N3  UNL     1       2.081   0.828   1.438  1.00  0.00    -0.132 NA  
ATOM     5   N4  UNL     1       2.174  -0.113   2.362  1.00  0.00    -0.076 NA  
ATOM     6   H10 UNL     1       1.720  -1.986  -0.261  1.00  0.00     0.083 HD  
ENDROOT
BRANCH   1   7
ATOM     7   C7  UNL     1       2.090  -2.542   2.517  1.00  0.00     0.169 C   
BRANCH   7   8
ATOM     8   C6  UNL     1       0.701  -3.091   2.735  1.00  0.00    -0.028 A   
ATOM     9   C2  UNL     1      -3.108  -5.660   2.251  1.00  0.00     0.126 C   
ATOM     10  C3  UNL     1      -1.667  -5.949   1.802  1.00  0.00     0.070 C   
ATOM     11  O3  UNL     1      -3.084  -4.652   3.293  1.00  0.00    -0.343 OA  
ATOM     12  C4  UNL     1      -1.004  -4.721   2.299  1.00  0.00    -0.015 A   
ATOM     13  C25 UNL     1      -1.859  -4.058   3.160  1.00  0.00     0.079 A   
ATOM     14  C5  UNL     1       0.282  -4.258   2.073  1.00  0.00     0.012 A   
ATOM     15  C24 UNL     1      -1.477  -2.920   3.833  1.00  0.00     0.034 A   
ATOM     16  C23 UNL     1      -0.186  -2.434   3.617  1.00  0.00     0.008 A   
ATOM     17  C1  UNL     1      -3.810  -6.900   2.781  1.00  0.00     0.039 C   
ENDBRANCH   7   8
ENDBRANCH   1   7
BRANCH   3  18
ATOM     18  C10 UNL     1       1.671   1.065  -0.993  1.00  0.00     0.120 C   
BRANCH  18  19
ATOM     19  N2  UNL     1       0.899   2.297  -0.580  1.00  0.00     0.250 N   
ATOM     20  H12 UNL     1       1.344   2.648   0.282  1.00  0.00     0.199 HD  
ATOM     21  H13 UNL     1       0.968   3.054  -1.264  1.00  0.00     0.199 HD  
BRANCH  19  22
ATOM     22  C11 UNL     1      -0.540   2.071  -0.265  1.00  0.00     0.164 C   
BRANCH  22  23
ATOM     23  C12 UNL     1      -1.173   3.341   0.226  1.00  0.00    -0.002 A   
ATOM     24  C13 UNL     1      -1.121   3.671   1.601  1.00  0.00     0.012 A   
ATOM     25  C17 UNL     1      -1.765   4.236  -0.681  1.00  0.00     0.045 A   
ATOM     26  C14 UNL     1      -1.665   4.870   2.072  1.00  0.00     0.037 A   
ATOM     27  C16 UNL     1      -2.290   5.409  -0.183  1.00  0.00     0.109 A   
ATOM     28  C15 UNL     1      -2.243   5.718   1.154  1.00  0.00     0.108 A   
ATOM     29  O1  UNL     1      -2.892   6.379  -0.920  1.00  0.00    -0.316 OA  
ATOM     30  O2  UNL     1      -2.815   6.918   1.428  1.00  0.00    -0.316 OA  
ATOM     31  C18 UNL     1      -3.250   7.325   0.113  1.00  0.00     0.337 C   
ENDBRANCH  22  23
ENDBRANCH  19  22
ENDBRANCH  18  19
BRANCH  18  32
ATOM     32  C19 UNL     1       2.988   1.469  -1.745  1.00  0.00     0.010 C   
ATOM     33  C20 UNL     1       2.647   2.205  -3.062  1.00  0.00     0.017 C   
ATOM     34  C21 UNL     1       3.900   2.382  -0.902  1.00  0.00     0.017 C   
ATOM     35  C22 UNL     1       3.790   0.205  -2.135  1.00  0.00     0.017 C   
ENDBRANCH  18  32
ENDBRANCH   3  18
TORSDOF 7
