REMARK SMILES C[C@H]1Cc2cc(Cn3cc([C@@H]([NH2+]Cc4ccc5c(c4)OCO5)C(C)(C)C)nn3)ccc2O1
REMARK SMILES IDX 8 1 9 2 10 3 27 4 28 5 7 7 6 8 2 9 3 10 32 11 4 12 31 13
REMARK SMILES IDX 5 14 30 15 29 16 1 17 11 18 12 19 13 22 14 23 15 24 19 25
REMARK SMILES IDX 16 26 18 27 17 28 20 29 22 30 21 31 23 32 24 33 25 34 26 35
REMARK H PARENT 9 6 12 20 12 21
ROOT
ATOM     1   N1  UNL     1       2.992  -1.128  -0.715  1.00  0.00    -0.208 N   
ATOM     2   C8  UNL     1       1.803  -1.806  -0.696  1.00  0.00     0.046 A   
ATOM     3   C9  UNL     1       1.006  -1.104  -1.572  1.00  0.00     0.127 A   
ATOM     4   N3  UNL     1       1.723  -0.055  -2.091  1.00  0.00    -0.132 NA  
ATOM     5   N4  UNL     1       2.934  -0.081  -1.561  1.00  0.00    -0.076 NA  
ATOM     6   H10 UNL     1       1.637  -2.664  -0.059  1.00  0.00     0.083 HD  
ENDROOT
BRANCH   1   7
ATOM     7   C7  UNL     1       4.181  -1.373   0.085  1.00  0.00     0.169 C   
BRANCH   7   8
ATOM     8   C6  UNL     1       3.947  -0.962   1.519  1.00  0.00    -0.028 A   
ATOM     9   C2  UNL     1       3.393  -1.196   6.093  1.00  0.00     0.126 C   
ATOM     10  C3  UNL     1       3.293  -2.312   5.041  1.00  0.00     0.070 C   
ATOM     11  O3  UNL     1       3.164   0.081   5.441  1.00  0.00    -0.343 OA  
ATOM     12  C4  UNL     1       3.543  -1.514   3.818  1.00  0.00    -0.015 A   
ATOM     13  C25 UNL     1       3.441  -0.167   4.123  1.00  0.00     0.079 A   
ATOM     14  C5  UNL     1       3.790  -1.935   2.522  1.00  0.00     0.012 A   
ATOM     15  C24 UNL     1       3.587   0.813   3.165  1.00  0.00     0.034 A   
ATOM     16  C23 UNL     1       3.851   0.410   1.854  1.00  0.00     0.008 A   
ATOM     17  C1  UNL     1       2.383  -1.361   7.217  1.00  0.00     0.039 C   
ENDBRANCH   7   8
ENDBRANCH   1   7
BRANCH   3  18
ATOM     18  C10 UNL     1      -0.446  -1.242  -1.922  1.00  0.00     0.120 C   
BRANCH  18  19
ATOM     19  N2  UNL     1      -1.032   0.144  -2.061  1.00  0.00     0.250 N   
ATOM     20  H12 UNL     1      -0.357   0.692  -2.617  1.00  0.00     0.199 HD  
ATOM     21  H13 UNL     1      -1.909   0.155  -2.588  1.00  0.00     0.199 HD  
BRANCH  19  22
ATOM     22  C11 UNL     1      -1.235   0.878  -0.778  1.00  0.00     0.164 C   
BRANCH  22  23
ATOM     23  C12 UNL     1      -1.648   2.297  -1.044  1.00  0.00    -0.002 A   
ATOM     24  C13 UNL     1      -0.663   3.289  -1.267  1.00  0.00     0.012 A   
ATOM     25  C17 UNL     1      -3.008   2.639  -1.124  1.00  0.00     0.045 A   
ATOM     26  C14 UNL     1      -1.026   4.610  -1.552  1.00  0.00     0.037 A   
ATOM     27  C16 UNL     1      -3.331   3.950  -1.407  1.00  0.00     0.109 A   
ATOM     28  C15 UNL     1      -2.369   4.908  -1.614  1.00  0.00     0.108 A   
ATOM     29  O1  UNL     1      -4.590   4.446  -1.519  1.00  0.00    -0.316 OA  
ATOM     30  O2  UNL     1      -2.901   6.129  -1.879  1.00  0.00    -0.316 OA  
ATOM     31  C18 UNL     1      -4.313   5.840  -1.788  1.00  0.00     0.337 C   
ENDBRANCH  22  23
ENDBRANCH  19  22
ENDBRANCH  18  19
BRANCH  18  32
ATOM     32  C19 UNL     1      -0.722  -2.087  -3.213  1.00  0.00     0.010 C   
ATOM     33  C20 UNL     1      -2.243  -2.305  -3.393  1.00  0.00     0.017 C   
ATOM     34  C21 UNL     1      -0.081  -3.487  -3.080  1.00  0.00     0.017 C   
ATOM     35  C22 UNL     1      -0.175  -1.421  -4.491  1.00  0.00     0.017 C   
ENDBRANCH  18  32
ENDBRANCH   3  18
TORSDOF 7
