REMARK SMILES CC(C)(C)[C@H]([NH2+]Cc1ccc2c(c1)OCO2)c1cn(CCc2ccc3c(c2)OCO3)nn1
REMARK SMILES IDX 17 1 18 2 19 3 31 4 32 5 5 7 2 8 1 9 3 10 4 11 6 12 7 15
REMARK SMILES IDX 8 16 9 17 13 18 10 19 12 20 11 21 14 22 16 23 15 24 20 25
REMARK SMILES IDX 21 26 22 27 23 28 27 29 24 30 26 31 25 32 28 33 30 34 29 35
REMARK H PARENT 18 6 6 13 6 14
ROOT
ATOM     1   C14 UNL     1      -0.254  -1.121   0.325  1.00  0.00     0.127 A   
ATOM     2   C15 UNL     1      -1.107  -2.159   0.625  1.00  0.00     0.045 A   
ATOM     3   N2  UNL     1      -1.183  -2.870  -0.538  1.00  0.00    -0.212 N   
ATOM     4   N3  UNL     1      -0.363  -2.357  -1.473  1.00  0.00    -0.076 NA  
ATOM     5   N4  UNL     1       0.198  -1.275  -0.964  1.00  0.00    -0.132 NA  
ATOM     6   H20 UNL     1      -1.681  -2.422   1.501  1.00  0.00     0.083 HD  
ENDROOT
BRANCH   1   7
ATOM     7   C5  UNL     1       0.255   0.035   1.138  1.00  0.00     0.120 C   
BRANCH   7   8
ATOM     8   C2  UNL     1      -0.695   1.283   1.142  1.00  0.00     0.010 C   
ATOM     9   C1  UNL     1      -0.121   2.398   2.049  1.00  0.00     0.017 C   
ATOM     10  C3  UNL     1      -0.909   1.869  -0.268  1.00  0.00     0.017 C   
ATOM     11  C4  UNL     1      -2.075   0.901   1.725  1.00  0.00     0.017 C   
ENDBRANCH   7   8
BRANCH   7  12
ATOM     12  N1  UNL     1       1.619   0.412   0.604  1.00  0.00     0.250 N   
ATOM     13  H11 UNL     1       1.565   0.294  -0.421  1.00  0.00     0.199 HD  
ATOM     14  H12 UNL     1       1.859   1.396   0.758  1.00  0.00     0.199 HD  
BRANCH  12  15
ATOM     15  C6  UNL     1       2.740  -0.448   1.074  1.00  0.00     0.164 C   
BRANCH  15  16
ATOM     16  C7  UNL     1       4.023  -0.069   0.387  1.00  0.00    -0.002 A   
ATOM     17  C8  UNL     1       4.444  -0.772  -0.767  1.00  0.00     0.012 A   
ATOM     18  C12 UNL     1       4.779   1.024   0.851  1.00  0.00     0.045 A   
ATOM     19  C9  UNL     1       5.613  -0.407  -1.442  1.00  0.00     0.037 A   
ATOM     20  C11 UNL     1       5.920   1.361   0.156  1.00  0.00     0.109 A   
ATOM     21  C10 UNL     1       6.329   0.663  -0.954  1.00  0.00     0.108 A   
ATOM     22  O1  UNL     1       6.750   2.398   0.455  1.00  0.00    -0.316 OA  
ATOM     23  O2  UNL     1       7.476   1.162  -1.485  1.00  0.00    -0.316 OA  
ATOM     24  C13 UNL     1       7.734   2.273  -0.597  1.00  0.00     0.337 C   
ENDBRANCH  15  16
ENDBRANCH  12  15
ENDBRANCH   7  12
ENDBRANCH   1   7
BRANCH   3  25
ATOM     25  C16 UNL     1      -2.025  -4.008  -0.841  1.00  0.00     0.139 C   
BRANCH  25  26
ATOM     26  C17 UNL     1      -3.190  -3.652  -1.766  1.00  0.00     0.057 C   
BRANCH  26  27
ATOM     27  C18 UNL     1      -4.147  -2.657  -1.145  1.00  0.00    -0.044 A   
ATOM     28  C19 UNL     1      -4.101  -1.294  -1.524  1.00  0.00     0.006 A   
ATOM     29  C23 UNL     1      -5.068  -3.075  -0.171  1.00  0.00     0.040 A   
ATOM     30  C20 UNL     1      -4.963  -0.358  -0.947  1.00  0.00     0.036 A   
ATOM     31  C22 UNL     1      -5.904  -2.127   0.381  1.00  0.00     0.109 A   
ATOM     32  C21 UNL     1      -5.851  -0.806   0.005  1.00  0.00     0.108 A   
ATOM     33  O3  UNL     1      -6.848  -2.361   1.331  1.00  0.00    -0.316 OA  
ATOM     34  O4  UNL     1      -6.755  -0.042   0.674  1.00  0.00    -0.316 OA  
ATOM     35  C24 UNL     1      -7.429  -1.045   1.465  1.00  0.00     0.337 C   
ENDBRANCH  26  27
ENDBRANCH  25  26
ENDBRANCH   3  25
TORSDOF 8
