REMARK SMILES CC(C)(C)[C@H]([NH2+]Cc1ccc2c(c1)OCO2)c1cn(Cc2ccc(N)cc2)nn1
REMARK SMILES IDX 17 1 18 2 19 3 28 4 29 5 5 7 2 8 1 9 3 10 4 11 6 12 7 15
REMARK SMILES IDX 8 16 9 17 13 18 10 19 12 20 11 21 14 22 16 23 15 24 20 25
REMARK SMILES IDX 21 26 22 27 27 28 23 29 26 30 24 31 25 32
REMARK H PARENT 18 6 6 13 6 14 25 33 25 34
ROOT
ATOM     1   C14 UNL     1       0.697  -1.252  -1.500  1.00  0.00     0.127 A   
ATOM     2   C15 UNL     1       0.859  -2.329  -0.657  1.00  0.00     0.046 A   
ATOM     3   N2  UNL     1       2.204  -2.576  -0.691  1.00  0.00    -0.208 N   
ATOM     4   N4  UNL     1       2.824  -1.737  -1.542  1.00  0.00    -0.076 NA  
ATOM     5   N5  UNL     1       1.910  -0.923  -2.047  1.00  0.00    -0.132 NA  
ATOM     6   H20 UNL     1       0.185  -2.871  -0.009  1.00  0.00     0.083 HD  
ENDROOT
BRANCH   1   7
ATOM     7   C5  UNL     1      -0.501  -0.392  -1.755  1.00  0.00     0.120 C   
BRANCH   7   8
ATOM     8   C2  UNL     1      -1.267  -0.733  -3.082  1.00  0.00     0.010 C   
ATOM     9   C1  UNL     1      -2.554   0.117  -3.195  1.00  0.00     0.017 C   
ATOM     10  C3  UNL     1      -1.705  -2.216  -3.070  1.00  0.00     0.017 C   
ATOM     11  C4  UNL     1      -0.420  -0.491  -4.348  1.00  0.00     0.017 C   
ENDBRANCH   7   8
BRANCH   7  12
ATOM     12  N1  UNL     1      -0.098   1.072  -1.736  1.00  0.00     0.250 N   
ATOM     13  H11 UNL     1       0.602   1.195  -2.479  1.00  0.00     0.199 HD  
ATOM     14  H12 UNL     1      -0.897   1.667  -1.960  1.00  0.00     0.199 HD  
BRANCH  12  15
ATOM     15  C6  UNL     1       0.534   1.583  -0.476  1.00  0.00     0.164 C   
BRANCH  15  16
ATOM     16  C7  UNL     1      -0.297   1.371   0.758  1.00  0.00    -0.002 A   
ATOM     17  C8  UNL     1       0.176   0.523   1.790  1.00  0.00     0.012 A   
ATOM     18  C12 UNL     1      -1.546   1.999   0.899  1.00  0.00     0.045 A   
ATOM     19  C9  UNL     1      -0.585   0.293   2.941  1.00  0.00     0.037 A   
ATOM     20  C11 UNL     1      -2.273   1.746   2.044  1.00  0.00     0.109 A   
ATOM     21  C10 UNL     1      -1.808   0.917   3.036  1.00  0.00     0.108 A   
ATOM     22  O1  UNL     1      -3.497   2.263   2.330  1.00  0.00    -0.316 OA  
ATOM     23  O2  UNL     1      -2.681   0.808   4.071  1.00  0.00    -0.316 OA  
ATOM     24  C13 UNL     1      -3.737   1.691   3.637  1.00  0.00     0.337 C   
ENDBRANCH  15  16
ENDBRANCH  12  15
ENDBRANCH   7  12
ENDBRANCH   1   7
BRANCH   3  25
ATOM     25  C16 UNL     1       2.965  -3.482   0.155  1.00  0.00     0.169 C   
BRANCH  25  26
ATOM     26  C17 UNL     1       2.969  -2.975   1.577  1.00  0.00    -0.028 A   
ATOM     27  C18 UNL     1       3.800  -1.909   1.946  1.00  0.00     0.007 A   
ATOM     28  C22 UNL     1       2.083  -3.498   2.527  1.00  0.00     0.007 A   
ATOM     29  C19 UNL     1       3.740  -1.378   3.238  1.00  0.00     0.023 A   
ATOM     30  C21 UNL     1       2.029  -2.960   3.816  1.00  0.00     0.023 A   
ATOM     31  C20 UNL     1       2.884  -1.924   4.196  1.00  0.00     0.023 A   
BRANCH  31  32
ATOM     32  N3  UNL     1       2.720  -1.295   5.434  1.00  0.00    -0.358 N   
ATOM     33  H25 UNL     1       2.350  -1.904   6.159  1.00  0.00     0.143 HD  
ATOM     34  H26 UNL     1       3.547  -0.799   5.756  1.00  0.00     0.143 HD  
ENDBRANCH  31  32
ENDBRANCH  25  26
ENDBRANCH   3  25
TORSDOF 8
