REMARK SMILES Cc1ccc([C@H](O)Cn2cc([C@H](CC(C)C)[NH2+]Cc3ccc4c(c3)OCO4)nn2)cc1F
REMARK SMILES IDX 9 1 10 2 11 3 28 4 29 5 8 7 6 8 5 9 2 10 3 11 31 12 4 13
REMARK SMILES IDX 30 14 1 15 32 16 7 17 12 19 13 20 14 21 15 22 16 23 17 24
REMARK SMILES IDX 18 27 19 28 20 29 24 30 21 31 23 32 22 33 25 34 27 35 26 36
REMARK H PARENT 10 6 7 18 17 25 17 26
ROOT
ATOM     1   N1  UNL     1      -2.468   0.581  -1.694  1.00  0.00    -0.209 N   
ATOM     2   C8  UNL     1      -1.346   0.094  -1.081  1.00  0.00     0.045 A   
ATOM     3   C9  UNL     1      -0.702   1.226  -0.630  1.00  0.00     0.127 A   
ATOM     4   N3  UNL     1      -1.397   2.335  -1.037  1.00  0.00    -0.132 NA  
ATOM     5   N4  UNL     1      -2.476   1.927  -1.687  1.00  0.00    -0.076 NA  
ATOM     6   H10 UNL     1      -1.143  -0.967  -0.992  1.00  0.00     0.083 HD  
ENDROOT
BRANCH   1   7
ATOM     7   C7  UNL     1      -3.552  -0.161  -2.298  1.00  0.00     0.170 C   
BRANCH   7   8
ATOM     8   C6  UNL     1      -4.726  -0.390  -1.335  1.00  0.00     0.164 C   
BRANCH   8   9
ATOM     9   C5  UNL     1      -4.350  -1.234  -0.128  1.00  0.00    -0.015 A   
ATOM     10  C2  UNL     1      -3.602  -2.777   2.118  1.00  0.00    -0.015 A   
ATOM     11  C3  UNL     1      -3.908  -1.422   2.261  1.00  0.00     0.007 A   
ATOM     12  C24 UNL     1      -3.663  -3.342   0.845  1.00  0.00     0.126 A   
ATOM     13  C4  UNL     1      -4.283  -0.660   1.149  1.00  0.00     0.007 A   
ATOM     14  C23 UNL     1      -4.035  -2.590  -0.268  1.00  0.00     0.046 A   
ATOM     15  C1  UNL     1      -3.184  -3.609   3.288  1.00  0.00     0.047 C   
ATOM     16  F1  UNL     1      -3.352  -4.631   0.673  1.00  0.00    -0.207 F   
ENDBRANCH   8   9
BRANCH   8  17
ATOM     17  O1  UNL     1      -5.783  -1.036  -2.048  1.00  0.00    -0.387 OA  
ATOM     18  H7  UNL     1      -6.371  -1.453  -1.389  1.00  0.00     0.211 HD  
ENDBRANCH   8  17
ENDBRANCH   7   8
ENDBRANCH   1   7
BRANCH   3  19
ATOM     19  C10 UNL     1       0.568   1.399   0.131  1.00  0.00     0.114 C   
BRANCH  19  20
ATOM     20  C11 UNL     1       0.328   1.845   1.584  1.00  0.00     0.064 C   
BRANCH  20  21
ATOM     21  C12 UNL     1      -0.504   0.869   2.444  1.00  0.00    -0.012 C   
ATOM     22  C13 UNL     1       0.134  -0.515   2.546  1.00  0.00     0.007 C   
ATOM     23  C14 UNL     1      -0.697   1.454   3.845  1.00  0.00     0.007 C   
ENDBRANCH  20  21
ENDBRANCH  19  20
BRANCH  19  24
ATOM     24  N2  UNL     1       1.405   2.477  -0.525  1.00  0.00     0.249 N   
ATOM     25  H21 UNL     1       2.140   2.796   0.116  1.00  0.00     0.199 HD  
ATOM     26  H22 UNL     1       0.771   3.277  -0.675  1.00  0.00     0.199 HD  
BRANCH  24  27
ATOM     27  C15 UNL     1       2.021   2.129  -1.840  1.00  0.00     0.164 C   
BRANCH  27  28
ATOM     28  C16 UNL     1       3.150   1.144  -1.698  1.00  0.00    -0.002 A   
ATOM     29  C17 UNL     1       2.956  -0.227  -2.002  1.00  0.00     0.012 A   
ATOM     30  C21 UNL     1       4.401   1.573  -1.221  1.00  0.00     0.045 A   
ATOM     31  C18 UNL     1       3.984  -1.161  -1.811  1.00  0.00     0.037 A   
ATOM     32  C20 UNL     1       5.391   0.628  -1.049  1.00  0.00     0.109 A   
ATOM     33  C19 UNL     1       5.189  -0.703  -1.328  1.00  0.00     0.108 A   
ATOM     34  O2  UNL     1       6.652   0.881  -0.605  1.00  0.00    -0.316 OA  
ATOM     35  O3  UNL     1       6.292  -1.459  -1.084  1.00  0.00    -0.316 OA  
ATOM     36  C22 UNL     1       7.229  -0.448  -0.644  1.00  0.00     0.337 C   
ENDBRANCH  27  28
ENDBRANCH  24  27
ENDBRANCH  19  24
ENDBRANCH   3  19
TORSDOF 10
