REMARK SMILES Cc1ccc([C@@H](O)Cn2cc([C@H](CC(C)C)[NH2+]Cc3ccc4c(c3)OCO4)nn2)cc1F
REMARK SMILES IDX 9 1 10 2 11 3 28 4 29 5 8 7 6 8 5 9 2 10 3 11 31 12 4 13
REMARK SMILES IDX 30 14 1 15 32 16 7 17 12 19 13 20 14 21 15 22 16 23 17 24
REMARK SMILES IDX 18 27 19 28 20 29 24 30 21 31 23 32 22 33 25 34 27 35 26 36
REMARK H PARENT 10 6 7 18 17 25 17 26
ROOT
ATOM     1   N1  UNL     1      -0.242  -3.478  -0.166  1.00  0.00    -0.209 N   
ATOM     2   C8  UNL     1      -0.203  -2.405  -1.013  1.00  0.00     0.045 A   
ATOM     3   C9  UNL     1       0.854  -1.655  -0.549  1.00  0.00     0.127 A   
ATOM     4   N3  UNL     1       1.448  -2.312   0.498  1.00  0.00    -0.132 NA  
ATOM     5   N4  UNL     1       0.771  -3.425   0.722  1.00  0.00    -0.076 NA  
ATOM     6   H10 UNL     1      -0.935  -2.263  -1.797  1.00  0.00     0.083 HD  
ENDROOT
BRANCH   1   7
ATOM     7   C7  UNL     1      -1.217  -4.548  -0.105  1.00  0.00     0.170 C   
BRANCH   7   8
ATOM     8   C6  UNL     1      -2.612  -4.096   0.358  1.00  0.00     0.164 C   
BRANCH   8   9
ATOM     9   C5  UNL     1      -2.606  -3.302   1.648  1.00  0.00    -0.015 A   
ATOM     10  C2  UNL     1      -2.457  -1.842   4.066  1.00  0.00    -0.015 A   
ATOM     11  C3  UNL     1      -2.529  -3.239   4.082  1.00  0.00     0.007 A   
ATOM     12  C24 UNL     1      -2.468  -1.190   2.834  1.00  0.00     0.126 A   
ATOM     13  C4  UNL     1      -2.595  -3.962   2.885  1.00  0.00     0.007 A   
ATOM     14  C23 UNL     1      -2.553  -1.900   1.640  1.00  0.00     0.046 A   
ATOM     15  C1  UNL     1      -2.381  -1.052   5.336  1.00  0.00     0.047 C   
ATOM     16  F1  UNL     1      -2.367   0.145   2.778  1.00  0.00    -0.207 F   
ENDBRANCH   8   9
BRANCH   8  17
ATOM     17  O1  UNL     1      -3.247  -3.347  -0.683  1.00  0.00    -0.387 OA  
ATOM     18  H7  UNL     1      -4.185  -3.253  -0.431  1.00  0.00     0.211 HD  
ENDBRANCH   8  17
ENDBRANCH   7   8
ENDBRANCH   1   7
BRANCH   3  19
ATOM     19  C10 UNL     1       1.363  -0.308  -0.949  1.00  0.00     0.114 C   
BRANCH  19  20
ATOM     20  C11 UNL     1       2.412  -0.425  -2.071  1.00  0.00     0.064 C   
BRANCH  20  21
ATOM     21  C12 UNL     1       2.928   0.905  -2.663  1.00  0.00    -0.012 C   
ATOM     22  C13 UNL     1       3.969   0.614  -3.749  1.00  0.00     0.007 C   
ATOM     23  C14 UNL     1       1.804   1.763  -3.248  1.00  0.00     0.007 C   
ENDBRANCH  20  21
ENDBRANCH  19  20
BRANCH  19  24
ATOM     24  N2  UNL     1       1.991   0.364   0.250  1.00  0.00     0.249 N   
ATOM     25  H21 UNL     1       2.650   1.092  -0.029  1.00  0.00     0.199 HD  
ATOM     26  H22 UNL     1       2.537  -0.369   0.727  1.00  0.00     0.199 HD  
BRANCH  24  27
ATOM     27  C15 UNL     1       1.037   0.927   1.252  1.00  0.00     0.164 C   
BRANCH  27  28
ATOM     28  C16 UNL     1       0.402   2.204   0.774  1.00  0.00    -0.002 A   
ATOM     29  C17 UNL     1      -0.965   2.229   0.407  1.00  0.00     0.012 A   
ATOM     30  C21 UNL     1       1.170   3.375   0.656  1.00  0.00     0.045 A   
ATOM     31  C18 UNL     1      -1.557   3.398  -0.082  1.00  0.00     0.037 A   
ATOM     32  C20 UNL     1       0.555   4.510   0.170  1.00  0.00     0.109 A   
ATOM     33  C19 UNL     1      -0.768   4.522  -0.192  1.00  0.00     0.108 A   
ATOM     34  O2  UNL     1       1.156   5.715  -0.014  1.00  0.00    -0.316 OA  
ATOM     35  O3  UNL     1      -1.169   5.736  -0.650  1.00  0.00    -0.316 OA  
ATOM     36  C22 UNL     1       0.044   6.503  -0.498  1.00  0.00     0.337 C   
ENDBRANCH  27  28
ENDBRANCH  24  27
ENDBRANCH  19  24
ENDBRANCH   3  19
TORSDOF 10
