REMARK SMILES Cc1nc(C(C)C)oc1Cn1cc([C@@H]([NH2+]Cc2ccc3c(c2)OCO3)C(C)(C)C)nn1
REMARK SMILES IDX 11 1 12 2 13 3 30 4 31 5 10 7 9 8 2 9 3 10 4 11 8 12 1 13
REMARK SMILES IDX 5 14 6 15 7 16 14 17 15 18 16 21 17 22 18 23 22 24 19 25
REMARK SMILES IDX 21 26 20 27 23 28 25 29 24 30 26 31 27 32 28 33 29 34
REMARK H PARENT 12 6 15 19 15 20
ROOT
ATOM     1   N2  UNL     1       1.276  -1.898  -1.736  1.00  0.00    -0.206 N   
ATOM     2   C9  UNL     1       1.214  -1.265  -0.525  1.00  0.00     0.046 A   
ATOM     3   C10 UNL     1      -0.079  -1.483  -0.101  1.00  0.00     0.127 A   
ATOM     4   N4  UNL     1      -0.741  -2.227  -1.043  1.00  0.00    -0.132 NA  
ATOM     5   N5  UNL     1       0.096  -2.474  -2.038  1.00  0.00    -0.076 NA  
ATOM     6   H13 UNL     1       2.051  -0.715  -0.116  1.00  0.00     0.083 HD  
ENDROOT
BRANCH   1   7
ATOM     7   C8  UNL     1       2.383  -1.931  -2.675  1.00  0.00     0.197 C   
BRANCH   7   8
ATOM     8   C7  UNL     1       2.389  -0.682  -3.463  1.00  0.00     0.102 A   
ATOM     9   C2  UNL     1       1.762  -0.261  -4.617  1.00  0.00     0.068 A   
ATOM     10  N1  UNL     1       2.108   1.045  -4.870  1.00  0.00    -0.231 NA  
ATOM     11  C3  UNL     1       2.945   1.358  -3.903  1.00  0.00     0.150 A   
ATOM     12  O1  UNL     1       3.147   0.355  -2.992  1.00  0.00    -0.296 OA  
ATOM     13  C1  UNL     1       0.830  -0.988  -5.505  1.00  0.00     0.069 C   
BRANCH  11  14
ATOM     14  C4  UNL     1       3.662   2.648  -3.676  1.00  0.00     0.057 C   
ATOM     15  C5  UNL     1       5.175   2.439  -3.636  1.00  0.00     0.016 C   
ATOM     16  C6  UNL     1       3.168   3.326  -2.400  1.00  0.00     0.016 C   
ENDBRANCH  11  14
ENDBRANCH   7   8
ENDBRANCH   1   7
BRANCH   3  17
ATOM     17  C11 UNL     1      -0.820  -0.968   1.095  1.00  0.00     0.120 C   
BRANCH  17  18
ATOM     18  N3  UNL     1      -2.219  -0.558   0.673  1.00  0.00     0.250 N   
ATOM     19  H15 UNL     1      -2.802  -0.354   1.487  1.00  0.00     0.199 HD  
ATOM     20  H16 UNL     1      -2.629  -1.372   0.196  1.00  0.00     0.199 HD  
BRANCH  18  21
ATOM     21  C12 UNL     1      -2.318   0.593  -0.279  1.00  0.00     0.164 C   
BRANCH  21  22
ATOM     22  C13 UNL     1      -1.779   1.877   0.286  1.00  0.00    -0.002 A   
ATOM     23  C14 UNL     1      -0.576   2.427  -0.219  1.00  0.00     0.012 A   
ATOM     24  C18 UNL     1      -2.448   2.526   1.339  1.00  0.00     0.045 A   
ATOM     25  C15 UNL     1      -0.039   3.600   0.322  1.00  0.00     0.037 A   
ATOM     26  C17 UNL     1      -1.891   3.680   1.849  1.00  0.00     0.109 A   
ATOM     27  C16 UNL     1      -0.720   4.202   1.357  1.00  0.00     0.108 A   
ATOM     28  O2  UNL     1      -2.404   4.421   2.866  1.00  0.00    -0.316 OA  
ATOM     29  O3  UNL     1      -0.347   5.337   2.002  1.00  0.00    -0.316 OA  
ATOM     30  C19 UNL     1      -1.440   5.497   2.933  1.00  0.00     0.337 C   
ENDBRANCH  21  22
ENDBRANCH  18  21
ENDBRANCH  17  18
BRANCH  17  31
ATOM     31  C20 UNL     1      -0.886  -1.978   2.295  1.00  0.00     0.010 C   
ATOM     32  C21 UNL     1      -1.684  -3.255   1.964  1.00  0.00     0.017 C   
ATOM     33  C22 UNL     1       0.543  -2.396   2.713  1.00  0.00     0.017 C   
ATOM     34  C23 UNL     1      -1.537  -1.308   3.526  1.00  0.00     0.017 C   
ENDBRANCH  17  31
ENDBRANCH   3  17
TORSDOF 8
