REMARK SMILES Cc1ccc(-n2cc([C@@H]([NH2+]Cc3ccc4c(c3)OCO4)C(C)(C)C)nn2)cc1N([O-])[O-]
REMARK SMILES IDX 6 1 7 2 8 3 25 4 26 5 5 6 2 7 3 8 28 9 4 10 27 11 1 12 29 13
REMARK SMILES IDX 30 14 31 15 9 16 10 17 11 20 12 21 13 22 17 23 14 24 16 25
REMARK SMILES IDX 15 26 18 27 20 28 19 29 21 30 22 31 23 32 24 33
REMARK H PARENT 10 18 10 19
ROOT
ATOM     1   N1  UNL     1      -0.146  -0.050  -1.302  1.00  0.00    -0.181 N   
ATOM     2   C6  UNL     1       0.621  -0.233  -0.169  1.00  0.00     0.135 A   
ATOM     3   C7  UNL     1       1.398  -1.338  -0.440  1.00  0.00     0.128 A   
ATOM     4   N3  UNL     1       1.127  -1.775  -1.706  1.00  0.00    -0.131 NA  
ATOM     5   N4  UNL     1       0.213  -0.975  -2.228  1.00  0.00    -0.071 NA  
ENDROOT
BRANCH   1   6
ATOM     6   C5  UNL     1      -1.191   0.880  -1.534  1.00  0.00     0.060 A   
ATOM     7   C2  UNL     1      -3.335   2.674  -2.029  1.00  0.00    -0.022 A   
ATOM     8   C3  UNL     1      -2.881   1.800  -3.027  1.00  0.00     0.007 A   
ATOM     9   C22 UNL     1      -2.676   2.643  -0.787  1.00  0.00     0.122 A   
ATOM     10  C4  UNL     1      -1.827   0.909  -2.784  1.00  0.00     0.026 A   
ATOM     11  C21 UNL     1      -1.614   1.756  -0.530  1.00  0.00     0.057 A   
ATOM     12  C1  UNL     1      -4.479   3.601  -2.336  1.00  0.00     0.046 C   
BRANCH   9  13
ATOM     13  N5  UNL     1      -3.082   3.522   0.307  1.00  0.00     0.092 N   
ATOM     14  O3  UNL     1      -3.216   2.996   1.422  1.00  0.00    -0.138 OA  
ATOM     15  O4  UNL     1      -3.224   4.725   0.058  1.00  0.00    -0.138 OA  
ENDBRANCH   9  13
ENDBRANCH   1   6
BRANCH   3  16
ATOM     16  C8  UNL     1       2.311  -2.144   0.437  1.00  0.00     0.120 C   
BRANCH  16  17
ATOM     17  N2  UNL     1       1.952  -3.612   0.267  1.00  0.00     0.250 N   
ATOM     18  H8  UNL     1       2.785  -4.205   0.288  1.00  0.00     0.199 HD  
ATOM     19  H9  UNL     1       1.577  -3.703  -0.691  1.00  0.00     0.199 HD  
BRANCH  17  20
ATOM     20  C9  UNL     1       0.946  -4.170   1.222  1.00  0.00     0.164 C   
BRANCH  20  21
ATOM     21  C10 UNL     1      -0.380  -3.462   1.202  1.00  0.00    -0.002 A   
ATOM     22  C11 UNL     1      -1.257  -3.607   0.099  1.00  0.00     0.012 A   
ATOM     23  C15 UNL     1      -0.735  -2.599   2.254  1.00  0.00     0.045 A   
ATOM     24  C12 UNL     1      -2.454  -2.885   0.031  1.00  0.00     0.037 A   
ATOM     25  C14 UNL     1      -1.920  -1.901   2.154  1.00  0.00     0.109 A   
ATOM     26  C13 UNL     1      -2.754  -2.035   1.072  1.00  0.00     0.108 A   
ATOM     27  O1  UNL     1      -2.388  -1.006   3.062  1.00  0.00    -0.316 OA  
ATOM     28  O2  UNL     1      -3.853  -1.242   1.164  1.00  0.00    -0.316 OA  
ATOM     29  C16 UNL     1      -3.652  -0.639   2.462  1.00  0.00     0.337 C   
ENDBRANCH  20  21
ENDBRANCH  17  20
ENDBRANCH  16  17
BRANCH  16  30
ATOM     30  C17 UNL     1       3.837  -1.909   0.170  1.00  0.00     0.010 C   
ATOM     31  C18 UNL     1       4.681  -2.660   1.226  1.00  0.00     0.017 C   
ATOM     32  C19 UNL     1       4.285  -2.374  -1.230  1.00  0.00     0.017 C   
ATOM     33  C20 UNL     1       4.171  -0.406   0.312  1.00  0.00     0.017 C   
ENDBRANCH  16  30
ENDBRANCH   3  16
TORSDOF 7
