REMARK SMILES Cc1ccncc1[C@H](CO)n1cc([C@@H]([NH2+]Cc2ccc3c(c2)OCO3)C(C)(C)C)nn1
REMARK SMILES IDX 11 1 12 2 13 3 30 4 31 5 8 7 7 8 2 9 3 10 4 11 6 12 5 13
REMARK SMILES IDX 1 14 9 15 10 16 14 18 15 19 16 22 17 23 18 24 22 25 19 26
REMARK SMILES IDX 21 27 20 28 23 29 25 30 24 31 26 32 27 33 28 34 29 35
REMARK H PARENT 12 6 10 17 15 20 15 21
ROOT
ATOM     1   N2  UNL     1      -0.883  -2.028   1.353  1.00  0.00    -0.202 N   
ATOM     2   C9  UNL     1      -1.517  -1.767   0.165  1.00  0.00     0.046 A   
ATOM     3   C10 UNL     1      -0.574  -1.093  -0.579  1.00  0.00     0.127 A   
ATOM     4   N4  UNL     1       0.566  -0.944   0.169  1.00  0.00    -0.132 NA  
ATOM     5   N5  UNL     1       0.363  -1.507   1.347  1.00  0.00    -0.075 NA  
ATOM     6   H11 UNL     1      -2.537  -2.073  -0.024  1.00  0.00     0.083 HD  
ENDROOT
BRANCH   1   7
ATOM     7   C7  UNL     1      -1.440  -2.687   2.539  1.00  0.00     0.157 C   
BRANCH   7   8
ATOM     8   C6  UNL     1      -1.964  -1.648   3.516  1.00  0.00    -0.002 A   
ATOM     9   C2  UNL     1      -3.327  -1.533   3.858  1.00  0.00    -0.043 A   
ATOM     10  C3  UNL     1      -3.712  -0.543   4.772  1.00  0.00     0.024 A   
ATOM     11  C4  UNL     1      -2.747   0.294   5.308  1.00  0.00     0.111 A   
ATOM     12  C5  UNL     1      -1.078  -0.751   4.127  1.00  0.00     0.117 A   
ATOM     13  N1  UNL     1      -1.440   0.214   4.997  1.00  0.00    -0.264 NA  
ATOM     14  C1  UNL     1      -4.385  -2.440   3.291  1.00  0.00     0.045 C   
ENDBRANCH   7   8
BRANCH   7  15
ATOM     15  C8  UNL     1      -0.455  -3.677   3.186  1.00  0.00     0.186 C   
BRANCH  15  16
ATOM     16  O1  UNL     1      -0.320  -4.835   2.360  1.00  0.00    -0.394 OA  
ATOM     17  H10 UNL     1       0.313  -5.431   2.802  1.00  0.00     0.210 HD  
ENDBRANCH  15  16
ENDBRANCH   7  15
ENDBRANCH   1   7
BRANCH   3  18
ATOM     18  C11 UNL     1      -0.640  -0.472  -1.943  1.00  0.00     0.120 C   
BRANCH  18  19
ATOM     19  N3  UNL     1       0.191   0.791  -1.935  1.00  0.00     0.250 N   
ATOM     20  H13 UNL     1       0.444   1.102  -2.875  1.00  0.00     0.199 HD  
ATOM     21  H14 UNL     1       1.077   0.557  -1.462  1.00  0.00     0.199 HD  
BRANCH  19  22
ATOM     22  C12 UNL     1      -0.402   1.942  -1.196  1.00  0.00     0.164 C   
BRANCH  22  23
ATOM     23  C13 UNL     1       0.538   3.113  -1.217  1.00  0.00    -0.002 A   
ATOM     24  C14 UNL     1       1.531   3.243  -0.216  1.00  0.00     0.012 A   
ATOM     25  C18 UNL     1       0.479   4.051  -2.261  1.00  0.00     0.045 A   
ATOM     26  C15 UNL     1       2.446   4.301  -0.246  1.00  0.00     0.037 A   
ATOM     27  C17 UNL     1       1.398   5.080  -2.261  1.00  0.00     0.109 A   
ATOM     28  C16 UNL     1       2.354   5.202  -1.283  1.00  0.00     0.108 A   
ATOM     29  O2  UNL     1       1.480   6.065  -3.194  1.00  0.00    -0.316 OA  
ATOM     30  O3  UNL     1       3.156   6.281  -1.475  1.00  0.00    -0.316 OA  
ATOM     31  C19 UNL     1       2.586   6.840  -2.677  1.00  0.00     0.337 C   
ENDBRANCH  22  23
ENDBRANCH  19  22
ENDBRANCH  18  19
BRANCH  18  32
ATOM     32  C20 UNL     1      -0.179  -1.421  -3.104  1.00  0.00     0.010 C   
ATOM     33  C21 UNL     1      -1.022  -2.717  -3.100  1.00  0.00     0.017 C   
ATOM     34  C22 UNL     1       1.310  -1.810  -2.999  1.00  0.00     0.017 C   
ATOM     35  C23 UNL     1      -0.407  -0.743  -4.476  1.00  0.00     0.017 C   
ENDBRANCH  18  32
ENDBRANCH   3  18
TORSDOF 9
