REMARK SMILES Cc1ccncc1[C@@H](CO)n1cc([C@@H]([NH2+]Cc2ccc3c(c2)OCO3)C(C)(C)C)nn1
REMARK SMILES IDX 11 1 12 2 13 3 30 4 31 5 8 7 7 8 2 9 3 10 4 11 6 12 5 13
REMARK SMILES IDX 1 14 9 15 10 16 14 18 15 19 16 22 17 23 18 24 22 25 19 26
REMARK SMILES IDX 21 27 20 28 23 29 25 30 24 31 26 32 27 33 28 34 29 35
REMARK H PARENT 12 6 10 17 15 20 15 21
ROOT
ATOM     1   N2  UNL     1       1.529   0.505  -1.893  1.00  0.00    -0.202 N   
ATOM     2   C9  UNL     1       0.274  -0.026  -2.041  1.00  0.00     0.046 A   
ATOM     3   C10 UNL     1      -0.566   0.958  -1.575  1.00  0.00     0.127 A   
ATOM     4   N4  UNL     1       0.183   2.031  -1.158  1.00  0.00    -0.132 NA  
ATOM     5   N5  UNL     1       1.459   1.747  -1.363  1.00  0.00    -0.075 NA  
ATOM     6   H11 UNL     1       0.105  -1.017  -2.438  1.00  0.00     0.083 HD  
ENDROOT
BRANCH   1   7
ATOM     7   C7  UNL     1       2.828  -0.089  -2.209  1.00  0.00     0.157 C   
BRANCH   7   8
ATOM     8   C6  UNL     1       2.992  -1.426  -1.498  1.00  0.00    -0.002 A   
ATOM     9   C2  UNL     1       3.545  -1.526  -0.201  1.00  0.00    -0.043 A   
ATOM     10  C3  UNL     1       3.607  -2.784   0.412  1.00  0.00     0.024 A   
ATOM     11  C4  UNL     1       3.118  -3.889  -0.264  1.00  0.00     0.111 A   
ATOM     12  C5  UNL     1       2.541  -2.613  -2.083  1.00  0.00     0.117 A   
ATOM     13  N1  UNL     1       2.580  -3.828  -1.496  1.00  0.00    -0.264 NA  
ATOM     14  C1  UNL     1       4.078  -0.333   0.549  1.00  0.00     0.045 C   
ENDBRANCH   7   8
BRANCH   7  15
ATOM     15  C8  UNL     1       3.108  -0.075  -3.726  1.00  0.00     0.186 C   
BRANCH  15  16
ATOM     16  O1  UNL     1       2.100  -0.728  -4.496  1.00  0.00    -0.394 OA  
ATOM     17  H10 UNL     1       2.387  -0.693  -5.429  1.00  0.00     0.210 HD  
ENDBRANCH  15  16
ENDBRANCH   7  15
ENDBRANCH   1   7
BRANCH   3  18
ATOM     18  C11 UNL     1      -2.052   0.982  -1.395  1.00  0.00     0.120 C   
BRANCH  18  19
ATOM     19  N3  UNL     1      -2.359   1.795  -0.152  1.00  0.00     0.250 N   
ATOM     20  H13 UNL     1      -1.493   2.316   0.065  1.00  0.00     0.199 HD  
ATOM     21  H14 UNL     1      -3.056   2.518  -0.338  1.00  0.00     0.199 HD  
BRANCH  19  22
ATOM     22  C12 UNL     1      -2.750   1.023   1.057  1.00  0.00     0.164 C   
BRANCH  22  23
ATOM     23  C13 UNL     1      -1.662   0.138   1.599  1.00  0.00    -0.002 A   
ATOM     24  C14 UNL     1      -1.754  -1.271   1.470  1.00  0.00     0.012 A   
ATOM     25  C18 UNL     1      -0.545   0.700   2.243  1.00  0.00     0.045 A   
ATOM     26  C15 UNL     1      -0.755  -2.109   1.980  1.00  0.00     0.037 A   
ATOM     27  C17 UNL     1       0.413  -0.157   2.750  1.00  0.00     0.109 A   
ATOM     28  C16 UNL     1       0.310  -1.521   2.625  1.00  0.00     0.108 A   
ATOM     29  O2  UNL     1       1.532   0.218   3.426  1.00  0.00    -0.316 OA  
ATOM     30  O3  UNL     1       1.347  -2.174   3.210  1.00  0.00    -0.316 OA  
ATOM     31  C19 UNL     1       2.067  -1.072   3.799  1.00  0.00     0.337 C   
ENDBRANCH  22  23
ENDBRANCH  19  22
ENDBRANCH  18  19
BRANCH  18  32
ATOM     32  C20 UNL     1      -2.850   1.528  -2.628  1.00  0.00     0.010 C   
ATOM     33  C21 UNL     1      -4.372   1.415  -2.365  1.00  0.00     0.017 C   
ATOM     34  C22 UNL     1      -2.546   0.674  -3.882  1.00  0.00     0.017 C   
ATOM     35  C23 UNL     1      -2.513   2.997  -2.956  1.00  0.00     0.017 C   
ENDBRANCH  18  32
ENDBRANCH   3  18
TORSDOF 9
