REMARK SMILES COc1cccc(CCn2cc([C@H](CC(C)C)[NH2+]Cc3ccc4c(c3)OCO4)nn2)c1
REMARK SMILES IDX 10 1 11 2 12 3 29 4 30 5 9 7 8 8 7 9 3 10 4 11 31 12 5 13
REMARK SMILES IDX 6 14 2 15 1 16 13 17 14 18 15 19 16 20 17 21 18 22 19 25
REMARK SMILES IDX 20 26 21 27 25 28 22 29 24 30 23 31 26 32 28 33 27 34
REMARK H PARENT 11 6 18 23 18 24
ROOT
ATOM     1   N1  UNL     1      -3.066  -0.532   2.393  1.00  0.00    -0.212 N   
ATOM     2   C9  UNL     1      -2.501  -0.221   1.186  1.00  0.00     0.045 A   
ATOM     3   C10 UNL     1      -1.725  -1.321   0.894  1.00  0.00     0.127 A   
ATOM     4   N3  UNL     1      -1.895  -2.266   1.873  1.00  0.00    -0.132 NA  
ATOM     5   N4  UNL     1      -2.737  -1.780   2.771  1.00  0.00    -0.076 NA  
ATOM     6   H11 UNL     1      -2.618   0.750   0.724  1.00  0.00     0.083 HD  
ENDROOT
BRANCH   1   7
ATOM     7   C8  UNL     1      -3.696   0.380   3.329  1.00  0.00     0.139 C   
BRANCH   7   8
ATOM     8   C7  UNL     1      -2.758   0.794   4.474  1.00  0.00     0.057 C   
BRANCH   8   9
ATOM     9   C6  UNL     1      -1.456   1.388   3.977  1.00  0.00    -0.044 A   
ATOM     10  C2  UNL     1       0.805   1.065   3.166  1.00  0.00     0.075 A   
ATOM     11  C3  UNL     1       0.892   2.412   2.827  1.00  0.00     0.033 A   
ATOM     12  C24 UNL     1      -0.351   0.553   3.747  1.00  0.00     0.037 A   
ATOM     13  C4  UNL     1      -0.189   3.256   3.087  1.00  0.00     0.003 A   
ATOM     14  C5  UNL     1      -1.361   2.747   3.652  1.00  0.00     0.004 A   
BRANCH  10  15
ATOM     15  O1  UNL     1       1.804   0.187   2.832  1.00  0.00    -0.349 OA  
ATOM     16  C1  UNL     1       2.888   0.324   3.762  1.00  0.00     0.203 C   
ENDBRANCH  10  15
ENDBRANCH   8   9
ENDBRANCH   7   8
ENDBRANCH   1   7
BRANCH   3  17
ATOM     17  C11 UNL     1      -0.692  -1.524  -0.164  1.00  0.00     0.114 C   
BRANCH  17  18
ATOM     18  C12 UNL     1      -0.899  -2.816  -0.979  1.00  0.00     0.064 C   
BRANCH  18  19
ATOM     19  C13 UNL     1      -2.115  -2.867  -1.933  1.00  0.00    -0.012 C   
ATOM     20  C14 UNL     1      -2.173  -1.671  -2.884  1.00  0.00     0.007 C   
ATOM     21  C15 UNL     1      -3.453  -3.050  -1.217  1.00  0.00     0.007 C   
ENDBRANCH  18  19
ENDBRANCH  17  18
BRANCH  17  22
ATOM     22  N2  UNL     1       0.644  -1.587   0.552  1.00  0.00     0.249 N   
ATOM     23  H22 UNL     1       0.612  -2.392   1.192  1.00  0.00     0.199 HD  
ATOM     24  H23 UNL     1       0.695  -0.775   1.188  1.00  0.00     0.199 HD  
BRANCH  22  25
ATOM     25  C16 UNL     1       1.899  -1.605  -0.240  1.00  0.00     0.164 C   
BRANCH  25  26
ATOM     26  C17 UNL     1       2.034  -0.441  -1.183  1.00  0.00    -0.002 A   
ATOM     27  C18 UNL     1       2.334   0.850  -0.689  1.00  0.00     0.012 A   
ATOM     28  C22 UNL     1       1.828  -0.620  -2.562  1.00  0.00     0.045 A   
ATOM     29  C19 UNL     1       2.418   1.950  -1.549  1.00  0.00     0.037 A   
ATOM     30  C21 UNL     1       1.916   0.485  -3.383  1.00  0.00     0.109 A   
ATOM     31  C20 UNL     1       2.202   1.734  -2.891  1.00  0.00     0.108 A   
ATOM     32  O2  UNL     1       1.733   0.486  -4.729  1.00  0.00    -0.316 OA  
ATOM     33  O3  UNL     1       2.238   2.679  -3.866  1.00  0.00    -0.316 OA  
ATOM     34  C23 UNL     1       1.964   1.879  -5.037  1.00  0.00     0.337 C   
ENDBRANCH  25  26
ENDBRANCH  22  25
ENDBRANCH  17  22
ENDBRANCH   3  17
TORSDOF 10
