REMARK SMILES CC(C)C[C@H]([NH2+]Cc1ccc2c(c1)OCO2)c1cn(Cc2cnc(Cl)s2)nn1
REMARK SMILES IDX 17 1 18 2 19 3 27 4 28 5 5 7 4 8 2 9 1 10 3 11 6 12 7 15
REMARK SMILES IDX 8 16 9 17 13 18 10 19 12 20 11 21 14 22 16 23 15 24 20 25
REMARK SMILES IDX 21 26 22 27 26 28 23 29 24 30 25 31
REMARK H PARENT 18 6 6 13 6 14
ROOT
ATOM     1   C14 UNL     1      -1.049  -0.108   1.542  1.00  0.00     0.127 A   
ATOM     2   C15 UNL     1      -0.280   0.627   2.418  1.00  0.00     0.046 A   
ATOM     3   N2  UNL     1      -0.426  -0.025   3.611  1.00  0.00    -0.207 N   
ATOM     4   N4  UNL     1      -1.252  -1.081   3.483  1.00  0.00    -0.076 NA  
ATOM     5   N5  UNL     1      -1.652  -1.133   2.223  1.00  0.00    -0.132 NA  
ATOM     6   H20 UNL     1       0.368   1.485   2.297  1.00  0.00     0.083 HD  
ENDROOT
BRANCH   1   7
ATOM     7   C5  UNL     1      -1.215   0.003   0.065  1.00  0.00     0.114 C   
BRANCH   7   8
ATOM     8   C4  UNL     1      -2.561   0.641  -0.336  1.00  0.00     0.064 C   
BRANCH   8   9
ATOM     9   C2  UNL     1      -2.760   2.100   0.128  1.00  0.00    -0.012 C   
ATOM     10  C1  UNL     1      -1.707   3.046  -0.453  1.00  0.00     0.007 C   
ATOM     11  C3  UNL     1      -4.159   2.580  -0.270  1.00  0.00     0.007 C   
ENDBRANCH   8   9
ENDBRANCH   7   8
BRANCH   7  12
ATOM     12  N1  UNL     1      -1.170  -1.366  -0.591  1.00  0.00     0.249 N   
ATOM     13  H11 UNL     1      -1.956  -1.905  -0.204  1.00  0.00     0.199 HD  
ATOM     14  H12 UNL     1      -1.334  -1.269  -1.597  1.00  0.00     0.199 HD  
BRANCH  12  15
ATOM     15  C6  UNL     1       0.065  -2.184  -0.372  1.00  0.00     0.164 C   
BRANCH  15  16
ATOM     16  C7  UNL     1       1.342  -1.476  -0.729  1.00  0.00    -0.002 A   
ATOM     17  C8  UNL     1       2.297  -1.189   0.278  1.00  0.00     0.012 A   
ATOM     18  C12 UNL     1       1.597  -1.082  -2.054  1.00  0.00     0.045 A   
ATOM     19  C9  UNL     1       3.479  -0.506  -0.023  1.00  0.00     0.037 A   
ATOM     20  C11 UNL     1       2.772  -0.408  -2.316  1.00  0.00     0.109 A   
ATOM     21  C10 UNL     1       3.685  -0.125  -1.330  1.00  0.00     0.108 A   
ATOM     22  O1  UNL     1       3.163   0.051  -3.533  1.00  0.00    -0.316 OA  
ATOM     23  O2  UNL     1       4.767   0.545  -1.803  1.00  0.00    -0.316 OA  
ATOM     24  C13 UNL     1       4.452   0.623  -3.210  1.00  0.00     0.337 C   
ENDBRANCH  15  16
ENDBRANCH  12  15
ENDBRANCH   7  12
ENDBRANCH   1   7
BRANCH   3  25
ATOM     25  C16 UNL     1       0.292   0.212   4.855  1.00  0.00     0.178 C   
BRANCH  25  26
ATOM     26  C17 UNL     1       1.668  -0.354   4.740  1.00  0.00     0.030 A   
ATOM     27  C18 UNL     1       2.071  -1.678   4.759  1.00  0.00     0.126 A   
ATOM     28  S1  UNL     1       3.043   0.653   4.509  1.00  0.00    -0.059 S   
ATOM     29  N3  UNL     1       3.416  -1.895   4.541  1.00  0.00    -0.237 NA  
ATOM     30  C19 UNL     1       4.017  -0.737   4.425  1.00  0.00     0.167 A   
ATOM     31  CL1 UNL     1       5.700  -0.591   4.141  1.00  0.00    -0.054 Cl  
ENDBRANCH  25  26
ENDBRANCH   3  25
TORSDOF 8
