REMARK SMILES Cc1ccc(N([O-])[O-])c(-n2cc([C@@H]([NH2+]Cc3ccc4c(c3)OCO4)C3CCCC3)nn2)c1
REMARK SMILES IDX 10 1 11 2 12 3 30 4 31 5 9 6 2 7 3 8 32 9 4 10 5 11 1 12
REMARK SMILES IDX 6 13 7 14 8 15 13 16 14 17 15 20 16 21 17 22 21 23 18 24
REMARK SMILES IDX 20 25 19 26 22 27 24 28 23 29 25 30 26 31 29 32 27 33 28 34
REMARK H PARENT 14 18 14 19
ROOT
ATOM     1   N2  UNL     1       1.702   1.557   0.209  1.00  0.00    -0.178 N   
ATOM     2   C7  UNL     1       0.752   0.739   0.789  1.00  0.00     0.135 A   
ATOM     3   C8  UNL     1       0.824  -0.448   0.096  1.00  0.00     0.127 A   
ATOM     4   N4  UNL     1       1.825  -0.366  -0.826  1.00  0.00    -0.131 NA  
ATOM     5   N5  UNL     1       2.380   0.830  -0.718  1.00  0.00    -0.071 NA  
ENDROOT
BRANCH   1   6
ATOM     6   C6  UNL     1       2.030   2.915   0.460  1.00  0.00     0.086 A   
ATOM     7   C2  UNL     1       3.734   4.674   0.375  1.00  0.00    -0.049 A   
ATOM     8   C3  UNL     1       2.854   5.561   1.007  1.00  0.00     0.006 A   
ATOM     9   C23 UNL     1       3.312   3.365   0.088  1.00  0.00     0.031 A   
ATOM     10  C4  UNL     1       1.568   5.150   1.352  1.00  0.00     0.033 A   
ATOM     11  C5  UNL     1       1.163   3.837   1.068  1.00  0.00     0.141 A   
ATOM     12  C1  UNL     1       5.102   5.135  -0.042  1.00  0.00     0.044 C   
BRANCH  11  13
ATOM     13  N1  UNL     1      -0.236   3.540   1.296  1.00  0.00     0.094 N   
ATOM     14  O1  UNL     1      -0.646   3.611   2.460  1.00  0.00    -0.138 OA  
ATOM     15  O2  UNL     1      -0.906   3.186   0.315  1.00  0.00    -0.138 OA  
ENDBRANCH  11  13
ENDBRANCH   1   6
BRANCH   3  16
ATOM     16  C9  UNL     1      -0.010  -1.684   0.186  1.00  0.00     0.117 C   
BRANCH  16  17
ATOM     17  N3  UNL     1      -0.391  -2.151  -1.204  1.00  0.00     0.249 N   
ATOM     18  H8  UNL     1       0.486  -2.256  -1.732  1.00  0.00     0.199 HD  
ATOM     19  H9  UNL     1      -0.830  -3.074  -1.160  1.00  0.00     0.199 HD  
BRANCH  17  20
ATOM     20  C10 UNL     1      -1.284  -1.242  -1.988  1.00  0.00     0.164 C   
BRANCH  20  21
ATOM     21  C11 UNL     1      -2.639  -1.069  -1.361  1.00  0.00    -0.002 A   
ATOM     22  C12 UNL     1      -2.997   0.166  -0.768  1.00  0.00     0.012 A   
ATOM     23  C16 UNL     1      -3.549  -2.140  -1.330  1.00  0.00     0.045 A   
ATOM     24  C13 UNL     1      -4.238   0.331  -0.143  1.00  0.00     0.037 A   
ATOM     25  C15 UNL     1      -4.763  -1.943  -0.706  1.00  0.00     0.109 A   
ATOM     26  C14 UNL     1      -5.098  -0.744  -0.127  1.00  0.00     0.108 A   
ATOM     27  O3  UNL     1      -5.746  -2.873  -0.581  1.00  0.00    -0.316 OA  
ATOM     28  O4  UNL     1      -6.335  -0.767   0.434  1.00  0.00    -0.316 OA  
ATOM     29  C17 UNL     1      -6.758  -2.110   0.117  1.00  0.00     0.337 C   
ENDBRANCH  20  21
ENDBRANCH  17  20
ENDBRANCH  16  17
BRANCH  16  30
ATOM     30  C18 UNL     1       0.735  -2.832   0.896  1.00  0.00     0.043 C   
ATOM     31  C19 UNL     1       1.098  -2.513   2.350  1.00  0.00     0.010 C   
ATOM     32  C22 UNL     1      -0.087  -4.119   1.046  1.00  0.00     0.010 C   
ATOM     33  C20 UNL     1       1.453  -3.874   2.929  1.00  0.00     0.001 C   
ATOM     34  C21 UNL     1       0.512  -4.858   2.243  1.00  0.00     0.001 C   
ENDBRANCH  16  30
ENDBRANCH   3  16
TORSDOF 7
