REMARK SMILES Cc1ccc([C@H](O)Cn2cc([C@H](CC(C)C)[NH2+]Cc3ccc4c(c3)OCO4)nn2)c(C)c1
REMARK SMILES IDX 9 1 10 2 11 3 28 4 29 5 8 7 6 8 5 9 2 10 3 11 32 12 4 13
REMARK SMILES IDX 30 14 1 15 31 16 7 17 12 19 13 20 14 21 15 22 16 23 17 24
REMARK SMILES IDX 18 27 19 28 20 29 24 30 21 31 23 32 22 33 25 34 27 35 26 36
REMARK H PARENT 10 6 7 18 17 25 17 26
ROOT
ATOM     1   N1  UNL     1      -1.577   0.150  -0.303  1.00  0.00    -0.209 N   
ATOM     2   C8  UNL     1      -1.340   0.770   0.891  1.00  0.00     0.045 A   
ATOM     3   C9  UNL     1      -0.035   1.195   0.789  1.00  0.00     0.127 A   
ATOM     4   N3  UNL     1       0.463   0.827  -0.436  1.00  0.00    -0.132 NA  
ATOM     5   N4  UNL     1      -0.484   0.177  -1.088  1.00  0.00    -0.076 NA  
ATOM     6   H10 UNL     1      -2.091   0.835   1.666  1.00  0.00     0.083 HD  
ENDROOT
BRANCH   1   7
ATOM     7   C7  UNL     1      -2.797  -0.478  -0.770  1.00  0.00     0.170 C   
BRANCH   7   8
ATOM     8   C6  UNL     1      -2.824  -1.965  -0.411  1.00  0.00     0.164 C   
BRANCH   8   9
ATOM     9   C5  UNL     1      -3.827  -2.713  -1.272  1.00  0.00    -0.015 A   
ATOM     10  C2  UNL     1      -5.762  -4.030  -2.860  1.00  0.00    -0.051 A   
ATOM     11  C3  UNL     1      -6.160  -3.198  -1.814  1.00  0.00     0.004 A   
ATOM     12  C25 UNL     1      -4.394  -4.200  -3.110  1.00  0.00     0.007 A   
ATOM     13  C4  UNL     1      -5.205  -2.545  -1.033  1.00  0.00     0.007 A   
ATOM     14  C23 UNL     1      -3.421  -3.535  -2.344  1.00  0.00    -0.045 A   
ATOM     15  C1  UNL     1      -6.771  -4.757  -3.700  1.00  0.00     0.044 C   
ATOM     16  C24 UNL     1      -1.972  -3.744  -2.694  1.00  0.00     0.045 C   
ENDBRANCH   8   9
BRANCH   8  17
ATOM     17  O1  UNL     1      -3.148  -2.116   0.980  1.00  0.00    -0.387 OA  
ATOM     18  H7  UNL     1      -3.676  -2.931   1.070  1.00  0.00     0.211 HD  
ENDBRANCH   8  17
ENDBRANCH   7   8
ENDBRANCH   1   7
BRANCH   3  19
ATOM     19  C10 UNL     1       0.854   1.917   1.754  1.00  0.00     0.114 C   
BRANCH  19  20
ATOM     20  C11 UNL     1       0.558   3.430   1.741  1.00  0.00     0.064 C   
BRANCH  20  21
ATOM     21  C12 UNL     1       1.355   4.299   2.738  1.00  0.00    -0.012 C   
ATOM     22  C13 UNL     1       1.207   3.829   4.184  1.00  0.00     0.007 C   
ATOM     23  C14 UNL     1       0.903   5.758   2.619  1.00  0.00     0.007 C   
ENDBRANCH  20  21
ENDBRANCH  19  20
BRANCH  19  24
ATOM     24  N2  UNL     1       2.294   1.688   1.383  1.00  0.00     0.249 N   
ATOM     25  H21 UNL     1       2.340   1.758   0.353  1.00  0.00     0.199 HD  
ATOM     26  H22 UNL     1       2.918   2.410   1.750  1.00  0.00     0.199 HD  
BRANCH  24  27
ATOM     27  C15 UNL     1       2.838   0.350   1.752  1.00  0.00     0.164 C   
BRANCH  27  28
ATOM     28  C16 UNL     1       4.107   0.068   0.998  1.00  0.00    -0.002 A   
ATOM     29  C17 UNL     1       5.332   0.651   1.396  1.00  0.00     0.012 A   
ATOM     30  C21 UNL     1       4.065  -0.741  -0.153  1.00  0.00     0.045 A   
ATOM     31  C18 UNL     1       6.501   0.437   0.656  1.00  0.00     0.037 A   
ATOM     32  C20 UNL     1       5.237  -0.939  -0.852  1.00  0.00     0.109 A   
ATOM     33  C19 UNL     1       6.420  -0.359  -0.465  1.00  0.00     0.108 A   
ATOM     34  O2  UNL     1       5.370  -1.694  -1.974  1.00  0.00    -0.316 OA  
ATOM     35  O3  UNL     1       7.444  -0.661  -1.305  1.00  0.00    -0.316 OA  
ATOM     36  C22 UNL     1       6.777  -1.524  -2.253  1.00  0.00     0.337 C   
ENDBRANCH  27  28
ENDBRANCH  24  27
ENDBRANCH  19  24
ENDBRANCH   3  19
TORSDOF 10
