REMARK SMILES Cc1ccc([C@@H](O)Cn2cc([C@H](CC(C)C)[NH2+]Cc3ccc4c(c3)OCO4)nn2)c(C)c1
REMARK SMILES IDX 9 1 10 2 11 3 28 4 29 5 8 7 6 8 5 9 2 10 3 11 32 12 4 13
REMARK SMILES IDX 30 14 1 15 31 16 7 17 12 19 13 20 14 21 15 22 16 23 17 24
REMARK SMILES IDX 18 27 19 28 20 29 24 30 21 31 23 32 22 33 25 34 27 35 26 36
REMARK H PARENT 10 6 7 18 17 25 17 26
ROOT
ATOM     1   N1  UNL     1      -2.436   0.161   1.777  1.00  0.00    -0.209 N   
ATOM     2   C8  UNL     1      -1.653   1.061   1.111  1.00  0.00     0.045 A   
ATOM     3   C9  UNL     1      -1.851   0.756  -0.217  1.00  0.00     0.127 A   
ATOM     4   N3  UNL     1      -2.751  -0.276  -0.310  1.00  0.00    -0.132 NA  
ATOM     5   N4  UNL     1      -3.102  -0.629   0.915  1.00  0.00    -0.076 NA  
ATOM     6   H10 UNL     1      -1.014   1.767   1.625  1.00  0.00     0.083 HD  
ENDROOT
BRANCH   1   7
ATOM     7   C7  UNL     1      -2.528  -0.052   3.203  1.00  0.00     0.170 C   
BRANCH   7   8
ATOM     8   C6  UNL     1      -1.612  -1.182   3.693  1.00  0.00     0.164 C   
BRANCH   8   9
ATOM     9   C5  UNL     1      -0.140  -0.924   3.402  1.00  0.00    -0.015 A   
ATOM     10  C2  UNL     1       2.560  -0.278   2.858  1.00  0.00    -0.051 A   
ATOM     11  C3  UNL     1       1.845   0.439   3.817  1.00  0.00     0.004 A   
ATOM     12  C25 UNL     1       1.930  -1.337   2.195  1.00  0.00     0.007 A   
ATOM     13  C4  UNL     1       0.513   0.122   4.083  1.00  0.00     0.007 A   
ATOM     14  C23 UNL     1       0.588  -1.671   2.451  1.00  0.00    -0.045 A   
ATOM     15  C1  UNL     1       4.005   0.029   2.598  1.00  0.00     0.044 C   
ATOM     16  C24 UNL     1      -0.014  -2.834   1.707  1.00  0.00     0.045 C   
ENDBRANCH   8   9
BRANCH   8  17
ATOM     17  O1  UNL     1      -1.789  -1.330   5.106  1.00  0.00    -0.387 OA  
ATOM     18  H7  UNL     1      -1.042  -1.861   5.438  1.00  0.00     0.211 HD  
ENDBRANCH   8  17
ENDBRANCH   7   8
ENDBRANCH   1   7
BRANCH   3  19
ATOM     19  C10 UNL     1      -1.191   1.276  -1.452  1.00  0.00     0.114 C   
BRANCH  19  20
ATOM     20  C11 UNL     1      -1.918   2.483  -2.068  1.00  0.00     0.064 C   
BRANCH  20  21
ATOM     21  C12 UNL     1      -1.903   3.766  -1.211  1.00  0.00    -0.012 C   
ATOM     22  C13 UNL     1      -2.716   4.861  -1.908  1.00  0.00     0.007 C   
ATOM     23  C14 UNL     1      -0.484   4.272  -0.943  1.00  0.00     0.007 C   
ENDBRANCH  20  21
ENDBRANCH  19  20
BRANCH  19  24
ATOM     24  N2  UNL     1      -1.175   0.160  -2.477  1.00  0.00     0.249 N   
ATOM     25  H21 UNL     1      -1.131  -0.720  -1.943  1.00  0.00     0.199 HD  
ATOM     26  H22 UNL     1      -2.098   0.119  -2.926  1.00  0.00     0.199 HD  
BRANCH  24  27
ATOM     27  C15 UNL     1      -0.086   0.163  -3.484  1.00  0.00     0.164 C   
BRANCH  27  28
ATOM     28  C16 UNL     1       1.263  -0.129  -2.887  1.00  0.00    -0.002 A   
ATOM     29  C17 UNL     1       2.245   0.887  -2.802  1.00  0.00     0.012 A   
ATOM     30  C21 UNL     1       1.553  -1.412  -2.387  1.00  0.00     0.045 A   
ATOM     31  C18 UNL     1       3.495   0.634  -2.226  1.00  0.00     0.037 A   
ATOM     32  C20 UNL     1       2.796  -1.628  -1.827  1.00  0.00     0.109 A   
ATOM     33  C19 UNL     1       3.740  -0.634  -1.750  1.00  0.00     0.108 A   
ATOM     34  O2  UNL     1       3.232  -2.802  -1.300  1.00  0.00    -0.316 OA  
ATOM     35  O3  UNL     1       4.891  -1.059  -1.168  1.00  0.00    -0.316 OA  
ATOM     36  C22 UNL     1       4.587  -2.450  -0.935  1.00  0.00     0.337 C   
ENDBRANCH  27  28
ENDBRANCH  24  27
ENDBRANCH  19  24
ENDBRANCH   3  19
TORSDOF 10
