REMARK SMILES CC(=O)c1ccc(Cn2cc([C@@H]([NH2+]Cc3ccc4c(c3)OCO4)C3CCCC3)nn2)cc1
REMARK SMILES IDX 9 1 10 2 11 3 29 4 30 5 8 7 7 8 4 9 5 10 32 11 6 12 31 13
REMARK SMILES IDX 2 14 1 15 3 16 12 17 13 18 14 21 15 22 16 23 20 24 17 25
REMARK SMILES IDX 19 26 18 27 21 28 23 29 22 30 24 31 25 32 28 33 26 34 27 35
REMARK H PARENT 10 6 13 19 13 20
ROOT
ATOM     1   N1  UNL     1       1.027  -1.116  -1.880  1.00  0.00    -0.208 N   
ATOM     2   C8  UNL     1       0.118  -0.322  -1.235  1.00  0.00     0.046 A   
ATOM     3   C9  UNL     1       0.785   0.870  -1.063  1.00  0.00     0.127 A   
ATOM     4   N3  UNL     1       2.041   0.768  -1.603  1.00  0.00    -0.132 NA  
ATOM     5   N4  UNL     1       2.175  -0.447  -2.106  1.00  0.00    -0.076 NA  
ATOM     6   H8  UNL     1      -0.860  -0.679  -0.943  1.00  0.00     0.083 HD  
ENDROOT
BRANCH   1   7
ATOM     7   C7  UNL     1       0.888  -2.508  -2.276  1.00  0.00     0.169 C   
BRANCH   7   8
ATOM     8   C6  UNL     1       1.196  -3.422  -1.116  1.00  0.00    -0.029 A   
ATOM     9   C3  UNL     1       1.788  -5.028   1.122  1.00  0.00     0.017 A   
ATOM     10  C4  UNL     1       0.458  -4.794   0.754  1.00  0.00     0.012 A   
ATOM     11  C25 UNL     1       2.819  -4.472   0.355  1.00  0.00     0.012 A   
ATOM     12  C5  UNL     1       0.166  -3.994  -0.356  1.00  0.00     0.006 A   
ATOM     13  C24 UNL     1       2.528  -3.677  -0.754  1.00  0.00     0.006 A   
BRANCH   9  14
ATOM     14  C2  UNL     1       2.153  -5.822   2.332  1.00  0.00     0.159 C   
ATOM     15  C1  UNL     1       1.081  -6.606   3.042  1.00  0.00     0.093 C   
ATOM     16  O1  UNL     1       3.313  -5.809   2.738  1.00  0.00    -0.295 OA  
ENDBRANCH   9  14
ENDBRANCH   7   8
ENDBRANCH   1   7
BRANCH   3  17
ATOM     17  C10 UNL     1       0.407   2.128  -0.350  1.00  0.00     0.117 C   
BRANCH  17  18
ATOM     18  N2  UNL     1       1.615   2.604   0.436  1.00  0.00     0.249 N   
ATOM     19  H10 UNL     1       2.419   2.067   0.069  1.00  0.00     0.199 HD  
ATOM     20  H11 UNL     1       1.838   3.579   0.213  1.00  0.00     0.199 HD  
BRANCH  18  21
ATOM     21  C11 UNL     1       1.563   2.425   1.912  1.00  0.00     0.164 C   
BRANCH  21  22
ATOM     22  C12 UNL     1       1.332   1.006   2.354  1.00  0.00    -0.002 A   
ATOM     23  C13 UNL     1       2.317   0.011   2.146  1.00  0.00     0.012 A   
ATOM     24  C17 UNL     1       0.118   0.653   2.971  1.00  0.00     0.045 A   
ATOM     25  C14 UNL     1       2.098  -1.314   2.543  1.00  0.00     0.037 A   
ATOM     26  C16 UNL     1      -0.066  -0.661   3.347  1.00  0.00     0.109 A   
ATOM     27  C15 UNL     1       0.896  -1.619   3.140  1.00  0.00     0.108 A   
ATOM     28  O2  UNL     1      -1.177  -1.161   3.949  1.00  0.00    -0.316 OA  
ATOM     29  O3  UNL     1       0.511  -2.843   3.589  1.00  0.00    -0.316 OA  
ATOM     30  C18 UNL     1      -0.782  -2.537   4.151  1.00  0.00     0.337 C   
ENDBRANCH  21  22
ENDBRANCH  18  21
ENDBRANCH  17  18
BRANCH  17  31
ATOM     31  C19 UNL     1      -0.032   3.243  -1.315  1.00  0.00     0.043 C   
ATOM     32  C20 UNL     1      -0.480   4.529  -0.612  1.00  0.00     0.010 C   
ATOM     33  C23 UNL     1      -1.282   2.885  -2.126  1.00  0.00     0.010 C   
ATOM     34  C21 UNL     1      -1.316   5.272  -1.651  1.00  0.00     0.001 C   
ATOM     35  C22 UNL     1      -1.773   4.223  -2.662  1.00  0.00     0.001 C   
ENDBRANCH  17  31
ENDBRANCH   3  17
TORSDOF 8
