REMARK SMILES COc1ccc(Cn2cc([C@H](CC(C)C)[NH2+]Cc3ccc4c(c3)OCO4)nn2)cc1
REMARK SMILES IDX 8 1 9 2 10 3 27 4 28 5 7 7 6 8 3 9 4 10 30 11 5 12 29 13
REMARK SMILES IDX 2 14 1 15 11 16 12 17 13 18 14 19 15 20 16 21 17 24 18 25
REMARK SMILES IDX 19 26 23 27 20 28 22 29 21 30 24 31 26 32 25 33
REMARK H PARENT 9 6 16 22 16 23
ROOT
ATOM     1   N1  UNL     1      -0.779   2.751  -0.223  1.00  0.00    -0.208 N   
ATOM     2   C7  UNL     1      -0.264   1.925   0.738  1.00  0.00     0.046 A   
ATOM     3   C8  UNL     1       1.078   1.859   0.434  1.00  0.00     0.127 A   
ATOM     4   N3  UNL     1       1.329   2.627  -0.674  1.00  0.00    -0.132 NA  
ATOM     5   N4  UNL     1       0.186   3.165  -1.068  1.00  0.00    -0.076 NA  
ATOM     6   H8  UNL     1      -0.878   1.473   1.505  1.00  0.00     0.083 HD  
ENDROOT
BRANCH   1   7
ATOM     7   C6  UNL     1      -2.158   3.173  -0.400  1.00  0.00     0.169 C   
BRANCH   7   8
ATOM     8   C5  UNL     1      -2.966   2.086  -1.060  1.00  0.00    -0.028 A   
ATOM     9   C2  UNL     1      -4.426   0.023  -2.305  1.00  0.00     0.075 A   
ATOM     10  C3  UNL     1      -3.666   0.905  -3.072  1.00  0.00     0.034 A   
ATOM     11  C23 UNL     1      -4.451   0.173  -0.917  1.00  0.00     0.034 A   
ATOM     12  C4  UNL     1      -2.939   1.929  -2.454  1.00  0.00     0.008 A   
ATOM     13  C22 UNL     1      -3.731   1.196  -0.296  1.00  0.00     0.008 A   
BRANCH   9  14
ATOM     14  O1  UNL     1      -5.171  -1.020  -2.780  1.00  0.00    -0.349 OA  
ATOM     15  C1  UNL     1      -5.303  -1.128  -4.192  1.00  0.00     0.203 C   
ENDBRANCH   9  14
ENDBRANCH   7   8
ENDBRANCH   1   7
BRANCH   3  16
ATOM     16  C9  UNL     1       2.190   1.086   1.057  1.00  0.00     0.114 C   
BRANCH  16  17
ATOM     17  C10 UNL     1       3.065   1.951   1.986  1.00  0.00     0.064 C   
BRANCH  17  18
ATOM     18  C11 UNL     1       2.336   2.550   3.208  1.00  0.00    -0.012 C   
ATOM     19  C12 UNL     1       1.738   1.476   4.118  1.00  0.00     0.007 C   
ATOM     20  C13 UNL     1       3.305   3.425   4.009  1.00  0.00     0.007 C   
ENDBRANCH  17  18
ENDBRANCH  16  17
BRANCH  16  21
ATOM     21  N2  UNL     1       3.106   0.542  -0.022  1.00  0.00     0.249 N   
ATOM     22  H19 UNL     1       3.335   1.341  -0.630  1.00  0.00     0.199 HD  
ATOM     23  H20 UNL     1       3.982   0.211   0.392  1.00  0.00     0.199 HD  
BRANCH  21  24
ATOM     24  C14 UNL     1       2.538  -0.530  -0.894  1.00  0.00     0.164 C   
BRANCH  24  25
ATOM     25  C15 UNL     1       2.268  -1.807  -0.147  1.00  0.00    -0.002 A   
ATOM     26  C16 UNL     1       3.341  -2.617   0.298  1.00  0.00     0.012 A   
ATOM     27  C20 UNL     1       0.947  -2.187   0.146  1.00  0.00     0.045 A   
ATOM     28  C17 UNL     1       3.104  -3.784   1.032  1.00  0.00     0.037 A   
ATOM     29  C19 UNL     1       0.748  -3.342   0.873  1.00  0.00     0.109 A   
ATOM     30  C18 UNL     1       1.795  -4.117   1.305  1.00  0.00     0.108 A   
ATOM     31  O2  UNL     1      -0.458  -3.845   1.247  1.00  0.00    -0.316 OA  
ATOM     32  O3  UNL     1       1.381  -5.206   2.003  1.00  0.00    -0.316 OA  
ATOM     33  C21 UNL     1      -0.052  -5.040   1.951  1.00  0.00     0.337 C   
ENDBRANCH  24  25
ENDBRANCH  21  24
ENDBRANCH  16  21
ENDBRANCH   3  16
TORSDOF 9
