REMARK SMILES CC(C)C[C@H]([NH2+]Cc1ccc2c(c1)OCO2)c1cn(CCCn2cccn2)nn1
REMARK SMILES IDX 17 1 18 2 19 3 28 4 29 5 5 7 4 8 2 9 1 10 3 11 6 12 7 15
REMARK SMILES IDX 8 16 9 17 13 18 10 19 12 20 11 21 14 22 16 23 15 24 20 25
REMARK SMILES IDX 21 26 22 27 23 28 24 29 27 30 25 31 26 32
REMARK H PARENT 18 6 6 13 6 14
ROOT
ATOM     1   C14 UNL     1       1.900   0.912  -1.878  1.00  0.00     0.127 A   
ATOM     2   C15 UNL     1       2.318  -0.294  -2.398  1.00  0.00     0.045 A   
ATOM     3   N2  UNL     1       3.521  -0.500  -1.788  1.00  0.00    -0.212 N   
ATOM     4   N5  UNL     1       3.919   0.597  -1.121  1.00  0.00    -0.076 NA  
ATOM     5   N6  UNL     1       2.920   1.468  -1.154  1.00  0.00    -0.132 NA  
ATOM     6   H20 UNL     1       1.810  -1.069  -2.957  1.00  0.00     0.083 HD  
ENDROOT
BRANCH   1   7
ATOM     7   C5  UNL     1       0.517   1.469  -1.838  1.00  0.00     0.114 C   
BRANCH   7   8
ATOM     8   C4  UNL     1       0.457   2.986  -2.078  1.00  0.00     0.064 C   
BRANCH   8   9
ATOM     9   C2  UNL     1      -0.957   3.610  -2.086  1.00  0.00    -0.012 C   
ATOM     10  C1  UNL     1      -1.857   3.012  -3.170  1.00  0.00     0.007 C   
ATOM     11  C3  UNL     1      -0.847   5.126  -2.289  1.00  0.00     0.007 C   
ENDBRANCH   8   9
ENDBRANCH   7   8
BRANCH   7  12
ATOM     12  N1  UNL     1      -0.171   1.056  -0.567  1.00  0.00     0.249 N   
ATOM     13  H11 UNL     1      -1.186   1.125  -0.670  1.00  0.00     0.199 HD  
ATOM     14  H12 UNL     1       0.020   0.035  -0.442  1.00  0.00     0.199 HD  
BRANCH  12  15
ATOM     15  C6  UNL     1       0.254   1.688   0.713  1.00  0.00     0.164 C   
BRANCH  15  16
ATOM     16  C7  UNL     1      -0.571   1.166   1.861  1.00  0.00    -0.002 A   
ATOM     17  C8  UNL     1      -0.003   0.266   2.795  1.00  0.00     0.012 A   
ATOM     18  C12 UNL     1      -1.925   1.534   1.988  1.00  0.00     0.045 A   
ATOM     19  C9  UNL     1      -0.769  -0.272   3.836  1.00  0.00     0.037 A   
ATOM     20  C11 UNL     1      -2.655   0.981   3.023  1.00  0.00     0.109 A   
ATOM     21  C10 UNL     1      -2.095   0.103   3.919  1.00  0.00     0.108 A   
ATOM     22  O1  UNL     1      -3.975   1.214   3.276  1.00  0.00    -0.316 OA  
ATOM     23  O2  UNL     1      -2.989  -0.325   4.852  1.00  0.00    -0.316 OA  
ATOM     24  C13 UNL     1      -4.177   0.390   4.448  1.00  0.00     0.337 C   
ENDBRANCH  15  16
ENDBRANCH  12  15
ENDBRANCH   7  12
ENDBRANCH   1   7
BRANCH   3  25
ATOM     25  C16 UNL     1       4.126  -1.787  -1.523  1.00  0.00     0.135 C   
BRANCH  25  26
ATOM     26  C17 UNL     1       4.090  -2.199  -0.044  1.00  0.00     0.043 C   
BRANCH  26  27
ATOM     27  C18 UNL     1       2.790  -1.908   0.725  1.00  0.00     0.134 C   
BRANCH  27  28
ATOM     28  N3  UNL     1       1.580  -2.483   0.165  1.00  0.00    -0.233 N   
ATOM     29  C19 UNL     1       1.312  -3.815   0.047  1.00  0.00     0.097 A   
ATOM     30  N4  UNL     1       0.537  -1.687  -0.217  1.00  0.00    -0.190 NA  
ATOM     31  C20 UNL     1       0.030  -3.911  -0.431  1.00  0.00     0.039 A   
ATOM     32  C21 UNL     1      -0.401  -2.581  -0.566  1.00  0.00     0.132 A   
ENDBRANCH  27  28
ENDBRANCH  26  27
ENDBRANCH  25  26
ENDBRANCH   3  25
TORSDOF 10
