REMARK SMILES Cc1ccc(O)c(Cn2cc([C@@H]([NH2+]Cc3ccc4c(c3)OCO4)C(C)C)nn2)n1
REMARK SMILES IDX 9 1 10 2 11 3 27 4 28 5 8 7 7 8 2 9 3 10 29 11 4 12 5 13
REMARK SMILES IDX 1 14 6 15 12 17 13 18 14 21 15 22 16 23 20 24 17 25 19 26
REMARK SMILES IDX 18 27 21 28 23 29 22 30 24 31 25 32 26 33
REMARK H PARENT 10 6 6 16 13 19 13 20
ROOT
ATOM     1   N1  UNL     1      -0.309  -0.888   3.090  1.00  0.00    -0.206 N   
ATOM     2   C8  UNL     1      -0.236   0.412   2.662  1.00  0.00     0.046 A   
ATOM     3   C9  UNL     1      -0.951   0.421   1.487  1.00  0.00     0.127 A   
ATOM     4   N3  UNL     1      -1.440  -0.839   1.249  1.00  0.00    -0.132 NA  
ATOM     5   N4  UNL     1      -1.046  -1.627   2.234  1.00  0.00    -0.076 NA  
ATOM     6   H9  UNL     1       0.305   1.167   3.219  1.00  0.00     0.083 HD  
ENDROOT
BRANCH   1   7
ATOM     7   C7  UNL     1       0.203  -1.459   4.322  1.00  0.00     0.192 C   
BRANCH   7   8
ATOM     8   C6  UNL     1       1.703  -1.368   4.374  1.00  0.00     0.090 A   
ATOM     9   C2  UNL     1       3.574  -0.119   4.985  1.00  0.00     0.038 A   
ATOM     10  C3  UNL     1       4.431  -1.117   4.532  1.00  0.00     0.026 A   
ATOM     11  N5  UNL     1       2.226  -0.225   4.901  1.00  0.00    -0.254 NA  
ATOM     12  C4  UNL     1       3.888  -2.272   3.974  1.00  0.00     0.037 A   
ATOM     13  C5  UNL     1       2.508  -2.399   3.894  1.00  0.00     0.095 A   
ATOM     14  C1  UNL     1       4.133   1.134   5.591  1.00  0.00     0.067 C   
BRANCH  13  15
ATOM     15  O1  UNL     1       1.941  -3.514   3.355  1.00  0.00    -0.359 OA  
ATOM     16  H6  UNL     1       2.636  -4.164   3.152  1.00  0.00     0.218 HD  
ENDBRANCH  13  15
ENDBRANCH   7   8
ENDBRANCH   1   7
BRANCH   3  17
ATOM     17  C10 UNL     1      -1.229   1.517   0.509  1.00  0.00     0.117 C   
BRANCH  17  18
ATOM     18  N2  UNL     1      -1.593   0.935  -0.832  1.00  0.00     0.249 N   
ATOM     19  H11 UNL     1      -2.126   1.589  -1.411  1.00  0.00     0.199 HD  
ATOM     20  H12 UNL     1      -2.220   0.138  -0.641  1.00  0.00     0.199 HD  
BRANCH  18  21
ATOM     21  C11 UNL     1      -0.448   0.403  -1.622  1.00  0.00     0.164 C   
BRANCH  21  22
ATOM     22  C12 UNL     1      -0.942  -0.243  -2.886  1.00  0.00    -0.002 A   
ATOM     23  C13 UNL     1      -1.040   0.503  -4.085  1.00  0.00     0.012 A   
ATOM     24  C17 UNL     1      -1.363  -1.584  -2.867  1.00  0.00     0.045 A   
ATOM     25  C14 UNL     1      -1.541  -0.081  -5.253  1.00  0.00     0.037 A   
ATOM     26  C16 UNL     1      -1.850  -2.129  -4.036  1.00  0.00     0.109 A   
ATOM     27  C15 UNL     1      -1.938  -1.399  -5.196  1.00  0.00     0.108 A   
ATOM     28  O2  UNL     1      -2.296  -3.403  -4.190  1.00  0.00    -0.316 OA  
ATOM     29  O3  UNL     1      -2.447  -2.122  -6.226  1.00  0.00    -0.316 OA  
ATOM     30  C18 UNL     1      -2.656  -3.401  -5.590  1.00  0.00     0.337 C   
ENDBRANCH  21  22
ENDBRANCH  18  21
ENDBRANCH  17  18
BRANCH  17  31
ATOM     31  C19 UNL     1      -2.346   2.474   1.001  1.00  0.00     0.037 C   
ATOM     32  C20 UNL     1      -2.400   3.759   0.165  1.00  0.00     0.014 C   
ATOM     33  C21 UNL     1      -3.737   1.830   1.053  1.00  0.00     0.014 C   
ENDBRANCH  17  31
ENDBRANCH   3  17
TORSDOF 8
