REMARK SMILES CC(C)(C)[C@H]([NH2+]Cc1ccc2c(c1)OCO2)c1cn(Cc2cnn[nH]2)nn1
REMARK SMILES IDX 17 1 18 2 19 3 26 4 27 5 5 7 2 8 1 9 3 10 4 11 6 12 7 15
REMARK SMILES IDX 8 16 9 17 13 18 10 19 12 20 11 21 14 22 16 23 15 24 20 25
REMARK SMILES IDX 21 26 22 27 25 28 23 29 24 30
REMARK H PARENT 18 6 6 13 6 14 25 31
ROOT
ATOM     1   C14 UNL     1       0.863   0.482   0.461  1.00  0.00     0.127 A   
ATOM     2   C15 UNL     1      -0.152   0.917   1.284  1.00  0.00     0.046 A   
ATOM     3   N2  UNL     1      -0.483   2.143   0.780  1.00  0.00    -0.206 N   
ATOM     4   N6  UNL     1       0.264   2.438  -0.304  1.00  0.00    -0.076 NA  
ATOM     5   N7  UNL     1       1.085   1.423  -0.514  1.00  0.00    -0.132 NA  
ATOM     6   H20 UNL     1      -0.651   0.487   2.142  1.00  0.00     0.083 HD  
ENDROOT
BRANCH   1   7
ATOM     7   C5  UNL     1       1.641  -0.801   0.429  1.00  0.00     0.120 C   
BRANCH   7   8
ATOM     8   C2  UNL     1       3.004  -0.750   1.202  1.00  0.00     0.010 C   
ATOM     9   C1  UNL     1       3.991   0.277   0.612  1.00  0.00     0.017 C   
ATOM     10  C3  UNL     1       3.675  -2.143   1.187  1.00  0.00     0.017 C   
ATOM     11  C4  UNL     1       2.758  -0.385   2.684  1.00  0.00     0.017 C   
ENDBRANCH   7   8
BRANCH   7  12
ATOM     12  N1  UNL     1       1.863  -1.183  -1.024  1.00  0.00     0.250 N   
ATOM     13  H11 UNL     1       2.842  -1.413  -1.208  1.00  0.00     0.199 HD  
ATOM     14  H12 UNL     1       1.689  -0.325  -1.573  1.00  0.00     0.199 HD  
BRANCH  12  15
ATOM     15  C6  UNL     1       0.998  -2.268  -1.564  1.00  0.00     0.164 C   
BRANCH  15  16
ATOM     16  C7  UNL     1      -0.471  -1.955  -1.526  1.00  0.00    -0.002 A   
ATOM     17  C8  UNL     1      -1.329  -2.661  -0.648  1.00  0.00     0.012 A   
ATOM     18  C12 UNL     1      -1.006  -0.954  -2.355  1.00  0.00     0.045 A   
ATOM     19  C9  UNL     1      -2.697  -2.374  -0.592  1.00  0.00     0.037 A   
ATOM     20  C11 UNL     1      -2.360  -0.699  -2.279  1.00  0.00     0.109 A   
ATOM     21  C10 UNL     1      -3.182  -1.389  -1.423  1.00  0.00     0.108 A   
ATOM     22  O1  UNL     1      -3.033   0.222  -3.015  1.00  0.00    -0.316 OA  
ATOM     23  O2  UNL     1      -4.477  -0.993  -1.514  1.00  0.00    -0.316 OA  
ATOM     24  C13 UNL     1      -4.391  -0.009  -2.570  1.00  0.00     0.337 C   
ENDBRANCH  15  16
ENDBRANCH  12  15
ENDBRANCH   7  12
ENDBRANCH   1   7
BRANCH   3  25
ATOM     25  C16 UNL     1      -1.476   3.089   1.270  1.00  0.00     0.188 C   
BRANCH  25  26
ATOM     26  C17 UNL     1      -2.670   3.114   0.399  1.00  0.00     0.066 A   
ATOM     27  C18 UNL     1      -4.006   2.880   0.631  1.00  0.00     0.159 A   
ATOM     28  N5  UNL     1      -2.628   3.440  -0.931  1.00  0.00    -0.221 N   
ATOM     29  N3  UNL     1      -4.706   3.059  -0.526  1.00  0.00    -0.141 NA  
ATOM     30  N4  UNL     1      -3.850   3.403  -1.478  1.00  0.00    -0.079 NA  
ATOM     31  H24 UNL     1      -1.834   3.677  -1.519  1.00  0.00     0.177 HD  
ENDBRANCH  25  26
ENDBRANCH   3  25
TORSDOF 7
