REMARK SMILES Fc1cnc(Cl)c(Cn2cc([C@@H]([NH2+]Cc3ccc4c(c3)OCO4)C3CCCCC3)nn2)c1
REMARK SMILES IDX 9 1 10 2 11 3 30 4 31 5 8 7 7 8 2 9 3 10 32 11 4 12 5 13
REMARK SMILES IDX 1 14 6 15 12 16 13 17 14 20 15 21 16 22 20 23 17 24 19 25
REMARK SMILES IDX 18 26 21 27 23 28 22 29 24 30 25 31 29 32 26 33 28 34 27 35
REMARK H PARENT 10 6 13 18 13 19
ROOT
ATOM     1   N2  UNL     1       2.830   1.141  -0.589  1.00  0.00    -0.208 N   
ATOM     2   C6  UNL     1       1.794   0.309  -0.258  1.00  0.00     0.046 A   
ATOM     3   C7  UNL     1       0.790   0.665  -1.132  1.00  0.00     0.127 A   
ATOM     4   N4  UNL     1       1.258   1.631  -1.984  1.00  0.00    -0.132 NA  
ATOM     5   N5  UNL     1       2.506   1.906  -1.648  1.00  0.00    -0.076 NA  
ATOM     6   H4  UNL     1       1.845  -0.393   0.563  1.00  0.00     0.083 HD  
ENDROOT
BRANCH   1   7
ATOM     7   C5  UNL     1       4.121   1.313   0.065  1.00  0.00     0.172 C   
BRANCH   7   8
ATOM     8   C4  UNL     1       4.026   1.287   1.566  1.00  0.00     0.012 A   
ATOM     9   C1  UNL     1       4.574   0.255   3.680  1.00  0.00     0.141 A   
ATOM     10  C2  UNL     1       3.819   1.224   4.312  1.00  0.00     0.152 A   
ATOM     11  C23 UNL     1       4.680   0.281   2.295  1.00  0.00     0.049 A   
ATOM     12  N1  UNL     1       3.170   2.208   3.648  1.00  0.00    -0.241 NA  
ATOM     13  C3  UNL     1       3.305   2.230   2.304  1.00  0.00     0.134 A   
ATOM     14  F1  UNL     1       5.184  -0.706   4.381  1.00  0.00    -0.205 F   
ATOM     15  CL1 UNL     1       2.448   3.534   1.580  1.00  0.00    -0.062 Cl  
ENDBRANCH   7   8
ENDBRANCH   1   7
BRANCH   3  16
ATOM     16  C8  UNL     1      -0.639   0.236  -1.216  1.00  0.00     0.117 C   
BRANCH  16  17
ATOM     17  N3  UNL     1      -1.506   1.385  -1.674  1.00  0.00     0.249 N   
ATOM     18  H6  UNL     1      -1.049   1.778  -2.509  1.00  0.00     0.199 HD  
ATOM     19  H7  UNL     1      -2.430   1.056  -1.959  1.00  0.00     0.199 HD  
BRANCH  17  20
ATOM     20  C9  UNL     1      -1.669   2.514  -0.705  1.00  0.00     0.164 C   
BRANCH  20  21
ATOM     21  C10 UNL     1      -2.393   2.109   0.549  1.00  0.00    -0.002 A   
ATOM     22  C11 UNL     1      -1.701   2.049   1.783  1.00  0.00     0.012 A   
ATOM     23  C15 UNL     1      -3.753   1.758   0.503  1.00  0.00     0.045 A   
ATOM     24  C12 UNL     1      -2.348   1.635   2.952  1.00  0.00     0.037 A   
ATOM     25  C14 UNL     1      -4.360   1.353   1.674  1.00  0.00     0.109 A   
ATOM     26  C13 UNL     1      -3.678   1.292   2.863  1.00  0.00     0.108 A   
ATOM     27  O1  UNL     1      -5.659   0.976   1.799  1.00  0.00    -0.316 OA  
ATOM     28  O2  UNL     1      -4.461   0.867   3.888  1.00  0.00    -0.316 OA  
ATOM     29  C16 UNL     1      -5.729   0.702   3.217  1.00  0.00     0.337 C   
ENDBRANCH  20  21
ENDBRANCH  17  20
ENDBRANCH  16  17
BRANCH  16  30
ATOM     30  C17 UNL     1      -0.831  -0.996  -2.141  1.00  0.00     0.043 C   
ATOM     31  C18 UNL     1      -2.209  -1.654  -1.926  1.00  0.00     0.010 C   
ATOM     32  C22 UNL     1      -0.611  -0.705  -3.639  1.00  0.00     0.010 C   
ATOM     33  C19 UNL     1      -2.371  -2.913  -2.777  1.00  0.00     0.001 C   
ATOM     34  C21 UNL     1      -0.777  -1.967  -4.486  1.00  0.00     0.001 C   
ATOM     35  C20 UNL     1      -2.132  -2.626  -4.255  1.00  0.00     0.000 C   
ENDBRANCH  16  30
ENDBRANCH   3  16
TORSDOF 7
