REMARK SMILES COc1cccc(Cn2cc([C@@H]([NH2+]Cc3ccc4c(c3)OCO4)C(C)(C)C)nn2)c1C
REMARK SMILES IDX 9 1 10 2 11 3 28 4 29 5 8 7 7 8 3 9 4 10 30 11 5 12 6 13
REMARK SMILES IDX 31 14 2 15 1 16 12 17 13 18 14 21 15 22 16 23 20 24 17 25
REMARK SMILES IDX 19 26 18 27 21 28 23 29 22 30 24 31 25 32 26 33 27 34
REMARK H PARENT 10 6 13 19 13 20
ROOT
ATOM     1   N1  UNL     1       1.759   0.466  -2.638  1.00  0.00    -0.208 N   
ATOM     2   C8  UNL     1       1.729   1.161  -1.459  1.00  0.00     0.046 A   
ATOM     3   C9  UNL     1       2.470   0.386  -0.595  1.00  0.00     0.127 A   
ATOM     4   N3  UNL     1       2.953  -0.705  -1.271  1.00  0.00    -0.132 NA  
ATOM     5   N4  UNL     1       2.520  -0.640  -2.520  1.00  0.00    -0.076 NA  
ATOM     6   H9  UNL     1       1.155   2.069  -1.335  1.00  0.00     0.083 HD  
ENDROOT
BRANCH   1   7
ATOM     7   C7  UNL     1       1.024   0.741  -3.864  1.00  0.00     0.169 C   
BRANCH   7   8
ATOM     8   C6  UNL     1      -0.466   0.822  -3.595  1.00  0.00    -0.023 A   
ATOM     9   C2  UNL     1      -2.602  -0.135  -2.887  1.00  0.00     0.078 A   
ATOM     10  C3  UNL     1      -3.181   1.136  -2.938  1.00  0.00     0.034 A   
ATOM     11  C23 UNL     1      -1.245  -0.309  -3.245  1.00  0.00    -0.016 A   
ATOM     12  C4  UNL     1      -2.426   2.238  -3.330  1.00  0.00     0.003 A   
ATOM     13  C5  UNL     1      -1.080   2.086  -3.648  1.00  0.00     0.006 A   
ATOM     14  C24 UNL     1      -0.646  -1.696  -3.195  1.00  0.00     0.047 C   
BRANCH   9  15
ATOM     15  O1  UNL     1      -3.260  -1.262  -2.466  1.00  0.00    -0.349 OA  
ATOM     16  C1  UNL     1      -4.675  -1.183  -2.332  1.00  0.00     0.203 C   
ENDBRANCH   9  15
ENDBRANCH   7   8
ENDBRANCH   1   7
BRANCH   3  17
ATOM     17  C10 UNL     1       2.677   0.505   0.882  1.00  0.00     0.120 C   
BRANCH  17  18
ATOM     18  N2  UNL     1       2.492  -0.853   1.533  1.00  0.00     0.250 N   
ATOM     19  H11 UNL     1       2.708  -0.808   2.530  1.00  0.00     0.199 HD  
ATOM     20  H12 UNL     1       3.174  -1.485   1.095  1.00  0.00     0.199 HD  
BRANCH  18  21
ATOM     21  C11 UNL     1       1.150  -1.501   1.368  1.00  0.00     0.164 C   
BRANCH  21  22
ATOM     22  C12 UNL     1       0.005  -0.663   1.868  1.00  0.00    -0.002 A   
ATOM     23  C13 UNL     1      -0.950  -0.155   0.955  1.00  0.00     0.012 A   
ATOM     24  C17 UNL     1      -0.117  -0.360   3.234  1.00  0.00     0.045 A   
ATOM     25  C14 UNL     1      -2.004   0.655   1.389  1.00  0.00     0.037 A   
ATOM     26  C16 UNL     1      -1.167   0.443   3.629  1.00  0.00     0.109 A   
ATOM     27  C15 UNL     1      -2.083   0.937   2.734  1.00  0.00     0.108 A   
ATOM     28  O2  UNL     1      -1.421   0.837   4.904  1.00  0.00    -0.316 OA  
ATOM     29  O3  UNL     1      -3.031   1.704   3.333  1.00  0.00    -0.316 OA  
ATOM     30  C18 UNL     1      -2.627   1.613   4.716  1.00  0.00     0.337 C   
ENDBRANCH  21  22
ENDBRANCH  18  21
ENDBRANCH  17  18
BRANCH  17  31
ATOM     31  C19 UNL     1       4.061   1.125   1.290  1.00  0.00     0.010 C   
ATOM     32  C20 UNL     1       4.224   2.520   0.643  1.00  0.00     0.017 C   
ATOM     33  C21 UNL     1       5.262   0.255   0.869  1.00  0.00     0.017 C   
ATOM     34  C22 UNL     1       4.129   1.327   2.822  1.00  0.00     0.017 C   
ENDBRANCH  17  31
ENDBRANCH   3  17
TORSDOF 8
