REMARK SMILES CNc1ccc(-n2cc([C@@H]([NH2+]Cc3ccc4c(c3)OCO4)C3CCCC3)nn2)cc1
REMARK SMILES IDX 7 1 8 2 9 3 27 4 28 5 6 6 3 7 4 8 30 9 5 10 29 11 2 12 1 13
REMARK SMILES IDX 10 15 11 16 12 19 13 20 14 21 18 22 15 23 17 24 16 25 19 26
REMARK SMILES IDX 21 27 20 28 22 29 23 30 26 31 24 32 25 33
REMARK H PARENT 2 14 11 17 11 18
ROOT
ATOM     1   N2  UNL     1      -1.368   0.971  -1.797  1.00  0.00    -0.181 N   
ATOM     2   C6  UNL     1      -0.553   1.780  -1.025  1.00  0.00     0.135 A   
ATOM     3   C7  UNL     1       0.319   0.915  -0.399  1.00  0.00     0.127 A   
ATOM     4   N4  UNL     1       0.033  -0.363  -0.784  1.00  0.00    -0.131 NA  
ATOM     5   N5  UNL     1      -0.990  -0.321  -1.620  1.00  0.00    -0.071 NA  
ENDROOT
BRANCH   1   6
ATOM     6   C5  UNL     1      -2.440   1.332  -2.648  1.00  0.00     0.058 A   
ATOM     7   C2  UNL     1      -4.584   2.016  -4.372  1.00  0.00     0.026 A   
ATOM     8   C3  UNL     1      -4.176   0.687  -4.213  1.00  0.00     0.025 A   
ATOM     9   C23 UNL     1      -3.927   2.989  -3.612  1.00  0.00     0.025 A   
ATOM     10  C4  UNL     1      -3.112   0.342  -3.373  1.00  0.00     0.028 A   
ATOM     11  C22 UNL     1      -2.853   2.662  -2.772  1.00  0.00     0.028 A   
BRANCH   7  12
ATOM     12  N1  UNL     1      -5.700   2.276  -5.166  1.00  0.00    -0.348 N   
ATOM     13  C1  UNL     1      -6.008   3.632  -5.580  1.00  0.00     0.126 C   
ATOM     14  H4  UNL     1      -5.811   1.596  -5.917  1.00  0.00     0.146 HD  
ENDBRANCH   7  12
ENDBRANCH   1   6
BRANCH   3  15
ATOM     15  C8  UNL     1       1.429   1.154   0.579  1.00  0.00     0.117 C   
BRANCH  15  16
ATOM     16  N3  UNL     1       1.723  -0.116   1.335  1.00  0.00     0.249 N   
ATOM     17  H9  UNL     1       2.688  -0.160   1.675  1.00  0.00     0.199 HD  
ATOM     18  H10 UNL     1       1.628  -0.889   0.656  1.00  0.00     0.199 HD  
BRANCH  16  19
ATOM     19  C9  UNL     1       0.792  -0.413   2.459  1.00  0.00     0.164 C   
BRANCH  19  20
ATOM     20  C10 UNL     1       1.010  -1.810   2.968  1.00  0.00    -0.002 A   
ATOM     21  C11 UNL     1       0.276  -2.887   2.409  1.00  0.00     0.012 A   
ATOM     22  C15 UNL     1       1.970  -2.068   3.959  1.00  0.00     0.045 A   
ATOM     23  C12 UNL     1       0.475  -4.198   2.852  1.00  0.00     0.037 A   
ATOM     24  C14 UNL     1       2.146  -3.376   4.367  1.00  0.00     0.109 A   
ATOM     25  C13 UNL     1       1.417  -4.409   3.833  1.00  0.00     0.108 A   
ATOM     26  O1  UNL     1       3.026  -3.797   5.310  1.00  0.00    -0.316 OA  
ATOM     27  O2  UNL     1       1.739  -5.610   4.378  1.00  0.00    -0.316 OA  
ATOM     28  C16 UNL     1       2.756  -5.217   5.328  1.00  0.00     0.337 C   
ENDBRANCH  19  20
ENDBRANCH  16  19
ENDBRANCH  15  16
BRANCH  15  29
ATOM     29  C17 UNL     1       2.703   1.678  -0.113  1.00  0.00     0.043 C   
ATOM     30  C18 UNL     1       3.800   2.157   0.855  1.00  0.00     0.010 C   
ATOM     31  C21 UNL     1       3.420   0.691  -1.041  1.00  0.00     0.010 C   
ATOM     32  C19 UNL     1       5.137   1.806   0.197  1.00  0.00     0.001 C   
ATOM     33  C20 UNL     1       4.796   1.316  -1.204  1.00  0.00     0.001 C   
ENDBRANCH  15  29
ENDBRANCH   3  15
TORSDOF 7
