REMARK SMILES COc1ccc(CCn2cc([C@@H]([NH2+]Cc3ccc4c(c3)OCO4)C(C)(C)C)nn2)cc1
REMARK SMILES IDX 9 1 10 2 11 3 28 4 29 5 8 7 7 8 6 9 3 10 4 11 31 12 5 13
REMARK SMILES IDX 30 14 2 15 1 16 12 17 13 18 14 21 15 22 16 23 20 24 17 25
REMARK SMILES IDX 19 26 18 27 21 28 23 29 22 30 24 31 25 32 26 33 27 34
REMARK H PARENT 10 6 13 19 13 20
ROOT
ATOM     1   N1  UNL     1       1.393   2.769   1.484  1.00  0.00    -0.212 N   
ATOM     2   C8  UNL     1       1.632   1.655   0.732  1.00  0.00     0.045 A   
ATOM     3   C9  UNL     1       0.905   1.867  -0.418  1.00  0.00     0.127 A   
ATOM     4   N3  UNL     1       0.263   3.077  -0.326  1.00  0.00    -0.132 NA  
ATOM     5   N4  UNL     1       0.570   3.618   0.843  1.00  0.00    -0.076 NA  
ATOM     6   H10 UNL     1       2.249   0.838   1.082  1.00  0.00     0.083 HD  
ENDROOT
BRANCH   1   7
ATOM     7   C7  UNL     1       1.871   3.060   2.819  1.00  0.00     0.139 C   
BRANCH   7   8
ATOM     8   C6  UNL     1       0.794   2.889   3.894  1.00  0.00     0.057 C   
BRANCH   8   9
ATOM     9   C5  UNL     1       0.159   1.516   3.924  1.00  0.00    -0.046 A   
ATOM     10  C2  UNL     1      -1.056  -1.024   3.937  1.00  0.00     0.075 A   
ATOM     11  C3  UNL     1      -1.835   0.121   3.786  1.00  0.00     0.034 A   
ATOM     12  C24 UNL     1       0.326  -0.897   4.089  1.00  0.00     0.034 A   
ATOM     13  C4  UNL     1      -1.230   1.383   3.777  1.00  0.00     0.006 A   
ATOM     14  C23 UNL     1       0.930   0.362   4.101  1.00  0.00     0.006 A   
BRANCH  10  15
ATOM     15  O1  UNL     1      -1.519  -2.309   3.914  1.00  0.00    -0.349 OA  
ATOM     16  C1  UNL     1      -2.908  -2.488   4.176  1.00  0.00     0.203 C   
ENDBRANCH  10  15
ENDBRANCH   8   9
ENDBRANCH   7   8
ENDBRANCH   1   7
BRANCH   3  17
ATOM     17  C10 UNL     1       0.663   0.986  -1.604  1.00  0.00     0.120 C   
BRANCH  17  18
ATOM     18  N2  UNL     1      -0.784   1.133  -2.032  1.00  0.00     0.250 N   
ATOM     19  H12 UNL     1      -0.941   0.731  -2.958  1.00  0.00     0.199 HD  
ATOM     20  H13 UNL     1      -0.958   2.146  -2.102  1.00  0.00     0.199 HD  
BRANCH  18  21
ATOM     21  C11 UNL     1      -1.808   0.582  -1.093  1.00  0.00     0.164 C   
BRANCH  21  22
ATOM     22  C12 UNL     1      -1.786  -0.919  -1.018  1.00  0.00    -0.002 A   
ATOM     23  C13 UNL     1      -1.263  -1.565   0.127  1.00  0.00     0.012 A   
ATOM     24  C17 UNL     1      -2.261  -1.693  -2.091  1.00  0.00     0.045 A   
ATOM     25  C14 UNL     1      -1.214  -2.961   0.210  1.00  0.00     0.037 A   
ATOM     26  C16 UNL     1      -2.196  -3.067  -1.979  1.00  0.00     0.109 A   
ATOM     27  C15 UNL     1      -1.688  -3.684  -0.862  1.00  0.00     0.108 A   
ATOM     28  O2  UNL     1      -2.607  -3.955  -2.922  1.00  0.00    -0.316 OA  
ATOM     29  O3  UNL     1      -1.716  -5.037  -0.960  1.00  0.00    -0.316 OA  
ATOM     30  C18 UNL     1      -2.328  -5.208  -2.257  1.00  0.00     0.337 C   
ENDBRANCH  21  22
ENDBRANCH  18  21
ENDBRANCH  17  18
BRANCH  17  31
ATOM     31  C19 UNL     1       1.623   1.260  -2.815  1.00  0.00     0.010 C   
ATOM     32  C20 UNL     1       1.432   2.663  -3.425  1.00  0.00     0.017 C   
ATOM     33  C21 UNL     1       3.098   1.125  -2.369  1.00  0.00     0.017 C   
ATOM     34  C22 UNL     1       1.393   0.210  -3.927  1.00  0.00     0.017 C   
ENDBRANCH  17  31
ENDBRANCH   3  17
TORSDOF 9
