REMARK SMILES CC(C)(C)[C@H]([NH2+]Cc1ccc2c(c1)OCO2)c1cn(C[C@H](O)c2ccc(F)cc2)nn1
REMARK SMILES IDX 17 1 18 2 19 3 30 4 31 5 5 7 2 8 1 9 3 10 4 11 6 12 7 15
REMARK SMILES IDX 8 16 9 17 13 18 10 19 12 20 11 21 14 22 16 23 15 24 20 25
REMARK SMILES IDX 21 26 22 27 23 29 24 30 29 31 25 32 28 33 26 34 27 35
REMARK H PARENT 18 6 6 13 6 14 22 28
ROOT
ATOM     1   C14 UNL     1       0.894  -0.777   1.690  1.00  0.00     0.127 A   
ATOM     2   C15 UNL     1       1.877  -1.090   0.777  1.00  0.00     0.046 A   
ATOM     3   N2  UNL     1       2.170  -2.398   1.041  1.00  0.00    -0.209 N   
ATOM     4   N3  UNL     1       1.410  -2.868   2.047  1.00  0.00    -0.076 NA  
ATOM     5   N4  UNL     1       0.621  -1.886   2.450  1.00  0.00    -0.132 NA  
ATOM     6   H20 UNL     1       2.362  -0.533  -0.013  1.00  0.00     0.083 HD  
ENDROOT
BRANCH   1   7
ATOM     7   C5  UNL     1       0.087   0.471   1.873  1.00  0.00     0.120 C   
BRANCH   7   8
ATOM     8   C2  UNL     1       0.609   1.411   3.018  1.00  0.00     0.010 C   
ATOM     9   C1  UNL     1      -0.186   2.738   3.026  1.00  0.00     0.017 C   
ATOM     10  C3  UNL     1       2.090   1.778   2.769  1.00  0.00     0.017 C   
ATOM     11  C4  UNL     1       0.497   0.776   4.418  1.00  0.00     0.017 C   
ENDBRANCH   7   8
BRANCH   7  12
ATOM     12  N1  UNL     1      -1.363   0.098   2.116  1.00  0.00     0.250 N   
ATOM     13  H11 UNL     1      -1.910   0.917   2.388  1.00  0.00     0.199 HD  
ATOM     14  H12 UNL     1      -1.365  -0.555   2.912  1.00  0.00     0.199 HD  
BRANCH  12  15
ATOM     15  C6  UNL     1      -2.072  -0.590   0.993  1.00  0.00     0.164 C   
BRANCH  15  16
ATOM     16  C7  UNL     1      -2.206   0.266  -0.235  1.00  0.00    -0.002 A   
ATOM     17  C8  UNL     1      -3.150   1.319  -0.280  1.00  0.00     0.012 A   
ATOM     18  C12 UNL     1      -1.365   0.044  -1.339  1.00  0.00     0.045 A   
ATOM     19  C9  UNL     1      -3.257   2.139  -1.409  1.00  0.00     0.037 A   
ATOM     20  C11 UNL     1      -1.494   0.870  -2.435  1.00  0.00     0.109 A   
ATOM     21  C10 UNL     1      -2.415   1.888  -2.469  1.00  0.00     0.108 A   
ATOM     22  O1  UNL     1      -0.756   0.796  -3.573  1.00  0.00    -0.316 OA  
ATOM     23  O2  UNL     1      -2.378   2.579  -3.638  1.00  0.00    -0.316 OA  
ATOM     24  C13 UNL     1      -1.361   1.849  -4.358  1.00  0.00     0.337 C   
ENDBRANCH  15  16
ENDBRANCH  12  15
ENDBRANCH   7  12
ENDBRANCH   1   7
BRANCH   3  25
ATOM     25  C16 UNL     1       3.105  -3.256   0.352  1.00  0.00     0.170 C   
BRANCH  25  26
ATOM     26  C17 UNL     1       2.438  -4.445  -0.349  1.00  0.00     0.164 C   
BRANCH  26  27
ATOM     27  O3  UNL     1       3.445  -5.183  -1.048  1.00  0.00    -0.387 OA  
ATOM     28  H24 UNL     1       2.991  -5.835  -1.612  1.00  0.00     0.211 HD  
ENDBRANCH  26  27
BRANCH  26  29
ATOM     29  C18 UNL     1       1.357  -4.043  -1.336  1.00  0.00    -0.018 A   
ATOM     30  C19 UNL     1       1.671  -3.341  -2.513  1.00  0.00     0.009 A   
ATOM     31  C23 UNL     1       0.015  -4.366  -1.075  1.00  0.00     0.009 A   
ATOM     32  C20 UNL     1       0.663  -2.965  -3.402  1.00  0.00     0.039 A   
ATOM     33  C22 UNL     1      -0.990  -3.994  -1.970  1.00  0.00     0.039 A   
ATOM     34  C21 UNL     1      -0.656  -3.296  -3.123  1.00  0.00     0.123 A   
ATOM     35  F1  UNL     1      -1.624  -2.926  -3.970  1.00  0.00    -0.207 F   
ENDBRANCH  26  29
ENDBRANCH  25  26
ENDBRANCH   3  25
TORSDOF 9
