REMARK SMILES CC(C)(C)[C@H]([NH2+]Cc1ccc2c(c1)OCO2)c1cn(C[C@@H](O)c2ccc(F)cc2)nn1
REMARK SMILES IDX 17 1 18 2 19 3 30 4 31 5 5 7 2 8 1 9 3 10 4 11 6 12 7 15
REMARK SMILES IDX 8 16 9 17 13 18 10 19 12 20 11 21 14 22 16 23 15 24 20 25
REMARK SMILES IDX 21 26 22 27 23 29 24 30 29 31 25 32 28 33 26 34 27 35
REMARK H PARENT 18 6 6 13 6 14 22 28
ROOT
ATOM     1   C14 UNL     1       0.955   1.575   0.799  1.00  0.00     0.127 A   
ATOM     2   C15 UNL     1       1.043   1.429   2.166  1.00  0.00     0.046 A   
ATOM     3   N2  UNL     1      -0.238   1.620   2.601  1.00  0.00    -0.209 N   
ATOM     4   N3  UNL     1      -1.071   1.845   1.569  1.00  0.00    -0.076 NA  
ATOM     5   N4  UNL     1      -0.352   1.824   0.459  1.00  0.00    -0.132 NA  
ATOM     6   H20 UNL     1       1.856   1.206   2.843  1.00  0.00     0.083 HD  
ENDROOT
BRANCH   1   7
ATOM     7   C5  UNL     1       1.981   1.426  -0.284  1.00  0.00     0.120 C   
BRANCH   7   8
ATOM     8   C2  UNL     1       2.711   2.761  -0.666  1.00  0.00     0.010 C   
ATOM     9   C1  UNL     1       3.849   2.481  -1.677  1.00  0.00     0.017 C   
ATOM     10  C3  UNL     1       1.759   3.804  -1.285  1.00  0.00     0.017 C   
ATOM     11  C4  UNL     1       3.370   3.387   0.584  1.00  0.00     0.017 C   
ENDBRANCH   7   8
BRANCH   7  12
ATOM     12  N1  UNL     1       1.311   0.827  -1.499  1.00  0.00     0.250 N   
ATOM     13  H11 UNL     1       0.420   1.334  -1.620  1.00  0.00     0.199 HD  
ATOM     14  H12 UNL     1       1.843   0.979  -2.359  1.00  0.00     0.199 HD  
BRANCH  12  15
ATOM     15  C6  UNL     1       0.978  -0.621  -1.394  1.00  0.00     0.164 C   
BRANCH  15  16
ATOM     16  C7  UNL     1       0.223  -1.070  -2.613  1.00  0.00    -0.002 A   
ATOM     17  C8  UNL     1      -1.187  -0.953  -2.657  1.00  0.00     0.012 A   
ATOM     18  C12 UNL     1       0.913  -1.548  -3.738  1.00  0.00     0.045 A   
ATOM     19  C9  UNL     1      -1.903  -1.320  -3.801  1.00  0.00     0.037 A   
ATOM     20  C11 UNL     1       0.177  -1.899  -4.850  1.00  0.00     0.109 A   
ATOM     21  C10 UNL     1      -1.192  -1.789  -4.882  1.00  0.00     0.108 A   
ATOM     22  O1  UNL     1       0.686  -2.375  -6.016  1.00  0.00    -0.316 OA  
ATOM     23  O2  UNL     1      -1.717  -2.184  -6.070  1.00  0.00    -0.316 OA  
ATOM     24  C13 UNL     1      -0.522  -2.563  -6.787  1.00  0.00     0.337 C   
ENDBRANCH  15  16
ENDBRANCH  12  15
ENDBRANCH   7  12
ENDBRANCH   1   7
BRANCH   3  25
ATOM     25  C16 UNL     1      -0.737   1.601   3.961  1.00  0.00     0.170 C   
BRANCH  25  26
ATOM     26  C17 UNL     1      -1.339   0.239   4.314  1.00  0.00     0.164 C   
BRANCH  26  27
ATOM     27  O3  UNL     1      -0.296  -0.738   4.418  1.00  0.00    -0.387 OA  
ATOM     28  H24 UNL     1      -0.643  -1.467   4.966  1.00  0.00     0.211 HD  
ENDBRANCH  26  27
BRANCH  26  29
ATOM     29  C18 UNL     1      -2.110   0.296   5.617  1.00  0.00    -0.018 A   
ATOM     30  C19 UNL     1      -1.445   0.402   6.852  1.00  0.00     0.009 A   
ATOM     31  C23 UNL     1      -3.513   0.268   5.603  1.00  0.00     0.009 A   
ATOM     32  C20 UNL     1      -2.170   0.470   8.043  1.00  0.00     0.039 A   
ATOM     33  C22 UNL     1      -4.234   0.338   6.797  1.00  0.00     0.039 A   
ATOM     34  C21 UNL     1      -3.557   0.438   8.005  1.00  0.00     0.123 A   
ATOM     35  F1  UNL     1      -4.251   0.505   9.148  1.00  0.00    -0.207 F   
ENDBRANCH  26  29
ENDBRANCH  25  26
ENDBRANCH   3  25
TORSDOF 9
