REMARK SMILES c1cc2c(cc1C[NH2+][C@H](c1cn(Cc3cc4c([nH]3)CCCC4)nn1)C1CCCC1)OCO2
REMARK SMILES IDX 10 1 11 2 12 3 23 4 24 5 9 7 8 8 7 11 6 12 1 13 2 14 3 15
REMARK SMILES IDX 5 16 4 17 32 18 30 19 31 20 25 21 26 22 29 23 27 24 28 25
REMARK SMILES IDX 13 26 14 27 15 28 18 29 16 30 17 31 22 32 19 33 21 34 20 35
REMARK H PARENT 11 6 8 9 8 10 18 36
ROOT
ATOM     1   C9  UNL     1      -1.369  -1.362  -1.025  1.00  0.00     0.127 A   
ATOM     2   C10 UNL     1      -0.564  -0.752  -1.960  1.00  0.00     0.046 A   
ATOM     3   N2  UNL     1      -1.448  -0.146  -2.810  1.00  0.00    -0.206 N   
ATOM     4   N4  UNL     1      -2.721  -0.417  -2.454  1.00  0.00    -0.076 NA  
ATOM     5   N5  UNL     1      -2.683  -1.171  -1.366  1.00  0.00    -0.132 NA  
ATOM     6   H9  UNL     1       0.506  -0.620  -2.050  1.00  0.00     0.083 HD  
ENDROOT
BRANCH   1   7
ATOM     7   C8  UNL     1      -1.024  -2.026   0.265  1.00  0.00     0.117 C   
BRANCH   7   8
ATOM     8   N1  UNL     1      -1.971  -1.579   1.355  1.00  0.00     0.249 N   
ATOM     9   H6  UNL     1      -1.810  -2.109   2.213  1.00  0.00     0.199 HD  
ATOM     10  H7  UNL     1      -2.921  -1.800   1.026  1.00  0.00     0.199 HD  
BRANCH   8  11
ATOM     11  C7  UNL     1      -1.971  -0.116   1.679  1.00  0.00     0.164 C   
BRANCH  11  12
ATOM     12  C6  UNL     1      -0.638   0.401   2.142  1.00  0.00    -0.002 A   
ATOM     13  C1  UNL     1      -0.123   0.034   3.408  1.00  0.00     0.012 A   
ATOM     14  C2  UNL     1       1.130   0.490   3.833  1.00  0.00     0.037 A   
ATOM     15  C3  UNL     1       1.842   1.305   2.981  1.00  0.00     0.108 A   
ATOM     16  C5  UNL     1       0.119   1.242   1.304  1.00  0.00     0.045 A   
ATOM     17  C4  UNL     1       1.351   1.670   1.752  1.00  0.00     0.109 A   
ATOM     18  O2  UNL     1       3.067   1.836   3.228  1.00  0.00    -0.316 OA  
ATOM     19  O1  UNL     1       2.209   2.471   1.068  1.00  0.00    -0.316 OA  
ATOM     20  C25 UNL     1       3.283   2.604   2.025  1.00  0.00     0.337 C   
ENDBRANCH  11  12
ENDBRANCH   8  11
ENDBRANCH   7   8
BRANCH   7  21
ATOM     21  C20 UNL     1      -1.012  -3.562   0.132  1.00  0.00     0.043 C   
ATOM     22  C21 UNL     1      -0.440  -4.307   1.341  1.00  0.00     0.010 C   
ATOM     23  C24 UNL     1      -2.365  -4.252  -0.055  1.00  0.00     0.010 C   
ATOM     24  C22 UNL     1      -0.864  -5.760   1.132  1.00  0.00     0.001 C   
ATOM     25  C23 UNL     1      -2.041  -5.727   0.157  1.00  0.00     0.001 C   
ENDBRANCH   7  21
ENDBRANCH   1   7
BRANCH   3  26
ATOM     26  C11 UNL     1      -1.155   0.843  -3.837  1.00  0.00     0.185 C   
BRANCH  26  27
ATOM     27  C12 UNL     1      -0.867   2.152  -3.179  1.00  0.00     0.027 A   
ATOM     28  C13 UNL     1       0.337   2.736  -2.824  1.00  0.00     0.026 A   
ATOM     29  N3  UNL     1      -1.881   2.997  -2.777  1.00  0.00    -0.320 N   
ATOM     30  C14 UNL     1       0.039   3.938  -2.145  1.00  0.00    -0.029 A   
ATOM     31  C15 UNL     1      -1.333   4.066  -2.127  1.00  0.00     0.010 A   
ATOM     32  C19 UNL     1       0.950   4.957  -1.545  1.00  0.00     0.037 C   
ATOM     33  C16 UNL     1      -2.103   5.173  -1.494  1.00  0.00     0.051 C   
ATOM     34  C18 UNL     1       0.182   5.877  -0.577  1.00  0.00     0.005 C   
ATOM     35  C17 UNL     1      -1.161   6.347  -1.170  1.00  0.00     0.006 C   
ATOM     36  H13 UNL     1      -2.873   2.838  -2.912  1.00  0.00     0.152 HD  
ENDBRANCH  26  27
ENDBRANCH   3  26
TORSDOF 7
