REMARK SMILES Cn1c(Cn2cc([C@@H]([NH2+]Cc3ccc4c(c3)OCO4)C(C)(C)C)nn2)cc2ccccc21
REMARK SMILES IDX 5 1 6 2 7 3 24 4 25 5 4 7 3 8 2 9 32 10 26 11 27 12 31 13
REMARK SMILES IDX 28 14 30 15 29 16 1 17 8 18 9 19 10 22 11 23 12 24 16 25
REMARK SMILES IDX 13 26 15 27 14 28 17 29 19 30 18 31 20 32 21 33 22 34 23 35
REMARK H PARENT 6 6 9 20 9 21
ROOT
ATOM     1   N2  UNL     1       1.782   0.873   0.414  1.00  0.00    -0.206 N   
ATOM     2   C4  UNL     1       1.025  -0.040   1.097  1.00  0.00     0.046 A   
ATOM     3   C5  UNL     1      -0.203   0.012   0.476  1.00  0.00     0.127 A   
ATOM     4   N4  UNL     1      -0.174   0.986  -0.491  1.00  0.00    -0.132 NA  
ATOM     5   N5  UNL     1       1.038   1.516  -0.508  1.00  0.00    -0.076 NA  
ATOM     6   H6  UNL     1       1.435  -0.646   1.893  1.00  0.00     0.083 HD  
ENDROOT
BRANCH   1   7
ATOM     7   C3  UNL     1       3.198   1.169   0.576  1.00  0.00     0.185 C   
BRANCH   7   8
ATOM     8   C2  UNL     1       4.027   0.024   0.090  1.00  0.00     0.030 A   
ATOM     9   N1  UNL     1       4.256  -0.270  -1.240  1.00  0.00    -0.305 N   
ATOM     10  C25 UNL     1       4.990  -1.438  -1.350  1.00  0.00     0.040 A   
ATOM     11  C19 UNL     1       4.693  -0.933   0.836  1.00  0.00     0.031 A   
ATOM     12  C20 UNL     1       5.287  -1.862  -0.054  1.00  0.00    -0.002 A   
ATOM     13  C24 UNL     1       5.425  -2.153  -2.479  1.00  0.00     0.024 A   
ATOM     14  C21 UNL     1       6.048  -3.034   0.128  1.00  0.00     0.010 A   
ATOM     15  C23 UNL     1       6.176  -3.315  -2.274  1.00  0.00     0.002 A   
ATOM     16  C22 UNL     1       6.486  -3.751  -0.990  1.00  0.00     0.001 A   
ATOM     17  C1  UNL     1       3.796   0.488  -2.388  1.00  0.00     0.136 C   
ENDBRANCH   7   8
ENDBRANCH   1   7
BRANCH   3  18
ATOM     18  C6  UNL     1      -1.474  -0.746   0.726  1.00  0.00     0.120 C   
BRANCH  18  19
ATOM     19  N3  UNL     1      -2.646   0.152   0.404  1.00  0.00     0.250 N   
ATOM     20  H8  UNL     1      -3.514  -0.371   0.268  1.00  0.00     0.199 HD  
ATOM     21  H9  UNL     1      -2.435   0.599  -0.501  1.00  0.00     0.199 HD  
BRANCH  19  22
ATOM     22  C7  UNL     1      -2.903   1.248   1.380  1.00  0.00     0.164 C   
BRANCH  22  23
ATOM     23  C8  UNL     1      -4.057   2.091   0.920  1.00  0.00    -0.002 A   
ATOM     24  C9  UNL     1      -3.837   3.170   0.030  1.00  0.00     0.012 A   
ATOM     25  C13 UNL     1      -5.368   1.775   1.315  1.00  0.00     0.045 A   
ATOM     26  C10 UNL     1      -4.906   3.932  -0.453  1.00  0.00     0.037 A   
ATOM     27  C12 UNL     1      -6.399   2.548   0.820  1.00  0.00     0.109 A   
ATOM     28  C11 UNL     1      -6.175   3.595  -0.039  1.00  0.00     0.108 A   
ATOM     29  O1  UNL     1      -7.718   2.377   1.099  1.00  0.00    -0.316 OA  
ATOM     30  O2  UNL     1      -7.325   4.216  -0.409  1.00  0.00    -0.316 OA  
ATOM     31  C14 UNL     1      -8.301   3.459   0.338  1.00  0.00     0.337 C   
ENDBRANCH  22  23
ENDBRANCH  19  22
ENDBRANCH  18  19
BRANCH  18  32
ATOM     32  C15 UNL     1      -1.585  -2.091  -0.076  1.00  0.00     0.010 C   
ATOM     33  C16 UNL     1      -0.377  -3.004   0.235  1.00  0.00     0.017 C   
ATOM     34  C17 UNL     1      -1.644  -1.870  -1.601  1.00  0.00     0.017 C   
ATOM     35  C18 UNL     1      -2.853  -2.868   0.351  1.00  0.00     0.017 C   
ENDBRANCH  18  32
ENDBRANCH   3  18
TORSDOF 7
