REMARK SMILES CC(C)C[C@H]([NH2+]Cc1ccc2c(c1)OCO2)c1cn(Cc2cc(C(F)F)on2)nn1
REMARK SMILES IDX 17 1 18 2 19 3 29 4 30 5 5 7 4 8 2 9 1 10 3 11 6 12 7 15
REMARK SMILES IDX 8 16 9 17 13 18 10 19 12 20 11 21 14 22 16 23 15 24 20 25
REMARK SMILES IDX 21 26 22 27 28 28 23 29 27 30 24 31 25 32 26 33
REMARK H PARENT 18 6 6 13 6 14
ROOT
ATOM     1   C14 UNL     1       1.450  -0.561  -0.243  1.00  0.00     0.127 A   
ATOM     2   C15 UNL     1       2.680  -0.628  -0.858  1.00  0.00     0.046 A   
ATOM     3   N2  UNL     1       3.185   0.638  -0.728  1.00  0.00    -0.206 N   
ATOM     4   N4  UNL     1       2.347   1.417  -0.015  1.00  0.00    -0.076 NA  
ATOM     5   N5  UNL     1       1.275   0.699   0.273  1.00  0.00    -0.132 NA  
ATOM     6   H20 UNL     1       3.207  -1.406  -1.394  1.00  0.00     0.083 HD  
ENDROOT
BRANCH   1   7
ATOM     7   C5  UNL     1       0.373  -1.581  -0.080  1.00  0.00     0.114 C   
BRANCH   7   8
ATOM     8   C4  UNL     1      -0.348  -1.923  -1.399  1.00  0.00     0.064 C   
BRANCH   8   9
ATOM     9   C2  UNL     1      -0.898  -0.763  -2.263  1.00  0.00    -0.012 C   
ATOM     10  C1  UNL     1      -1.375  -1.325  -3.609  1.00  0.00     0.007 C   
ATOM     11  C3  UNL     1      -2.045   0.007  -1.611  1.00  0.00     0.007 C   
ENDBRANCH   8   9
ENDBRANCH   7   8
BRANCH   7  12
ATOM     12  N1  UNL     1      -0.625  -1.155   0.957  1.00  0.00     0.249 N   
ATOM     13  H11 UNL     1      -1.549  -1.569   0.795  1.00  0.00     0.199 HD  
ATOM     14  H12 UNL     1      -0.739  -0.136   0.860  1.00  0.00     0.199 HD  
BRANCH  12  15
ATOM     15  C6  UNL     1      -0.216  -1.397   2.368  1.00  0.00     0.164 C   
BRANCH  15  16
ATOM     16  C7  UNL     1      -1.225  -0.808   3.312  1.00  0.00    -0.002 A   
ATOM     17  C8  UNL     1      -1.131   0.553   3.691  1.00  0.00     0.012 A   
ATOM     18  C12 UNL     1      -2.299  -1.585   3.779  1.00  0.00     0.045 A   
ATOM     19  C9  UNL     1      -2.086   1.132   4.534  1.00  0.00     0.037 A   
ATOM     20  C11 UNL     1      -3.223  -0.983   4.607  1.00  0.00     0.109 A   
ATOM     21  C10 UNL     1      -3.121   0.337   4.974  1.00  0.00     0.108 A   
ATOM     22  O1  UNL     1      -4.316  -1.587   5.142  1.00  0.00    -0.316 OA  
ATOM     23  O2  UNL     1      -4.134   0.728   5.790  1.00  0.00    -0.316 OA  
ATOM     24  C13 UNL     1      -4.880  -0.502   5.913  1.00  0.00     0.337 C   
ENDBRANCH  15  16
ENDBRANCH  12  15
ENDBRANCH   7  12
ENDBRANCH   1   7
BRANCH   3  25
ATOM     25  C16 UNL     1       4.436   1.167  -1.244  1.00  0.00     0.192 C   
BRANCH  25  26
ATOM     26  C17 UNL     1       4.300   1.451  -2.696  1.00  0.00     0.090 A   
ATOM     27  C18 UNL     1       3.939   2.663  -3.328  1.00  0.00     0.066 A   
ATOM     28  N3  UNL     1       4.521   0.483  -3.597  1.00  0.00    -0.132 NA  
ATOM     29  C19 UNL     1       3.950   2.364  -4.670  1.00  0.00     0.153 A   
ATOM     30  O3  UNL     1       4.297   1.060  -4.834  1.00  0.00    -0.212 OA  
BRANCH  29  31
ATOM     31  C20 UNL     1       3.663   3.129  -5.898  1.00  0.00     0.398 C   
ATOM     32  F1  UNL     1       3.868   4.459  -5.695  1.00  0.00    -0.203 F   
ATOM     33  F2  UNL     1       2.354   3.000  -6.246  1.00  0.00    -0.203 F   
ENDBRANCH  29  31
ENDBRANCH  25  26
ENDBRANCH   3  25
TORSDOF 9
