REMARK SMILES CC(C)[C@H]([NH2+]Cc1ccc2c(c1)OCO2)c1cn(C[C@@H](O)c2cccc(F)c2)nn1
REMARK SMILES IDX 16 1 17 2 18 3 29 4 30 5 4 7 2 8 1 9 3 10 5 11 6 14 7 15
REMARK SMILES IDX 8 16 12 17 9 18 11 19 10 20 13 21 15 22 14 23 19 24 20 25
REMARK SMILES IDX 21 26 22 28 23 29 28 30 24 31 26 32 25 33 27 34
REMARK H PARENT 17 6 5 12 5 13 21 27
ROOT
ATOM     1   C13 UNL     1       0.202  -0.278   0.206  1.00  0.00     0.127 A   
ATOM     2   C14 UNL     1       0.043  -0.777   1.480  1.00  0.00     0.045 A   
ATOM     3   N2  UNL     1      -1.002  -0.058   1.988  1.00  0.00    -0.209 N   
ATOM     4   N3  UNL     1      -1.507   0.777   1.062  1.00  0.00    -0.076 NA  
ATOM     5   N4  UNL     1      -0.769   0.664  -0.029  1.00  0.00    -0.132 NA  
ATOM     6   H18 UNL     1       0.580  -1.512   2.065  1.00  0.00     0.083 HD  
ENDROOT
BRANCH   1   7
ATOM     7   C4  UNL     1       1.180  -0.609  -0.875  1.00  0.00     0.117 C   
BRANCH   7   8
ATOM     8   C2  UNL     1       2.526   0.154  -0.768  1.00  0.00     0.037 C   
ATOM     9   C1  UNL     1       3.327  -0.276   0.467  1.00  0.00     0.014 C   
ATOM     10  C3  UNL     1       2.384   1.681  -0.786  1.00  0.00     0.014 C   
ENDBRANCH   7   8
BRANCH   7  11
ATOM     11  N1  UNL     1       0.575  -0.311  -2.226  1.00  0.00     0.249 N   
ATOM     12  H9  UNL     1       1.294  -0.218  -2.950  1.00  0.00     0.199 HD  
ATOM     13  H10 UNL     1       0.117   0.610  -2.150  1.00  0.00     0.199 HD  
BRANCH  11  14
ATOM     14  C5  UNL     1      -0.461  -1.276  -2.686  1.00  0.00     0.164 C   
BRANCH  14  15
ATOM     15  C6  UNL     1      -1.046  -0.831  -3.997  1.00  0.00    -0.002 A   
ATOM     16  C7  UNL     1      -2.108   0.105  -4.018  1.00  0.00     0.012 A   
ATOM     17  C11 UNL     1      -0.509  -1.298  -5.208  1.00  0.00     0.045 A   
ATOM     18  C8  UNL     1      -2.639   0.560  -5.230  1.00  0.00     0.037 A   
ATOM     19  C10 UNL     1      -1.057  -0.830  -6.384  1.00  0.00     0.109 A   
ATOM     20  C9  UNL     1      -2.092   0.072  -6.396  1.00  0.00     0.108 A   
ATOM     21  O1  UNL     1      -0.660  -1.182  -7.635  1.00  0.00    -0.316 OA  
ATOM     22  O2  UNL     1      -2.479   0.400  -7.655  1.00  0.00    -0.316 OA  
ATOM     23  C12 UNL     1      -1.589  -0.421  -8.441  1.00  0.00     0.337 C   
ENDBRANCH  14  15
ENDBRANCH  11  14
ENDBRANCH   7  11
ENDBRANCH   1   7
BRANCH   3  24
ATOM     24  C15 UNL     1      -1.522  -0.065   3.336  1.00  0.00     0.170 C   
BRANCH  24  25
ATOM     25  C16 UNL     1      -1.179   1.212   4.111  1.00  0.00     0.164 C   
BRANCH  25  26
ATOM     26  O3  UNL     1      -1.781   1.136   5.405  1.00  0.00    -0.387 OA  
ATOM     27  H22 UNL     1      -1.458   1.898   5.920  1.00  0.00     0.211 HD  
ENDBRANCH  25  26
BRANCH  25  28
ATOM     28  C17 UNL     1       0.315   1.421   4.260  1.00  0.00    -0.015 A   
ATOM     29  C18 UNL     1       1.062   0.708   5.213  1.00  0.00     0.006 A   
ATOM     30  C22 UNL     1       0.988   2.301   3.399  1.00  0.00     0.045 A   
ATOM     31  C19 UNL     1       2.447   0.877   5.306  1.00  0.00     0.003 A   
ATOM     32  C21 UNL     1       2.367   2.453   3.494  1.00  0.00     0.123 A   
ATOM     33  C20 UNL     1       3.102   1.751   4.441  1.00  0.00     0.039 A   
ATOM     34  F1  UNL     1       2.997   3.270   2.640  1.00  0.00    -0.207 F   
ENDBRANCH  25  28
ENDBRANCH  24  25
ENDBRANCH   3  24
TORSDOF 9
