REMARK SMILES CC(C)[C@H]([NH2+]Cc1ccc2c(c1)OCO2)c1cn(C[C@H](O)c2cccc(F)c2)nn1
REMARK SMILES IDX 16 1 17 2 18 3 29 4 30 5 4 7 2 8 1 9 3 10 5 11 6 14 7 15
REMARK SMILES IDX 8 16 12 17 9 18 11 19 10 20 13 21 15 22 14 23 19 24 20 25
REMARK SMILES IDX 21 26 22 28 23 29 28 30 24 31 26 32 25 33 27 34
REMARK H PARENT 17 6 5 12 5 13 21 27
ROOT
ATOM     1   C13 UNL     1       0.022   1.429  -1.368  1.00  0.00     0.127 A   
ATOM     2   C14 UNL     1      -0.940   1.064  -2.283  1.00  0.00     0.045 A   
ATOM     3   N2  UNL     1      -0.219   0.599  -3.349  1.00  0.00    -0.209 N   
ATOM     4   N3  UNL     1       1.103   0.692  -3.115  1.00  0.00    -0.076 NA  
ATOM     5   N4  UNL     1       1.264   1.199  -1.904  1.00  0.00    -0.132 NA  
ATOM     6   H18 UNL     1      -2.022   1.060  -2.266  1.00  0.00     0.083 HD  
ENDROOT
BRANCH   1   7
ATOM     7   C4  UNL     1      -0.094   1.935   0.035  1.00  0.00     0.117 C   
BRANCH   7   8
ATOM     8   C2  UNL     1      -0.248   3.475   0.095  1.00  0.00     0.037 C   
ATOM     9   C1  UNL     1       0.996   4.247  -0.345  1.00  0.00     0.014 C   
ATOM     10  C3  UNL     1      -0.682   3.950   1.488  1.00  0.00     0.014 C   
ENDBRANCH   7   8
BRANCH   7  11
ATOM     11  N1  UNL     1       1.100   1.495   0.845  1.00  0.00     0.249 N   
ATOM     12  H9  UNL     1       1.206   2.063   1.689  1.00  0.00     0.199 HD  
ATOM     13  H10 UNL     1       1.925   1.672   0.253  1.00  0.00     0.199 HD  
BRANCH  11  14
ATOM     14  C5  UNL     1       1.133   0.050   1.223  1.00  0.00     0.164 C   
BRANCH  14  15
ATOM     15  C6  UNL     1       0.174  -0.276   2.332  1.00  0.00    -0.002 A   
ATOM     16  C7  UNL     1       0.459   0.112   3.661  1.00  0.00     0.012 A   
ATOM     17  C11 UNL     1      -1.026  -0.955   2.053  1.00  0.00     0.045 A   
ATOM     18  C8  UNL     1      -0.431  -0.173   4.700  1.00  0.00     0.037 A   
ATOM     19  C10 UNL     1      -1.882  -1.222   3.100  1.00  0.00     0.109 A   
ATOM     20  C9  UNL     1      -1.594  -0.841   4.386  1.00  0.00     0.108 A   
ATOM     21  O1  UNL     1      -3.071  -1.871   3.006  1.00  0.00    -0.316 OA  
ATOM     22  O2  UNL     1      -2.564  -1.204   5.263  1.00  0.00    -0.316 OA  
ATOM     23  C12 UNL     1      -3.493  -1.875   4.388  1.00  0.00     0.337 C   
ENDBRANCH  14  15
ENDBRANCH  11  14
ENDBRANCH   7  11
ENDBRANCH   1   7
BRANCH   3  24
ATOM     24  C15 UNL     1      -0.714  -0.040  -4.549  1.00  0.00     0.170 C   
BRANCH  24  25
ATOM     25  C16 UNL     1      -0.384  -1.538  -4.609  1.00  0.00     0.164 C   
BRANCH  25  26
ATOM     26  O3  UNL     1      -0.931  -2.082  -5.812  1.00  0.00    -0.387 OA  
ATOM     27  H22 UNL     1      -0.814  -3.050  -5.776  1.00  0.00     0.211 HD  
ENDBRANCH  25  26
BRANCH  25  28
ATOM     28  C17 UNL     1      -0.924  -2.306  -3.419  1.00  0.00    -0.015 A   
ATOM     29  C18 UNL     1      -2.276  -2.677  -3.335  1.00  0.00     0.006 A   
ATOM     30  C22 UNL     1      -0.074  -2.603  -2.342  1.00  0.00     0.045 A   
ATOM     31  C19 UNL     1      -2.762  -3.336  -2.203  1.00  0.00     0.003 A   
ATOM     32  C21 UNL     1      -0.574  -3.244  -1.214  1.00  0.00     0.123 A   
ATOM     33  C20 UNL     1      -1.908  -3.616  -1.135  1.00  0.00     0.039 A   
ATOM     34  F1  UNL     1       0.238  -3.468  -0.173  1.00  0.00    -0.207 F   
ENDBRANCH  25  28
ENDBRANCH  24  25
ENDBRANCH   3  24
TORSDOF 9
