REMARK SMILES Cc1c(Cn2cc([C@@H]([NH2+]Cc3ccc4c(c3)OCO4)C(C)(C)C)nn2)cnn1C
REMARK SMILES IDX 5 1 6 2 7 3 24 4 25 5 4 7 3 8 2 9 28 10 26 11 27 12 1 13
REMARK SMILES IDX 29 14 8 15 9 16 10 19 11 20 12 21 16 22 13 23 15 24 14 25
REMARK SMILES IDX 17 26 19 27 18 28 20 29 21 30 22 31 23 32
REMARK H PARENT 6 6 9 17 9 18
ROOT
ATOM     1   N1  UNL     1       1.185   2.468  -0.083  1.00  0.00    -0.208 N   
ATOM     2   C5  UNL     1       1.599   1.162  -0.055  1.00  0.00     0.046 A   
ATOM     3   C6  UNL     1       1.038   0.613  -1.187  1.00  0.00     0.127 A   
ATOM     4   N3  UNL     1       0.389   1.595  -1.889  1.00  0.00    -0.132 NA  
ATOM     5   N4  UNL     1       0.488   2.723  -1.207  1.00  0.00    -0.076 NA  
ATOM     6   H6  UNL     1       2.139   0.746   0.784  1.00  0.00     0.083 HD  
ENDROOT
BRANCH   1   7
ATOM     7   C4  UNL     1       1.215   3.432   1.009  1.00  0.00     0.172 C   
BRANCH   7   8
ATOM     8   C3  UNL     1       0.286   2.972   2.083  1.00  0.00     0.010 A   
ATOM     9   C2  UNL     1       0.563   2.525   3.370  1.00  0.00     0.031 A   
ATOM     10  N6  UNL     1      -0.657   2.204   3.923  1.00  0.00    -0.233 N   
ATOM     11  C20 UNL     1      -1.122   2.880   1.978  1.00  0.00     0.138 A   
ATOM     12  N5  UNL     1      -1.684   2.357   3.067  1.00  0.00    -0.190 NA  
ATOM     13  C1  UNL     1       1.839   2.413   4.118  1.00  0.00     0.064 C   
ATOM     14  C21 UNL     1      -0.925   1.712   5.262  1.00  0.00     0.159 C   
ENDBRANCH   7   8
ENDBRANCH   1   7
BRANCH   3  15
ATOM     15  C7  UNL     1       0.910  -0.816  -1.616  1.00  0.00     0.120 C   
BRANCH  15  16
ATOM     16  N2  UNL     1      -0.533  -1.088  -2.006  1.00  0.00     0.250 N   
ATOM     17  H8  UNL     1      -0.765  -0.415  -2.748  1.00  0.00     0.199 HD  
ATOM     18  H9  UNL     1      -0.633  -2.025  -2.397  1.00  0.00     0.199 HD  
BRANCH  16  19
ATOM     19  C8  UNL     1      -1.568  -0.909  -0.934  1.00  0.00     0.164 C   
BRANCH  19  20
ATOM     20  C9  UNL     1      -1.403  -1.853   0.225  1.00  0.00    -0.002 A   
ATOM     21  C10 UNL     1      -1.699  -3.232   0.077  1.00  0.00     0.012 A   
ATOM     22  C14 UNL     1      -0.942  -1.372   1.467  1.00  0.00     0.045 A   
ATOM     23  C11 UNL     1      -1.530  -4.121   1.145  1.00  0.00     0.037 A   
ATOM     24  C13 UNL     1      -0.780  -2.275   2.498  1.00  0.00     0.109 A   
ATOM     25  C12 UNL     1      -1.067  -3.612   2.341  1.00  0.00     0.108 A   
ATOM     26  O1  UNL     1      -0.328  -1.984   3.750  1.00  0.00    -0.316 OA  
ATOM     27  O2  UNL     1      -0.839  -4.329   3.475  1.00  0.00    -0.316 OA  
ATOM     28  C15 UNL     1      -0.416  -3.284   4.383  1.00  0.00     0.337 C   
ENDBRANCH  19  20
ENDBRANCH  16  19
ENDBRANCH  15  16
BRANCH  15  29
ATOM     29  C16 UNL     1       1.885  -1.228  -2.778  1.00  0.00     0.010 C   
ATOM     30  C17 UNL     1       1.750  -2.736  -3.086  1.00  0.00     0.017 C   
ATOM     31  C18 UNL     1       1.634  -0.451  -4.087  1.00  0.00     0.017 C   
ATOM     32  C19 UNL     1       3.349  -0.981  -2.341  1.00  0.00     0.017 C   
ENDBRANCH  15  29
ENDBRANCH   3  15
TORSDOF 7
