REMARK SMILES CC(C)[C@H]([NH2+]Cc1ccc2c(c1)OCO2)c1cn(Cc2cn(C)c3ncccc23)nn1
REMARK SMILES IDX 16 1 17 2 18 3 30 4 31 5 4 7 2 8 1 9 3 10 5 11 6 14 7 15
REMARK SMILES IDX 8 16 12 17 9 18 11 19 10 20 13 21 15 22 14 23 19 24 20 25
REMARK SMILES IDX 21 26 29 27 22 28 24 29 28 30 25 31 27 32 26 33 23 34
REMARK H PARENT 17 6 5 12 5 13
ROOT
ATOM     1   C13 UNL     1      -0.203  -2.619  -1.480  1.00  0.00     0.127 A   
ATOM     2   C14 UNL     1       0.493  -1.685  -2.214  1.00  0.00     0.046 A   
ATOM     3   N2  UNL     1      -0.317  -1.435  -3.289  1.00  0.00    -0.208 N   
ATOM     4   N5  UNL     1      -1.424  -2.204  -3.240  1.00  0.00    -0.076 NA  
ATOM     5   N6  UNL     1      -1.362  -2.936  -2.139  1.00  0.00    -0.132 NA  
ATOM     6   H18 UNL     1       1.419  -1.151  -2.051  1.00  0.00     0.083 HD  
ENDROOT
BRANCH   1   7
ATOM     7   C4  UNL     1       0.071  -3.191  -0.129  1.00  0.00     0.117 C   
BRANCH   7   8
ATOM     8   C2  UNL     1       0.809  -4.556  -0.152  1.00  0.00     0.037 C   
ATOM     9   C1  UNL     1       0.062  -5.671  -0.893  1.00  0.00     0.014 C   
ATOM     10  C3  UNL     1       2.224  -4.416  -0.725  1.00  0.00     0.014 C   
ENDBRANCH   7   8
BRANCH   7  11
ATOM     11  N1  UNL     1      -1.213  -3.352   0.659  1.00  0.00     0.249 N   
ATOM     12  H9  UNL     1      -1.833  -3.948   0.094  1.00  0.00     0.199 HD  
ATOM     13  H10 UNL     1      -1.022  -3.847   1.536  1.00  0.00     0.199 HD  
BRANCH  11  14
ATOM     14  C5  UNL     1      -1.981  -2.102   0.955  1.00  0.00     0.164 C   
BRANCH  14  15
ATOM     15  C6  UNL     1      -1.196  -1.064   1.704  1.00  0.00    -0.002 A   
ATOM     16  C7  UNL     1      -0.827   0.143   1.060  1.00  0.00     0.012 A   
ATOM     17  C11 UNL     1      -0.806  -1.282   3.036  1.00  0.00     0.045 A   
ATOM     18  C8  UNL     1      -0.082   1.120   1.726  1.00  0.00     0.037 A   
ATOM     19  C10 UNL     1      -0.066  -0.300   3.663  1.00  0.00     0.109 A   
ATOM     20  C9  UNL     1       0.284   0.868   3.028  1.00  0.00     0.108 A   
ATOM     21  O1  UNL     1       0.393  -0.355   4.941  1.00  0.00    -0.316 OA  
ATOM     22  O2  UNL     1       1.007   1.693   3.827  1.00  0.00    -0.316 OA  
ATOM     23  C12 UNL     1       1.054   0.928   5.050  1.00  0.00     0.337 C   
ENDBRANCH  14  15
ENDBRANCH  11  14
ENDBRANCH   7  11
ENDBRANCH   1   7
BRANCH   3  24
ATOM     24  C15 UNL     1      -0.149  -0.430  -4.329  1.00  0.00     0.171 C   
BRANCH  24  25
ATOM     25  C16 UNL     1      -0.021   0.926  -3.714  1.00  0.00    -0.004 A   
ATOM     26  C17 UNL     1       1.106   1.732  -3.716  1.00  0.00     0.082 A   
ATOM     27  C23 UNL     1      -1.032   1.636  -2.987  1.00  0.00     0.021 A   
ATOM     28  N3  UNL     1       0.822   2.875  -3.011  1.00  0.00    -0.295 N   
ATOM     29  C19 UNL     1      -0.460   2.821  -2.533  1.00  0.00     0.131 A   
ATOM     30  C22 UNL     1      -2.375   1.398  -2.646  1.00  0.00     0.014 A   
ATOM     31  N4  UNL     1      -1.046   3.762  -1.768  1.00  0.00    -0.240 NA  
ATOM     32  C21 UNL     1      -3.032   2.359  -1.878  1.00  0.00     0.021 A   
ATOM     33  C20 UNL     1      -2.335   3.490  -1.476  1.00  0.00     0.113 A   
ATOM     34  C18 UNL     1       1.726   3.986  -2.817  1.00  0.00     0.137 C   
ENDBRANCH  24  25
ENDBRANCH   3  24
TORSDOF 7
