REMARK SMILES CC(C)C[C@H]([NH2+]Cc1ccc2c(c1)OCO2)c1cn(C[C@H]2NCCc3ccoc32)nn1
REMARK SMILES IDX 17 1 18 2 19 3 30 4 31 5 5 7 4 8 2 9 1 10 3 11 6 12 7 15
REMARK SMILES IDX 8 16 9 17 13 18 10 19 12 20 11 21 14 22 16 23 15 24 20 25
REMARK SMILES IDX 21 26 22 27 29 28 23 29 25 30 28 31 24 32 26 33 27 34
REMARK H PARENT 18 6 6 13 6 14 22 35
ROOT
ATOM     1   C14 UNL     1      -0.639   1.412  -1.253  1.00  0.00     0.127 A   
ATOM     2   C15 UNL     1      -0.813   0.184  -1.853  1.00  0.00     0.045 A   
ATOM     3   N2  UNL     1      -1.330   0.490  -3.080  1.00  0.00    -0.210 N   
ATOM     4   N4  UNL     1      -1.384   1.824  -3.260  1.00  0.00    -0.076 NA  
ATOM     5   N5  UNL     1      -0.990   2.400  -2.137  1.00  0.00    -0.132 NA  
ATOM     6   H20 UNL     1      -0.671  -0.835  -1.521  1.00  0.00     0.083 HD  
ENDROOT
BRANCH   1   7
ATOM     7   C5  UNL     1      -0.152   1.779   0.111  1.00  0.00     0.114 C   
BRANCH   7   8
ATOM     8   C4  UNL     1      -1.320   1.777   1.120  1.00  0.00     0.064 C   
BRANCH   8   9
ATOM     9   C2  UNL     1      -0.949   2.021   2.598  1.00  0.00    -0.012 C   
ATOM     10  C1  UNL     1       0.049   0.991   3.130  1.00  0.00     0.007 C   
ATOM     11  C3  UNL     1      -2.219   1.997   3.455  1.00  0.00     0.007 C   
ENDBRANCH   8   9
ENDBRANCH   7   8
BRANCH   7  12
ATOM     12  N1  UNL     1       0.475   3.154   0.092  1.00  0.00     0.249 N   
ATOM     13  H11 UNL     1      -0.197   3.765  -0.393  1.00  0.00     0.199 HD  
ATOM     14  H12 UNL     1       0.589   3.518   1.040  1.00  0.00     0.199 HD  
BRANCH  12  15
ATOM     15  C6  UNL     1       1.779   3.273  -0.626  1.00  0.00     0.164 C   
BRANCH  15  16
ATOM     16  C7  UNL     1       2.894   2.542   0.068  1.00  0.00    -0.002 A   
ATOM     17  C8  UNL     1       3.416   1.347  -0.485  1.00  0.00     0.012 A   
ATOM     18  C12 UNL     1       3.406   3.021   1.288  1.00  0.00     0.045 A   
ATOM     19  C9  UNL     1       4.427   0.634   0.168  1.00  0.00     0.037 A   
ATOM     20  C11 UNL     1       4.402   2.293   1.905  1.00  0.00     0.109 A   
ATOM     21  C10 UNL     1       4.897   1.133   1.362  1.00  0.00     0.108 A   
ATOM     22  O1  UNL     1       4.997   2.612   3.084  1.00  0.00    -0.316 OA  
ATOM     23  O2  UNL     1       5.869   0.576   2.130  1.00  0.00    -0.316 OA  
ATOM     24  C13 UNL     1       5.952   1.533   3.209  1.00  0.00     0.337 C   
ENDBRANCH  15  16
ENDBRANCH  12  15
ENDBRANCH   7  12
ENDBRANCH   1   7
BRANCH   3  25
ATOM     25  C16 UNL     1      -1.750  -0.416  -4.131  1.00  0.00     0.160 C   
BRANCH  25  26
ATOM     26  C17 UNL     1      -3.278  -0.546  -4.223  1.00  0.00     0.128 C   
ATOM     27  N3  UNL     1      -3.674  -1.214  -5.504  1.00  0.00    -0.307 NA  
ATOM     28  C23 UNL     1      -3.844  -1.318  -3.075  1.00  0.00     0.080 A   
ATOM     29  C18 UNL     1      -3.564  -2.696  -5.444  1.00  0.00     0.086 C   
ATOM     30  C20 UNL     1      -4.373  -2.589  -3.097  1.00  0.00    -0.016 A   
ATOM     31  O3  UNL     1      -3.884  -0.792  -1.826  1.00  0.00    -0.321 OA  
ATOM     32  C19 UNL     1      -4.464  -3.356  -4.366  1.00  0.00     0.053 C   
ATOM     33  C21 UNL     1      -4.771  -2.870  -1.772  1.00  0.00     0.032 A   
ATOM     34  C22 UNL     1      -4.459  -1.745  -1.037  1.00  0.00     0.136 A   
ATOM     35  H24 UNL     1      -4.659  -0.988  -5.669  1.00  0.00     0.123 HD  
ENDBRANCH  25  26
ENDBRANCH   3  25
TORSDOF 8
