REMARK SMILES CC(C)C[C@H]([NH2+]Cc1ccc2c(c1)OCO2)c1cn(C[C@@H]2NCCc3ccoc32)nn1
REMARK SMILES IDX 17 1 18 2 19 3 30 4 31 5 5 7 4 8 2 9 1 10 3 11 6 12 7 15
REMARK SMILES IDX 8 16 9 17 13 18 10 19 12 20 11 21 14 22 16 23 15 24 20 25
REMARK SMILES IDX 21 26 22 27 29 28 23 29 25 30 28 31 24 32 26 33 27 34
REMARK H PARENT 18 6 6 13 6 14 22 35
ROOT
ATOM     1   C14 UNL     1      -0.721  -1.599  -0.531  1.00  0.00     0.127 A   
ATOM     2   C15 UNL     1       0.539  -2.051  -0.856  1.00  0.00     0.045 A   
ATOM     3   N2  UNL     1       0.799  -1.468  -2.064  1.00  0.00    -0.210 N   
ATOM     4   N4  UNL     1      -0.246  -0.723  -2.471  1.00  0.00    -0.076 NA  
ATOM     5   N5  UNL     1      -1.179  -0.788  -1.537  1.00  0.00    -0.132 NA  
ATOM     6   H20 UNL     1       1.258  -2.684  -0.353  1.00  0.00     0.083 HD  
ENDROOT
BRANCH   1   7
ATOM     7   C5  UNL     1      -1.555  -1.792   0.692  1.00  0.00     0.114 C   
BRANCH   7   8
ATOM     8   C4  UNL     1      -2.543  -2.966   0.561  1.00  0.00     0.064 C   
BRANCH   8   9
ATOM     9   C2  UNL     1      -1.894  -4.359   0.414  1.00  0.00    -0.012 C   
ATOM     10  C1  UNL     1      -1.028  -4.728   1.619  1.00  0.00     0.007 C   
ATOM     11  C3  UNL     1      -2.984  -5.418   0.220  1.00  0.00     0.007 C   
ENDBRANCH   8   9
ENDBRANCH   7   8
BRANCH   7  12
ATOM     12  N1  UNL     1      -2.344  -0.525   0.921  1.00  0.00     0.249 N   
ATOM     13  H11 UNL     1      -1.738   0.263   0.646  1.00  0.00     0.199 HD  
ATOM     14  H12 UNL     1      -3.103  -0.478   0.228  1.00  0.00     0.199 HD  
BRANCH  12  15
ATOM     15  C6  UNL     1      -2.854  -0.276   2.288  1.00  0.00     0.164 C   
BRANCH  15  16
ATOM     16  C7  UNL     1      -3.545   1.056   2.360  1.00  0.00    -0.002 A   
ATOM     17  C8  UNL     1      -2.814   2.225   2.681  1.00  0.00     0.012 A   
ATOM     18  C12 UNL     1      -4.913   1.158   2.054  1.00  0.00     0.045 A   
ATOM     19  C9  UNL     1      -3.437   3.478   2.710  1.00  0.00     0.037 A   
ATOM     20  C11 UNL     1      -5.496   2.408   2.091  1.00  0.00     0.109 A   
ATOM     21  C10 UNL     1      -4.780   3.535   2.409  1.00  0.00     0.108 A   
ATOM     22  O1  UNL     1      -6.801   2.679   1.823  1.00  0.00    -0.316 OA  
ATOM     23  O2  UNL     1      -5.543   4.658   2.384  1.00  0.00    -0.316 OA  
ATOM     24  C13 UNL     1      -6.829   4.111   2.022  1.00  0.00     0.337 C   
ENDBRANCH  15  16
ENDBRANCH  12  15
ENDBRANCH   7  12
ENDBRANCH   1   7
BRANCH   3  25
ATOM     25  C16 UNL     1       1.977  -1.603  -2.897  1.00  0.00     0.160 C   
BRANCH  25  26
ATOM     26  C17 UNL     1       2.815  -0.318  -2.969  1.00  0.00     0.128 C   
ATOM     27  N3  UNL     1       3.776  -0.404  -4.117  1.00  0.00    -0.307 NA  
ATOM     28  C23 UNL     1       3.601  -0.062  -1.718  1.00  0.00     0.080 A   
ATOM     29  C18 UNL     1       4.734   0.732  -4.103  1.00  0.00     0.086 C   
ATOM     30  C20 UNL     1       4.884   0.434  -1.635  1.00  0.00    -0.016 A   
ATOM     31  O3  UNL     1       3.078  -0.269  -0.484  1.00  0.00    -0.321 OA  
ATOM     32  C19 UNL     1       5.667   0.743  -2.861  1.00  0.00     0.053 C   
ATOM     33  C21 UNL     1       5.181   0.526  -0.259  1.00  0.00     0.032 A   
ATOM     34  C22 UNL     1       4.052   0.088   0.401  1.00  0.00     0.136 A   
ATOM     35  H24 UNL     1       4.317  -1.266  -4.029  1.00  0.00     0.123 HD  
ENDBRANCH  25  26
ENDBRANCH   3  25
TORSDOF 8
