REMARK SMILES CC[C@H](c1ccccn1)n1cc([C@@H]([NH2+]Cc2ccc3c(c2)OCO3)C(C)(C)C)nn1
REMARK SMILES IDX 10 1 11 2 12 3 29 4 30 5 3 7 2 8 1 9 4 10 5 11 9 12 6 13
REMARK SMILES IDX 8 14 7 15 13 16 14 17 15 20 16 21 17 22 21 23 18 24 20 25
REMARK SMILES IDX 19 26 22 27 24 28 23 29 25 30 26 31 27 32 28 33
REMARK H PARENT 11 6 14 18 14 19
ROOT
ATOM     1   N2  UNL     1      -1.180   1.739  -1.522  1.00  0.00    -0.203 N   
ATOM     2   C9  UNL     1      -0.447   0.586  -1.424  1.00  0.00     0.046 A   
ATOM     3   C10 UNL     1      -1.153  -0.187  -0.531  1.00  0.00     0.127 A   
ATOM     4   N4  UNL     1      -2.287   0.483  -0.152  1.00  0.00    -0.132 NA  
ATOM     5   N5  UNL     1      -2.296   1.656  -0.765  1.00  0.00    -0.075 NA  
ATOM     6   H11 UNL     1       0.504   0.465  -1.925  1.00  0.00     0.083 HD  
ENDROOT
BRANCH   1   7
ATOM     7   C3  UNL     1      -0.859   2.975  -2.236  1.00  0.00     0.148 C   
BRANCH   7   8
ATOM     8   C2  UNL     1      -0.539   2.713  -3.719  1.00  0.00     0.028 C   
ATOM     9   C1  UNL     1      -0.459   3.996  -4.537  1.00  0.00     0.006 C   
ENDBRANCH   7   8
BRANCH   7  10
ATOM     10  C4  UNL     1       0.266   3.686  -1.499  1.00  0.00     0.063 A   
ATOM     11  C5  UNL     1       0.037   4.922  -0.896  1.00  0.00     0.026 A   
ATOM     12  N1  UNL     1       1.481   3.073  -1.451  1.00  0.00    -0.259 NA  
ATOM     13  C6  UNL     1       1.089   5.555  -0.237  1.00  0.00     0.004 A   
ATOM     14  C8  UNL     1       2.485   3.717  -0.812  1.00  0.00     0.111 A   
ATOM     15  C7  UNL     1       2.337   4.946  -0.196  1.00  0.00     0.020 A   
ENDBRANCH   7  10
ENDBRANCH   1   7
BRANCH   3  16
ATOM     16  C11 UNL     1      -0.789  -1.478   0.129  1.00  0.00     0.120 C   
BRANCH  16  17
ATOM     17  N3  UNL     1      -1.077  -1.367   1.615  1.00  0.00     0.250 N   
ATOM     18  H13 UNL     1      -2.061  -1.077   1.694  1.00  0.00     0.199 HD  
ATOM     19  H14 UNL     1      -0.983  -2.273   2.075  1.00  0.00     0.199 HD  
BRANCH  17  20
ATOM     20  C12 UNL     1      -0.272  -0.356   2.370  1.00  0.00     0.164 C   
BRANCH  20  21
ATOM     21  C13 UNL     1       1.196  -0.678   2.413  1.00  0.00    -0.002 A   
ATOM     22  C14 UNL     1       1.673  -1.746   3.209  1.00  0.00     0.012 A   
ATOM     23  C18 UNL     1       2.103   0.068   1.638  1.00  0.00     0.045 A   
ATOM     24  C15 UNL     1       3.033  -2.072   3.232  1.00  0.00     0.037 A   
ATOM     25  C17 UNL     1       3.437  -0.280   1.684  1.00  0.00     0.109 A   
ATOM     26  C16 UNL     1       3.889  -1.320   2.457  1.00  0.00     0.108 A   
ATOM     27  O1  UNL     1       4.439   0.332   0.999  1.00  0.00    -0.316 OA  
ATOM     28  O2  UNL     1       5.232  -1.496   2.357  1.00  0.00    -0.316 OA  
ATOM     29  C19 UNL     1       5.583  -0.429   1.452  1.00  0.00     0.337 C   
ENDBRANCH  20  21
ENDBRANCH  17  20
ENDBRANCH  16  17
BRANCH  16  30
ATOM     30  C20 UNL     1      -1.501  -2.739  -0.475  1.00  0.00     0.010 C   
ATOM     31  C21 UNL     1      -0.900  -4.029   0.131  1.00  0.00     0.017 C   
ATOM     32  C22 UNL     1      -3.021  -2.753  -0.224  1.00  0.00     0.017 C   
ATOM     33  C23 UNL     1      -1.261  -2.804  -2.000  1.00  0.00     0.017 C   
ENDBRANCH  16  30
ENDBRANCH   3  16
TORSDOF 8
