REMARK SMILES CC[C@@H](c1ccccn1)n1cc([C@@H]([NH2+]Cc2ccc3c(c2)OCO3)C(C)(C)C)nn1
REMARK SMILES IDX 10 1 11 2 12 3 29 4 30 5 3 7 2 8 1 9 4 10 5 11 9 12 6 13
REMARK SMILES IDX 8 14 7 15 13 16 14 17 15 20 16 21 17 22 21 23 18 24 20 25
REMARK SMILES IDX 19 26 22 27 24 28 23 29 25 30 26 31 27 32 28 33
REMARK H PARENT 11 6 14 18 14 19
ROOT
ATOM     1   N2  UNL     1       0.479  -0.842  -1.688  1.00  0.00    -0.203 N   
ATOM     2   C9  UNL     1       1.317  -0.245  -0.783  1.00  0.00     0.046 A   
ATOM     3   C10 UNL     1       0.624  -0.293   0.404  1.00  0.00     0.127 A   
ATOM     4   N4  UNL     1      -0.613  -0.842   0.178  1.00  0.00    -0.132 NA  
ATOM     5   N5  UNL     1      -0.697  -1.158  -1.103  1.00  0.00    -0.075 NA  
ATOM     6   H11 UNL     1       2.299   0.113  -1.062  1.00  0.00     0.083 HD  
ENDROOT
BRANCH   1   7
ATOM     7   C3  UNL     1       0.687  -1.095  -3.114  1.00  0.00     0.148 C   
BRANCH   7   8
ATOM     8   C2  UNL     1       0.732   0.226  -3.905  1.00  0.00     0.028 C   
ATOM     9   C1  UNL     1       0.749   0.009  -5.412  1.00  0.00     0.006 C   
ENDBRANCH   7   8
BRANCH   7  10
ATOM     10  C4  UNL     1       1.917  -1.968  -3.294  1.00  0.00     0.063 A   
ATOM     11  C5  UNL     1       1.779  -3.344  -3.484  1.00  0.00     0.026 A   
ATOM     12  N1  UNL     1       3.135  -1.366  -3.236  1.00  0.00    -0.259 NA  
ATOM     13  C6  UNL     1       2.923  -4.121  -3.644  1.00  0.00     0.004 A   
ATOM     14  C8  UNL     1       4.227  -2.146  -3.406  1.00  0.00     0.111 A   
ATOM     15  C7  UNL     1       4.172  -3.513  -3.610  1.00  0.00     0.020 A   
ENDBRANCH   7  10
ENDBRANCH   1   7
BRANCH   3  16
ATOM     16  C11 UNL     1       0.974   0.200   1.776  1.00  0.00     0.120 C   
BRANCH  16  17
ATOM     17  N3  UNL     1      -0.288   0.700   2.439  1.00  0.00     0.250 N   
ATOM     18  H13 UNL     1      -1.015  -0.007   2.248  1.00  0.00     0.199 HD  
ATOM     19  H14 UNL     1      -0.207   0.756   3.457  1.00  0.00     0.199 HD  
BRANCH  17  20
ATOM     20  C12 UNL     1      -0.802   2.002   1.928  1.00  0.00     0.164 C   
BRANCH  20  21
ATOM     21  C13 UNL     1      -2.140   2.312   2.535  1.00  0.00    -0.002 A   
ATOM     22  C14 UNL     1      -3.315   1.736   1.991  1.00  0.00     0.012 A   
ATOM     23  C18 UNL     1      -2.232   3.132   3.672  1.00  0.00     0.045 A   
ATOM     24  C15 UNL     1      -4.566   1.980   2.566  1.00  0.00     0.037 A   
ATOM     25  C17 UNL     1      -3.483   3.353   4.212  1.00  0.00     0.109 A   
ATOM     26  C16 UNL     1      -4.616   2.793   3.676  1.00  0.00     0.108 A   
ATOM     27  O1  UNL     1      -3.749   4.121   5.300  1.00  0.00    -0.316 OA  
ATOM     28  O2  UNL     1      -5.737   3.138   4.360  1.00  0.00    -0.316 OA  
ATOM     29  C19 UNL     1      -5.187   3.999   5.379  1.00  0.00     0.337 C   
ENDBRANCH  20  21
ENDBRANCH  17  20
ENDBRANCH  16  17
BRANCH  16  30
ATOM     30  C20 UNL     1       1.679  -0.871   2.680  1.00  0.00     0.010 C   
ATOM     31  C21 UNL     1       2.135  -0.232   4.013  1.00  0.00     0.017 C   
ATOM     32  C22 UNL     1       2.950  -1.408   1.984  1.00  0.00     0.017 C   
ATOM     33  C23 UNL     1       0.764  -2.069   3.006  1.00  0.00     0.017 C   
ENDBRANCH  16  30
ENDBRANCH   3  16
TORSDOF 8
