REMARK SMILES COc1cc(Cn2cc([C@H](CC(C)C)[NH2+]Cc3ccc4c(c3)OCO4)nn2)cc(C)n1
REMARK SMILES IDX 7 1 8 2 9 3 26 4 27 5 6 7 5 8 3 9 4 10 31 11 29 12 28 13
REMARK SMILES IDX 30 14 2 15 1 16 10 17 11 18 12 19 13 20 14 21 15 22 16 25
REMARK SMILES IDX 17 26 18 27 22 28 19 29 21 30 20 31 23 32 25 33 24 34
REMARK H PARENT 8 6 15 23 15 24
ROOT
ATOM     1   N1  UNL     1       0.805  -0.246   2.538  1.00  0.00    -0.208 N   
ATOM     2   C6  UNL     1      -0.026  -1.127   1.900  1.00  0.00     0.046 A   
ATOM     3   C7  UNL     1      -0.965  -0.319   1.295  1.00  0.00     0.127 A   
ATOM     4   N3  UNL     1      -0.704   0.990   1.616  1.00  0.00    -0.132 NA  
ATOM     5   N4  UNL     1       0.360   1.018   2.400  1.00  0.00    -0.076 NA  
ATOM     6   H7  UNL     1       0.146  -2.195   1.908  1.00  0.00     0.083 HD  
ENDROOT
BRANCH   1   7
ATOM     7   C5  UNL     1       2.019  -0.532   3.284  1.00  0.00     0.169 C   
BRANCH   7   8
ATOM     8   C4  UNL     1       3.216  -0.531   2.372  1.00  0.00    -0.023 A   
ATOM     9   C2  UNL     1       4.708  -1.632   0.860  1.00  0.00     0.167 A   
ATOM     10  C3  UNL     1       3.626  -1.697   1.722  1.00  0.00     0.060 A   
ATOM     11  N5  UNL     1       5.395  -0.501   0.609  1.00  0.00    -0.230 NA  
ATOM     12  C22 UNL     1       4.997   0.627   1.238  1.00  0.00     0.041 A   
ATOM     13  C21 UNL     1       3.921   0.650   2.121  1.00  0.00     0.029 A   
ATOM     14  C23 UNL     1       5.772   1.885   0.961  1.00  0.00     0.067 C   
BRANCH   9  15
ATOM     15  O1  UNL     1       5.051  -2.809   0.226  1.00  0.00    -0.333 OA  
ATOM     16  C1  UNL     1       6.201  -2.675  -0.607  1.00  0.00     0.205 C   
ENDBRANCH   9  15
ENDBRANCH   7   8
ENDBRANCH   1   7
BRANCH   3  17
ATOM     17  C8  UNL     1      -2.131  -0.647   0.416  1.00  0.00     0.114 C   
BRANCH  17  18
ATOM     18  C9  UNL     1      -1.664  -0.903  -1.031  1.00  0.00     0.064 C   
BRANCH  18  19
ATOM     19  C10 UNL     1      -2.753  -1.297  -2.052  1.00  0.00    -0.012 C   
ATOM     20  C11 UNL     1      -2.102  -1.602  -3.405  1.00  0.00     0.007 C   
ATOM     21  C12 UNL     1      -3.583  -2.498  -1.598  1.00  0.00     0.007 C   
ENDBRANCH  18  19
ENDBRANCH  17  18
BRANCH  17  22
ATOM     22  N2  UNL     1      -3.129   0.478   0.425  1.00  0.00     0.249 N   
ATOM     23  H18 UNL     1      -3.772   0.432  -0.369  1.00  0.00     0.199 HD  
ATOM     24  H19 UNL     1      -2.594   1.353   0.314  1.00  0.00     0.199 HD  
BRANCH  22  25
ATOM     25  C13 UNL     1      -3.932   0.607   1.675  1.00  0.00     0.164 C   
BRANCH  25  26
ATOM     26  C14 UNL     1      -4.855   1.789   1.582  1.00  0.00    -0.002 A   
ATOM     27  C15 UNL     1      -4.418   3.069   2.008  1.00  0.00     0.012 A   
ATOM     28  C19 UNL     1      -6.136   1.645   1.020  1.00  0.00     0.045 A   
ATOM     29  C16 UNL     1      -5.248   4.189   1.889  1.00  0.00     0.037 A   
ATOM     30  C18 UNL     1      -6.930   2.770   0.918  1.00  0.00     0.109 A   
ATOM     31  C17 UNL     1      -6.500   4.005   1.340  1.00  0.00     0.108 A   
ATOM     32  O2  UNL     1      -8.188   2.804   0.404  1.00  0.00    -0.316 OA  
ATOM     33  O3  UNL     1      -7.434   4.972   1.148  1.00  0.00    -0.316 OA  
ATOM     34  C20 UNL     1      -8.512   4.204   0.569  1.00  0.00     0.337 C   
ENDBRANCH  25  26
ENDBRANCH  22  25
ENDBRANCH  17  22
ENDBRANCH   3  17
TORSDOF 9
