REMARK SMILES c1ccn2ncc(CCn3cc([C@@H]([NH2+]Cc4ccc5c(c4)OCO5)C4CCCCC4)nn3)c2c1
REMARK SMILES IDX 10 1 11 2 12 3 31 4 32 5 9 7 8 8 7 9 1 10 2 11 34 12 3 13
REMARK SMILES IDX 33 14 4 15 5 16 6 17 13 18 14 19 15 22 16 23 17 24 21 25
REMARK SMILES IDX 18 26 20 27 19 28 22 29 24 30 23 31 25 32 26 33 30 34 27 35
REMARK SMILES IDX 29 36 28 37
REMARK H PARENT 11 6 14 20 14 21
ROOT
ATOM     1   N3  UNL     1       3.129  -0.288  -0.566  1.00  0.00    -0.212 N   
ATOM     2   C8  UNL     1       1.781  -0.481  -0.682  1.00  0.00     0.045 A   
ATOM     3   C9  UNL     1       1.250   0.782  -0.539  1.00  0.00     0.127 A   
ATOM     4   N5  UNL     1       2.270   1.680  -0.365  1.00  0.00    -0.132 NA  
ATOM     5   N6  UNL     1       3.412   1.015  -0.392  1.00  0.00    -0.076 NA  
ATOM     6   H9  UNL     1       1.339  -1.458  -0.809  1.00  0.00     0.083 HD  
ENDROOT
BRANCH   1   7
ATOM     7   C7  UNL     1       4.201  -1.261  -0.582  1.00  0.00     0.139 C   
BRANCH   7   8
ATOM     8   C6  UNL     1       3.963  -2.482   0.308  1.00  0.00     0.060 C   
BRANCH   8   9
ATOM     9   C5  UNL     1       3.652  -2.162   1.734  1.00  0.00    -0.003 A   
ATOM     10  C1  UNL     1       0.691  -3.824   3.323  1.00  0.00     0.003 A   
ATOM     11  C2  UNL     1       0.865  -3.229   4.638  1.00  0.00     0.018 A   
ATOM     12  C26 UNL     1       1.529  -3.546   2.306  1.00  0.00     0.026 A   
ATOM     13  C3  UNL     1       1.891  -2.385   4.836  1.00  0.00     0.102 A   
ATOM     14  C25 UNL     1       2.618  -2.644   2.514  1.00  0.00     0.061 A   
ATOM     15  N1  UNL     1       2.763  -2.084   3.790  1.00  0.00    -0.201 N   
ATOM     16  N2  UNL     1       3.813  -1.227   3.822  1.00  0.00    -0.185 NA  
ATOM     17  C4  UNL     1       4.355  -1.301   2.606  1.00  0.00     0.137 A   
ENDBRANCH   8   9
ENDBRANCH   7   8
ENDBRANCH   1   7
BRANCH   3  18
ATOM     18  C10 UNL     1      -0.161   1.263  -0.464  1.00  0.00     0.117 C   
BRANCH  18  19
ATOM     19  N4  UNL     1      -0.266   2.355   0.583  1.00  0.00     0.249 N   
ATOM     20  H11 UNL     1      -1.133   2.886   0.463  1.00  0.00     0.199 HD  
ATOM     21  H12 UNL     1       0.518   2.999   0.407  1.00  0.00     0.199 HD  
BRANCH  19  22
ATOM     22  C11 UNL     1      -0.148   1.910   2.006  1.00  0.00     0.164 C   
BRANCH  22  23
ATOM     23  C12 UNL     1      -1.334   1.101   2.456  1.00  0.00    -0.002 A   
ATOM     24  C13 UNL     1      -2.597   1.714   2.640  1.00  0.00     0.012 A   
ATOM     25  C17 UNL     1      -1.202  -0.284   2.666  1.00  0.00     0.045 A   
ATOM     26  C14 UNL     1      -3.715   0.959   3.014  1.00  0.00     0.037 A   
ATOM     27  C16 UNL     1      -2.323  -0.998   3.034  1.00  0.00     0.109 A   
ATOM     28  C15 UNL     1      -3.545  -0.395   3.199  1.00  0.00     0.108 A   
ATOM     29  O1  UNL     1      -2.369  -2.336   3.270  1.00  0.00    -0.316 OA  
ATOM     30  O2  UNL     1      -4.515  -1.276   3.557  1.00  0.00    -0.316 OA  
ATOM     31  C18 UNL     1      -3.760  -2.505   3.629  1.00  0.00     0.337 C   
ENDBRANCH  22  23
ENDBRANCH  19  22
ENDBRANCH  18  19
BRANCH  18  32
ATOM     32  C19 UNL     1      -0.727   1.806  -1.804  1.00  0.00     0.043 C   
ATOM     33  C20 UNL     1      -0.876   0.679  -2.846  1.00  0.00     0.010 C   
ATOM     34  C24 UNL     1       0.066   2.985  -2.401  1.00  0.00     0.010 C   
ATOM     35  C21 UNL     1      -1.496   1.186  -4.147  1.00  0.00     0.001 C   
ATOM     36  C23 UNL     1      -0.560   3.484  -3.703  1.00  0.00     0.001 C   
ATOM     37  C22 UNL     1      -0.717   2.362  -4.724  1.00  0.00     0.000 C   
ENDBRANCH  18  32
ENDBRANCH   3  18
TORSDOF 8
