REMARK SMILES CC(C)[C@H]([NH2+]Cc1ccc2c(c1)OCO2)c1cn(-c2ccccc2S(C)(=O)=O)nn1
REMARK SMILES IDX 16 1 17 2 18 3 29 4 30 5 4 6 2 7 1 8 3 9 5 10 6 13 7 14 8 15
REMARK SMILES IDX 12 16 9 17 11 18 10 19 13 20 15 21 14 22 19 23 20 24 24 25
REMARK SMILES IDX 21 26 23 27 22 28 25 29 26 30 27 31 28 32
REMARK H PARENT 5 11 5 12
ROOT
ATOM     1   C13 UNL     1      -0.668   1.341   0.833  1.00  0.00     0.127 A   
ATOM     2   C14 UNL     1       0.318   2.295   0.740  1.00  0.00     0.135 A   
ATOM     3   N2  UNL     1       0.820   2.407   2.018  1.00  0.00    -0.169 N   
ATOM     4   N3  UNL     1       0.008   1.720   2.863  1.00  0.00    -0.071 NA  
ATOM     5   N4  UNL     1      -0.846   1.008   2.145  1.00  0.00    -0.131 NA  
ENDROOT
BRANCH   1   6
ATOM     6   C4  UNL     1      -1.411   0.612  -0.238  1.00  0.00     0.117 C   
BRANCH   6   7
ATOM     7   C2  UNL     1      -2.936   0.901  -0.206  1.00  0.00     0.037 C   
ATOM     8   C1  UNL     1      -3.217   2.398  -0.412  1.00  0.00     0.014 C   
ATOM     9   C3  UNL     1      -3.715   0.113  -1.268  1.00  0.00     0.014 C   
ENDBRANCH   6   7
BRANCH   6  10
ATOM     10  N1  UNL     1      -1.172  -0.869  -0.067  1.00  0.00     0.249 N   
ATOM     11  H9  UNL     1      -1.467  -1.123   0.886  1.00  0.00     0.199 HD  
ATOM     12  H10 UNL     1      -1.747  -1.418  -0.710  1.00  0.00     0.199 HD  
BRANCH  10  13
ATOM     13  C5  UNL     1       0.248  -1.311  -0.230  1.00  0.00     0.164 C   
BRANCH  13  14
ATOM     14  C6  UNL     1       0.336  -2.809  -0.139  1.00  0.00    -0.002 A   
ATOM     15  C7  UNL     1       0.566  -3.433   1.110  1.00  0.00     0.012 A   
ATOM     16  C11 UNL     1       0.133  -3.601  -1.282  1.00  0.00     0.045 A   
ATOM     17  C8  UNL     1       0.601  -4.826   1.222  1.00  0.00     0.037 A   
ATOM     18  C10 UNL     1       0.172  -4.972  -1.136  1.00  0.00     0.109 A   
ATOM     19  C9  UNL     1       0.399  -5.568   0.079  1.00  0.00     0.108 A   
ATOM     20  O1  UNL     1      -0.007  -5.877  -2.133  1.00  0.00    -0.316 OA  
ATOM     21  O2  UNL     1       0.395  -6.924   0.000  1.00  0.00    -0.316 OA  
ATOM     22  C12 UNL     1       0.151  -7.118  -1.409  1.00  0.00     0.337 C   
ENDBRANCH  13  14
ENDBRANCH  10  13
ENDBRANCH   6  10
ENDBRANCH   1   6
BRANCH   3  23
ATOM     23  C15 UNL     1       1.950   3.117   2.488  1.00  0.00     0.178 A   
ATOM     24  C16 UNL     1       1.861   3.675   3.777  1.00  0.00     0.039 A   
ATOM     25  C20 UNL     1       3.125   3.312   1.735  1.00  0.00     0.330 A   
ATOM     26  C17 UNL     1       2.884   4.486   4.270  1.00  0.00     0.003 A   
ATOM     27  C19 UNL     1       4.136   4.150   2.233  1.00  0.00     0.136 A   
ATOM     28  C18 UNL     1       4.008   4.741   3.492  1.00  0.00     0.013 A   
BRANCH  25  29
ATOM     29  S1  UNL     1       3.484   2.347   0.276  1.00  0.00    -0.237 S   
ATOM     30  C21 UNL     1       5.240   2.128   0.191  1.00  0.00     0.674 C   
ATOM     31  O3  UNL     1       3.059   3.146  -0.855  1.00  0.00    -0.517 OA  
ATOM     32  O4  UNL     1       2.913   1.025   0.486  1.00  0.00    -0.517 OA  
ENDBRANCH  25  29
ENDBRANCH   3  23
TORSDOF 7
