REMARK SMILES Nc1cc(-n2cc([C@@H]([NH2+]Cc3ccc4c(c3)OCO4)C3CCCCC3)nn2)ccn1
REMARK SMILES IDX 5 1 6 2 7 3 26 4 27 5 4 6 2 7 3 8 30 9 29 10 28 11 1 12 8 15
REMARK SMILES IDX 9 16 10 19 11 20 12 21 16 22 13 23 15 24 14 25 17 26 19 27
REMARK SMILES IDX 18 28 20 29 21 30 25 31 22 32 24 33 23 34
REMARK H PARENT 1 13 1 14 9 17 9 18
ROOT
ATOM     1   N2  UNL     1      -1.938   2.763   0.293  1.00  0.00    -0.180 N   
ATOM     2   C4  UNL     1      -1.271   1.624   0.699  1.00  0.00     0.135 A   
ATOM     3   C5  UNL     1      -0.458   1.288  -0.361  1.00  0.00     0.127 A   
ATOM     4   N4  UNL     1      -0.665   2.172  -1.380  1.00  0.00    -0.131 NA  
ATOM     5   N5  UNL     1      -1.570   3.050  -0.983  1.00  0.00    -0.071 NA  
ENDROOT
BRANCH   1   6
ATOM     6   C3  UNL     1      -2.874   3.552   0.999  1.00  0.00     0.062 A   
ATOM     7   C1  UNL     1      -4.165   4.047   2.952  1.00  0.00     0.117 A   
ATOM     8   C2  UNL     1      -3.256   3.224   2.303  1.00  0.00     0.070 A   
ATOM     9   N6  UNL     1      -4.689   5.143   2.387  1.00  0.00    -0.242 NA  
ATOM     10  C22 UNL     1      -4.313   5.443   1.127  1.00  0.00     0.115 A   
ATOM     11  C21 UNL     1      -3.419   4.686   0.393  1.00  0.00     0.046 A   
BRANCH   7  12
ATOM     12  N1  UNL     1      -4.550   3.778   4.261  1.00  0.00    -0.343 N   
ATOM     13  H1  UNL     1      -4.955   2.855   4.363  1.00  0.00     0.144 HD  
ATOM     14  H2  UNL     1      -5.221   4.500   4.524  1.00  0.00     0.144 HD  
ENDBRANCH   7  12
ENDBRANCH   1   6
BRANCH   3  15
ATOM     15  C6  UNL     1       0.499   0.151  -0.551  1.00  0.00     0.117 C   
BRANCH  15  16
ATOM     16  N3  UNL     1       0.329  -0.422  -1.947  1.00  0.00     0.249 N   
ATOM     17  H6  UNL     1       0.497   0.352  -2.605  1.00  0.00     0.199 HD  
ATOM     18  H7  UNL     1       1.034  -1.138  -2.130  1.00  0.00     0.199 HD  
BRANCH  16  19
ATOM     19  C7  UNL     1      -1.006  -1.009  -2.279  1.00  0.00     0.164 C   
BRANCH  19  20
ATOM     20  C8  UNL     1      -1.356  -2.192  -1.419  1.00  0.00    -0.002 A   
ATOM     21  C9  UNL     1      -0.695  -3.431  -1.597  1.00  0.00     0.012 A   
ATOM     22  C13 UNL     1      -2.320  -2.063  -0.404  1.00  0.00     0.045 A   
ATOM     23  C10 UNL     1      -0.983  -4.524  -0.773  1.00  0.00     0.037 A   
ATOM     24  C12 UNL     1      -2.578  -3.158   0.393  1.00  0.00     0.109 A   
ATOM     25  C11 UNL     1      -1.928  -4.354   0.215  1.00  0.00     0.108 A   
ATOM     26  O1  UNL     1      -3.466  -3.197   1.420  1.00  0.00    -0.316 OA  
ATOM     27  O2  UNL     1      -2.328  -5.298   1.104  1.00  0.00    -0.316 OA  
ATOM     28  C14 UNL     1      -3.333  -4.573   1.845  1.00  0.00     0.337 C   
ENDBRANCH  19  20
ENDBRANCH  16  19
ENDBRANCH  15  16
BRANCH  15  29
ATOM     29  C15 UNL     1       1.984   0.592  -0.356  1.00  0.00     0.043 C   
ATOM     30  C16 UNL     1       2.982  -0.564  -0.594  1.00  0.00     0.010 C   
ATOM     31  C20 UNL     1       2.202   1.176   1.061  1.00  0.00     0.010 C   
ATOM     32  C17 UNL     1       4.430  -0.164  -0.314  1.00  0.00     0.001 C   
ATOM     33  C19 UNL     1       3.654   1.569   1.322  1.00  0.00     0.001 C   
ATOM     34  C18 UNL     1       4.601   0.402   1.088  1.00  0.00     0.000 C   
ENDBRANCH  15  29
ENDBRANCH   3  15
TORSDOF 7
