REMARK SMILES O=C(c1cnccn1)n1cc([C@@H]([NH2+]Cc2ccc3c(c2)OCO3)C2CCCC2)nn1
REMARK SMILES IDX 12 1 11 2 9 3 10 4 30 5 29 6 2 7 1 8 3 9 4 10 8 11 5 12 7 13
REMARK SMILES IDX 6 14 13 15 14 18 15 19 16 20 20 21 17 22 19 23 18 24 21 25
REMARK SMILES IDX 23 26 22 27 24 28 25 29 28 30 26 31 27 32
REMARK H PARENT 13 16 13 17
ROOT
ATOM     1   C8  UNL     1       0.100   0.122  -0.528  1.00  0.00     0.117 C   
ENDROOT
BRANCH   1   2
ATOM     2   C7  UNL     1       0.179  -1.281  -0.018  1.00  0.00     0.128 A   
ATOM     3   N3  UNL     1      -0.131  -3.330   0.708  1.00  0.00    -0.142 N   
ATOM     4   C6  UNL     1      -0.796  -2.227   0.192  1.00  0.00     0.139 A   
ATOM     5   N6  UNL     1       1.184  -3.024   0.823  1.00  0.00    -0.068 NA  
ATOM     6   N5  UNL     1       1.381  -1.790   0.387  1.00  0.00    -0.131 NA  
BRANCH   3   7
ATOM     7   C1  UNL     1      -0.675  -4.577   1.051  1.00  0.00     0.291 C   
ATOM     8   O1  UNL     1      -1.880  -4.709   0.828  1.00  0.00    -0.268 OA  
BRANCH   7   9
ATOM     9   C2  UNL     1       0.073  -5.709   1.641  1.00  0.00     0.146 A   
ATOM     10  C3  UNL     1      -0.535  -6.956   1.726  1.00  0.00     0.145 A   
ATOM     11  N2  UNL     1       1.326  -5.495   2.112  1.00  0.00    -0.248 NA  
ATOM     12  N1  UNL     1       0.086  -8.035   2.264  1.00  0.00    -0.261 NA  
ATOM     13  C5  UNL     1       1.944  -6.577   2.647  1.00  0.00     0.132 A   
ATOM     14  C4  UNL     1       1.339  -7.820   2.722  1.00  0.00     0.131 A   
ENDBRANCH   7   9
ENDBRANCH   3   7
ENDBRANCH   1   2
BRANCH   1  15
ATOM     15  N4  UNL     1       1.161   0.980   0.133  1.00  0.00     0.249 N   
ATOM     16  H6  UNL     1       1.275   1.859  -0.380  1.00  0.00     0.199 HD  
ATOM     17  H7  UNL     1       2.048   0.462   0.050  1.00  0.00     0.199 HD  
BRANCH  15  18
ATOM     18  C9  UNL     1       0.960   1.286   1.581  1.00  0.00     0.164 C   
BRANCH  18  19
ATOM     19  C10 UNL     1      -0.223   2.178   1.831  1.00  0.00    -0.002 A   
ATOM     20  C11 UNL     1      -1.392   1.660   2.440  1.00  0.00     0.012 A   
ATOM     21  C15 UNL     1      -0.189   3.528   1.438  1.00  0.00     0.045 A   
ATOM     22  C12 UNL     1      -2.514   2.469   2.648  1.00  0.00     0.037 A   
ATOM     23  C14 UNL     1      -1.313   4.297   1.658  1.00  0.00     0.109 A   
ATOM     24  C13 UNL     1      -2.443   3.784   2.244  1.00  0.00     0.108 A   
ATOM     25  O2  UNL     1      -1.446   5.609   1.333  1.00  0.00    -0.316 OA  
ATOM     26  O3  UNL     1      -3.430   4.708   2.365  1.00  0.00    -0.316 OA  
ATOM     27  C16 UNL     1      -2.785   5.876   1.812  1.00  0.00     0.337 C   
ENDBRANCH  18  19
ENDBRANCH  15  18
ENDBRANCH   1  15
BRANCH   1  28
ATOM     28  C17 UNL     1       0.277   0.264  -2.053  1.00  0.00     0.043 C   
ATOM     29  C18 UNL     1      -0.757  -0.481  -2.898  1.00  0.00     0.010 C   
ATOM     30  C21 UNL     1       1.598  -0.241  -2.640  1.00  0.00     0.010 C   
ATOM     31  C19 UNL     1      -0.187  -0.395  -4.309  1.00  0.00     0.001 C   
ATOM     32  C20 UNL     1       1.332  -0.351  -4.142  1.00  0.00     0.001 C   
ENDBRANCH   1  28
TORSDOF 7
