REMARK SMILES CC(C)[C@H]([NH2+]Cc1ccc2c(c1)OCO2)c1cn(C[C@@H](O)c2ccc(F)cc2)nn1
REMARK SMILES IDX 16 1 17 2 18 3 29 4 30 5 4 7 2 8 1 9 3 10 5 11 6 14 7 15
REMARK SMILES IDX 8 16 12 17 9 18 11 19 10 20 13 21 15 22 14 23 19 24 20 25
REMARK SMILES IDX 21 26 22 28 23 29 28 30 24 31 27 32 25 33 26 34
REMARK H PARENT 17 6 5 12 5 13 21 27
ROOT
ATOM     1   C13 UNL     1       0.608  -0.027  -0.522  1.00  0.00     0.127 A   
ATOM     2   C14 UNL     1       1.348  -0.932  -1.250  1.00  0.00     0.045 A   
ATOM     3   N2  UNL     1       0.417  -1.583  -2.010  1.00  0.00    -0.209 N   
ATOM     4   N3  UNL     1      -0.809  -1.064  -1.820  1.00  0.00    -0.076 NA  
ATOM     5   N4  UNL     1      -0.709  -0.120  -0.899  1.00  0.00    -0.132 NA  
ATOM     6   H18 UNL     1       2.398  -1.193  -1.270  1.00  0.00     0.083 HD  
ENDROOT
BRANCH   1   7
ATOM     7   C4  UNL     1       1.009   0.980   0.508  1.00  0.00     0.117 C   
BRANCH   7   8
ATOM     8   C2  UNL     1       1.075   0.415   1.951  1.00  0.00     0.037 C   
ATOM     9   C1  UNL     1       2.202  -0.612   2.109  1.00  0.00     0.014 C   
ATOM     10  C3  UNL     1      -0.245  -0.185   2.451  1.00  0.00     0.014 C   
ENDBRANCH   7   8
BRANCH   7  11
ATOM     11  N1  UNL     1       0.044   2.140   0.496  1.00  0.00     0.249 N   
ATOM     12  H9  UNL     1      -0.904   1.737   0.444  1.00  0.00     0.199 HD  
ATOM     13  H10 UNL     1       0.084   2.674   1.370  1.00  0.00     0.199 HD  
BRANCH  11  14
ATOM     14  C5  UNL     1       0.184   3.075  -0.655  1.00  0.00     0.164 C   
BRANCH  14  15
ATOM     15  C6  UNL     1      -0.880   4.134  -0.600  1.00  0.00    -0.002 A   
ATOM     16  C7  UNL     1      -2.154   3.890  -1.166  1.00  0.00     0.012 A   
ATOM     17  C11 UNL     1      -0.637   5.349   0.063  1.00  0.00     0.045 A   
ATOM     18  C8  UNL     1      -3.172   4.846  -1.083  1.00  0.00     0.037 A   
ATOM     19  C10 UNL     1      -1.662   6.269   0.127  1.00  0.00     0.109 A   
ATOM     20  C9  UNL     1      -2.893   6.026  -0.430  1.00  0.00     0.108 A   
ATOM     21  O1  UNL     1      -1.595   7.486   0.728  1.00  0.00    -0.316 OA  
ATOM     22  O2  UNL     1      -3.756   7.060  -0.252  1.00  0.00    -0.316 OA  
ATOM     23  C12 UNL     1      -2.922   7.996   0.464  1.00  0.00     0.337 C   
ENDBRANCH  14  15
ENDBRANCH  11  14
ENDBRANCH   7  11
ENDBRANCH   1   7
BRANCH   3  24
ATOM     24  C15 UNL     1       0.615  -2.711  -2.892  1.00  0.00     0.170 C   
BRANCH  24  25
ATOM     25  C16 UNL     1       0.045  -4.017  -2.329  1.00  0.00     0.164 C   
BRANCH  25  26
ATOM     26  O3  UNL     1       0.295  -5.065  -3.267  1.00  0.00    -0.387 OA  
ATOM     27  H22 UNL     1       0.090  -5.910  -2.824  1.00  0.00     0.211 HD  
ENDBRANCH  25  26
BRANCH  25  28
ATOM     28  C17 UNL     1       0.647  -4.394  -0.987  1.00  0.00    -0.018 A   
ATOM     29  C18 UNL     1      -0.106  -4.232   0.189  1.00  0.00     0.009 A   
ATOM     30  C22 UNL     1       1.967  -4.868  -0.891  1.00  0.00     0.009 A   
ATOM     31  C19 UNL     1       0.452  -4.532   1.432  1.00  0.00     0.039 A   
ATOM     32  C21 UNL     1       2.522  -5.167   0.354  1.00  0.00     0.039 A   
ATOM     33  C20 UNL     1       1.761  -4.993   1.504  1.00  0.00     0.123 A   
ATOM     34  F1  UNL     1       2.298  -5.264   2.699  1.00  0.00    -0.207 F   
ENDBRANCH  25  28
ENDBRANCH  24  25
ENDBRANCH   3  24
TORSDOF 9
