REMARK SMILES CC(C)[C@H]([NH2+]Cc1ccc2c(c1)OCO2)c1cn(C[C@H](O)c2ccc(F)cc2)nn1
REMARK SMILES IDX 16 1 17 2 18 3 29 4 30 5 4 7 2 8 1 9 3 10 5 11 6 14 7 15
REMARK SMILES IDX 8 16 12 17 9 18 11 19 10 20 13 21 15 22 14 23 19 24 20 25
REMARK SMILES IDX 21 26 22 28 23 29 28 30 24 31 27 32 25 33 26 34
REMARK H PARENT 17 6 5 12 5 13 21 27
ROOT
ATOM     1   C13 UNL     1      -0.670   1.151  -0.480  1.00  0.00     0.127 A   
ATOM     2   C14 UNL     1      -1.489   0.803  -1.530  1.00  0.00     0.045 A   
ATOM     3   N2  UNL     1      -0.916   1.411  -2.612  1.00  0.00    -0.209 N   
ATOM     4   N3  UNL     1       0.172   2.115  -2.245  1.00  0.00    -0.076 NA  
ATOM     5   N4  UNL     1       0.330   1.967  -0.941  1.00  0.00    -0.132 NA  
ATOM     6   H18 UNL     1      -2.375   0.189  -1.615  1.00  0.00     0.083 HD  
ENDROOT
BRANCH   1   7
ATOM     7   C4  UNL     1      -0.698   0.753   0.960  1.00  0.00     0.117 C   
BRANCH   7   8
ATOM     8   C2  UNL     1      -1.659   1.644   1.795  1.00  0.00     0.037 C   
ATOM     9   C1  UNL     1      -1.937   1.037   3.176  1.00  0.00     0.014 C   
ATOM     10  C3  UNL     1      -1.190   3.095   1.955  1.00  0.00     0.014 C   
ENDBRANCH   7   8
BRANCH   7  11
ATOM     11  N1  UNL     1       0.691   0.783   1.557  1.00  0.00     0.249 N   
ATOM     12  H9  UNL     1       0.649   0.692   2.575  1.00  0.00     0.199 HD  
ATOM     13  H10 UNL     1       1.077   1.712   1.343  1.00  0.00     0.199 HD  
BRANCH  11  14
ATOM     14  C5  UNL     1       1.669  -0.215   1.023  1.00  0.00     0.164 C   
BRANCH  14  15
ATOM     15  C6  UNL     1       1.276  -1.638   1.303  1.00  0.00    -0.002 A   
ATOM     16  C7  UNL     1       1.435  -2.193   2.595  1.00  0.00     0.012 A   
ATOM     17  C11 UNL     1       0.712  -2.419   0.279  1.00  0.00     0.045 A   
ATOM     18  C8  UNL     1       1.038  -3.508   2.863  1.00  0.00     0.037 A   
ATOM     19  C10 UNL     1       0.330  -3.709   0.577  1.00  0.00     0.109 A   
ATOM     20  C9  UNL     1       0.489  -4.239   1.833  1.00  0.00     0.108 A   
ATOM     21  O1  UNL     1      -0.234  -4.587  -0.293  1.00  0.00    -0.316 OA  
ATOM     22  O2  UNL     1       0.048  -5.521   1.913  1.00  0.00    -0.316 OA  
ATOM     23  C12 UNL     1      -0.387  -5.750   0.555  1.00  0.00     0.337 C   
ENDBRANCH  14  15
ENDBRANCH  11  14
ENDBRANCH   7  11
ENDBRANCH   1   7
BRANCH   3  24
ATOM     24  C15 UNL     1      -1.354   1.409  -3.993  1.00  0.00     0.170 C   
BRANCH  24  25
ATOM     25  C16 UNL     1      -1.365   0.024  -4.658  1.00  0.00     0.164 C   
BRANCH  25  26
ATOM     26  O3  UNL     1      -2.488  -0.721  -4.177  1.00  0.00    -0.387 OA  
ATOM     27  H22 UNL     1      -2.621  -1.458  -4.803  1.00  0.00     0.211 HD  
ENDBRANCH  25  26
BRANCH  25  28
ATOM     28  C17 UNL     1      -0.074  -0.761  -4.503  1.00  0.00    -0.018 A   
ATOM     29  C18 UNL     1      -0.011  -1.951  -3.756  1.00  0.00     0.009 A   
ATOM     30  C22 UNL     1       1.102  -0.292  -5.117  1.00  0.00     0.009 A   
ATOM     31  C19 UNL     1       1.192  -2.649  -3.626  1.00  0.00     0.039 A   
ATOM     32  C21 UNL     1       2.305  -0.987  -4.979  1.00  0.00     0.039 A   
ATOM     33  C20 UNL     1       2.339  -2.158  -4.234  1.00  0.00     0.123 A   
ATOM     34  F1  UNL     1       3.494  -2.820  -4.094  1.00  0.00    -0.207 F   
ENDBRANCH  25  28
ENDBRANCH  24  25
ENDBRANCH   3  24
TORSDOF 9
