REMARK SMILES OCc1cccc(-n2cc([C@@H]([NH2+]Cc3ccc4c(c3)OCO4)C3CCCC3)nn2)c1
REMARK SMILES IDX 8 1 9 2 10 3 28 4 29 5 7 6 3 7 4 8 30 9 5 10 6 11 2 12 1 13
REMARK SMILES IDX 11 15 12 16 13 19 14 20 15 21 19 22 16 23 18 24 17 25 20 26
REMARK SMILES IDX 22 27 21 28 23 29 24 30 27 31 25 32 26 33
REMARK H PARENT 1 14 12 17 12 18
ROOT
ATOM     1   N1  UNL     1       1.539   0.548  -1.770  1.00  0.00    -0.181 N   
ATOM     2   C7  UNL     1       0.997  -0.037  -0.641  1.00  0.00     0.135 A   
ATOM     3   C8  UNL     1       0.923  -1.380  -0.933  1.00  0.00     0.127 A   
ATOM     4   N3  UNL     1       1.385  -1.589  -2.201  1.00  0.00    -0.131 NA  
ATOM     5   N4  UNL     1       1.744  -0.419  -2.703  1.00  0.00    -0.071 NA  
ENDROOT
BRANCH   1   6
ATOM     6   C6  UNL     1       1.837   1.910  -2.015  1.00  0.00     0.058 A   
ATOM     7   C2  UNL     1       1.871   4.241  -1.291  1.00  0.00    -0.021 A   
ATOM     8   C3  UNL     1       2.417   4.598  -2.532  1.00  0.00     0.006 A   
ATOM     9   C23 UNL     1       1.596   2.886  -1.037  1.00  0.00     0.032 A   
ATOM     10  C4  UNL     1       2.666   3.630  -3.506  1.00  0.00     0.002 A   
ATOM     11  C5  UNL     1       2.376   2.289  -3.252  1.00  0.00     0.026 A   
BRANCH   7  12
ATOM     12  C1  UNL     1       1.640   5.309  -0.251  1.00  0.00     0.191 C   
BRANCH  12  13
ATOM     13  O1  UNL     1       0.749   4.858   0.763  1.00  0.00    -0.392 OA  
ATOM     14  H1  UNL     1       0.607   5.617   1.356  1.00  0.00     0.211 HD  
ENDBRANCH  12  13
ENDBRANCH   7  12
ENDBRANCH   1   6
BRANCH   3  15
ATOM     15  C9  UNL     1       0.403  -2.534  -0.139  1.00  0.00     0.117 C   
BRANCH  15  16
ATOM     16  N2  UNL     1      -0.328  -3.499  -1.051  1.00  0.00     0.249 N   
ATOM     17  H9  UNL     1       0.318  -3.713  -1.824  1.00  0.00     0.199 HD  
ATOM     18  H10 UNL     1      -0.519  -4.378  -0.565  1.00  0.00     0.199 HD  
BRANCH  16  19
ATOM     19  C10 UNL     1      -1.600  -3.003  -1.658  1.00  0.00     0.164 C   
BRANCH  19  20
ATOM     20  C11 UNL     1      -2.667  -2.722  -0.637  1.00  0.00    -0.002 A   
ATOM     21  C12 UNL     1      -3.072  -1.390  -0.380  1.00  0.00     0.012 A   
ATOM     22  C16 UNL     1      -3.250  -3.774   0.090  1.00  0.00     0.045 A   
ATOM     23  C13 UNL     1      -4.037  -1.107   0.593  1.00  0.00     0.037 A   
ATOM     24  C15 UNL     1      -4.196  -3.460   1.043  1.00  0.00     0.109 A   
ATOM     25  C14 UNL     1      -4.578  -2.164   1.289  1.00  0.00     0.108 A   
ATOM     26  O2  UNL     1      -4.845  -4.352   1.835  1.00  0.00    -0.316 OA  
ATOM     27  O3  UNL     1      -5.518  -2.078   2.265  1.00  0.00    -0.316 OA  
ATOM     28  C17 UNL     1      -5.708  -3.471   2.591  1.00  0.00     0.337 C   
ENDBRANCH  19  20
ENDBRANCH  16  19
ENDBRANCH  15  16
BRANCH  15  29
ATOM     29  C18 UNL     1       1.537  -3.306   0.567  1.00  0.00     0.043 C   
ATOM     30  C19 UNL     1       2.309  -2.463   1.587  1.00  0.00     0.010 C   
ATOM     31  C22 UNL     1       1.057  -4.489   1.420  1.00  0.00     0.010 C   
ATOM     32  C20 UNL     1       3.072  -3.504   2.390  1.00  0.00     0.001 C   
ATOM     33  C21 UNL     1       2.117  -4.686   2.504  1.00  0.00     0.001 C   
ENDBRANCH  15  29
ENDBRANCH   3  15
TORSDOF 8
