REMARK SMILES CC(C)[C@H]([NH2+]Cc1ccc2c(c1)OCO2)c1cn([C@H](CO)c2cccnc2F)nn1
REMARK SMILES IDX 16 1 17 2 18 3 29 4 30 5 4 7 2 8 1 9 3 10 5 11 6 14 7 15
REMARK SMILES IDX 8 16 12 17 9 18 11 19 10 20 13 21 15 22 14 23 19 24 20 25
REMARK SMILES IDX 21 26 22 28 23 29 27 30 24 31 26 32 25 33 28 34
REMARK H PARENT 17 6 5 12 5 13 21 27
ROOT
ATOM     1   C13 UNL     1      -0.668   1.307   1.562  1.00  0.00     0.127 A   
ATOM     2   C14 UNL     1       0.034   0.651   2.547  1.00  0.00     0.046 A   
ATOM     3   N2  UNL     1      -0.924   0.290   3.456  1.00  0.00    -0.202 N   
ATOM     4   N4  UNL     1      -2.134   0.753   3.079  1.00  0.00    -0.075 NA  
ATOM     5   N5  UNL     1      -1.990   1.371   1.919  1.00  0.00    -0.132 NA  
ATOM     6   H18 UNL     1       1.074   0.375   2.662  1.00  0.00     0.083 HD  
ENDROOT
BRANCH   1   7
ATOM     7   C4  UNL     1      -0.233   1.807   0.227  1.00  0.00     0.117 C   
BRANCH   7   8
ATOM     8   C2  UNL     1       0.068   3.328   0.180  1.00  0.00     0.037 C   
ATOM     9   C1  UNL     1       1.268   3.688   1.065  1.00  0.00     0.014 C   
ATOM     10  C3  UNL     1      -1.122   4.226   0.537  1.00  0.00     0.014 C   
ENDBRANCH   7   8
BRANCH   7  11
ATOM     11  N1  UNL     1      -1.280   1.489  -0.822  1.00  0.00     0.249 N   
ATOM     12  H9  UNL     1      -1.049   1.959  -1.702  1.00  0.00     0.199 HD  
ATOM     13  H10 UNL     1      -2.166   1.885  -0.480  1.00  0.00     0.199 HD  
BRANCH  11  14
ATOM     14  C5  UNL     1      -1.539   0.038  -1.087  1.00  0.00     0.164 C   
BRANCH  14  15
ATOM     15  C6  UNL     1      -0.326  -0.716  -1.555  1.00  0.00    -0.002 A   
ATOM     16  C7  UNL     1       0.234  -1.729  -0.741  1.00  0.00     0.012 A   
ATOM     17  C11 UNL     1       0.272  -0.413  -2.791  1.00  0.00     0.045 A   
ATOM     18  C8  UNL     1       1.381  -2.423  -1.140  1.00  0.00     0.037 A   
ATOM     19  C10 UNL     1       1.403  -1.116  -3.153  1.00  0.00     0.109 A   
ATOM     20  C9  UNL     1       1.944  -2.091  -2.351  1.00  0.00     0.108 A   
ATOM     21  O1  UNL     1       2.104  -0.941  -4.304  1.00  0.00    -0.316 OA  
ATOM     22  O2  UNL     1       3.053  -2.654  -2.896  1.00  0.00    -0.316 OA  
ATOM     23  C12 UNL     1       3.134  -1.946  -4.152  1.00  0.00     0.337 C   
ENDBRANCH  14  15
ENDBRANCH  11  14
ENDBRANCH   7  11
ENDBRANCH   1   7
BRANCH   3  24
ATOM     24  C15 UNL     1      -0.800  -0.579   4.632  1.00  0.00     0.160 C   
BRANCH  24  25
ATOM     25  C16 UNL     1      -0.351   0.255   5.846  1.00  0.00     0.186 C   
BRANCH  25  26
ATOM     26  O3  UNL     1       0.945   0.825   5.659  1.00  0.00    -0.394 OA  
ATOM     27  H22 UNL     1       1.138   1.366   6.449  1.00  0.00     0.210 HD  
ENDBRANCH  25  26
ENDBRANCH  24  25
BRANCH  24  28
ATOM     28  C17 UNL     1      -0.002  -1.829   4.301  1.00  0.00     0.032 A   
ATOM     29  C18 UNL     1       1.176  -2.213   4.951  1.00  0.00     0.012 A   
ATOM     30  C21 UNL     1      -0.446  -2.667   3.276  1.00  0.00     0.218 A   
ATOM     31  C19 UNL     1       1.844  -3.370   4.554  1.00  0.00     0.021 A   
ATOM     32  N3  UNL     1       0.193  -3.775   2.852  1.00  0.00    -0.228 NA  
ATOM     33  C20 UNL     1       1.321  -4.111   3.509  1.00  0.00     0.114 A   
ATOM     34  F1  UNL     1      -1.567  -2.341   2.614  1.00  0.00    -0.185 F   
ENDBRANCH  24  28
ENDBRANCH   3  24
TORSDOF 9
