REMARK SMILES CC(C)[C@H]([NH2+]Cc1ccc2c(c1)OCO2)c1cn([C@@H](CO)c2cccnc2F)nn1
REMARK SMILES IDX 16 1 17 2 18 3 29 4 30 5 4 7 2 8 1 9 3 10 5 11 6 14 7 15
REMARK SMILES IDX 8 16 12 17 9 18 11 19 10 20 13 21 15 22 14 23 19 24 20 25
REMARK SMILES IDX 21 26 22 28 23 29 27 30 24 31 26 32 25 33 28 34
REMARK H PARENT 17 6 5 12 5 13 21 27
ROOT
ATOM     1   C13 UNL     1      -0.691  -0.311   1.563  1.00  0.00     0.127 A   
ATOM     2   C14 UNL     1      -2.036  -0.169   1.308  1.00  0.00     0.046 A   
ATOM     3   N2  UNL     1      -2.159   1.127   0.883  1.00  0.00    -0.202 N   
ATOM     4   N4  UNL     1      -0.968   1.758   0.928  1.00  0.00    -0.075 NA  
ATOM     5   N5  UNL     1      -0.062   0.887   1.338  1.00  0.00    -0.132 NA  
ATOM     6   H18 UNL     1      -2.875  -0.852   1.333  1.00  0.00     0.083 HD  
ENDROOT
BRANCH   1   7
ATOM     7   C4  UNL     1       0.116  -1.511   1.944  1.00  0.00     0.117 C   
BRANCH   7   8
ATOM     8   C2  UNL     1       0.205  -1.697   3.481  1.00  0.00     0.037 C   
ATOM     9   C1  UNL     1       1.036  -0.623   4.194  1.00  0.00     0.014 C   
ATOM     10  C3  UNL     1       0.735  -3.088   3.852  1.00  0.00     0.014 C   
ENDBRANCH   7   8
BRANCH   7  11
ATOM     11  N1  UNL     1       1.493  -1.425   1.343  1.00  0.00     0.249 N   
ATOM     12  H9  UNL     1       1.834  -0.466   1.511  1.00  0.00     0.199 HD  
ATOM     13  H10 UNL     1       2.156  -2.053   1.806  1.00  0.00     0.199 HD  
BRANCH  11  14
ATOM     14  C5  UNL     1       1.559  -1.656  -0.129  1.00  0.00     0.164 C   
BRANCH  14  15
ATOM     15  C6  UNL     1       2.975  -1.528  -0.613  1.00  0.00    -0.002 A   
ATOM     16  C7  UNL     1       3.810  -2.668  -0.701  1.00  0.00     0.012 A   
ATOM     17  C11 UNL     1       3.496  -0.261  -0.930  1.00  0.00     0.045 A   
ATOM     18  C8  UNL     1       5.144  -2.551  -1.107  1.00  0.00     0.037 A   
ATOM     19  C10 UNL     1       4.815  -0.181  -1.327  1.00  0.00     0.109 A   
ATOM     20  C9  UNL     1       5.616  -1.293  -1.412  1.00  0.00     0.108 A   
ATOM     21  O1  UNL     1       5.471   0.959  -1.667  1.00  0.00    -0.316 OA  
ATOM     22  O2  UNL     1       6.877  -0.994  -1.819  1.00  0.00    -0.316 OA  
ATOM     23  C12 UNL     1       6.777   0.435  -1.998  1.00  0.00     0.337 C   
ENDBRANCH  14  15
ENDBRANCH  11  14
ENDBRANCH   7  11
ENDBRANCH   1   7
BRANCH   3  24
ATOM     24  C15 UNL     1      -3.356   1.800   0.370  1.00  0.00     0.160 C   
BRANCH  24  25
ATOM     25  C16 UNL     1      -3.656   3.042   1.231  1.00  0.00     0.186 C   
BRANCH  25  26
ATOM     26  O3  UNL     1      -4.975   3.518   0.971  1.00  0.00    -0.394 OA  
ATOM     27  H22 UNL     1      -5.134   4.288   1.549  1.00  0.00     0.210 HD  
ENDBRANCH  25  26
ENDBRANCH  24  25
BRANCH  24  28
ATOM     28  C17 UNL     1      -3.227   2.013  -1.128  1.00  0.00     0.032 A   
ATOM     29  C18 UNL     1      -3.188   3.265  -1.752  1.00  0.00     0.012 A   
ATOM     30  C21 UNL     1      -3.139   0.901  -1.965  1.00  0.00     0.218 A   
ATOM     31  C19 UNL     1      -3.054   3.347  -3.137  1.00  0.00     0.021 A   
ATOM     32  N3  UNL     1      -2.991   0.948  -3.305  1.00  0.00    -0.228 NA  
ATOM     33  C20 UNL     1      -2.959   2.173  -3.863  1.00  0.00     0.114 A   
ATOM     34  F1  UNL     1      -3.188  -0.324  -1.417  1.00  0.00    -0.185 F   
ENDBRANCH  24  28
ENDBRANCH   3  24
TORSDOF 9
