REMARK SMILES COc1cccc(OC)c1Cn1cc([C@@H]([NH2+]Cc2ccc3c(c2)OCO3)C(C)C)nn1
REMARK SMILES IDX 12 1 13 2 14 3 30 4 31 5 11 7 10 8 3 9 4 10 5 11 7 12 6 13
REMARK SMILES IDX 2 14 1 15 8 16 9 17 15 18 16 19 17 22 18 23 19 24 23 25
REMARK SMILES IDX 20 26 22 27 21 28 24 29 26 30 25 31 27 32 28 33 29 34
REMARK H PARENT 13 6 16 20 16 21
ROOT
ATOM     1   N1  UNL     1       2.538   0.916   1.157  1.00  0.00    -0.208 N   
ATOM     2   C10 UNL     1       1.911  -0.257   0.829  1.00  0.00     0.046 A   
ATOM     3   C11 UNL     1       1.938  -0.277  -0.547  1.00  0.00     0.127 A   
ATOM     4   N3  UNL     1       2.592   0.837  -1.002  1.00  0.00    -0.132 NA  
ATOM     5   N4  UNL     1       2.962   1.554   0.046  1.00  0.00    -0.076 NA  
ATOM     6   H12 UNL     1       1.501  -0.920   1.577  1.00  0.00     0.083 HD  
ENDROOT
BRANCH   1   7
ATOM     7   C9  UNL     1       2.790   1.464   2.480  1.00  0.00     0.175 C   
BRANCH   7   8
ATOM     8   C8  UNL     1       1.499   1.829   3.180  1.00  0.00     0.032 A   
ATOM     9   C2  UNL     1       0.888   3.076   2.929  1.00  0.00     0.082 A   
ATOM     10  C3  UNL     1      -0.309   3.406   3.567  1.00  0.00     0.034 A   
ATOM     11  C4  UNL     1      -0.901   2.508   4.453  1.00  0.00     0.005 A   
ATOM     12  C6  UNL     1       0.890   0.926   4.077  1.00  0.00     0.082 A   
ATOM     13  C5  UNL     1      -0.308   1.273   4.706  1.00  0.00     0.034 A   
BRANCH   9  14
ATOM     14  O1  UNL     1       1.533   3.887   2.032  1.00  0.00    -0.349 OA  
ATOM     15  C1  UNL     1       1.105   5.242   1.946  1.00  0.00     0.203 C   
ENDBRANCH   9  14
BRANCH  12  16
ATOM     16  O2  UNL     1       1.529  -0.276   4.247  1.00  0.00    -0.349 OA  
ATOM     17  C7  UNL     1       1.111  -1.083   5.346  1.00  0.00     0.203 C   
ENDBRANCH  12  16
ENDBRANCH   7   8
ENDBRANCH   1   7
BRANCH   3  18
ATOM     18  C12 UNL     1       1.337  -1.233  -1.522  1.00  0.00     0.117 C   
BRANCH  18  19
ATOM     19  N2  UNL     1       0.867  -0.501  -2.759  1.00  0.00     0.249 N   
ATOM     20  H14 UNL     1       0.625  -1.161  -3.501  1.00  0.00     0.199 HD  
ATOM     21  H15 UNL     1       1.669   0.055  -3.085  1.00  0.00     0.199 HD  
BRANCH  19  22
ATOM     22  C13 UNL     1      -0.266   0.457  -2.566  1.00  0.00     0.164 C   
BRANCH  22  23
ATOM     23  C14 UNL     1      -1.536  -0.208  -2.117  1.00  0.00    -0.002 A   
ATOM     24  C15 UNL     1      -1.997  -0.036  -0.789  1.00  0.00     0.012 A   
ATOM     25  C19 UNL     1      -2.259  -1.030  -2.999  1.00  0.00     0.045 A   
ATOM     26  C16 UNL     1      -3.160  -0.672  -0.343  1.00  0.00     0.037 A   
ATOM     27  C18 UNL     1      -3.403  -1.641  -2.527  1.00  0.00     0.109 A   
ATOM     28  C17 UNL     1      -3.841  -1.468  -1.237  1.00  0.00     0.108 A   
ATOM     29  O3  UNL     1      -4.214  -2.460  -3.246  1.00  0.00    -0.316 OA  
ATOM     30  O4  UNL     1      -4.985  -2.154  -0.982  1.00  0.00    -0.316 OA  
ATOM     31  C20 UNL     1      -5.244  -2.748  -2.273  1.00  0.00     0.337 C   
ENDBRANCH  22  23
ENDBRANCH  19  22
ENDBRANCH  18  19
BRANCH  18  32
ATOM     32  C21 UNL     1       2.314  -2.375  -1.909  1.00  0.00     0.037 C   
ATOM     33  C22 UNL     1       1.590  -3.514  -2.637  1.00  0.00     0.014 C   
ATOM     34  C23 UNL     1       3.520  -1.919  -2.740  1.00  0.00     0.014 C   
ENDBRANCH  18  32
ENDBRANCH   3  18
TORSDOF 9
