REMARK SMILES Cc1ccc([C@@H](CO)n2cc([C@@H]([NH2+]Cc3ccc4c(c3)OCO4)C(C)(C)C)nn2)cc1F
REMARK SMILES IDX 9 1 10 2 11 3 28 4 29 5 6 7 5 8 2 9 3 10 31 11 4 12 30 13
REMARK SMILES IDX 1 14 32 15 7 16 8 17 12 19 13 20 14 23 15 24 16 25 20 26
REMARK SMILES IDX 17 27 19 28 18 29 21 30 23 31 22 32 24 33 25 34 26 35 27 36
REMARK H PARENT 10 6 8 18 13 21 13 22
ROOT
ATOM     1   N1  UNL     1       0.009   2.160  -1.472  1.00  0.00    -0.202 N   
ATOM     2   C8  UNL     1      -0.277   1.510  -0.301  1.00  0.00     0.046 A   
ATOM     3   C9  UNL     1       0.928   1.455   0.361  1.00  0.00     0.127 A   
ATOM     4   N3  UNL     1       1.886   2.075  -0.398  1.00  0.00    -0.132 NA  
ATOM     5   N4  UNL     1       1.317   2.497  -1.516  1.00  0.00    -0.075 NA  
ATOM     6   H10 UNL     1      -1.263   1.126  -0.080  1.00  0.00     0.083 HD  
ENDROOT
BRANCH   1   7
ATOM     7   C6  UNL     1      -0.844   2.348  -2.645  1.00  0.00     0.155 C   
BRANCH   7   8
ATOM     8   C5  UNL     1      -1.173   0.988  -3.254  1.00  0.00    -0.020 A   
ATOM     9   C2  UNL     1      -1.630  -1.591  -4.340  1.00  0.00    -0.015 A   
ATOM     10  C3  UNL     1      -0.499  -0.859  -4.709  1.00  0.00     0.007 A   
ATOM     11  C24 UNL     1      -2.531  -1.015  -3.445  1.00  0.00     0.126 A   
ATOM     12  C4  UNL     1      -0.269   0.409  -4.166  1.00  0.00     0.006 A   
ATOM     13  C23 UNL     1      -2.313   0.251  -2.904  1.00  0.00     0.045 A   
ATOM     14  C1  UNL     1      -1.907  -2.939  -4.933  1.00  0.00     0.047 C   
ATOM     15  F1  UNL     1      -3.627  -1.692  -3.074  1.00  0.00    -0.207 F   
ENDBRANCH   7   8
BRANCH   7  16
ATOM     16  C7  UNL     1      -2.025   3.300  -2.368  1.00  0.00     0.185 C   
BRANCH  16  17
ATOM     17  O1  UNL     1      -2.866   2.870  -1.298  1.00  0.00    -0.394 OA  
ATOM     18  H9  UNL     1      -3.603   3.509  -1.240  1.00  0.00     0.210 HD  
ENDBRANCH  16  17
ENDBRANCH   7  16
ENDBRANCH   1   7
BRANCH   3  19
ATOM     19  C10 UNL     1       1.302   0.746   1.624  1.00  0.00     0.120 C   
BRANCH  19  20
ATOM     20  N2  UNL     1       2.604  -0.009   1.421  1.00  0.00     0.250 N   
ATOM     21  H12 UNL     1       3.315   0.690   1.170  1.00  0.00     0.199 HD  
ATOM     22  H13 UNL     1       2.898  -0.454   2.292  1.00  0.00     0.199 HD  
BRANCH  20  23
ATOM     23  C11 UNL     1       2.620  -1.041   0.335  1.00  0.00     0.164 C   
BRANCH  23  24
ATOM     24  C12 UNL     1       1.567  -2.103   0.487  1.00  0.00    -0.002 A   
ATOM     25  C13 UNL     1       0.494  -2.174  -0.435  1.00  0.00     0.012 A   
ATOM     26  C17 UNL     1       1.624  -3.016   1.553  1.00  0.00     0.045 A   
ATOM     27  C14 UNL     1      -0.517  -3.130  -0.293  1.00  0.00     0.037 A   
ATOM     28  C16 UNL     1       0.611  -3.947   1.664  1.00  0.00     0.109 A   
ATOM     29  C15 UNL     1      -0.429  -4.002   0.769  1.00  0.00     0.108 A   
ATOM     30  O2  UNL     1       0.511  -4.891   2.636  1.00  0.00    -0.316 OA  
ATOM     31  O3  UNL     1      -1.315  -4.989   1.064  1.00  0.00    -0.316 OA  
ATOM     32  C18 UNL     1      -0.702  -5.570   2.235  1.00  0.00     0.337 C   
ENDBRANCH  23  24
ENDBRANCH  20  23
ENDBRANCH  19  20
BRANCH  19  33
ATOM     33  C19 UNL     1       1.399   1.681   2.882  1.00  0.00     0.010 C   
ATOM     34  C20 UNL     1       2.512   2.741   2.764  1.00  0.00     0.017 C   
ATOM     35  C21 UNL     1       0.054   2.413   3.095  1.00  0.00     0.017 C   
ATOM     36  C22 UNL     1       1.666   0.845   4.155  1.00  0.00     0.017 C   
ENDBRANCH  19  33
ENDBRANCH   3  19
TORSDOF 9
