REMARK SMILES Cc1ccc([C@H](CO)n2cc([C@@H]([NH2+]Cc3ccc4c(c3)OCO4)C(C)(C)C)nn2)cc1F
REMARK SMILES IDX 9 1 10 2 11 3 28 4 29 5 6 7 5 8 2 9 3 10 31 11 4 12 30 13
REMARK SMILES IDX 1 14 32 15 7 16 8 17 12 19 13 20 14 23 15 24 16 25 20 26
REMARK SMILES IDX 17 27 19 28 18 29 21 30 23 31 22 32 24 33 25 34 26 35 27 36
REMARK H PARENT 10 6 8 18 13 21 13 22
ROOT
ATOM     1   N1  UNL     1       1.853  -1.074  -1.369  1.00  0.00    -0.202 N   
ATOM     2   C8  UNL     1       1.089  -0.183  -0.662  1.00  0.00     0.046 A   
ATOM     3   C9  UNL     1       0.049  -0.940  -0.174  1.00  0.00     0.127 A   
ATOM     4   N3  UNL     1       0.178  -2.227  -0.633  1.00  0.00    -0.132 NA  
ATOM     5   N4  UNL     1       1.276  -2.295  -1.368  1.00  0.00    -0.075 NA  
ATOM     6   H10 UNL     1       1.361   0.860  -0.568  1.00  0.00     0.083 HD  
ENDROOT
BRANCH   1   7
ATOM     7   C6  UNL     1       3.130  -0.859  -2.049  1.00  0.00     0.155 C   
BRANCH   7   8
ATOM     8   C5  UNL     1       4.154  -0.270  -1.085  1.00  0.00    -0.020 A   
ATOM     9   C2  UNL     1       6.037   0.731   0.784  1.00  0.00    -0.015 A   
ATOM     10  C3  UNL     1       5.746  -0.634   0.737  1.00  0.00     0.007 A   
ATOM     11  C24 UNL     1       5.391   1.579  -0.115  1.00  0.00     0.126 A   
ATOM     12  C4  UNL     1       4.811  -1.127  -0.180  1.00  0.00     0.006 A   
ATOM     13  C23 UNL     1       4.460   1.097  -1.034  1.00  0.00     0.045 A   
ATOM     14  C1  UNL     1       7.059   1.273   1.737  1.00  0.00     0.047 C   
ATOM     15  F1  UNL     1       5.656   2.893  -0.102  1.00  0.00    -0.207 F   
ENDBRANCH   7   8
BRANCH   7  16
ATOM     16  C7  UNL     1       2.937  -0.138  -3.399  1.00  0.00     0.185 C   
BRANCH  16  17
ATOM     17  O1  UNL     1       2.254   1.111  -3.279  1.00  0.00    -0.394 OA  
ATOM     18  H9  UNL     1       2.301   1.544  -4.152  1.00  0.00     0.210 HD  
ENDBRANCH  16  17
ENDBRANCH   7  16
ENDBRANCH   1   7
BRANCH   3  19
ATOM     19  C10 UNL     1      -1.138  -0.566   0.659  1.00  0.00     0.120 C   
BRANCH  19  20
ATOM     20  N2  UNL     1      -2.315  -1.417   0.221  1.00  0.00     0.250 N   
ATOM     21  H12 UNL     1      -1.938  -2.368   0.091  1.00  0.00     0.199 HD  
ATOM     22  H13 UNL     1      -3.029  -1.477   0.948  1.00  0.00     0.199 HD  
BRANCH  20  23
ATOM     23  C11 UNL     1      -2.964  -1.018  -1.063  1.00  0.00     0.164 C   
BRANCH  23  24
ATOM     24  C12 UNL     1      -3.777   0.240  -0.927  1.00  0.00    -0.002 A   
ATOM     25  C13 UNL     1      -5.008   0.226  -0.226  1.00  0.00     0.012 A   
ATOM     26  C17 UNL     1      -3.302   1.449  -1.466  1.00  0.00     0.045 A   
ATOM     27  C14 UNL     1      -5.751   1.399  -0.055  1.00  0.00     0.037 A   
ATOM     28  C16 UNL     1      -4.058   2.587  -1.278  1.00  0.00     0.109 A   
ATOM     29  C15 UNL     1      -5.247   2.564  -0.591  1.00  0.00     0.108 A   
ATOM     30  O2  UNL     1      -3.739   3.830  -1.722  1.00  0.00    -0.316 OA  
ATOM     31  O3  UNL     1      -5.828   3.790  -0.517  1.00  0.00    -0.316 OA  
ATOM     32  C18 UNL     1      -4.878   4.590  -1.254  1.00  0.00     0.337 C   
ENDBRANCH  23  24
ENDBRANCH  20  23
ENDBRANCH  19  20
BRANCH  19  33
ATOM     33  C19 UNL     1      -0.909  -0.709   2.206  1.00  0.00     0.010 C   
ATOM     34  C20 UNL     1      -0.669  -2.168   2.640  1.00  0.00     0.017 C   
ATOM     35  C21 UNL     1       0.310   0.135   2.647  1.00  0.00     0.017 C   
ATOM     36  C22 UNL     1      -2.133  -0.164   2.980  1.00  0.00     0.017 C   
ENDBRANCH  19  33
ENDBRANCH   3  19
TORSDOF 9
