REMARK SMILES Cn1cc(Cn2cc([C@@H]([NH2+]Cc3ccc4c(c3)OCO4)C(C)(C)C)nn2)c2ccccc21
REMARK SMILES IDX 6 1 7 2 8 3 25 4 26 5 5 7 4 8 2 9 3 10 32 11 27 12 31 13
REMARK SMILES IDX 28 14 30 15 29 16 1 17 9 18 10 19 11 22 12 23 13 24 17 25
REMARK SMILES IDX 14 26 16 27 15 28 18 29 20 30 19 31 21 32 22 33 23 34 24 35
REMARK H PARENT 7 6 10 20 10 21
ROOT
ATOM     1   N2  UNL     1       0.997   2.584  -1.483  1.00  0.00    -0.208 N   
ATOM     2   C5  UNL     1       0.803   2.173  -0.191  1.00  0.00     0.046 A   
ATOM     3   C6  UNL     1       1.938   1.452   0.103  1.00  0.00     0.127 A   
ATOM     4   N4  UNL     1       2.790   1.494  -0.970  1.00  0.00    -0.132 NA  
ATOM     5   N5  UNL     1       2.207   2.192  -1.931  1.00  0.00    -0.076 NA  
ATOM     6   H7  UNL     1      -0.118   2.363   0.342  1.00  0.00     0.083 HD  
ENDROOT
BRANCH   1   7
ATOM     7   C4  UNL     1       0.044   3.235  -2.371  1.00  0.00     0.171 C   
BRANCH   7   8
ATOM     8   C3  UNL     1      -1.198   2.408  -2.487  1.00  0.00    -0.005 A   
ATOM     9   N1  UNL     1      -3.314   1.716  -2.316  1.00  0.00    -0.309 N   
ATOM     10  C2  UNL     1      -2.463   2.756  -2.050  1.00  0.00     0.081 A   
ATOM     11  C25 UNL     1      -2.627   0.675  -2.903  1.00  0.00     0.040 A   
ATOM     12  C20 UNL     1      -1.302   1.094  -3.051  1.00  0.00     0.002 A   
ATOM     13  C24 UNL     1      -3.062  -0.590  -3.329  1.00  0.00     0.024 A   
ATOM     14  C21 UNL     1      -0.380   0.216  -3.663  1.00  0.00     0.010 A   
ATOM     15  C23 UNL     1      -2.127  -1.441  -3.924  1.00  0.00     0.002 A   
ATOM     16  C22 UNL     1      -0.805  -1.045  -4.093  1.00  0.00     0.001 A   
ATOM     17  C1  UNL     1      -4.733   1.716  -2.031  1.00  0.00     0.136 C   
ENDBRANCH   7   8
ENDBRANCH   1   7
BRANCH   3  18
ATOM     18  C7  UNL     1       2.263   0.590   1.282  1.00  0.00     0.120 C   
BRANCH  18  19
ATOM     19  N3  UNL     1       2.858  -0.719   0.796  1.00  0.00     0.250 N   
ATOM     20  H9  UNL     1       3.188  -1.282   1.582  1.00  0.00     0.199 HD  
ATOM     21  H10 UNL     1       3.675  -0.472   0.224  1.00  0.00     0.199 HD  
BRANCH  19  22
ATOM     22  C8  UNL     1       1.978  -1.574  -0.065  1.00  0.00     0.164 C   
BRANCH  22  23
ATOM     23  C9  UNL     1       0.710  -2.008   0.615  1.00  0.00    -0.002 A   
ATOM     24  C10 UNL     1      -0.539  -1.516   0.166  1.00  0.00     0.012 A   
ATOM     25  C14 UNL     1       0.752  -2.887   1.711  1.00  0.00     0.045 A   
ATOM     26  C11 UNL     1      -1.730  -1.882   0.800  1.00  0.00     0.037 A   
ATOM     27  C13 UNL     1      -0.441  -3.227   2.315  1.00  0.00     0.109 A   
ATOM     28  C12 UNL     1      -1.647  -2.739   1.874  1.00  0.00     0.108 A   
ATOM     29  O1  UNL     1      -0.576  -4.055   3.384  1.00  0.00    -0.316 OA  
ATOM     30  O2  UNL     1      -2.692  -3.198   2.610  1.00  0.00    -0.316 OA  
ATOM     31  C15 UNL     1      -2.013  -4.061   3.547  1.00  0.00     0.337 C   
ENDBRANCH  22  23
ENDBRANCH  19  22
ENDBRANCH  18  19
BRANCH  18  32
ATOM     32  C16 UNL     1       3.211   1.268   2.334  1.00  0.00     0.010 C   
ATOM     33  C17 UNL     1       2.589   2.596   2.825  1.00  0.00     0.017 C   
ATOM     34  C18 UNL     1       3.373   0.360   3.575  1.00  0.00     0.017 C   
ATOM     35  C19 UNL     1       4.615   1.571   1.774  1.00  0.00     0.017 C   
ENDBRANCH  18  32
ENDBRANCH   3  18
TORSDOF 7
