REMARK SMILES CCn1ccnc1CCn1cc([C@H](CC(C)C)[NH2+]Cc2ccc3c(c2)OCO3)nn1
REMARK SMILES IDX 10 1 11 2 12 3 29 4 30 5 9 7 8 8 7 9 3 10 4 11 5 12 6 13
REMARK SMILES IDX 2 14 1 15 13 16 14 17 15 18 16 19 17 20 18 21 19 24 20 25
REMARK SMILES IDX 21 26 25 27 22 28 24 29 23 30 26 31 28 32 27 33
REMARK H PARENT 11 6 18 22 18 23
ROOT
ATOM     1   N3  UNL     1      -0.077  -2.056  -0.683  1.00  0.00    -0.212 N   
ATOM     2   C8  UNL     1      -0.174  -0.731  -0.370  1.00  0.00     0.045 A   
ATOM     3   C9  UNL     1      -0.545  -0.732   0.954  1.00  0.00     0.127 A   
ATOM     4   N5  UNL     1      -0.765  -2.024   1.360  1.00  0.00    -0.132 NA  
ATOM     5   N6  UNL     1      -0.495  -2.825   0.341  1.00  0.00    -0.076 NA  
ATOM     6   H12 UNL     1       0.104   0.047  -1.067  1.00  0.00     0.083 HD  
ENDROOT
BRANCH   1   7
ATOM     7   C7  UNL     1       0.401  -2.655  -1.912  1.00  0.00     0.142 C   
BRANCH   7   8
ATOM     8   C6  UNL     1       1.823  -3.199  -1.789  1.00  0.00     0.094 C   
BRANCH   8   9
ATOM     9   C5  UNL     1       2.855  -2.118  -1.685  1.00  0.00     0.102 A   
ATOM     10  N1  UNL     1       4.205  -2.357  -1.552  1.00  0.00    -0.294 N   
ATOM     11  C3  UNL     1       4.839  -1.145  -1.494  1.00  0.00     0.096 A   
ATOM     12  C4  UNL     1       3.842  -0.210  -1.607  1.00  0.00     0.128 A   
ATOM     13  N2  UNL     1       2.621  -0.818  -1.718  1.00  0.00    -0.244 NA  
BRANCH  10  14
ATOM     14  C2  UNL     1       4.871  -3.643  -1.471  1.00  0.00     0.108 C   
ATOM     15  C1  UNL     1       5.258  -4.179  -2.838  1.00  0.00     0.025 C   
ENDBRANCH  10  14
ENDBRANCH   8   9
ENDBRANCH   7   8
ENDBRANCH   1   7
BRANCH   3  16
ATOM     16  C10 UNL     1      -0.737   0.391   1.913  1.00  0.00     0.114 C   
BRANCH  16  17
ATOM     17  C11 UNL     1       0.506   0.628   2.796  1.00  0.00     0.064 C   
BRANCH  17  18
ATOM     18  C12 UNL     1       1.789   1.032   2.036  1.00  0.00    -0.012 C   
ATOM     19  C13 UNL     1       1.620   2.333   1.251  1.00  0.00     0.007 C   
ATOM     20  C14 UNL     1       2.951   1.173   3.024  1.00  0.00     0.007 C   
ENDBRANCH  17  18
ENDBRANCH  16  17
BRANCH  16  21
ATOM     21  N4  UNL     1      -1.885   0.072   2.852  1.00  0.00     0.249 N   
ATOM     22  H23 UNL     1      -1.705  -0.879   3.204  1.00  0.00     0.199 HD  
ATOM     23  H24 UNL     1      -1.869   0.705   3.656  1.00  0.00     0.199 HD  
BRANCH  21  24
ATOM     24  C15 UNL     1      -3.248   0.075   2.246  1.00  0.00     0.164 C   
BRANCH  24  25
ATOM     25  C16 UNL     1      -3.713   1.454   1.867  1.00  0.00    -0.002 A   
ATOM     26  C17 UNL     1      -3.755   1.845   0.507  1.00  0.00     0.012 A   
ATOM     27  C21 UNL     1      -4.080   2.375   2.863  1.00  0.00     0.045 A   
ATOM     28  C18 UNL     1      -4.151   3.137   0.142  1.00  0.00     0.037 A   
ATOM     29  C20 UNL     1      -4.466   3.639   2.469  1.00  0.00     0.109 A   
ATOM     30  C19 UNL     1      -4.499   4.011   1.148  1.00  0.00     0.108 A   
ATOM     31  O1  UNL     1      -4.848   4.643   3.301  1.00  0.00    -0.316 OA  
ATOM     32  O2  UNL     1      -4.905   5.296   0.981  1.00  0.00    -0.316 OA  
ATOM     33  C22 UNL     1      -5.153   5.688   2.348  1.00  0.00     0.337 C   
ENDBRANCH  24  25
ENDBRANCH  21  24
ENDBRANCH  16  21
ENDBRANCH   3  16
TORSDOF 10
