REMARK SMILES CCc1[nH]nc(C)c1Cn1cc([C@@H]([NH2+]Cc2ccc3c(c2)OCO3)C(C)(C)C)nn1
REMARK SMILES IDX 10 1 11 2 12 3 29 4 30 5 9 7 8 8 3 9 4 10 5 11 6 12 7 14
REMARK SMILES IDX 2 15 1 16 13 17 14 18 15 21 16 22 17 23 21 24 18 25 20 26
REMARK SMILES IDX 19 27 22 28 24 29 23 30 25 31 26 32 27 33 28 34
REMARK H PARENT 11 6 4 13 14 19 14 20
ROOT
ATOM     1   N3  UNL     1      -0.664   1.845  -1.320  1.00  0.00    -0.208 N   
ATOM     2   C8  UNL     1      -0.911   0.499  -1.339  1.00  0.00     0.046 A   
ATOM     3   C9  UNL     1      -1.918   0.333  -0.414  1.00  0.00     0.127 A   
ATOM     4   N5  UNL     1      -2.242   1.553   0.123  1.00  0.00    -0.132 NA  
ATOM     5   N6  UNL     1      -1.485   2.471  -0.454  1.00  0.00    -0.076 NA  
ATOM     6   H12 UNL     1      -0.356  -0.182  -1.969  1.00  0.00     0.083 HD  
ENDROOT
BRANCH   1   7
ATOM     7   C7  UNL     1       0.287   2.595  -2.123  1.00  0.00     0.173 C   
BRANCH   7   8
ATOM     8   C6  UNL     1       1.632   2.603  -1.484  1.00  0.00     0.013 A   
ATOM     9   C3  UNL     1       2.748   1.840  -1.797  1.00  0.00     0.031 A   
ATOM     10  N1  UNL     1       3.733   2.252  -0.940  1.00  0.00    -0.242 N   
ATOM     11  N2  UNL     1       3.340   3.205  -0.089  1.00  0.00    -0.189 NA  
ATOM     12  C4  UNL     1       2.062   3.431  -0.407  1.00  0.00     0.062 A   
ATOM     13  H6  UNL     1       4.693   1.923  -0.880  1.00  0.00     0.175 HD  
ATOM     14  C5  UNL     1       1.284   4.444   0.352  1.00  0.00     0.069 C   
BRANCH   9  15
ATOM     15  C2  UNL     1       3.003   0.784  -2.817  1.00  0.00     0.050 C   
ATOM     16  C1  UNL     1       3.004  -0.606  -2.200  1.00  0.00     0.010 C   
ENDBRANCH   9  15
ENDBRANCH   7   8
ENDBRANCH   1   7
BRANCH   3  17
ATOM     17  C10 UNL     1      -2.596  -0.896   0.108  1.00  0.00     0.120 C   
BRANCH  17  18
ATOM     18  N4  UNL     1      -2.811  -0.717   1.600  1.00  0.00     0.250 N   
ATOM     19  H14 UNL     1      -2.721   0.298   1.777  1.00  0.00     0.199 HD  
ATOM     20  H15 UNL     1      -3.770  -0.944   1.872  1.00  0.00     0.199 HD  
BRANCH  18  21
ATOM     21  C11 UNL     1      -1.862  -1.433   2.494  1.00  0.00     0.164 C   
BRANCH  21  22
ATOM     22  C12 UNL     1      -0.445  -0.944   2.395  1.00  0.00    -0.002 A   
ATOM     23  C13 UNL     1       0.539  -1.715   1.730  1.00  0.00     0.012 A   
ATOM     24  C17 UNL     1      -0.085   0.293   2.960  1.00  0.00     0.045 A   
ATOM     25  C14 UNL     1       1.861  -1.266   1.631  1.00  0.00     0.037 A   
ATOM     26  C16 UNL     1       1.229   0.700   2.855  1.00  0.00     0.109 A   
ATOM     27  C15 UNL     1       2.175  -0.056   2.209  1.00  0.00     0.108 A   
ATOM     28  O1  UNL     1       1.743   1.845   3.374  1.00  0.00    -0.316 OA  
ATOM     29  O2  UNL     1       3.406   0.518   2.236  1.00  0.00    -0.316 OA  
ATOM     30  C18 UNL     1       3.138   1.702   3.021  1.00  0.00     0.337 C   
ENDBRANCH  21  22
ENDBRANCH  18  21
ENDBRANCH  17  18
BRANCH  17  31
ATOM     31  C19 UNL     1      -3.945  -1.246  -0.609  1.00  0.00     0.010 C   
ATOM     32  C20 UNL     1      -4.505  -2.580  -0.063  1.00  0.00     0.017 C   
ATOM     33  C21 UNL     1      -3.703  -1.446  -2.123  1.00  0.00     0.017 C   
ATOM     34  C22 UNL     1      -5.020  -0.155  -0.434  1.00  0.00     0.017 C   
ENDBRANCH  17  31
ENDBRANCH   3  17
TORSDOF 8
