REMARK SMILES COc1cc(-n2cc([C@@H]([NH2+]Cc3ccc4c(c3)OCO4)C3CCCC3)nn2)ccc1N
REMARK SMILES IDX 6 1 7 2 8 3 26 4 27 5 5 6 3 7 4 8 30 9 29 10 28 11 2 12 1 13
REMARK SMILES IDX 31 14 9 17 10 18 11 21 12 22 13 23 17 24 14 25 16 26 15 27
REMARK SMILES IDX 18 28 20 29 19 30 21 31 22 32 25 33 23 34 24 35
REMARK H PARENT 31 15 31 16 10 19 10 20
ROOT
ATOM     1   N1  UNL     1      -1.005  -2.143   0.523  1.00  0.00    -0.181 N   
ATOM     2   C5  UNL     1      -0.309  -1.290  -0.314  1.00  0.00     0.135 A   
ATOM     3   C6  UNL     1       0.413  -0.473   0.528  1.00  0.00     0.127 A   
ATOM     4   N3  UNL     1       0.141  -0.812   1.822  1.00  0.00    -0.131 NA  
ATOM     5   N4  UNL     1      -0.728  -1.810   1.810  1.00  0.00    -0.071 NA  
ENDROOT
BRANCH   1   6
ATOM     6   C4  UNL     1      -1.893  -3.194   0.190  1.00  0.00     0.060 A   
ATOM     7   C2  UNL     1      -3.033  -4.569  -1.433  1.00  0.00     0.097 A   
ATOM     8   C3  UNL     1      -2.156  -3.520  -1.144  1.00  0.00     0.061 A   
ATOM     9   C23 UNL     1      -3.720  -5.256  -0.423  1.00  0.00     0.054 A   
ATOM     10  C22 UNL     1      -3.404  -4.961   0.903  1.00  0.00     0.028 A   
ATOM     11  C21 UNL     1      -2.510  -3.929   1.213  1.00  0.00     0.028 A   
BRANCH   7  12
ATOM     12  O1  UNL     1      -3.283  -4.876  -2.750  1.00  0.00    -0.347 OA  
ATOM     13  C1  UNL     1      -2.304  -5.805  -3.222  1.00  0.00     0.203 C   
ENDBRANCH   7  12
BRANCH   9  14
ATOM     14  N5  UNL     1      -4.530  -6.361  -0.727  1.00  0.00    -0.356 N   
ATOM     15  H27 UNL     1      -4.909  -6.298  -1.670  1.00  0.00     0.143 HD  
ATOM     16  H28 UNL     1      -5.250  -6.550  -0.036  1.00  0.00     0.143 HD  
ENDBRANCH   9  14
ENDBRANCH   1   6
BRANCH   3  17
ATOM     17  C7  UNL     1       1.337   0.668   0.243  1.00  0.00     0.117 C   
BRANCH  17  18
ATOM     18  N2  UNL     1       1.220   1.711   1.328  1.00  0.00     0.249 N   
ATOM     19  H7  UNL     1       1.985   2.390   1.284  1.00  0.00     0.199 HD  
ATOM     20  H8  UNL     1       1.317   1.225   2.232  1.00  0.00     0.199 HD  
BRANCH  18  21
ATOM     21  C8  UNL     1      -0.070   2.458   1.364  1.00  0.00     0.164 C   
BRANCH  21  22
ATOM     22  C9  UNL     1      -0.041   3.497   2.450  1.00  0.00    -0.002 A   
ATOM     23  C10 UNL     1      -0.451   3.166   3.763  1.00  0.00     0.012 A   
ATOM     24  C14 UNL     1       0.448   4.787   2.182  1.00  0.00     0.045 A   
ATOM     25  C11 UNL     1      -0.387   4.108   4.796  1.00  0.00     0.037 A   
ATOM     26  C13 UNL     1       0.498   5.691   3.222  1.00  0.00     0.109 A   
ATOM     27  C12 UNL     1       0.092   5.363   4.492  1.00  0.00     0.108 A   
ATOM     28  O2  UNL     1       0.939   6.974   3.134  1.00  0.00    -0.316 OA  
ATOM     29  O3  UNL     1       0.226   6.397   5.363  1.00  0.00    -0.316 OA  
ATOM     30  C15 UNL     1       0.742   7.428   4.492  1.00  0.00     0.337 C   
ENDBRANCH  21  22
ENDBRANCH  18  21
ENDBRANCH  17  18
BRANCH  17  31
ATOM     31  C16 UNL     1       2.810   0.215   0.164  1.00  0.00     0.043 C   
ATOM     32  C17 UNL     1       3.083  -0.784  -0.965  1.00  0.00     0.010 C   
ATOM     33  C20 UNL     1       3.799   1.346  -0.154  1.00  0.00     0.010 C   
ATOM     34  C18 UNL     1       4.598  -0.765  -1.089  1.00  0.00     0.001 C   
ATOM     35  C19 UNL     1       4.990   0.687  -0.851  1.00  0.00     0.001 C   
ENDBRANCH  17  31
ENDBRANCH   3  17
TORSDOF 8
