REMARK SMILES CC(C)(C)[C@H]([NH2+]Cc1ccc2c(c1)OCO2)c1cn(CC(=O)c2cccc(Cl)c2)nn1
REMARK SMILES IDX 17 1 18 2 19 3 30 4 31 5 5 7 2 8 1 9 3 10 4 11 6 12 7 15
REMARK SMILES IDX 8 16 9 17 13 18 10 19 12 20 11 21 14 22 16 23 15 24 20 25
REMARK SMILES IDX 21 26 22 27 23 28 24 29 29 30 25 31 27 32 26 33 28 34
REMARK H PARENT 18 6 6 13 6 14
ROOT
ATOM     1   C14 UNL     1      -0.115   1.632   0.699  1.00  0.00     0.127 A   
ATOM     2   C15 UNL     1      -0.802   0.531   0.238  1.00  0.00     0.046 A   
ATOM     3   N2  UNL     1      -0.872   0.730  -1.111  1.00  0.00    -0.204 N   
ATOM     4   N3  UNL     1      -0.330   1.913  -1.454  1.00  0.00    -0.076 NA  
ATOM     5   N4  UNL     1       0.146   2.472  -0.353  1.00  0.00    -0.132 NA  
ATOM     6   H20 UNL     1      -1.158  -0.374   0.712  1.00  0.00     0.083 HD  
ENDROOT
BRANCH   1   7
ATOM     7   C5  UNL     1       0.459   1.929   2.049  1.00  0.00     0.120 C   
BRANCH   7   8
ATOM     8   C2  UNL     1      -0.385   2.940   2.901  1.00  0.00     0.010 C   
ATOM     9   C1  UNL     1       0.208   3.067   4.324  1.00  0.00     0.017 C   
ATOM     10  C3  UNL     1      -1.831   2.415   3.061  1.00  0.00     0.017 C   
ATOM     11  C4  UNL     1      -0.448   4.349   2.280  1.00  0.00     0.017 C   
ENDBRANCH   7   8
BRANCH   7  12
ATOM     12  N1  UNL     1       1.881   2.431   1.882  1.00  0.00     0.250 N   
ATOM     13  H11 UNL     1       1.833   3.233   1.239  1.00  0.00     0.199 HD  
ATOM     14  H12 UNL     1       2.257   2.767   2.770  1.00  0.00     0.199 HD  
BRANCH  12  15
ATOM     15  C6  UNL     1       2.860   1.466   1.286  1.00  0.00     0.164 C   
BRANCH  15  16
ATOM     16  C7  UNL     1       3.047   0.223   2.109  1.00  0.00    -0.002 A   
ATOM     17  C8  UNL     1       2.588  -1.026   1.623  1.00  0.00     0.012 A   
ATOM     18  C12 UNL     1       3.655   0.291   3.375  1.00  0.00     0.045 A   
ATOM     19  C9  UNL     1       2.720  -2.189   2.389  1.00  0.00     0.037 A   
ATOM     20  C11 UNL     1       3.769  -0.875   4.104  1.00  0.00     0.109 A   
ATOM     21  C10 UNL     1       3.313  -2.080   3.626  1.00  0.00     0.108 A   
ATOM     22  O1  UNL     1       4.320  -0.981   5.341  1.00  0.00    -0.316 OA  
ATOM     23  O2  UNL     1       3.522  -3.096   4.503  1.00  0.00    -0.316 OA  
ATOM     24  C13 UNL     1       4.190  -2.402   5.578  1.00  0.00     0.337 C   
ENDBRANCH  15  16
ENDBRANCH  12  15
ENDBRANCH   7  12
ENDBRANCH   1   7
BRANCH   3  25
ATOM     25  C16 UNL     1      -1.367  -0.177  -2.129  1.00  0.00     0.214 C   
BRANCH  25  26
ATOM     26  C17 UNL     1      -0.374  -1.288  -2.399  1.00  0.00     0.182 C   
ATOM     27  O3  UNL     1       0.576  -1.521  -1.649  1.00  0.00    -0.292 OA  
BRANCH  26  28
ATOM     28  C18 UNL     1      -0.576  -2.150  -3.603  1.00  0.00     0.021 A   
ATOM     29  C19 UNL     1       0.433  -3.064  -3.944  1.00  0.00     0.012 A   
ATOM     30  C23 UNL     1      -1.734  -2.082  -4.387  1.00  0.00     0.032 A   
ATOM     31  C20 UNL     1       0.291  -3.894  -5.059  1.00  0.00     0.002 A   
ATOM     32  C22 UNL     1      -1.866  -2.917  -5.499  1.00  0.00     0.041 A   
ATOM     33  C21 UNL     1      -0.861  -3.820  -5.839  1.00  0.00     0.020 A   
ATOM     34  CL1 UNL     1      -3.292  -2.827  -6.458  1.00  0.00    -0.084 Cl  
ENDBRANCH  26  28
ENDBRANCH  25  26
ENDBRANCH   3  25
TORSDOF 8
