REMARK SMILES Cn1nc2c(c1CCn1cc([C@@H]([NH2+]Cc3ccc4c(c3)OCO4)C(C)(C)C)nn1)CCC2
REMARK SMILES IDX 9 1 10 2 11 3 28 4 29 5 8 7 7 8 6 9 2 10 3 11 4 12 5 13
REMARK SMILES IDX 32 14 30 15 31 16 1 17 12 18 13 19 14 22 15 23 16 24 20 25
REMARK SMILES IDX 17 26 19 27 18 28 21 29 23 30 22 31 24 32 25 33 26 34 27 35
REMARK H PARENT 10 6 13 20 13 21
ROOT
ATOM     1   N3  UNL     1       1.337   0.753  -3.225  1.00  0.00    -0.212 N   
ATOM     2   C7  UNL     1       1.811   0.382  -1.994  1.00  0.00     0.045 A   
ATOM     3   C8  UNL     1       1.721   1.534  -1.241  1.00  0.00     0.127 A   
ATOM     4   N5  UNL     1       1.325   2.563  -2.058  1.00  0.00    -0.132 NA  
ATOM     5   N6  UNL     1       1.106   2.075  -3.270  1.00  0.00    -0.076 NA  
ATOM     6   H8  UNL     1       2.025  -0.649  -1.753  1.00  0.00     0.083 HD  
ENDROOT
BRANCH   1   7
ATOM     7   C6  UNL     1       0.799  -0.129  -4.246  1.00  0.00     0.140 C   
BRANCH   7   8
ATOM     8   C5  UNL     1      -0.725  -0.328  -4.119  1.00  0.00     0.075 C   
BRANCH   8   9
ATOM     9   C4  UNL     1      -1.126  -0.626  -2.707  1.00  0.00     0.034 A   
ATOM     10  N1  UNL     1      -1.528   0.330  -1.783  1.00  0.00    -0.232 N   
ATOM     11  N2  UNL     1      -1.363  -0.099  -0.487  1.00  0.00    -0.186 NA  
ATOM     12  C2  UNL     1      -1.289  -1.416  -0.658  1.00  0.00     0.064 A   
ATOM     13  C3  UNL     1      -1.104  -1.791  -1.986  1.00  0.00    -0.006 A   
ATOM     14  C24 UNL     1      -1.191  -2.550   0.281  1.00  0.00     0.058 C   
ATOM     15  C22 UNL     1      -0.843  -3.236  -2.123  1.00  0.00     0.039 C   
ATOM     16  C23 UNL     1      -0.569  -3.655  -0.637  1.00  0.00     0.011 C   
ATOM     17  C1  UNL     1      -1.985   1.684  -2.011  1.00  0.00     0.159 C   
ENDBRANCH   8   9
ENDBRANCH   7   8
ENDBRANCH   1   7
BRANCH   3  18
ATOM     18  C9  UNL     1       1.854   1.764   0.237  1.00  0.00     0.120 C   
BRANCH  18  19
ATOM     19  N4  UNL     1       0.820   0.960   0.994  1.00  0.00     0.250 N   
ATOM     20  H10 UNL     1       1.217   0.115   1.408  1.00  0.00     0.199 HD  
ATOM     21  H11 UNL     1       0.108   0.587   0.324  1.00  0.00     0.199 HD  
BRANCH  19  22
ATOM     22  C10 UNL     1       0.013   1.698   2.005  1.00  0.00     0.164 C   
BRANCH  22  23
ATOM     23  C11 UNL     1      -0.687   0.758   2.950  1.00  0.00    -0.002 A   
ATOM     24  C12 UNL     1      -0.009   0.246   4.083  1.00  0.00     0.012 A   
ATOM     25  C16 UNL     1      -2.006   0.347   2.695  1.00  0.00     0.045 A   
ATOM     26  C13 UNL     1      -0.633  -0.662   4.947  1.00  0.00     0.037 A   
ATOM     27  C15 UNL     1      -2.592  -0.550   3.564  1.00  0.00     0.109 A   
ATOM     28  C14 UNL     1      -1.924  -1.041   4.658  1.00  0.00     0.108 A   
ATOM     29  O1  UNL     1      -3.850  -1.051   3.456  1.00  0.00    -0.316 OA  
ATOM     30  O2  UNL     1      -2.678  -1.911   5.378  1.00  0.00    -0.316 OA  
ATOM     31  C17 UNL     1      -3.913  -1.889   4.632  1.00  0.00     0.337 C   
ENDBRANCH  22  23
ENDBRANCH  19  22
ENDBRANCH  18  19
BRANCH  18  32
ATOM     32  C18 UNL     1       3.306   1.547   0.801  1.00  0.00     0.010 C   
ATOM     33  C19 UNL     1       3.812   0.095   0.678  1.00  0.00     0.017 C   
ATOM     34  C20 UNL     1       4.295   2.465   0.043  1.00  0.00     0.017 C   
ATOM     35  C21 UNL     1       3.383   1.941   2.291  1.00  0.00     0.017 C   
ENDBRANCH  18  32
ENDBRANCH   3  18
TORSDOF 8
