REMARK SMILES c1c[nH]c(Cn2cc([C@@H]([NH2+]Cc3ccc4c(c3)OCO4)C3CCCC3)nn2)c1
REMARK SMILES IDX 6 1 7 2 8 3 26 4 27 5 5 7 4 8 1 9 2 10 28 11 3 12 9 14 10 15
REMARK SMILES IDX 11 18 12 19 13 20 17 21 14 22 16 23 15 24 18 25 20 26 19 27
REMARK SMILES IDX 21 28 22 29 25 30 23 31 24 32
REMARK H PARENT 7 6 3 13 10 16 10 17
ROOT
ATOM     1   N2  UNL     1      -1.693   1.343  -1.342  1.00  0.00    -0.206 N   
ATOM     2   C5  UNL     1      -0.486   1.037  -1.909  1.00  0.00     0.046 A   
ATOM     3   C6  UNL     1       0.276   0.590  -0.852  1.00  0.00     0.127 A   
ATOM     4   N4  UNL     1      -0.455   0.705   0.305  1.00  0.00    -0.132 NA  
ATOM     5   N5  UNL     1      -1.653   1.171  -0.006  1.00  0.00    -0.076 NA  
ATOM     6   H6  UNL     1      -0.314   1.121  -2.972  1.00  0.00     0.083 HD  
ENDROOT
BRANCH   1   7
ATOM     7   C4  UNL     1      -2.917   1.769  -2.005  1.00  0.00     0.185 C   
BRANCH   7   8
ATOM     8   C3  UNL     1      -3.585   0.602  -2.650  1.00  0.00     0.026 A   
ATOM     9   C1  UNL     1      -4.400  -0.978  -4.041  1.00  0.00     0.017 A   
ATOM     10  C2  UNL     1      -4.777  -1.294  -2.756  1.00  0.00     0.071 A   
ATOM     11  C21 UNL     1      -3.652   0.221  -3.977  1.00  0.00     0.022 A   
ATOM     12  N1  UNL     1      -4.291  -0.327  -1.918  1.00  0.00    -0.323 N   
ATOM     13  H3  UNL     1      -4.427  -0.310  -0.913  1.00  0.00     0.152 HD  
ENDBRANCH   7   8
ENDBRANCH   1   7
BRANCH   3  14
ATOM     14  C7  UNL     1       1.678   0.073  -0.789  1.00  0.00     0.117 C   
BRANCH  14  15
ATOM     15  N3  UNL     1       2.268   0.345   0.575  1.00  0.00     0.249 N   
ATOM     16  H8  UNL     1       3.084  -0.250   0.755  1.00  0.00     0.199 HD  
ATOM     17  H9  UNL     1       1.555   0.075   1.270  1.00  0.00     0.199 HD  
BRANCH  15  18
ATOM     18  C8  UNL     1       2.635   1.763   0.839  1.00  0.00     0.164 C   
BRANCH  18  19
ATOM     19  C9  UNL     1       3.171   1.913   2.234  1.00  0.00    -0.002 A   
ATOM     20  C10 UNL     1       4.558   1.782   2.490  1.00  0.00     0.012 A   
ATOM     21  C14 UNL     1       2.285   2.126   3.305  1.00  0.00     0.045 A   
ATOM     22  C11 UNL     1       5.059   1.867   3.793  1.00  0.00     0.037 A   
ATOM     23  C13 UNL     1       2.813   2.208   4.577  1.00  0.00     0.109 A   
ATOM     24  C12 UNL     1       4.160   2.078   4.815  1.00  0.00     0.108 A   
ATOM     25  O1  UNL     1       2.101   2.413   5.716  1.00  0.00    -0.316 OA  
ATOM     26  O2  UNL     1       4.466   2.183   6.134  1.00  0.00    -0.316 OA  
ATOM     27  C15 UNL     1       3.156   2.408   6.704  1.00  0.00     0.337 C   
ENDBRANCH  18  19
ENDBRANCH  15  18
ENDBRANCH  14  15
BRANCH  14  28
ATOM     28  C16 UNL     1       1.811  -1.441  -1.060  1.00  0.00     0.043 C   
ATOM     29  C17 UNL     1       1.013  -2.363  -0.123  1.00  0.00     0.010 C   
ATOM     30  C20 UNL     1       1.428  -1.879  -2.487  1.00  0.00     0.010 C   
ATOM     31  C18 UNL     1       0.816  -3.628  -0.945  1.00  0.00     0.001 C   
ATOM     32  C19 UNL     1       0.504  -3.084  -2.329  1.00  0.00     0.001 C   
ENDBRANCH  14  28
ENDBRANCH   3  14
TORSDOF 7
