REMARK SMILES CN(C)Cc1cccc(Cn2cc([C@@H]([NH2+]Cc3ccc4c(c3)OCO4)C3CCCC3)nn2)c1
REMARK SMILES IDX 11 1 12 2 13 3 31 4 32 5 10 7 9 8 5 9 6 10 33 11 7 12 8 13
REMARK SMILES IDX 4 14 2 15 1 16 3 17 14 18 15 19 16 22 17 23 18 24 22 25
REMARK SMILES IDX 19 26 21 27 20 28 23 29 25 30 24 31 26 32 27 33 30 34 28 35
REMARK SMILES IDX 29 36
REMARK H PARENT 12 6 15 20 15 21
ROOT
ATOM     1   N2  UNL     1       1.806   2.184  -2.058  1.00  0.00    -0.208 N   
ATOM     2   C10 UNL     1       1.158   2.559  -0.911  1.00  0.00     0.046 A   
ATOM     3   C11 UNL     1       1.647   1.696   0.041  1.00  0.00     0.127 A   
ATOM     4   N4  UNL     1       2.605   0.894  -0.523  1.00  0.00    -0.132 NA  
ATOM     5   N5  UNL     1       2.694   1.200  -1.807  1.00  0.00    -0.076 NA  
ATOM     6   H14 UNL     1       0.380   3.311  -0.909  1.00  0.00     0.083 HD  
ENDROOT
BRANCH   1   7
ATOM     7   C9  UNL     1       1.488   2.564  -3.427  1.00  0.00     0.169 C   
BRANCH   7   8
ATOM     8   C8  UNL     1       0.073   2.159  -3.775  1.00  0.00    -0.028 A   
ATOM     9   C4  UNL     1      -1.682   0.455  -3.846  1.00  0.00    -0.034 A   
ATOM     10  C5  UNL     1      -2.575   1.415  -4.337  1.00  0.00     0.005 A   
ATOM     11  C26 UNL     1      -0.358   0.832  -3.587  1.00  0.00     0.010 A   
ATOM     12  C6  UNL     1      -2.152   2.727  -4.556  1.00  0.00     0.001 A   
ATOM     13  C7  UNL     1      -0.836   3.100  -4.277  1.00  0.00     0.005 A   
BRANCH   9  14
ATOM     14  C3  UNL     1      -2.126  -0.971  -3.594  1.00  0.00     0.119 C   
BRANCH  14  15
ATOM     15  N1  UNL     1      -2.214  -1.306  -2.151  1.00  0.00    -0.305 NA  
ATOM     16  C1  UNL     1      -3.392  -0.660  -1.549  1.00  0.00     0.105 C   
ATOM     17  C2  UNL     1      -2.355  -2.765  -2.020  1.00  0.00     0.105 C   
ENDBRANCH  14  15
ENDBRANCH   9  14
ENDBRANCH   7   8
ENDBRANCH   1   7
BRANCH   3  18
ATOM     18  C12 UNL     1       1.216   1.446   1.447  1.00  0.00     0.117 C   
BRANCH  18  19
ATOM     19  N3  UNL     1       1.075  -0.034   1.667  1.00  0.00     0.249 N   
ATOM     20  H16 UNL     1       1.913  -0.477   1.260  1.00  0.00     0.199 HD  
ATOM     21  H17 UNL     1       1.078  -0.274   2.662  1.00  0.00     0.199 HD  
BRANCH  19  22
ATOM     22  C13 UNL     1      -0.104  -0.678   1.010  1.00  0.00     0.164 C   
BRANCH  22  23
ATOM     23  C14 UNL     1      -0.146  -2.137   1.372  1.00  0.00    -0.002 A   
ATOM     24  C15 UNL     1       0.382  -3.105   0.483  1.00  0.00     0.012 A   
ATOM     25  C19 UNL     1      -0.641  -2.541   2.624  1.00  0.00     0.045 A   
ATOM     26  C16 UNL     1       0.419  -4.457   0.835  1.00  0.00     0.037 A   
ATOM     27  C18 UNL     1      -0.577  -3.881   2.946  1.00  0.00     0.109 A   
ATOM     28  C17 UNL     1      -0.064  -4.811   2.075  1.00  0.00     0.108 A   
ATOM     29  O1  UNL     1      -0.979  -4.435   4.122  1.00  0.00    -0.316 OA  
ATOM     30  O2  UNL     1      -0.083  -6.067   2.590  1.00  0.00    -0.316 OA  
ATOM     31  C20 UNL     1      -0.653  -5.827   3.895  1.00  0.00     0.337 C   
ENDBRANCH  22  23
ENDBRANCH  19  22
ENDBRANCH  18  19
BRANCH  18  32
ATOM     32  C21 UNL     1       2.188   2.071   2.467  1.00  0.00     0.043 C   
ATOM     33  C22 UNL     1       3.578   1.431   2.580  1.00  0.00     0.010 C   
ATOM     34  C25 UNL     1       1.687   2.055   3.914  1.00  0.00     0.010 C   
ATOM     35  C23 UNL     1       4.088   1.796   3.976  1.00  0.00     0.001 C   
ATOM     36  C24 UNL     1       2.924   2.466   4.700  1.00  0.00     0.001 C   
ENDBRANCH  18  32
ENDBRANCH   3  18
TORSDOF 9
