REMARK SMILES CC(C)[C@H]([NH2+]Cc1ccc2c(c1)OCO2)c1cn(-c2cccc(S(N)(=O)=O)c2)nn1
REMARK SMILES IDX 16 1 17 2 18 3 29 4 30 5 4 6 2 7 1 8 3 9 5 10 6 13 7 14 8 15
REMARK SMILES IDX 12 16 9 17 11 18 10 19 13 20 15 21 14 22 19 23 20 24 28 25
REMARK SMILES IDX 21 26 23 27 22 28 24 29 26 30 27 31 25 32
REMARK H PARENT 5 11 5 12 25 33 25 34
ROOT
ATOM     1   C13 UNL     1      -1.024  -1.473   0.746  1.00  0.00     0.127 A   
ATOM     2   C14 UNL     1      -1.304  -1.028  -0.527  1.00  0.00     0.135 A   
ATOM     3   N2  UNL     1      -1.598   0.314  -0.378  1.00  0.00    -0.180 N   
ATOM     4   N4  UNL     1      -1.577   0.622   0.945  1.00  0.00    -0.071 NA  
ATOM     5   N5  UNL     1      -1.197  -0.444   1.628  1.00  0.00    -0.131 NA  
ENDROOT
BRANCH   1   6
ATOM     6   C4  UNL     1      -0.465  -2.772   1.233  1.00  0.00     0.117 C   
BRANCH   6   7
ATOM     7   C2  UNL     1      -1.492  -3.675   1.962  1.00  0.00     0.037 C   
ATOM     8   C1  UNL     1      -2.600  -4.139   1.010  1.00  0.00     0.014 C   
ATOM     9   C3  UNL     1      -2.116  -3.051   3.216  1.00  0.00     0.014 C   
ENDBRANCH   6   7
BRANCH   6  10
ATOM     10  N1  UNL     1       0.698  -2.494   2.169  1.00  0.00     0.249 N   
ATOM     11  H9  UNL     1       0.726  -3.189   2.921  1.00  0.00     0.199 HD  
ATOM     12  H10 UNL     1       0.490  -1.591   2.624  1.00  0.00     0.199 HD  
BRANCH  10  13
ATOM     13  C5  UNL     1       2.055  -2.409   1.546  1.00  0.00     0.164 C   
BRANCH  13  14
ATOM     14  C6  UNL     1       2.176  -1.379   0.458  1.00  0.00    -0.002 A   
ATOM     15  C7  UNL     1       2.173   0.003   0.770  1.00  0.00     0.012 A   
ATOM     16  C11 UNL     1       2.234  -1.780  -0.889  1.00  0.00     0.045 A   
ATOM     17  C8  UNL     1       2.201   0.970  -0.242  1.00  0.00     0.037 A   
ATOM     18  C10 UNL     1       2.256  -0.801  -1.861  1.00  0.00     0.109 A   
ATOM     19  C9  UNL     1       2.236   0.535  -1.548  1.00  0.00     0.108 A   
ATOM     20  O1  UNL     1       2.276  -1.021  -3.201  1.00  0.00    -0.316 OA  
ATOM     21  O2  UNL     1       2.240   1.325  -2.653  1.00  0.00    -0.316 OA  
ATOM     22  C12 UNL     1       2.321   0.335  -3.702  1.00  0.00     0.337 C   
ENDBRANCH  13  14
ENDBRANCH  10  13
ENDBRANCH   6  10
ENDBRANCH   1   6
BRANCH   3  23
ATOM     23  C15 UNL     1      -1.829   1.294  -1.375  1.00  0.00     0.070 A   
ATOM     24  C16 UNL     1      -2.139   2.610  -0.995  1.00  0.00     0.027 A   
ATOM     25  C20 UNL     1      -1.713   0.976  -2.734  1.00  0.00     0.163 A   
ATOM     26  C17 UNL     1      -2.326   3.601  -1.964  1.00  0.00     0.015 A   
ATOM     27  C19 UNL     1      -1.899   1.980  -3.694  1.00  0.00     0.340 A   
ATOM     28  C18 UNL     1      -2.198   3.291  -3.316  1.00  0.00     0.138 A   
BRANCH  27  29
ATOM     29  S1  UNL     1      -1.666   1.605  -5.409  1.00  0.00    -0.114 S   
ATOM     30  O3  UNL     1      -1.071   2.747  -6.058  1.00  0.00    -0.479 OA  
ATOM     31  O4  UNL     1      -1.106   0.276  -5.513  1.00  0.00    -0.479 OA  
BRANCH  29  32
ATOM     32  N3  UNL     1      -3.242   1.494  -5.964  1.00  0.00    -0.094 NA  
ATOM     33  H22 UNL     1      -3.428   2.231  -6.647  1.00  0.00     0.263 HD  
ATOM     34  H23 UNL     1      -3.429   0.557  -6.325  1.00  0.00     0.263 HD  
ENDBRANCH  29  32
ENDBRANCH  27  29
ENDBRANCH   3  23
TORSDOF 8
