REMARK SMILES OCc1cc(-n2cc([C@@H]([NH2+]Cc3ccc4c(c3)OCO4)C3CCCCC3)nn2)ccc1F
REMARK SMILES IDX 6 1 7 2 8 3 27 4 28 5 5 6 3 7 4 8 31 9 30 10 29 11 32 12
REMARK SMILES IDX 2 13 1 14 9 16 10 17 11 20 12 21 13 22 17 23 14 24 16 25
REMARK SMILES IDX 15 26 18 27 20 28 19 29 21 30 22 31 26 32 23 33 25 34 24 35
REMARK H PARENT 1 15 10 18 10 19
ROOT
ATOM     1   N1  UNL     1      -0.934  -0.832   2.372  1.00  0.00    -0.181 N   
ATOM     2   C5  UNL     1      -0.062  -0.653   1.315  1.00  0.00     0.135 A   
ATOM     3   C6  UNL     1      -0.771   0.068   0.381  1.00  0.00     0.127 A   
ATOM     4   N3  UNL     1      -2.037   0.280   0.850  1.00  0.00    -0.131 NA  
ATOM     5   N4  UNL     1      -2.128  -0.269   2.049  1.00  0.00    -0.071 NA  
ENDROOT
BRANCH   1   6
ATOM     6   C4  UNL     1      -0.719  -1.486   3.611  1.00  0.00     0.058 A   
ATOM     7   C2  UNL     1       0.735  -2.709   5.144  1.00  0.00     0.015 A   
ATOM     8   C3  UNL     1       0.527  -2.059   3.915  1.00  0.00     0.035 A   
ATOM     9   C24 UNL     1      -0.323  -2.767   6.055  1.00  0.00     0.128 A   
ATOM     10  C23 UNL     1      -1.561  -2.203   5.768  1.00  0.00     0.041 A   
ATOM     11  C22 UNL     1      -1.764  -1.561   4.545  1.00  0.00     0.029 A   
ATOM     12  F1  UNL     1      -0.148  -3.378   7.235  1.00  0.00    -0.207 F   
BRANCH   7  13
ATOM     13  C1  UNL     1       2.049  -3.337   5.524  1.00  0.00     0.194 C   
BRANCH  13  14
ATOM     14  O1  UNL     1       3.002  -3.227   4.471  1.00  0.00    -0.392 OA  
ATOM     15  H1  UNL     1       3.811  -3.662   4.795  1.00  0.00     0.211 HD  
ENDBRANCH  13  14
ENDBRANCH   7  13
ENDBRANCH   1   6
BRANCH   3  16
ATOM     16  C7  UNL     1      -0.400   0.555  -0.988  1.00  0.00     0.117 C   
BRANCH  16  17
ATOM     17  N2  UNL     1      -1.655   0.546  -1.834  1.00  0.00     0.249 N   
ATOM     18  H7  UNL     1      -2.333   1.185  -1.398  1.00  0.00     0.199 HD  
ATOM     19  H8  UNL     1      -2.085  -0.379  -1.701  1.00  0.00     0.199 HD  
BRANCH  17  20
ATOM     20  C8  UNL     1      -1.552   0.805  -3.293  1.00  0.00     0.164 C   
BRANCH  20  21
ATOM     21  C9  UNL     1      -0.677  -0.185  -4.008  1.00  0.00    -0.002 A   
ATOM     22  C10 UNL     1       0.591   0.205  -4.503  1.00  0.00     0.012 A   
ATOM     23  C14 UNL     1      -1.100  -1.517  -4.167  1.00  0.00     0.045 A   
ATOM     24  C11 UNL     1       1.430  -0.717  -5.138  1.00  0.00     0.037 A   
ATOM     25  C13 UNL     1      -0.247  -2.400  -4.797  1.00  0.00     0.109 A   
ATOM     26  C12 UNL     1       0.983  -2.013  -5.267  1.00  0.00     0.108 A   
ATOM     27  O2  UNL     1      -0.499  -3.715  -5.023  1.00  0.00    -0.316 OA  
ATOM     28  O3  UNL     1       1.660  -3.035  -5.850  1.00  0.00    -0.316 OA  
ATOM     29  C15 UNL     1       0.704  -4.110  -5.721  1.00  0.00     0.337 C   
ENDBRANCH  20  21
ENDBRANCH  17  20
ENDBRANCH  16  17
BRANCH  16  30
ATOM     30  C16 UNL     1       0.268   1.956  -1.001  1.00  0.00     0.043 C   
ATOM     31  C17 UNL     1      -0.605   3.084  -0.418  1.00  0.00     0.010 C   
ATOM     32  C21 UNL     1       1.643   1.935  -0.301  1.00  0.00     0.010 C   
ATOM     33  C18 UNL     1       0.099   4.439  -0.493  1.00  0.00     0.001 C   
ATOM     34  C20 UNL     1       2.341   3.290  -0.389  1.00  0.00     0.001 C   
ATOM     35  C19 UNL     1       1.469   4.405   0.177  1.00  0.00     0.000 C   
ENDBRANCH  16  30
ENDBRANCH   3  16
TORSDOF 8
