REMARK SMILES CC(C)(C)[C@H]([NH2+]Cc1ccc2c(c1)OCO2)c1cn(Cc2cc3c([nH]2)CCCC3)nn1
REMARK SMILES IDX 17 1 18 2 19 3 30 4 31 5 5 7 2 8 1 9 3 10 4 11 6 12 7 15
REMARK SMILES IDX 8 16 9 17 13 18 10 19 12 20 11 21 14 22 16 23 15 24 20 25
REMARK SMILES IDX 21 26 22 27 25 28 23 29 24 30 29 31 26 32 28 33 27 34
REMARK H PARENT 18 6 6 13 6 14 25 35
ROOT
ATOM     1   C14 UNL     1      -1.621   0.096  -1.303  1.00  0.00     0.127 A   
ATOM     2   C15 UNL     1      -1.510   0.902  -0.192  1.00  0.00     0.046 A   
ATOM     3   N2  UNL     1      -2.566   0.530   0.593  1.00  0.00    -0.206 N   
ATOM     4   N4  UNL     1      -3.302  -0.425  -0.011  1.00  0.00    -0.076 NA  
ATOM     5   N5  UNL     1      -2.740  -0.688  -1.180  1.00  0.00    -0.132 NA  
ATOM     6   H20 UNL     1      -0.774   1.625   0.134  1.00  0.00     0.083 HD  
ENDROOT
BRANCH   1   7
ATOM     7   C5  UNL     1      -0.682  -0.103  -2.451  1.00  0.00     0.120 C   
BRANCH   7   8
ATOM     8   C2  UNL     1      -1.072   0.694  -3.747  1.00  0.00     0.010 C   
ATOM     9   C1  UNL     1      -2.425   0.255  -4.342  1.00  0.00     0.017 C   
ATOM     10  C3  UNL     1       0.013   0.517  -4.835  1.00  0.00     0.017 C   
ATOM     11  C4  UNL     1      -1.151   2.205  -3.430  1.00  0.00     0.017 C   
ENDBRANCH   7   8
BRANCH   7  12
ATOM     12  N1  UNL     1      -0.549  -1.585  -2.761  1.00  0.00     0.250 N   
ATOM     13  H11 UNL     1      -1.486  -1.920  -3.015  1.00  0.00     0.199 HD  
ATOM     14  H12 UNL     1       0.063  -1.727  -3.567  1.00  0.00     0.199 HD  
BRANCH  12  15
ATOM     15  C6  UNL     1      -0.073  -2.470  -1.647  1.00  0.00     0.164 C   
BRANCH  15  16
ATOM     16  C7  UNL     1       1.235  -2.043  -1.041  1.00  0.00    -0.002 A   
ATOM     17  C8  UNL     1       1.274  -1.573   0.295  1.00  0.00     0.012 A   
ATOM     18  C12 UNL     1       2.420  -2.085  -1.794  1.00  0.00     0.045 A   
ATOM     19  C9  UNL     1       2.472  -1.135   0.869  1.00  0.00     0.037 A   
ATOM     20  C11 UNL     1       3.583  -1.646  -1.196  1.00  0.00     0.109 A   
ATOM     21  C10 UNL     1       3.609  -1.182   0.096  1.00  0.00     0.108 A   
ATOM     22  O1  UNL     1       4.808  -1.611  -1.784  1.00  0.00    -0.316 OA  
ATOM     23  O2  UNL     1       4.853  -0.798   0.485  1.00  0.00    -0.316 OA  
ATOM     24  C13 UNL     1       5.619  -1.104  -0.699  1.00  0.00     0.337 C   
ENDBRANCH  15  16
ENDBRANCH  12  15
ENDBRANCH   7  12
ENDBRANCH   1   7
BRANCH   3  25
ATOM     25  C16 UNL     1      -2.837   0.928   1.966  1.00  0.00     0.185 C   
BRANCH  25  26
ATOM     26  C17 UNL     1      -1.913   0.198   2.884  1.00  0.00     0.027 A   
ATOM     27  C18 UNL     1      -0.728   0.600   3.478  1.00  0.00     0.026 A   
ATOM     28  N3  UNL     1      -2.159  -1.102   3.272  1.00  0.00    -0.320 N   
ATOM     29  C19 UNL     1      -0.234  -0.495   4.222  1.00  0.00    -0.029 A   
ATOM     30  C20 UNL     1      -1.131  -1.530   4.062  1.00  0.00     0.010 A   
ATOM     31  C24 UNL     1       1.001  -0.621   5.051  1.00  0.00     0.037 C   
ATOM     32  C21 UNL     1      -1.042  -2.874   4.698  1.00  0.00     0.051 C   
ATOM     33  C23 UNL     1       0.921  -1.848   5.979  1.00  0.00     0.005 C   
ATOM     34  C22 UNL     1       0.379  -3.094   5.251  1.00  0.00     0.006 C   
ATOM     35  H24 UNL     1      -2.969  -1.654   3.013  1.00  0.00     0.152 HD  
ENDBRANCH  25  26
ENDBRANCH   3  25
TORSDOF 7
