REMARK SMILES CC(C)C[C@H]([NH2+]Cc1ccc2c(c1)OCO2)c1cn(Cc2ccc(N(C)C)c(F)c2)nn1
REMARK SMILES IDX 17 1 18 2 19 3 31 4 32 5 5 7 4 8 2 9 1 10 3 11 6 12 7 15
REMARK SMILES IDX 8 16 9 17 13 18 10 19 12 20 11 21 14 22 16 23 15 24 20 25
REMARK SMILES IDX 21 26 22 27 30 28 23 29 28 30 24 31 29 32 25 33 26 34 27 35
REMARK H PARENT 18 6 6 13 6 14
ROOT
ATOM     1   C14 UNL     1       2.035   0.763   1.518  1.00  0.00     0.127 A   
ATOM     2   C15 UNL     1       2.298   0.062   0.362  1.00  0.00     0.046 A   
ATOM     3   N2  UNL     1       2.922  -1.074   0.802  1.00  0.00    -0.208 N   
ATOM     4   N4  UNL     1       3.088  -1.043   2.139  1.00  0.00    -0.076 NA  
ATOM     5   N5  UNL     1       2.559   0.084   2.587  1.00  0.00    -0.132 NA  
ATOM     6   H20 UNL     1       2.048   0.224  -0.678  1.00  0.00     0.083 HD  
ENDROOT
BRANCH   1   7
ATOM     7   C5  UNL     1       1.226   1.993   1.743  1.00  0.00     0.114 C   
BRANCH   7   8
ATOM     8   C4  UNL     1       2.097   3.233   2.022  1.00  0.00     0.064 C   
BRANCH   8   9
ATOM     9   C2  UNL     1       3.019   3.662   0.859  1.00  0.00    -0.012 C   
ATOM     10  C1  UNL     1       3.877   4.854   1.296  1.00  0.00     0.007 C   
ATOM     11  C3  UNL     1       2.236   4.026  -0.401  1.00  0.00     0.007 C   
ENDBRANCH   8   9
ENDBRANCH   7   8
BRANCH   7  12
ATOM     12  N1  UNL     1       0.318   1.816   2.946  1.00  0.00     0.249 N   
ATOM     13  H11 UNL     1       0.934   1.634   3.751  1.00  0.00     0.199 HD  
ATOM     14  H12 UNL     1      -0.184   2.688   3.134  1.00  0.00     0.199 HD  
BRANCH  12  15
ATOM     15  C6  UNL     1      -0.663   0.688   2.891  1.00  0.00     0.164 C   
BRANCH  15  16
ATOM     16  C7  UNL     1      -1.613   0.762   1.729  1.00  0.00    -0.002 A   
ATOM     17  C8  UNL     1      -1.538  -0.195   0.685  1.00  0.00     0.012 A   
ATOM     18  C12 UNL     1      -2.577   1.781   1.663  1.00  0.00     0.045 A   
ATOM     19  C9  UNL     1      -2.401  -0.133  -0.414  1.00  0.00     0.037 A   
ATOM     20  C11 UNL     1      -3.413   1.811   0.565  1.00  0.00     0.109 A   
ATOM     21  C10 UNL     1      -3.328   0.883  -0.445  1.00  0.00     0.108 A   
ATOM     22  O1  UNL     1      -4.391   2.727   0.349  1.00  0.00    -0.316 OA  
ATOM     23  O2  UNL     1      -4.243   1.100  -1.425  1.00  0.00    -0.316 OA  
ATOM     24  C13 UNL     1      -4.946   2.243  -0.897  1.00  0.00     0.337 C   
ENDBRANCH  15  16
ENDBRANCH  12  15
ENDBRANCH   7  12
ENDBRANCH   1   7
BRANCH   3  25
ATOM     25  C16 UNL     1       3.237  -2.271   0.038  1.00  0.00     0.169 C   
BRANCH  25  26
ATOM     26  C17 UNL     1       1.962  -2.986  -0.338  1.00  0.00    -0.026 A   
ATOM     27  C18 UNL     1       1.301  -3.803   0.581  1.00  0.00     0.007 A   
ATOM     28  C24 UNL     1       1.369  -2.789  -1.586  1.00  0.00     0.046 A   
ATOM     29  C19 UNL     1       0.071  -4.397   0.257  1.00  0.00     0.027 A   
ATOM     30  C23 UNL     1       0.142  -3.385  -1.893  1.00  0.00     0.144 A   
ATOM     31  C20 UNL     1      -0.558  -4.209  -0.988  1.00  0.00     0.064 A   
ATOM     32  F1  UNL     1      -0.364  -3.100  -3.104  1.00  0.00    -0.205 F   
BRANCH  31  33
ATOM     33  N3  UNL     1      -1.784  -4.802  -1.277  1.00  0.00    -0.335 N   
ATOM     34  C21 UNL     1      -2.387  -4.683  -2.602  1.00  0.00     0.129 C   
ATOM     35  C22 UNL     1      -2.524  -5.560  -0.275  1.00  0.00     0.129 C   
ENDBRANCH  31  33
ENDBRANCH  25  26
ENDBRANCH   3  25
TORSDOF 9
