REMARK SMILES CC(C)[C@H]([NH2+]Cc1ccc2c(c1)OCO2)c1cn(Cc2cccc3cc[nH]c23)nn1
REMARK SMILES IDX 16 1 17 2 18 3 29 4 30 5 4 7 2 8 1 9 3 10 5 11 6 14 7 15
REMARK SMILES IDX 8 16 12 17 9 18 11 19 10 20 13 21 15 22 14 23 19 24 20 25
REMARK SMILES IDX 21 26 28 27 22 28 24 29 27 30 23 31 25 32 26 33
REMARK H PARENT 17 6 5 12 5 13 27 34
ROOT
ATOM     1   C13 UNL     1       0.202   2.292  -0.080  1.00  0.00     0.127 A   
ATOM     2   C14 UNL     1       1.187   1.752  -0.876  1.00  0.00     0.046 A   
ATOM     3   N2  UNL     1       2.303   1.781  -0.085  1.00  0.00    -0.208 N   
ATOM     4   N4  UNL     1       2.040   2.384   1.094  1.00  0.00    -0.076 NA  
ATOM     5   N5  UNL     1       0.753   2.692   1.112  1.00  0.00    -0.132 NA  
ATOM     6   H18 UNL     1       1.178   1.273  -1.846  1.00  0.00     0.083 HD  
ENDROOT
BRANCH   1   7
ATOM     7   C4  UNL     1      -1.277   2.337  -0.271  1.00  0.00     0.117 C   
BRANCH   7   8
ATOM     8   C2  UNL     1      -1.834   3.731  -0.660  1.00  0.00     0.037 C   
ATOM     9   C1  UNL     1      -1.310   4.177  -2.030  1.00  0.00     0.014 C   
ATOM     10  C3  UNL     1      -1.579   4.835   0.372  1.00  0.00     0.014 C   
ENDBRANCH   7   8
BRANCH   7  11
ATOM     11  N1  UNL     1      -1.982   1.862   0.984  1.00  0.00     0.249 N   
ATOM     12  H9  UNL     1      -2.991   2.011   0.893  1.00  0.00     0.199 HD  
ATOM     13  H10 UNL     1      -1.647   2.455   1.753  1.00  0.00     0.199 HD  
BRANCH  11  14
ATOM     14  C5  UNL     1      -1.728   0.444   1.396  1.00  0.00     0.164 C   
BRANCH  14  15
ATOM     15  C6  UNL     1      -2.168  -0.566   0.373  1.00  0.00    -0.002 A   
ATOM     16  C7  UNL     1      -3.543  -0.785   0.122  1.00  0.00     0.012 A   
ATOM     17  C11 UNL     1      -1.207  -1.287  -0.359  1.00  0.00     0.045 A   
ATOM     18  C8  UNL     1      -3.958  -1.700  -0.852  1.00  0.00     0.037 A   
ATOM     19  C10 UNL     1      -1.650  -2.179  -1.313  1.00  0.00     0.109 A   
ATOM     20  C9  UNL     1      -2.986  -2.379  -1.554  1.00  0.00     0.108 A   
ATOM     21  O1  UNL     1      -0.858  -2.941  -2.112  1.00  0.00    -0.316 OA  
ATOM     22  O2  UNL     1      -3.205  -3.297  -2.530  1.00  0.00    -0.316 OA  
ATOM     23  C12 UNL     1      -1.852  -3.680  -2.857  1.00  0.00     0.337 C   
ENDBRANCH  14  15
ENDBRANCH  11  14
ENDBRANCH   7  11
ENDBRANCH   1   7
BRANCH   3  24
ATOM     24  C15 UNL     1       3.540   1.038  -0.276  1.00  0.00     0.171 C   
BRANCH  24  25
ATOM     25  C16 UNL     1       3.273  -0.437  -0.085  1.00  0.00    -0.007 A   
ATOM     26  C17 UNL     1       3.454  -1.337  -1.153  1.00  0.00     0.007 A   
ATOM     27  C23 UNL     1       2.797  -0.994   1.124  1.00  0.00     0.042 A   
ATOM     28  C18 UNL     1       3.162  -2.694  -1.027  1.00  0.00     0.001 A   
ATOM     29  C20 UNL     1       2.486  -2.347   1.270  1.00  0.00    -0.003 A   
ATOM     30  N3  UNL     1       2.537  -0.395   2.342  1.00  0.00    -0.320 N   
ATOM     31  C19 UNL     1       2.673  -3.210   0.176  1.00  0.00     0.010 A   
ATOM     32  C21 UNL     1       2.012  -2.533   2.598  1.00  0.00     0.025 A   
ATOM     33  C22 UNL     1       2.045  -1.312   3.230  1.00  0.00     0.072 A   
ATOM     34  H26 UNL     1       2.676   0.590   2.539  1.00  0.00     0.152 HD  
ENDBRANCH  24  25
ENDBRANCH   3  24
TORSDOF 7
