REMARK SMILES CC(C)C[C@H]([NH2+]Cc1ccc2c(c1)OCO2)c1cn(CCc2ccoc2)nn1
REMARK SMILES IDX 17 1 18 2 19 3 27 4 28 5 5 7 4 8 2 9 1 10 3 11 6 12 7 15
REMARK SMILES IDX 8 16 9 17 13 18 10 19 12 20 11 21 14 22 16 23 15 24 20 25
REMARK SMILES IDX 21 26 22 27 23 28 26 29 24 30 25 31
REMARK H PARENT 18 6 6 13 6 14
ROOT
ATOM     1   C14 UNL     1       0.491   1.493   0.438  1.00  0.00     0.127 A   
ATOM     2   C15 UNL     1      -0.801   1.765   0.828  1.00  0.00     0.045 A   
ATOM     3   N2  UNL     1      -1.087   2.950   0.211  1.00  0.00    -0.212 N   
ATOM     4   N3  UNL     1      -0.038   3.386  -0.509  1.00  0.00    -0.076 NA  
ATOM     5   N4  UNL     1       0.937   2.500  -0.378  1.00  0.00    -0.132 NA  
ATOM     6   H20 UNL     1      -1.522   1.236   1.436  1.00  0.00     0.083 HD  
ENDROOT
BRANCH   1   7
ATOM     7   C5  UNL     1       1.366   0.314   0.695  1.00  0.00     0.114 C   
BRANCH   7   8
ATOM     8   C4  UNL     1       2.460   0.604   1.741  1.00  0.00     0.064 C   
BRANCH   8   9
ATOM     9   C2  UNL     1       1.942   0.939   3.156  1.00  0.00    -0.012 C   
ATOM     10  C1  UNL     1       3.123   1.267   4.074  1.00  0.00     0.007 C   
ATOM     11  C3  UNL     1       1.120  -0.200   3.763  1.00  0.00     0.007 C   
ENDBRANCH   8   9
ENDBRANCH   7   8
BRANCH   7  12
ATOM     12  N1  UNL     1       2.076  -0.085  -0.584  1.00  0.00     0.249 N   
ATOM     13  H11 UNL     1       2.840  -0.734  -0.377  1.00  0.00     0.199 HD  
ATOM     14  H12 UNL     1       2.499   0.777  -0.958  1.00  0.00     0.199 HD  
BRANCH  12  15
ATOM     15  C6  UNL     1       1.216  -0.666  -1.659  1.00  0.00     0.164 C   
BRANCH  15  16
ATOM     16  C7  UNL     1       0.643  -2.005  -1.286  1.00  0.00    -0.002 A   
ATOM     17  C8  UNL     1      -0.738  -2.134  -1.001  1.00  0.00     0.012 A   
ATOM     18  C12 UNL     1       1.476  -3.133  -1.189  1.00  0.00     0.045 A   
ATOM     19  C9  UNL     1      -1.282  -3.363  -0.616  1.00  0.00     0.037 A   
ATOM     20  C11 UNL     1       0.908  -4.329  -0.803  1.00  0.00     0.109 A   
ATOM     21  C10 UNL     1      -0.432  -4.442  -0.523  1.00  0.00     0.108 A   
ATOM     22  O1  UNL     1       1.571  -5.505  -0.651  1.00  0.00    -0.316 OA  
ATOM     23  O2  UNL     1      -0.781  -5.703  -0.162  1.00  0.00    -0.316 OA  
ATOM     24  C13 UNL     1       0.486  -6.385  -0.274  1.00  0.00     0.337 C   
ENDBRANCH  15  16
ENDBRANCH  12  15
ENDBRANCH   7  12
ENDBRANCH   1   7
BRANCH   3  25
ATOM     25  C16 UNL     1      -2.347   3.665   0.193  1.00  0.00     0.139 C   
BRANCH  25  26
ATOM     26  C17 UNL     1      -3.053   3.598  -1.163  1.00  0.00     0.059 C   
BRANCH  26  27
ATOM     27  C18 UNL     1      -3.328   2.198  -1.610  1.00  0.00    -0.021 A   
ATOM     28  C19 UNL     1      -4.372   1.331  -1.182  1.00  0.00     0.031 A   
ATOM     29  C21 UNL     1      -2.603   1.471  -2.535  1.00  0.00     0.139 A   
ATOM     30  C20 UNL     1      -4.194   0.145  -1.856  1.00  0.00     0.136 A   
ATOM     31  O3  UNL     1      -3.105   0.218  -2.663  1.00  0.00    -0.326 OA  
ENDBRANCH  26  27
ENDBRANCH  25  26
ENDBRANCH   3  25
TORSDOF 9
