REMARK SMILES CC(C)[C@H]([NH2+]Cc1ccc2c(c1)OCO2)c1cn(Cc2c(F)cncc2Cl)nn1
REMARK SMILES IDX 16 1 17 2 18 3 28 4 29 5 4 7 2 8 1 9 3 10 5 11 6 14 7 15
REMARK SMILES IDX 8 16 12 17 9 18 11 19 10 20 13 21 15 22 14 23 19 24 20 25
REMARK SMILES IDX 21 26 26 27 23 28 25 29 24 30 22 31 27 32
REMARK H PARENT 17 6 5 12 5 13
ROOT
ATOM     1   C13 UNL     1       1.786  -1.294  -0.283  1.00  0.00     0.127 A   
ATOM     2   C14 UNL     1       1.465  -0.535   0.820  1.00  0.00     0.046 A   
ATOM     3   N2  UNL     1       2.123   0.646   0.611  1.00  0.00    -0.208 N   
ATOM     4   N4  UNL     1       2.820   0.610  -0.540  1.00  0.00    -0.076 NA  
ATOM     5   N5  UNL     1       2.615  -0.570  -1.101  1.00  0.00    -0.132 NA  
ATOM     6   H18 UNL     1       0.850  -0.712   1.692  1.00  0.00     0.083 HD  
ENDROOT
BRANCH   1   7
ATOM     7   C4  UNL     1       1.356  -2.659  -0.715  1.00  0.00     0.117 C   
BRANCH   7   8
ATOM     8   C2  UNL     1       2.297  -3.797  -0.241  1.00  0.00     0.037 C   
ATOM     9   C1  UNL     1       3.751  -3.648  -0.707  1.00  0.00     0.014 C   
ATOM     10  C3  UNL     1       2.258  -3.963   1.283  1.00  0.00     0.014 C   
ENDBRANCH   7   8
BRANCH   7  11
ATOM     11  N1  UNL     1       1.275  -2.700  -2.230  1.00  0.00     0.249 N   
ATOM     12  H9  UNL     1       1.915  -1.961  -2.566  1.00  0.00     0.199 HD  
ATOM     13  H10 UNL     1       1.651  -3.581  -2.590  1.00  0.00     0.199 HD  
BRANCH  11  14
ATOM     14  C5  UNL     1      -0.068  -2.468  -2.831  1.00  0.00     0.164 C   
BRANCH  14  15
ATOM     15  C6  UNL     1      -0.677  -1.133  -2.507  1.00  0.00    -0.002 A   
ATOM     16  C7  UNL     1      -0.130   0.057  -3.044  1.00  0.00     0.012 A   
ATOM     17  C11 UNL     1      -1.795  -1.054  -1.658  1.00  0.00     0.045 A   
ATOM     18  C8  UNL     1      -0.685   1.306  -2.742  1.00  0.00     0.037 A   
ATOM     19  C10 UNL     1      -2.320   0.192  -1.384  1.00  0.00     0.109 A   
ATOM     20  C9  UNL     1      -1.783   1.339  -1.913  1.00  0.00     0.108 A   
ATOM     21  O1  UNL     1      -3.395   0.438  -0.592  1.00  0.00    -0.316 OA  
ATOM     22  O2  UNL     1      -2.457   2.452  -1.526  1.00  0.00    -0.316 OA  
ATOM     23  C12 UNL     1      -3.516   1.873  -0.733  1.00  0.00     0.337 C   
ENDBRANCH  14  15
ENDBRANCH  11  14
ENDBRANCH   7  11
ENDBRANCH   1   7
BRANCH   3  24
ATOM     24  C15 UNL     1       2.186   1.811   1.478  1.00  0.00     0.174 C   
BRANCH  24  25
ATOM     25  C16 UNL     1       0.873   2.540   1.527  1.00  0.00     0.029 A   
ATOM     26  C17 UNL     1      -0.033   2.240   2.548  1.00  0.00     0.147 A   
ATOM     27  C20 UNL     1       0.487   3.503   0.588  1.00  0.00     0.067 A   
ATOM     28  C18 UNL     1      -1.251   2.896   2.614  1.00  0.00     0.150 A   
ATOM     29  C19 UNL     1      -0.756   4.115   0.728  1.00  0.00     0.132 A   
ATOM     30  N3  UNL     1      -1.637   3.830   1.718  1.00  0.00    -0.260 NA  
ATOM     31  F1  UNL     1       0.267   1.303   3.458  1.00  0.00    -0.205 F   
ATOM     32  CL1 UNL     1       1.489   3.955  -0.736  1.00  0.00    -0.082 Cl  
ENDBRANCH  24  25
ENDBRANCH   3  24
TORSDOF 7
