REMARK SMILES CC(C)(C)[C@H]([NH2+]Cc1ccc2c(c1)OCO2)c1cn(-c2ccccc2CO)nn1
REMARK SMILES IDX 17 1 18 2 19 3 28 4 29 5 5 6 2 7 1 8 3 9 4 10 6 11 7 14 8 15
REMARK SMILES IDX 9 16 13 17 10 18 12 19 11 20 14 21 16 22 15 23 20 24 21 25
REMARK SMILES IDX 25 26 22 27 24 28 23 29 26 30 27 31
REMARK H PARENT 6 12 6 13 27 32
ROOT
ATOM     1   C14 UNL     1       0.797  -1.030   1.330  1.00  0.00     0.128 A   
ATOM     2   C15 UNL     1       1.331  -0.410   0.222  1.00  0.00     0.135 A   
ATOM     3   N2  UNL     1       0.422  -0.637  -0.800  1.00  0.00    -0.180 N   
ATOM     4   N3  UNL     1      -0.560  -1.438  -0.314  1.00  0.00    -0.071 NA  
ATOM     5   N4  UNL     1      -0.357  -1.661   0.972  1.00  0.00    -0.131 NA  
ENDROOT
BRANCH   1   6
ATOM     6   C5  UNL     1       1.189  -0.980   2.776  1.00  0.00     0.120 C   
BRANCH   6   7
ATOM     7   C2  UNL     1       1.916  -2.268   3.295  1.00  0.00     0.010 C   
ATOM     8   C1  UNL     1       3.167  -2.548   2.432  1.00  0.00     0.017 C   
ATOM     9   C3  UNL     1       1.018  -3.521   3.267  1.00  0.00     0.017 C   
ATOM     10  C4  UNL     1       2.408  -2.051   4.745  1.00  0.00     0.017 C   
ENDBRANCH   6   7
BRANCH   6  11
ATOM     11  N1  UNL     1      -0.064  -0.700   3.593  1.00  0.00     0.250 N   
ATOM     12  H11 UNL     1      -0.849  -1.094   3.049  1.00  0.00     0.199 HD  
ATOM     13  H12 UNL     1      -0.060  -1.219   4.474  1.00  0.00     0.199 HD  
BRANCH  11  14
ATOM     14  C6  UNL     1      -0.369   0.735   3.884  1.00  0.00     0.164 C   
BRANCH  14  15
ATOM     15  C7  UNL     1      -0.517   1.597   2.660  1.00  0.00    -0.002 A   
ATOM     16  C8  UNL     1       0.466   2.569   2.349  1.00  0.00     0.012 A   
ATOM     17  C12 UNL     1      -1.600   1.407   1.783  1.00  0.00     0.045 A   
ATOM     18  C9  UNL     1       0.391   3.316   1.169  1.00  0.00     0.037 A   
ATOM     19  C11 UNL     1      -1.636   2.152   0.622  1.00  0.00     0.109 A   
ATOM     20  C10 UNL     1      -0.666   3.075   0.320  1.00  0.00     0.108 A   
ATOM     21  O1  UNL     1      -2.579   2.053  -0.351  1.00  0.00    -0.316 OA  
ATOM     22  O2  UNL     1      -0.878   3.678  -0.877  1.00  0.00    -0.316 OA  
ATOM     23  C13 UNL     1      -2.101   3.035  -1.300  1.00  0.00     0.337 C   
ENDBRANCH  14  15
ENDBRANCH  11  14
ENDBRANCH   6  11
ENDBRANCH   1   6
BRANCH   3  24
ATOM     24  C16 UNL     1       0.429  -0.120  -2.132  1.00  0.00     0.063 A   
ATOM     25  C17 UNL     1       1.549   0.635  -2.545  1.00  0.00     0.026 A   
ATOM     26  C21 UNL     1      -0.643  -0.324  -3.040  1.00  0.00     0.001 A   
ATOM     27  C18 UNL     1       1.622   1.175  -3.829  1.00  0.00     0.002 A   
ATOM     28  C20 UNL     1      -0.529   0.232  -4.334  1.00  0.00     0.008 A   
ATOM     29  C19 UNL     1       0.585   0.972  -4.724  1.00  0.00     0.001 A   
BRANCH  26  30
ATOM     30  C22 UNL     1      -1.903  -1.099  -2.699  1.00  0.00     0.193 C   
BRANCH  30  31
ATOM     31  O3  UNL     1      -2.869  -1.063  -3.747  1.00  0.00    -0.392 OA  
ATOM     32  H27 UNL     1      -3.602  -1.637  -3.469  1.00  0.00     0.211 HD  
ENDBRANCH  30  31
ENDBRANCH  26  30
ENDBRANCH   3  24
TORSDOF 8
