REMARK SMILES CC(C)C[C@H]([NH2+]Cc1ccc2c(c1)OCO2)c1cn(-c2cccc(CN)c2)nn1
REMARK SMILES IDX 17 1 18 2 19 3 28 4 29 5 5 6 4 7 2 8 1 9 3 10 6 11 7 14 8 15
REMARK SMILES IDX 9 16 13 17 10 18 12 19 11 20 14 21 16 22 15 23 20 24 21 25
REMARK SMILES IDX 27 26 22 27 24 28 23 29 25 30 26 31
REMARK H PARENT 6 12 6 13 26 32 26 33
ROOT
ATOM     1   C14 UNL     1       1.359   0.328  -0.712  1.00  0.00     0.127 A   
ATOM     2   C15 UNL     1       1.300  -1.046  -0.671  1.00  0.00     0.135 A   
ATOM     3   N2  UNL     1       2.538  -1.474  -1.112  1.00  0.00    -0.181 N   
ATOM     4   N4  UNL     1       3.305  -0.382  -1.376  1.00  0.00    -0.071 NA  
ATOM     5   N5  UNL     1       2.595   0.711  -1.149  1.00  0.00    -0.131 NA  
ENDROOT
BRANCH   1   6
ATOM     6   C5  UNL     1       0.349   1.368  -0.345  1.00  0.00     0.114 C   
BRANCH   6   7
ATOM     7   C4  UNL     1      -0.507   1.748  -1.572  1.00  0.00     0.064 C   
BRANCH   7   8
ATOM     8   C2  UNL     1      -1.655   2.751  -1.324  1.00  0.00    -0.012 C   
ATOM     9   C1  UNL     1      -2.632   2.273  -0.250  1.00  0.00     0.007 C   
ATOM     10  C3  UNL     1      -2.409   3.000  -2.634  1.00  0.00     0.007 C   
ENDBRANCH   7   8
ENDBRANCH   6   7
BRANCH   6  11
ATOM     11  N1  UNL     1       1.037   2.608   0.176  1.00  0.00     0.249 N   
ATOM     12  H11 UNL     1       1.763   2.848  -0.514  1.00  0.00     0.199 HD  
ATOM     13  H12 UNL     1       0.386   3.395   0.220  1.00  0.00     0.199 HD  
BRANCH  11  14
ATOM     14  C6  UNL     1       1.711   2.481   1.504  1.00  0.00     0.164 C   
BRANCH  14  15
ATOM     15  C7  UNL     1       0.733   2.319   2.634  1.00  0.00    -0.002 A   
ATOM     16  C8  UNL     1      -0.024   3.425   3.091  1.00  0.00     0.012 A   
ATOM     17  C12 UNL     1       0.533   1.056   3.219  1.00  0.00     0.045 A   
ATOM     18  C9  UNL     1      -0.971   3.277   4.110  1.00  0.00     0.037 A   
ATOM     19  C11 UNL     1      -0.409   0.944   4.219  1.00  0.00     0.109 A   
ATOM     20  C10 UNL     1      -1.141   2.022   4.652  1.00  0.00     0.108 A   
ATOM     21  O1  UNL     1      -0.731  -0.200   4.877  1.00  0.00    -0.316 OA  
ATOM     22  O2  UNL     1      -2.013   1.694   5.639  1.00  0.00    -0.316 OA  
ATOM     23  C13 UNL     1      -1.730   0.287   5.803  1.00  0.00     0.337 C   
ENDBRANCH  14  15
ENDBRANCH  11  14
ENDBRANCH   6  11
ENDBRANCH   1   6
BRANCH   3  24
ATOM     24  C16 UNL     1       3.023  -2.794  -1.276  1.00  0.00     0.058 A   
ATOM     25  C17 UNL     1       4.326  -3.001  -1.749  1.00  0.00     0.026 A   
ATOM     26  C22 UNL     1       2.216  -3.899  -0.972  1.00  0.00     0.031 A   
ATOM     27  C18 UNL     1       4.811  -4.298  -1.918  1.00  0.00     0.002 A   
ATOM     28  C20 UNL     1       2.696  -5.209  -1.149  1.00  0.00    -0.032 A   
ATOM     29  C19 UNL     1       4.003  -5.395  -1.618  1.00  0.00     0.005 A   
BRANCH  28  30
ATOM     30  C21 UNL     1       1.827  -6.395  -0.807  1.00  0.00     0.113 C   
BRANCH  30  31
ATOM     31  N3  UNL     1       0.528  -6.314  -1.469  1.00  0.00    -0.327 NA  
ATOM     32  H26 UNL     1       0.679  -6.350  -2.477  1.00  0.00     0.119 HD  
ATOM     33  H27 UNL     1      -0.004  -7.155  -1.244  1.00  0.00     0.119 HD  
ENDBRANCH  30  31
ENDBRANCH  28  30
ENDBRANCH   3  24
TORSDOF 9
