REMARK SMILES CC(C)C[C@H]([NH2+]Cc1ccc2c(c1)OCO2)c1cn(-c2cc(Cl)ccc2O)nn1
REMARK SMILES IDX 17 1 18 2 19 3 28 4 29 5 5 6 4 7 2 8 1 9 3 10 6 11 7 14 8 15
REMARK SMILES IDX 9 16 13 17 10 18 12 19 11 20 14 21 16 22 15 23 20 24 21 25
REMARK SMILES IDX 26 26 22 27 25 28 24 29 23 30 27 31
REMARK H PARENT 6 12 6 13 27 32
ROOT
ATOM     1   C14 UNL     1       0.120  -0.543  -0.447  1.00  0.00     0.127 A   
ATOM     2   C15 UNL     1      -0.584  -1.723  -0.540  1.00  0.00     0.135 A   
ATOM     3   N2  UNL     1      -1.088  -1.760  -1.828  1.00  0.00    -0.178 N   
ATOM     4   N3  UNL     1      -0.711  -0.608  -2.457  1.00  0.00    -0.071 NA  
ATOM     5   N4  UNL     1       0.029   0.117  -1.638  1.00  0.00    -0.131 NA  
ENDROOT
BRANCH   1   6
ATOM     6   C5  UNL     1       0.903   0.085   0.664  1.00  0.00     0.114 C   
BRANCH   6   7
ATOM     7   C4  UNL     1       0.503  -0.390   2.071  1.00  0.00     0.064 C   
BRANCH   7   8
ATOM     8   C2  UNL     1       1.291   0.238   3.241  1.00  0.00    -0.012 C   
ATOM     9   C1  UNL     1       0.724  -0.258   4.575  1.00  0.00     0.007 C   
ATOM     10  C3  UNL     1       2.786  -0.074   3.170  1.00  0.00     0.007 C   
ENDBRANCH   7   8
ENDBRANCH   6   7
BRANCH   6  11
ATOM     11  N1  UNL     1       0.855   1.587   0.555  1.00  0.00     0.249 N   
ATOM     12  H11 UNL     1       1.089   1.806  -0.425  1.00  0.00     0.199 HD  
ATOM     13  H12 UNL     1       1.594   2.018   1.117  1.00  0.00     0.199 HD  
BRANCH  11  14
ATOM     14  C6  UNL     1      -0.451   2.256   0.822  1.00  0.00     0.164 C   
BRANCH  14  15
ATOM     15  C7  UNL     1      -0.351   3.739   0.593  1.00  0.00    -0.002 A   
ATOM     16  C8  UNL     1      -0.844   4.314  -0.603  1.00  0.00     0.012 A   
ATOM     17  C12 UNL     1       0.258   4.561   1.557  1.00  0.00     0.045 A   
ATOM     18  C9  UNL     1      -0.753   5.692  -0.829  1.00  0.00     0.037 A   
ATOM     19  C11 UNL     1       0.340   5.913   1.299  1.00  0.00     0.109 A   
ATOM     20  C10 UNL     1      -0.157   6.465   0.144  1.00  0.00     0.108 A   
ATOM     21  O1  UNL     1       0.887   6.838   2.128  1.00  0.00    -0.316 OA  
ATOM     22  O2  UNL     1       0.007   7.812   0.104  1.00  0.00    -0.316 OA  
ATOM     23  C13 UNL     1       0.684   8.047   1.359  1.00  0.00     0.337 C   
ENDBRANCH  14  15
ENDBRANCH  11  14
ENDBRANCH   6  11
ENDBRANCH   1   6
BRANCH   3  24
ATOM     24  C16 UNL     1      -1.875  -2.736  -2.497  1.00  0.00     0.089 A   
ATOM     25  C17 UNL     1      -2.253  -2.482  -3.831  1.00  0.00     0.049 A   
ATOM     26  C21 UNL     1      -2.283  -3.938  -1.900  1.00  0.00     0.095 A   
ATOM     27  C18 UNL     1      -3.019  -3.407  -4.541  1.00  0.00     0.043 A   
ATOM     28  C20 UNL     1      -3.058  -4.857  -2.618  1.00  0.00     0.037 A   
ATOM     29  C19 UNL     1      -3.429  -4.591  -3.938  1.00  0.00     0.023 A   
ATOM     30  CL1 UNL     1      -3.467  -3.077  -6.170  1.00  0.00    -0.084 Cl  
BRANCH  26  31
ATOM     31  O3  UNL     1      -1.946  -4.254  -0.613  1.00  0.00    -0.359 OA  
ATOM     32  H24 UNL     1      -2.293  -5.141  -0.401  1.00  0.00     0.218 HD  
ENDBRANCH  26  31
ENDBRANCH   3  24
TORSDOF 8
