REMARK SMILES Oc1ccc(Cn2cc([C@@H]([NH2+]Cc3ccc4c(c3)OCO4)C3CCCCC3)nn2)c(Cl)c1
REMARK SMILES IDX 7 1 8 2 9 3 28 4 29 5 6 7 5 8 2 9 3 10 32 11 4 12 30 13
REMARK SMILES IDX 31 14 1 15 10 17 11 18 12 21 13 22 14 23 18 24 15 25 17 26
REMARK SMILES IDX 16 27 19 28 21 29 20 30 22 31 23 32 27 33 24 34 26 35 25 36
REMARK H PARENT 8 6 1 16 11 19 11 20
ROOT
ATOM     1   N1  UNL     1      -0.284  -3.445  -0.215  1.00  0.00    -0.208 N   
ATOM     2   C6  UNL     1       0.390  -2.524   0.540  1.00  0.00     0.046 A   
ATOM     3   C7  UNL     1      -0.224  -1.326   0.241  1.00  0.00     0.127 A   
ATOM     4   N3  UNL     1      -1.215  -1.547  -0.677  1.00  0.00    -0.132 NA  
ATOM     5   N4  UNL     1      -1.246  -2.842  -0.946  1.00  0.00    -0.076 NA  
ATOM     6   H6  UNL     1       1.204  -2.793   1.196  1.00  0.00     0.083 HD  
ENDROOT
BRANCH   1   7
ATOM     7   C5  UNL     1      -0.132  -4.893  -0.293  1.00  0.00     0.171 C   
BRANCH   7   8
ATOM     8   C4  UNL     1       1.256  -5.380   0.050  1.00  0.00    -0.010 A   
ATOM     9   C1  UNL     1       3.800  -6.334   0.753  1.00  0.00     0.073 A   
ATOM     10  C2  UNL     1       2.720  -6.555   1.601  1.00  0.00     0.033 A   
ATOM     11  C24 UNL     1       3.636  -5.645  -0.442  1.00  0.00     0.054 A   
ATOM     12  C3  UNL     1       1.452  -6.083   1.252  1.00  0.00     0.009 A   
ATOM     13  C23 UNL     1       2.365  -5.171  -0.792  1.00  0.00     0.048 A   
ATOM     14  CL1 UNL     1       2.217  -4.310  -2.285  1.00  0.00    -0.084 Cl  
BRANCH   9  15
ATOM     15  O1  UNL     1       5.013  -6.825   1.139  1.00  0.00    -0.361 OA  
ATOM     16  H1  UNL     1       5.680  -6.614   0.464  1.00  0.00     0.218 HD  
ENDBRANCH   9  15
ENDBRANCH   7   8
ENDBRANCH   1   7
BRANCH   3  17
ATOM     17  C8  UNL     1       0.057   0.069   0.694  1.00  0.00     0.117 C   
BRANCH  17  18
ATOM     18  N2  UNL     1      -0.259   1.035  -0.423  1.00  0.00     0.249 N   
ATOM     19  H8  UNL     1      -0.485   1.965  -0.061  1.00  0.00     0.199 HD  
ATOM     20  H9  UNL     1      -1.116   0.688  -0.882  1.00  0.00     0.199 HD  
BRANCH  18  21
ATOM     21  C9  UNL     1       0.791   1.149  -1.470  1.00  0.00     0.164 C   
BRANCH  21  22
ATOM     22  C10 UNL     1       0.366   2.093  -2.560  1.00  0.00    -0.002 A   
ATOM     23  C11 UNL     1      -0.052   1.593  -3.816  1.00  0.00     0.012 A   
ATOM     24  C15 UNL     1       0.354   3.482  -2.329  1.00  0.00     0.045 A   
ATOM     25  C12 UNL     1      -0.451   2.463  -4.839  1.00  0.00     0.037 A   
ATOM     26  C14 UNL     1      -0.068   4.309  -3.350  1.00  0.00     0.109 A   
ATOM     27  C13 UNL     1      -0.450   3.815  -4.572  1.00  0.00     0.108 A   
ATOM     28  O2  UNL     1      -0.160   5.664  -3.283  1.00  0.00    -0.316 OA  
ATOM     29  O3  UNL     1      -0.812   4.796  -5.436  1.00  0.00    -0.316 OA  
ATOM     30  C16 UNL     1      -0.665   5.968  -4.602  1.00  0.00     0.337 C   
ENDBRANCH  21  22
ENDBRANCH  18  21
ENDBRANCH  17  18
BRANCH  17  31
ATOM     31  C17 UNL     1      -0.731   0.505   1.957  1.00  0.00     0.043 C   
ATOM     32  C18 UNL     1      -2.262   0.483   1.790  1.00  0.00     0.010 C   
ATOM     33  C22 UNL     1      -0.317  -0.309   3.200  1.00  0.00     0.010 C   
ATOM     34  C19 UNL     1      -2.973   0.966   3.054  1.00  0.00     0.001 C   
ATOM     35  C21 UNL     1      -1.032   0.182   4.457  1.00  0.00     0.001 C   
ATOM     36  C20 UNL     1      -2.546   0.168   4.281  1.00  0.00     0.000 C   
ENDBRANCH  17  31
ENDBRANCH   3  17
TORSDOF 8
