REMARK SMILES Cc1ccc(CCn2cc([C@@H]([NH2+]Cc3ccc4c(c3)OCO4)C(C)C)nn2)cn1
REMARK SMILES IDX 8 1 9 2 10 3 26 4 27 5 7 7 6 8 5 9 2 10 3 11 29 12 4 13
REMARK SMILES IDX 28 14 1 15 11 16 12 17 13 20 14 21 15 22 19 23 16 24 18 25
REMARK SMILES IDX 17 26 20 27 22 28 21 29 23 30 24 31 25 32
REMARK H PARENT 9 6 12 18 12 19
ROOT
ATOM     1   N1  UNL     1       2.643  -1.403  -0.736  1.00  0.00    -0.212 N   
ATOM     2   C8  UNL     1       1.472  -2.107  -0.803  1.00  0.00     0.045 A   
ATOM     3   C9  UNL     1       0.612  -1.258  -1.464  1.00  0.00     0.127 A   
ATOM     4   N3  UNL     1       1.292  -0.121  -1.822  1.00  0.00    -0.132 NA  
ATOM     5   N4  UNL     1       2.533  -0.224  -1.374  1.00  0.00    -0.076 NA  
ATOM     6   H10 UNL     1       1.344  -3.067  -0.322  1.00  0.00     0.083 HD  
ENDROOT
BRANCH   1   7
ATOM     7   C7  UNL     1       3.802  -1.697   0.085  1.00  0.00     0.139 C   
BRANCH   7   8
ATOM     8   C6  UNL     1       3.856  -0.850   1.365  1.00  0.00     0.058 C   
BRANCH   8   9
ATOM     9   C5  UNL     1       2.597  -0.961   2.188  1.00  0.00    -0.028 A   
ATOM     10  C2  UNL     1       0.166  -1.175   3.469  1.00  0.00     0.037 A   
ATOM     11  C3  UNL     1       1.155  -2.121   3.726  1.00  0.00     0.024 A   
ATOM     12  N5  UNL     1       0.343  -0.151   2.599  1.00  0.00    -0.261 NA  
ATOM     13  C4  UNL     1       2.378  -2.020   3.065  1.00  0.00     0.007 A   
ATOM     14  C22 UNL     1       1.563  -0.043   2.023  1.00  0.00     0.115 A   
ATOM     15  C1  UNL     1      -1.155  -1.260   4.176  1.00  0.00     0.067 C   
ENDBRANCH   8   9
ENDBRANCH   7   8
ENDBRANCH   1   7
BRANCH   3  16
ATOM     16  C10 UNL     1      -0.857  -1.361  -1.710  1.00  0.00     0.117 C   
BRANCH  16  17
ATOM     17  N2  UNL     1      -1.524  -0.021  -1.524  1.00  0.00     0.249 N   
ATOM     18  H12 UNL     1      -2.483  -0.034  -1.885  1.00  0.00     0.199 HD  
ATOM     19  H13 UNL     1      -1.002   0.665  -2.087  1.00  0.00     0.199 HD  
BRANCH  17  20
ATOM     20  C11 UNL     1      -1.542   0.497  -0.122  1.00  0.00     0.164 C   
BRANCH  20  21
ATOM     21  C12 UNL     1      -2.397   1.731  -0.038  1.00  0.00    -0.002 A   
ATOM     22  C13 UNL     1      -3.759   1.635   0.334  1.00  0.00     0.012 A   
ATOM     23  C17 UNL     1      -1.859   2.984  -0.382  1.00  0.00     0.045 A   
ATOM     24  C14 UNL     1      -4.575   2.771   0.371  1.00  0.00     0.037 A   
ATOM     25  C16 UNL     1      -2.691   4.083  -0.335  1.00  0.00     0.109 A   
ATOM     26  C15 UNL     1      -4.010   3.980   0.030  1.00  0.00     0.108 A   
ATOM     27  O1  UNL     1      -2.333   5.359  -0.637  1.00  0.00    -0.316 OA  
ATOM     28  O2  UNL     1      -4.649   5.179   0.008  1.00  0.00    -0.316 OA  
ATOM     29  C18 UNL     1      -3.574   6.057  -0.390  1.00  0.00     0.337 C   
ENDBRANCH  20  21
ENDBRANCH  17  20
ENDBRANCH  16  17
BRANCH  16  30
ATOM     30  C19 UNL     1      -1.232  -1.908  -3.111  1.00  0.00     0.037 C   
ATOM     31  C20 UNL     1      -0.727  -1.056  -4.280  1.00  0.00     0.014 C   
ATOM     32  C21 UNL     1      -0.769  -3.359  -3.291  1.00  0.00     0.014 C   
ENDBRANCH  16  30
ENDBRANCH   3  16
TORSDOF 8
