REMARK SMILES c1cc2c(cc1C[NH2+][C@H](c1cn(CCc3[nH]nc4c3CCCC4)nn1)C1CCCC1)OCO2
REMARK SMILES IDX 10 1 11 2 12 3 24 4 25 5 9 7 8 8 7 11 6 12 1 13 2 14 3 15
REMARK SMILES IDX 5 16 4 17 33 18 31 19 32 20 26 21 27 22 30 23 28 24 29 25
REMARK SMILES IDX 13 26 14 27 15 28 16 29 19 30 17 31 18 32 20 33 23 34 21 35
REMARK SMILES IDX 22 36
REMARK H PARENT 11 6 8 9 8 10 16 37
ROOT
ATOM     1   C9  UNL     1      -2.102   0.681  -1.843  1.00  0.00     0.127 A   
ATOM     2   C10 UNL     1      -2.239   1.956  -1.333  1.00  0.00     0.045 A   
ATOM     3   N2  UNL     1      -2.412   2.739  -2.445  1.00  0.00    -0.212 N   
ATOM     4   N5  UNL     1      -2.506   1.980  -3.553  1.00  0.00    -0.076 NA  
ATOM     5   N6  UNL     1      -2.299   0.721  -3.199  1.00  0.00    -0.132 NA  
ATOM     6   H9  UNL     1      -2.103   2.379  -0.348  1.00  0.00     0.083 HD  
ENDROOT
BRANCH   1   7
ATOM     7   C8  UNL     1      -1.655  -0.592  -1.196  1.00  0.00     0.117 C   
BRANCH   7   8
ATOM     8   N1  UNL     1      -0.146  -0.647  -1.137  1.00  0.00     0.249 N   
ATOM     9   H6  UNL     1       0.267   0.165  -1.653  1.00  0.00     0.199 HD  
ATOM     10  H7  UNL     1       0.198  -0.499  -0.184  1.00  0.00     0.199 HD  
BRANCH   8  11
ATOM     11  C7  UNL     1       0.476  -1.860  -1.728  1.00  0.00     0.164 C   
BRANCH  11  12
ATOM     12  C6  UNL     1       1.906  -2.018  -1.293  1.00  0.00    -0.002 A   
ATOM     13  C1  UNL     1       2.216  -2.700  -0.091  1.00  0.00     0.012 A   
ATOM     14  C2  UNL     1       3.540  -2.831   0.341  1.00  0.00     0.037 A   
ATOM     15  C3  UNL     1       4.529  -2.274  -0.439  1.00  0.00     0.108 A   
ATOM     16  C5  UNL     1       2.945  -1.458  -2.056  1.00  0.00     0.045 A   
ATOM     17  C4  UNL     1       4.239  -1.607  -1.603  1.00  0.00     0.109 A   
ATOM     18  O2  UNL     1       5.861  -2.302  -0.175  1.00  0.00    -0.316 OA  
ATOM     19  O1  UNL     1       5.352  -1.127  -2.217  1.00  0.00    -0.316 OA  
ATOM     20  C25 UNL     1       6.384  -1.598  -1.322  1.00  0.00     0.337 C   
ENDBRANCH  11  12
ENDBRANCH   8  11
ENDBRANCH   7   8
BRANCH   7  21
ATOM     21  C20 UNL     1      -2.225  -0.789   0.223  1.00  0.00     0.043 C   
ATOM     22  C21 UNL     1      -3.753  -0.908   0.249  1.00  0.00     0.010 C   
ATOM     23  C24 UNL     1      -1.806  -2.092   0.908  1.00  0.00     0.010 C   
ATOM     24  C22 UNL     1      -4.069  -1.525   1.608  1.00  0.00     0.001 C   
ATOM     25  C23 UNL     1      -2.800  -2.246   2.053  1.00  0.00     0.001 C   
ENDBRANCH   7  21
ENDBRANCH   1   7
BRANCH   3  26
ATOM     26  C11 UNL     1      -2.106   4.156  -2.555  1.00  0.00     0.140 C   
BRANCH  26  27
ATOM     27  C12 UNL     1      -0.732   4.416  -3.206  1.00  0.00     0.074 C   
BRANCH  27  28
ATOM     28  C13 UNL     1       0.335   3.533  -2.638  1.00  0.00     0.032 A   
ATOM     29  N3  UNL     1       0.559   2.276  -3.151  1.00  0.00    -0.242 N   
ATOM     30  C15 UNL     1       1.212   3.656  -1.586  1.00  0.00    -0.006 A   
ATOM     31  N4  UNL     1       1.267   1.484  -2.308  1.00  0.00    -0.189 NA  
ATOM     32  C14 UNL     1       1.799   2.373  -1.457  1.00  0.00     0.063 A   
ATOM     33  C16 UNL     1       1.535   4.800  -0.691  1.00  0.00     0.039 C   
ATOM     34  C19 UNL     1       2.799   2.023  -0.408  1.00  0.00     0.058 C   
ATOM     35  C17 UNL     1       2.253   4.316   0.582  1.00  0.00     0.005 C   
ATOM     36  C18 UNL     1       3.355   3.288   0.269  1.00  0.00     0.007 C   
ATOM     37  H14 UNL     1       0.111   1.860  -3.966  1.00  0.00     0.175 HD  
ENDBRANCH  27  28
ENDBRANCH  26  27
ENDBRANCH   3  26
TORSDOF 8
