REMARK SMILES CC(C)(C)[C@H]([NH2+]Cc1ccc2c(c1)OCO2)c1cn(C[C@@H](O)c2ccsc2)nn1
REMARK SMILES IDX 17 1 18 2 19 3 28 4 29 5 5 7 2 8 1 9 3 10 4 11 6 12 7 15
REMARK SMILES IDX 8 16 9 17 13 18 10 19 12 20 11 21 14 22 16 23 15 24 20 25
REMARK SMILES IDX 21 26 22 27 23 29 24 30 27 31 25 32 26 33
REMARK H PARENT 18 6 6 13 6 14 22 28
ROOT
ATOM     1   C14 UNL     1       0.505  -0.199  -0.769  1.00  0.00     0.127 A   
ATOM     2   C15 UNL     1       1.365   0.695  -0.169  1.00  0.00     0.046 A   
ATOM     3   N2  UNL     1       2.082   1.212  -1.211  1.00  0.00    -0.209 N   
ATOM     4   N3  UNL     1       1.643   0.727  -2.386  1.00  0.00    -0.076 NA  
ATOM     5   N4  UNL     1       0.686  -0.150  -2.129  1.00  0.00    -0.132 NA  
ATOM     6   H20 UNL     1       1.550   0.974   0.859  1.00  0.00     0.083 HD  
ENDROOT
BRANCH   1   7
ATOM     7   C5  UNL     1      -0.550  -1.096  -0.197  1.00  0.00     0.120 C   
BRANCH   7   8
ATOM     8   C2  UNL     1      -0.036  -2.533   0.175  1.00  0.00     0.010 C   
ATOM     9   C1  UNL     1       1.139  -2.437   1.175  1.00  0.00     0.017 C   
ATOM     10  C3  UNL     1       0.440  -3.332  -1.054  1.00  0.00     0.017 C   
ATOM     11  C4  UNL     1      -1.154  -3.339   0.877  1.00  0.00     0.017 C   
ENDBRANCH   7   8
BRANCH   7  12
ATOM     12  N1  UNL     1      -1.697  -1.188  -1.186  1.00  0.00     0.250 N   
ATOM     13  H11 UNL     1      -1.264  -1.356  -2.106  1.00  0.00     0.199 HD  
ATOM     14  H12 UNL     1      -2.301  -1.988  -0.987  1.00  0.00     0.199 HD  
BRANCH  12  15
ATOM     15  C6  UNL     1      -2.551   0.030  -1.322  1.00  0.00     0.164 C   
BRANCH  15  16
ATOM     16  C7  UNL     1      -3.399   0.281  -0.107  1.00  0.00    -0.002 A   
ATOM     17  C8  UNL     1      -4.516  -0.543   0.172  1.00  0.00     0.012 A   
ATOM     18  C12 UNL     1      -3.067   1.319   0.782  1.00  0.00     0.045 A   
ATOM     19  C9  UNL     1      -5.289  -0.342   1.321  1.00  0.00     0.037 A   
ATOM     20  C11 UNL     1      -3.848   1.488   1.906  1.00  0.00     0.109 A   
ATOM     21  C10 UNL     1      -4.927   0.681   2.169  1.00  0.00     0.108 A   
ATOM     22  O1  UNL     1      -3.659   2.432   2.865  1.00  0.00    -0.316 OA  
ATOM     23  O2  UNL     1      -5.556   1.017   3.325  1.00  0.00    -0.316 OA  
ATOM     24  C13 UNL     1      -4.767   2.149   3.750  1.00  0.00     0.337 C   
ENDBRANCH  15  16
ENDBRANCH  12  15
ENDBRANCH   7  12
ENDBRANCH   1   7
BRANCH   3  25
ATOM     25  C16 UNL     1       3.186   2.142  -1.160  1.00  0.00     0.170 C   
BRANCH  25  26
ATOM     26  C17 UNL     1       4.531   1.497  -1.510  1.00  0.00     0.164 C   
BRANCH  26  27
ATOM     27  O3  UNL     1       5.535   2.514  -1.458  1.00  0.00    -0.387 OA  
ATOM     28  H24 UNL     1       6.386   2.081  -1.655  1.00  0.00     0.211 HD  
ENDBRANCH  26  27
BRANCH  26  29
ATOM     29  C18 UNL     1       4.890   0.357  -0.588  1.00  0.00    -0.011 A   
ATOM     30  C19 UNL     1       4.856  -1.028  -0.966  1.00  0.00     0.014 A   
ATOM     31  C21 UNL     1       5.292   0.493   0.729  1.00  0.00     0.052 A   
ATOM     32  C20 UNL     1       5.215  -1.868   0.065  1.00  0.00     0.046 A   
ATOM     33  S1  UNL     1       5.584  -1.008   1.493  1.00  0.00    -0.106 S   
ENDBRANCH  26  29
ENDBRANCH  25  26
ENDBRANCH   3  25
TORSDOF 9
