REMARK SMILES CC(C)(C)[C@H]([NH2+]Cc1ccc2c(c1)OCO2)c1cn(C[C@H](O)c2ccsc2)nn1
REMARK SMILES IDX 17 1 18 2 19 3 28 4 29 5 5 7 2 8 1 9 3 10 4 11 6 12 7 15
REMARK SMILES IDX 8 16 9 17 13 18 10 19 12 20 11 21 14 22 16 23 15 24 20 25
REMARK SMILES IDX 21 26 22 27 23 29 24 30 27 31 25 32 26 33
REMARK H PARENT 18 6 6 13 6 14 22 28
ROOT
ATOM     1   C14 UNL     1      -0.231  -0.352  -1.773  1.00  0.00     0.127 A   
ATOM     2   C15 UNL     1      -0.386   0.753  -2.580  1.00  0.00     0.046 A   
ATOM     3   N2  UNL     1      -1.740   0.866  -2.727  1.00  0.00    -0.209 N   
ATOM     4   N3  UNL     1      -2.381  -0.111  -2.059  1.00  0.00    -0.076 NA  
ATOM     5   N4  UNL     1      -1.468  -0.860  -1.464  1.00  0.00    -0.132 NA  
ATOM     6   H20 UNL     1       0.306   1.460  -3.017  1.00  0.00     0.083 HD  
ENDROOT
BRANCH   1   7
ATOM     7   C5  UNL     1       0.991  -0.952  -1.143  1.00  0.00     0.120 C   
BRANCH   7   8
ATOM     8   C2  UNL     1       1.581  -2.178  -1.922  1.00  0.00     0.010 C   
ATOM     9   C1  UNL     1       2.912  -2.633  -1.278  1.00  0.00     0.017 C   
ATOM     10  C3  UNL     1       0.624  -3.386  -1.953  1.00  0.00     0.017 C   
ATOM     11  C4  UNL     1       1.903  -1.775  -3.380  1.00  0.00     0.017 C   
ENDBRANCH   7   8
BRANCH   7  12
ATOM     12  N1  UNL     1       0.654  -1.339   0.278  1.00  0.00     0.250 N   
ATOM     13  H11 UNL     1       1.328  -1.996   0.679  1.00  0.00     0.199 HD  
ATOM     14  H12 UNL     1      -0.248  -1.838   0.241  1.00  0.00     0.199 HD  
BRANCH  12  15
ATOM     15  C6  UNL     1       0.484  -0.197   1.222  1.00  0.00     0.164 C   
BRANCH  15  16
ATOM     16  C7  UNL     1       0.055  -0.692   2.574  1.00  0.00    -0.002 A   
ATOM     17  C8  UNL     1       1.010  -0.929   3.589  1.00  0.00     0.012 A   
ATOM     18  C12 UNL     1      -1.302  -0.971   2.817  1.00  0.00     0.045 A   
ATOM     19  C9  UNL     1       0.621  -1.428   4.837  1.00  0.00     0.037 A   
ATOM     20  C11 UNL     1      -1.651  -1.463   4.058  1.00  0.00     0.109 A   
ATOM     21  C10 UNL     1      -0.717  -1.685   5.039  1.00  0.00     0.108 A   
ATOM     22  O1  UNL     1      -2.909  -1.785   4.455  1.00  0.00    -0.316 OA  
ATOM     23  O2  UNL     1      -1.270  -2.173   6.180  1.00  0.00    -0.316 OA  
ATOM     24  C13 UNL     1      -2.665  -2.226   5.810  1.00  0.00     0.337 C   
ENDBRANCH  15  16
ENDBRANCH  12  15
ENDBRANCH   7  12
ENDBRANCH   1   7
BRANCH   3  25
ATOM     25  C16 UNL     1      -2.479   1.920  -3.384  1.00  0.00     0.170 C   
BRANCH  25  26
ATOM     26  C17 UNL     1      -3.294   2.781  -2.410  1.00  0.00     0.164 C   
BRANCH  26  27
ATOM     27  O3  UNL     1      -3.929   3.819  -3.161  1.00  0.00    -0.387 OA  
ATOM     28  H24 UNL     1      -4.439   4.356  -2.527  1.00  0.00     0.211 HD  
ENDBRANCH  26  27
BRANCH  26  29
ATOM     29  C18 UNL     1      -2.448   3.374  -1.307  1.00  0.00    -0.011 A   
ATOM     30  C19 UNL     1      -1.562   4.492  -1.458  1.00  0.00     0.014 A   
ATOM     31  C21 UNL     1      -2.417   2.899  -0.007  1.00  0.00     0.052 A   
ATOM     32  C20 UNL     1      -0.893   4.801  -0.294  1.00  0.00     0.046 A   
ATOM     33  S1  UNL     1      -1.312   3.747   0.983  1.00  0.00    -0.106 S   
ENDBRANCH  26  29
ENDBRANCH  25  26
ENDBRANCH   3  25
TORSDOF 9
