REMARK SMILES CC(C)(C)[C@H]([NH2+]Cc1ccc2c(c1)OCO2)c1cn(Cc2conc2C2CC2)nn1
REMARK SMILES IDX 17 1 18 2 19 3 29 4 30 5 5 7 2 8 1 9 3 10 4 11 6 12 7 15
REMARK SMILES IDX 8 16 9 17 13 18 10 19 12 20 11 21 14 22 16 23 15 24 20 25
REMARK SMILES IDX 21 26 22 27 25 28 23 29 24 30 26 31 27 32 28 33
REMARK H PARENT 18 6 6 13 6 14
ROOT
ATOM     1   C14 UNL     1      -1.069  -1.176   0.133  1.00  0.00     0.127 A   
ATOM     2   C15 UNL     1      -1.050  -0.135  -0.769  1.00  0.00     0.046 A   
ATOM     3   N2  UNL     1      -2.079   0.671  -0.367  1.00  0.00    -0.208 N   
ATOM     4   N4  UNL     1      -2.700   0.153   0.711  1.00  0.00    -0.076 NA  
ATOM     5   N5  UNL     1      -2.080  -0.967   1.038  1.00  0.00    -0.132 NA  
ATOM     6   H20 UNL     1      -0.423   0.101  -1.617  1.00  0.00     0.083 HD  
ENDROOT
BRANCH   1   7
ATOM     7   C5  UNL     1      -0.172  -2.364   0.311  1.00  0.00     0.120 C   
BRANCH   7   8
ATOM     8   C2  UNL     1      -0.670  -3.665  -0.407  1.00  0.00     0.010 C   
ATOM     9   C1  UNL     1      -2.034  -4.156   0.116  1.00  0.00     0.017 C   
ATOM     10  C3  UNL     1       0.364  -4.800  -0.227  1.00  0.00     0.017 C   
ATOM     11  C4  UNL     1      -0.800  -3.411  -1.927  1.00  0.00     0.017 C   
ENDBRANCH   7   8
BRANCH   7  12
ATOM     12  N1  UNL     1      -0.003  -2.603   1.801  1.00  0.00     0.250 N   
ATOM     13  H11 UNL     1      -0.748  -2.053   2.261  1.00  0.00     0.199 HD  
ATOM     14  H12 UNL     1      -0.208  -3.572   2.054  1.00  0.00     0.199 HD  
BRANCH  12  15
ATOM     15  C6  UNL     1       1.303  -2.205   2.394  1.00  0.00     0.164 C   
BRANCH  15  16
ATOM     16  C7  UNL     1       1.625  -0.744   2.249  1.00  0.00    -0.002 A   
ATOM     17  C8  UNL     1       2.694  -0.329   1.419  1.00  0.00     0.012 A   
ATOM     18  C12 UNL     1       0.870   0.223   2.936  1.00  0.00     0.045 A   
ATOM     19  C9  UNL     1       3.007   1.027   1.271  1.00  0.00     0.037 A   
ATOM     20  C11 UNL     1       1.208   1.550   2.772  1.00  0.00     0.109 A   
ATOM     21  C10 UNL     1       2.247   1.941   1.964  1.00  0.00     0.108 A   
ATOM     22  O1  UNL     1       0.594   2.603   3.371  1.00  0.00    -0.316 OA  
ATOM     23  O2  UNL     1       2.417   3.288   1.950  1.00  0.00    -0.316 OA  
ATOM     24  C13 UNL     1       1.402   3.703   2.892  1.00  0.00     0.337 C   
ENDBRANCH  15  16
ENDBRANCH  12  15
ENDBRANCH   7  12
ENDBRANCH   1   7
BRANCH   3  25
ATOM     25  C16 UNL     1      -2.554   1.904  -0.975  1.00  0.00     0.173 C   
BRANCH  25  26
ATOM     26  C17 UNL     1      -2.082   3.086  -0.220  1.00  0.00     0.021 A   
ATOM     27  C18 UNL     1      -2.579   3.583   0.965  1.00  0.00     0.171 A   
ATOM     28  C19 UNL     1      -1.044   3.994  -0.531  1.00  0.00     0.078 A   
ATOM     29  O3  UNL     1      -1.897   4.697   1.325  1.00  0.00    -0.221 OA  
ATOM     30  N3  UNL     1      -0.929   4.966   0.375  1.00  0.00    -0.134 NA  
BRANCH  28  31
ATOM     31  C20 UNL     1      -0.143   3.926  -1.793  1.00  0.00     0.041 C   
ATOM     32  C21 UNL     1       0.926   2.868  -1.884  1.00  0.00     0.011 C   
ATOM     33  C22 UNL     1       1.313   4.302  -1.681  1.00  0.00     0.011 C   
ENDBRANCH  28  31
ENDBRANCH  25  26
ENDBRANCH   3  25
TORSDOF 8
