REMARK SMILES Cc1ccc(CCn2cc([C@@H]([NH2+]Cc3ccc4c(c3)OCO4)C(C)C)nn2)cc1
REMARK SMILES IDX 8 1 9 2 10 3 26 4 27 5 7 7 6 8 5 9 2 10 3 11 29 12 4 13
REMARK SMILES IDX 28 14 1 15 11 16 12 17 13 20 14 21 15 22 19 23 16 24 18 25
REMARK SMILES IDX 17 26 20 27 22 28 21 29 23 30 24 31 25 32
REMARK H PARENT 9 6 12 18 12 19
ROOT
ATOM     1   N1  UNL     1       1.946   2.927  -1.174  1.00  0.00    -0.212 N   
ATOM     2   C8  UNL     1       2.432   2.092  -0.208  1.00  0.00     0.045 A   
ATOM     3   C9  UNL     1       2.160   0.834  -0.695  1.00  0.00     0.127 A   
ATOM     4   N3  UNL     1       1.567   0.945  -1.927  1.00  0.00    -0.132 NA  
ATOM     5   N4  UNL     1       1.450   2.231  -2.212  1.00  0.00    -0.076 NA  
ATOM     6   H10 UNL     1       2.848   2.458   0.720  1.00  0.00     0.083 HD  
ENDROOT
BRANCH   1   7
ATOM     7   C7  UNL     1       1.816   4.369  -1.116  1.00  0.00     0.139 C   
BRANCH   7   8
ATOM     8   C6  UNL     1       0.365   4.827  -0.936  1.00  0.00     0.057 C   
BRANCH   8   9
ATOM     9   C5  UNL     1      -0.311   4.226   0.278  1.00  0.00    -0.046 A   
ATOM     10  C2  UNL     1      -1.562   3.072   2.528  1.00  0.00    -0.051 A   
ATOM     11  C3  UNL     1      -0.530   4.006   2.688  1.00  0.00     0.004 A   
ATOM     12  C23 UNL     1      -1.954   2.706   1.235  1.00  0.00     0.004 A   
ATOM     13  C4  UNL     1       0.085   4.586   1.573  1.00  0.00     0.004 A   
ATOM     14  C22 UNL     1      -1.336   3.280   0.120  1.00  0.00     0.004 A   
ATOM     15  C1  UNL     1      -2.219   2.456   3.731  1.00  0.00     0.044 C   
ENDBRANCH   8   9
ENDBRANCH   7   8
ENDBRANCH   1   7
BRANCH   3  16
ATOM     16  C10 UNL     1       2.299  -0.512  -0.062  1.00  0.00     0.117 C   
BRANCH  16  17
ATOM     17  N2  UNL     1       1.100  -1.357  -0.402  1.00  0.00     0.249 N   
ATOM     18  H12 UNL     1       0.948  -1.259  -1.417  1.00  0.00     0.199 HD  
ATOM     19  H13 UNL     1       1.265  -2.352  -0.228  1.00  0.00     0.199 HD  
BRANCH  17  20
ATOM     20  C11 UNL     1      -0.166  -0.945   0.271  1.00  0.00     0.164 C   
BRANCH  20  21
ATOM     21  C12 UNL     1      -1.313  -1.788  -0.210  1.00  0.00    -0.002 A   
ATOM     22  C13 UNL     1      -2.011  -1.427  -1.389  1.00  0.00     0.012 A   
ATOM     23  C17 UNL     1      -1.665  -2.965   0.472  1.00  0.00     0.045 A   
ATOM     24  C14 UNL     1      -3.054  -2.222  -1.877  1.00  0.00     0.037 A   
ATOM     25  C16 UNL     1      -2.699  -3.725  -0.038  1.00  0.00     0.109 A   
ATOM     26  C15 UNL     1      -3.374  -3.365  -1.179  1.00  0.00     0.108 A   
ATOM     27  O1  UNL     1      -3.163  -4.885   0.496  1.00  0.00    -0.316 OA  
ATOM     28  O2  UNL     1      -4.349  -4.253  -1.506  1.00  0.00    -0.316 OA  
ATOM     29  C18 UNL     1      -4.227  -5.207  -0.429  1.00  0.00     0.337 C   
ENDBRANCH  20  21
ENDBRANCH  17  20
ENDBRANCH  16  17
BRANCH  16  30
ATOM     30  C19 UNL     1       3.610  -1.233  -0.469  1.00  0.00     0.037 C   
ATOM     31  C20 UNL     1       3.662  -1.665  -1.940  1.00  0.00     0.014 C   
ATOM     32  C21 UNL     1       3.889  -2.444   0.431  1.00  0.00     0.014 C   
ENDBRANCH  16  30
ENDBRANCH   3  16
TORSDOF 8
