REMARK SMILES CC(=O)n1ccc(C(=O)n2cc([C@@H]([NH2+]Cc3ccc4c(c3)OCO4)C3CCCCC3)nn2)c1
REMARK SMILES IDX 10 1 11 2 12 3 31 4 32 5 8 6 9 7 7 8 4 9 5 10 33 11 6 12
REMARK SMILES IDX 2 13 1 14 3 15 13 16 14 17 15 20 16 21 17 22 21 23 18 24
REMARK SMILES IDX 20 25 19 26 22 27 24 28 23 29 25 30 26 31 30 32 27 33 29 34
REMARK SMILES IDX 28 35
REMARK H PARENT 14 18 14 19
ROOT
ATOM     1   N2  UNL     1       0.848   0.628   2.547  1.00  0.00    -0.143 N   
ATOM     2   C7  UNL     1       2.061   0.430   1.900  1.00  0.00     0.139 A   
ATOM     3   C8  UNL     1       1.739   0.235   0.578  1.00  0.00     0.128 A   
ATOM     4   N4  UNL     1       0.380   0.309   0.438  1.00  0.00    -0.131 NA  
ATOM     5   N5  UNL     1      -0.150   0.526   1.631  1.00  0.00    -0.068 NA  
ENDROOT
BRANCH   1   6
ATOM     6   C6  UNL     1       0.625   0.871   3.919  1.00  0.00     0.272 C   
ATOM     7   O2  UNL     1       1.646   0.900   4.607  1.00  0.00    -0.269 OA  
BRANCH   6   8
ATOM     8   C5  UNL     1      -0.688   1.075   4.544  1.00  0.00     0.055 A   
ATOM     9   N1  UNL     1      -2.918   1.351   4.922  1.00  0.00    -0.254 N   
ATOM     10  C3  UNL     1      -2.270   1.432   6.139  1.00  0.00     0.084 A   
ATOM     11  C24 UNL     1      -1.939   1.125   3.959  1.00  0.00     0.096 A   
ATOM     12  C4  UNL     1      -0.917   1.273   5.938  1.00  0.00     0.031 A   
BRANCH   9  13
ATOM     13  C2  UNL     1      -4.296   1.467   4.650  1.00  0.00     0.219 C   
ATOM     14  C1  UNL     1      -5.171   1.714   5.839  1.00  0.00     0.112 C   
ATOM     15  O1  UNL     1      -4.688   1.361   3.495  1.00  0.00    -0.277 OA  
ENDBRANCH   9  13
ENDBRANCH   6   8
ENDBRANCH   1   6
BRANCH   3  16
ATOM     16  C9  UNL     1       2.600  -0.036  -0.617  1.00  0.00     0.117 C   
BRANCH  16  17
ATOM     17  N3  UNL     1       1.798  -0.637  -1.739  1.00  0.00     0.249 N   
ATOM     18  H8  UNL     1       0.928  -0.090  -1.824  1.00  0.00     0.199 HD  
ATOM     19  H9  UNL     1       2.281  -0.551  -2.639  1.00  0.00     0.199 HD  
BRANCH  17  20
ATOM     20  C10 UNL     1       1.400  -2.062  -1.552  1.00  0.00     0.164 C   
BRANCH  20  21
ATOM     21  C11 UNL     1       0.617  -2.541  -2.740  1.00  0.00    -0.002 A   
ATOM     22  C12 UNL     1      -0.769  -2.260  -2.840  1.00  0.00     0.012 A   
ATOM     23  C16 UNL     1       1.264  -3.221  -3.787  1.00  0.00     0.045 A   
ATOM     24  C13 UNL     1      -1.503  -2.655  -3.964  1.00  0.00     0.037 A   
ATOM     25  C15 UNL     1       0.509  -3.598  -4.879  1.00  0.00     0.109 A   
ATOM     26  C14 UNL     1      -0.834  -3.321  -4.967  1.00  0.00     0.108 A   
ATOM     27  O3  UNL     1       0.977  -4.256  -5.972  1.00  0.00    -0.316 OA  
ATOM     28  O4  UNL     1      -1.383  -3.775  -6.125  1.00  0.00    -0.316 OA  
ATOM     29  C17 UNL     1      -0.234  -4.386  -6.753  1.00  0.00     0.337 C   
ENDBRANCH  20  21
ENDBRANCH  17  20
ENDBRANCH  16  17
BRANCH  16  30
ATOM     30  C18 UNL     1       3.335   1.240  -1.116  1.00  0.00     0.043 C   
ATOM     31  C19 UNL     1       2.384   2.356  -1.599  1.00  0.00     0.010 C   
ATOM     32  C23 UNL     1       4.430   0.915  -2.161  1.00  0.00     0.010 C   
ATOM     33  C20 UNL     1       3.161   3.481  -2.274  1.00  0.00     0.001 C   
ATOM     34  C22 UNL     1       4.138   1.489  -3.543  1.00  0.00     0.001 C   
ATOM     35  C21 UNL     1       3.932   3.001  -3.502  1.00  0.00     0.000 C   
ENDBRANCH  16  30
ENDBRANCH   3  16
TORSDOF 8
