REMARK SMILES CC(=O)c1cc(-n2cc([C@@H]([NH2+]Cc3ccc4c(c3)OCO4)C3CCCC3)nn2)ccc1O
REMARK SMILES IDX 7 1 8 2 9 3 27 4 28 5 6 6 4 7 5 8 31 9 30 10 29 11 2 12 1 13
REMARK SMILES IDX 3 14 32 15 10 17 11 18 12 21 13 22 14 23 18 24 15 25 17 26
REMARK SMILES IDX 16 27 19 28 21 29 20 30 22 31 23 32 26 33 24 34 25 35
REMARK H PARENT 32 16 11 19 11 20
ROOT
ATOM     1   N1  UNL     1       1.960   1.057   0.921  1.00  0.00    -0.181 N   
ATOM     2   C6  UNL     1       2.399  -0.224   0.643  1.00  0.00     0.135 A   
ATOM     3   C7  UNL     1       1.326  -0.850   0.047  1.00  0.00     0.127 A   
ATOM     4   N3  UNL     1       0.277   0.024  -0.010  1.00  0.00    -0.131 NA  
ATOM     5   N4  UNL     1       0.663   1.166   0.533  1.00  0.00    -0.071 NA  
ENDROOT
BRANCH   1   6
ATOM     6   C5  UNL     1       2.661   2.139   1.512  1.00  0.00     0.058 A   
ATOM     7   C3  UNL     1       2.674   4.457   2.283  1.00  0.00     0.049 A   
ATOM     8   C4  UNL     1       2.001   3.370   1.704  1.00  0.00     0.040 A   
ATOM     9   C24 UNL     1       4.013   4.295   2.666  1.00  0.00     0.082 A   
ATOM     10  C23 UNL     1       4.668   3.080   2.477  1.00  0.00     0.036 A   
ATOM     11  C22 UNL     1       3.999   2.000   1.901  1.00  0.00     0.029 A   
BRANCH   7  12
ATOM     12  C2  UNL     1       1.998   5.771   2.497  1.00  0.00     0.162 C   
ATOM     13  C1  UNL     1       0.555   5.943   2.101  1.00  0.00     0.093 C   
ATOM     14  O1  UNL     1       2.640   6.695   2.997  1.00  0.00    -0.294 OA  
ENDBRANCH   7  12
BRANCH   9  15
ATOM     15  O4  UNL     1       4.760   5.288   3.238  1.00  0.00    -0.360 OA  
ATOM     16  H27 UNL     1       4.199   6.095   3.312  1.00  0.00     0.218 HD  
ENDBRANCH   9  15
ENDBRANCH   1   6
BRANCH   3  17
ATOM     17  C8  UNL     1       1.164  -2.237  -0.494  1.00  0.00     0.117 C   
BRANCH  17  18
ATOM     18  N2  UNL     1      -0.295  -2.596  -0.579  1.00  0.00     0.249 N   
ATOM     19  H7  UNL     1      -0.481  -3.330  -1.269  1.00  0.00     0.199 HD  
ATOM     20  H8  UNL     1      -0.788  -1.757  -0.921  1.00  0.00     0.199 HD  
BRANCH  18  21
ATOM     21  C9  UNL     1      -0.934  -2.978   0.711  1.00  0.00     0.164 C   
BRANCH  21  22
ATOM     22  C10 UNL     1      -2.411  -3.179   0.523  1.00  0.00    -0.002 A   
ATOM     23  C11 UNL     1      -2.931  -4.460   0.219  1.00  0.00     0.012 A   
ATOM     24  C15 UNL     1      -3.280  -2.075   0.591  1.00  0.00     0.045 A   
ATOM     25  C12 UNL     1      -4.300  -4.643  -0.005  1.00  0.00     0.037 A   
ATOM     26  C14 UNL     1      -4.624  -2.292   0.366  1.00  0.00     0.109 A   
ATOM     27  C13 UNL     1      -5.120  -3.538   0.076  1.00  0.00     0.108 A   
ATOM     28  O2  UNL     1      -5.593  -1.340   0.394  1.00  0.00    -0.316 OA  
ATOM     29  O3  UNL     1      -6.465  -3.531  -0.115  1.00  0.00    -0.316 OA  
ATOM     30  C16 UNL     1      -6.767  -2.136   0.110  1.00  0.00     0.337 C   
ENDBRANCH  21  22
ENDBRANCH  18  21
ENDBRANCH  17  18
BRANCH  17  31
ATOM     31  C17 UNL     1       1.841  -2.386  -1.871  1.00  0.00     0.043 C   
ATOM     32  C18 UNL     1       1.165  -1.666  -3.041  1.00  0.00     0.010 C   
ATOM     33  C21 UNL     1       1.949  -3.827  -2.381  1.00  0.00     0.010 C   
ATOM     34  C19 UNL     1       1.874  -2.250  -4.255  1.00  0.00     0.001 C   
ATOM     35  C20 UNL     1       2.172  -3.703  -3.890  1.00  0.00     0.001 C   
ENDBRANCH  17  31
ENDBRANCH   3  17
TORSDOF 8
