REMARK SMILES CC(C)(C)[C@H]([NH2+]Cc1ccc2c(c1)OCO2)c1cn([C@H](CO)c2cc[nH]c2)nn1
REMARK SMILES IDX 17 1 18 2 19 3 28 4 29 5 5 7 2 8 1 9 3 10 4 11 6 12 7 15
REMARK SMILES IDX 8 16 9 17 13 18 10 19 12 20 11 21 14 22 16 23 15 24 20 25
REMARK SMILES IDX 21 26 22 27 23 29 24 30 27 31 25 32 26 33
REMARK H PARENT 18 6 6 13 6 14 22 28 26 34
ROOT
ATOM     1   C14 UNL     1      -0.504  -1.407   0.776  1.00  0.00     0.127 A   
ATOM     2   C15 UNL     1      -1.686  -0.918   1.282  1.00  0.00     0.046 A   
ATOM     3   N2  UNL     1      -1.661  -1.272   2.606  1.00  0.00    -0.202 N   
ATOM     4   N4  UNL     1      -0.509  -1.919   2.897  1.00  0.00    -0.075 NA  
ATOM     5   N5  UNL     1       0.204  -2.006   1.786  1.00  0.00    -0.132 NA  
ATOM     6   H20 UNL     1      -2.519  -0.385   0.847  1.00  0.00     0.083 HD  
ENDROOT
BRANCH   1   7
ATOM     7   C5  UNL     1       0.096  -1.309  -0.592  1.00  0.00     0.120 C   
BRANCH   7   8
ATOM     8   C2  UNL     1      -0.232  -2.523  -1.531  1.00  0.00     0.010 C   
ATOM     9   C1  UNL     1      -1.762  -2.710  -1.647  1.00  0.00     0.017 C   
ATOM     10  C3  UNL     1       0.381  -3.846  -1.031  1.00  0.00     0.017 C   
ATOM     11  C4  UNL     1       0.296  -2.250  -2.959  1.00  0.00     0.017 C   
ENDBRANCH   7   8
BRANCH   7  12
ATOM     12  N1  UNL     1       1.597  -1.148  -0.442  1.00  0.00     0.250 N   
ATOM     13  H11 UNL     1       1.882  -1.832   0.275  1.00  0.00     0.199 HD  
ATOM     14  H12 UNL     1       2.090  -1.393  -1.302  1.00  0.00     0.199 HD  
BRANCH  12  15
ATOM     15  C6  UNL     1       2.063   0.193   0.021  1.00  0.00     0.164 C   
BRANCH  15  16
ATOM     16  C7  UNL     1       1.917   1.253  -1.037  1.00  0.00    -0.002 A   
ATOM     17  C8  UNL     1       0.947   2.274  -0.896  1.00  0.00     0.012 A   
ATOM     18  C12 UNL     1       2.727   1.223  -2.186  1.00  0.00     0.045 A   
ATOM     19  C9  UNL     1       0.778   3.249  -1.886  1.00  0.00     0.037 A   
ATOM     20  C11 UNL     1       2.534   2.197  -3.143  1.00  0.00     0.109 A   
ATOM     21  C10 UNL     1       1.587   3.181  -2.999  1.00  0.00     0.108 A   
ATOM     22  O1  UNL     1       3.224   2.306  -4.309  1.00  0.00    -0.316 OA  
ATOM     23  O2  UNL     1       1.564   4.037  -4.054  1.00  0.00    -0.316 OA  
ATOM     24  C13 UNL     1       2.628   3.498  -4.870  1.00  0.00     0.337 C   
ENDBRANCH  15  16
ENDBRANCH  12  15
ENDBRANCH   7  12
ENDBRANCH   1   7
BRANCH   3  25
ATOM     25  C16 UNL     1      -2.661  -1.040   3.646  1.00  0.00     0.156 C   
BRANCH  25  26
ATOM     26  C17 UNL     1      -3.914  -1.915   3.453  1.00  0.00     0.185 C   
BRANCH  26  27
ATOM     27  O3  UNL     1      -4.562  -1.712   2.195  1.00  0.00    -0.394 OA  
ATOM     28  H24 UNL     1      -5.399  -2.213   2.225  1.00  0.00     0.210 HD  
ENDBRANCH  26  27
ENDBRANCH  25  26
BRANCH  25  29
ATOM     29  C18 UNL     1      -2.936   0.439   3.808  1.00  0.00    -0.008 A   
ATOM     30  C19 UNL     1      -3.818   1.261   3.044  1.00  0.00     0.022 A   
ATOM     31  C21 UNL     1      -2.374   1.272   4.764  1.00  0.00     0.077 A   
ATOM     32  C20 UNL     1      -3.756   2.539   3.552  1.00  0.00     0.072 A   
ATOM     33  N3  UNL     1      -2.884   2.534   4.607  1.00  0.00    -0.327 N   
ATOM     34  H27 UNL     1      -2.658   3.335   5.185  1.00  0.00     0.152 HD  
ENDBRANCH  25  29
ENDBRANCH   3  25
TORSDOF 9
