REMARK SMILES CC(C)(C)[C@H]([NH2+]Cc1ccc2c(c1)OCO2)c1cn([C@@H](CO)c2cc[nH]c2)nn1
REMARK SMILES IDX 17 1 18 2 19 3 28 4 29 5 5 7 2 8 1 9 3 10 4 11 6 12 7 15
REMARK SMILES IDX 8 16 9 17 13 18 10 19 12 20 11 21 14 22 16 23 15 24 20 25
REMARK SMILES IDX 21 26 22 27 23 29 24 30 27 31 25 32 26 33
REMARK H PARENT 18 6 6 13 6 14 22 28 26 34
ROOT
ATOM     1   C14 UNL     1      -1.095  -0.346   0.057  1.00  0.00     0.127 A   
ATOM     2   C15 UNL     1      -2.308  -0.641  -0.520  1.00  0.00     0.046 A   
ATOM     3   N2  UNL     1      -2.843   0.583  -0.827  1.00  0.00    -0.202 N   
ATOM     4   N4  UNL     1      -1.972   1.569  -0.515  1.00  0.00    -0.075 NA  
ATOM     5   N5  UNL     1      -0.907   1.013   0.036  1.00  0.00    -0.132 NA  
ATOM     6   H20 UNL     1      -2.832  -1.563  -0.731  1.00  0.00     0.083 HD  
ENDROOT
BRANCH   1   7
ATOM     7   C5  UNL     1      -0.011  -1.237   0.579  1.00  0.00     0.120 C   
BRANCH   7   8
ATOM     8   C2  UNL     1      -0.104  -1.528   2.118  1.00  0.00     0.010 C   
ATOM     9   C1  UNL     1       0.095  -0.262   2.976  1.00  0.00     0.017 C   
ATOM     10  C3  UNL     1       0.962  -2.568   2.534  1.00  0.00     0.017 C   
ATOM     11  C4  UNL     1      -1.483  -2.136   2.465  1.00  0.00     0.017 C   
ENDBRANCH   7   8
BRANCH   7  12
ATOM     12  N1  UNL     1       1.325  -0.619   0.240  1.00  0.00     0.250 N   
ATOM     13  H11 UNL     1       1.257   0.380   0.490  1.00  0.00     0.199 HD  
ATOM     14  H12 UNL     1       2.089  -1.004   0.799  1.00  0.00     0.199 HD  
BRANCH  12  15
ATOM     15  C6  UNL     1       1.707  -0.682  -1.199  1.00  0.00     0.164 C   
BRANCH  15  16
ATOM     16  C7  UNL     1       3.021   0.012  -1.419  1.00  0.00    -0.002 A   
ATOM     17  C8  UNL     1       3.057   1.410  -1.640  1.00  0.00     0.012 A   
ATOM     18  C12 UNL     1       4.224  -0.709  -1.348  1.00  0.00     0.045 A   
ATOM     19  C9  UNL     1       4.274   2.081  -1.798  1.00  0.00     0.037 A   
ATOM     20  C11 UNL     1       5.406  -0.017  -1.508  1.00  0.00     0.109 A   
ATOM     21  C10 UNL     1       5.431   1.339  -1.726  1.00  0.00     0.108 A   
ATOM     22  O1  UNL     1       6.651  -0.559  -1.465  1.00  0.00    -0.316 OA  
ATOM     23  O2  UNL     1       6.695   1.820  -1.850  1.00  0.00    -0.316 OA  
ATOM     24  C13 UNL     1       7.468   0.609  -1.706  1.00  0.00     0.337 C   
ENDBRANCH  15  16
ENDBRANCH  12  15
ENDBRANCH   7  12
ENDBRANCH   1   7
BRANCH   3  25
ATOM     25  C16 UNL     1      -4.131   0.904  -1.441  1.00  0.00     0.156 C   
BRANCH  25  26
ATOM     26  C17 UNL     1      -4.050   0.844  -2.977  1.00  0.00     0.185 C   
BRANCH  26  27
ATOM     27  O3  UNL     1      -3.603  -0.424  -3.468  1.00  0.00    -0.394 OA  
ATOM     28  H24 UNL     1      -3.725  -0.406  -4.436  1.00  0.00     0.210 HD  
ENDBRANCH  26  27
ENDBRANCH  25  26
BRANCH  25  29
ATOM     29  C18 UNL     1      -5.245   0.092  -0.817  1.00  0.00    -0.008 A   
ATOM     30  C19 UNL     1      -5.893   0.390   0.420  1.00  0.00     0.022 A   
ATOM     31  C21 UNL     1      -5.851  -1.059  -1.294  1.00  0.00     0.077 A   
ATOM     32  C20 UNL     1      -6.852  -0.572   0.641  1.00  0.00     0.072 A   
ATOM     33  N3  UNL     1      -6.826  -1.445  -0.411  1.00  0.00    -0.327 N   
ATOM     34  H27 UNL     1      -7.437  -2.246  -0.522  1.00  0.00     0.152 HD  
ENDBRANCH  25  29
ENDBRANCH   3  25
TORSDOF 9
