REMARK SMILES COCc1ccc(Cn2cc([C@@H]([NH2+]Cc3ccc4c(c3)OCO4)C(C)C)nn2)o1
REMARK SMILES IDX 9 1 10 2 11 3 27 4 28 5 8 7 7 8 4 9 5 10 29 11 6 12 3 13
REMARK SMILES IDX 2 14 1 15 12 16 13 17 14 20 15 21 16 22 20 23 17 24 19 25
REMARK SMILES IDX 18 26 21 27 23 28 22 29 24 30 25 31 26 32
REMARK H PARENT 10 6 13 18 13 19
ROOT
ATOM     1   N1  UNL     1      -1.468  -2.702   2.564  1.00  0.00    -0.206 N   
ATOM     2   C8  UNL     1      -1.462  -3.068   1.240  1.00  0.00     0.046 A   
ATOM     3   C9  UNL     1      -2.303  -2.149   0.653  1.00  0.00     0.127 A   
ATOM     4   N3  UNL     1      -2.965  -1.460   1.634  1.00  0.00    -0.132 NA  
ATOM     5   N4  UNL     1      -2.449  -1.809   2.803  1.00  0.00    -0.076 NA  
ATOM     6   H10 UNL     1      -0.725  -3.754   0.846  1.00  0.00     0.083 HD  
ENDROOT
BRANCH   1   7
ATOM     7   C7  UNL     1      -0.346  -2.838   3.486  1.00  0.00     0.195 C   
BRANCH   7   8
ATOM     8   C6  UNL     1       0.729  -1.903   3.041  1.00  0.00     0.078 A   
ATOM     9   C3  UNL     1       2.039  -1.064   1.482  1.00  0.00     0.085 A   
ATOM     10  C4  UNL     1       2.177  -0.253   2.590  1.00  0.00     0.034 A   
ATOM     11  O4  UNL     1       1.199  -2.092   1.770  1.00  0.00    -0.315 OA  
ATOM     12  C5  UNL     1       1.335  -0.796   3.597  1.00  0.00     0.033 A   
BRANCH   9  13
ATOM     13  C2  UNL     1       2.601  -1.040   0.109  1.00  0.00     0.221 C   
BRANCH  13  14
ATOM     14  O1  UNL     1       1.490  -0.891  -0.806  1.00  0.00    -0.378 OA  
ATOM     15  C1  UNL     1       1.993  -0.799  -2.142  1.00  0.00     0.195 C   
ENDBRANCH  13  14
ENDBRANCH   9  13
ENDBRANCH   7   8
ENDBRANCH   1   7
BRANCH   3  16
ATOM     16  C10 UNL     1      -2.386  -1.687  -0.768  1.00  0.00     0.117 C   
BRANCH  16  17
ATOM     17  N2  UNL     1      -1.392  -0.561  -0.973  1.00  0.00     0.249 N   
ATOM     18  H12 UNL     1      -0.429  -0.886  -0.762  1.00  0.00     0.199 HD  
ATOM     19  H13 UNL     1      -1.380  -0.261  -1.949  1.00  0.00     0.199 HD  
BRANCH  17  20
ATOM     20  C11 UNL     1      -1.630   0.658  -0.138  1.00  0.00     0.164 C   
BRANCH  20  21
ATOM     21  C12 UNL     1      -0.953   1.857  -0.749  1.00  0.00    -0.002 A   
ATOM     22  C13 UNL     1      -1.620   2.632  -1.728  1.00  0.00     0.012 A   
ATOM     23  C17 UNL     1       0.367   2.180  -0.393  1.00  0.00     0.045 A   
ATOM     24  C14 UNL     1      -0.983   3.715  -2.344  1.00  0.00     0.037 A   
ATOM     25  C16 UNL     1       0.970   3.248  -1.024  1.00  0.00     0.109 A   
ATOM     26  C15 UNL     1       0.313   3.995  -1.971  1.00  0.00     0.108 A   
ATOM     27  O2  UNL     1       2.241   3.678  -0.810  1.00  0.00    -0.316 OA  
ATOM     28  O3  UNL     1       1.085   4.997  -2.466  1.00  0.00    -0.316 OA  
ATOM     29  C18 UNL     1       2.296   4.816  -1.702  1.00  0.00     0.337 C   
ENDBRANCH  20  21
ENDBRANCH  17  20
ENDBRANCH  16  17
BRANCH  16  30
ATOM     30  C19 UNL     1      -2.129  -2.806  -1.815  1.00  0.00     0.037 C   
ATOM     31  C20 UNL     1      -3.194  -3.910  -1.709  1.00  0.00     0.014 C   
ATOM     32  C21 UNL     1      -2.119  -2.289  -3.259  1.00  0.00     0.014 C   
ENDBRANCH  16  30
ENDBRANCH   3  16
TORSDOF 9
