REMARK SMILES CC(C)C[C@H]([NH2+]Cc1ccc2c(c1)OCO2)c1cn(CCc2ccn(C)n2)nn1
REMARK SMILES IDX 17 1 18 2 19 3 28 4 29 5 5 7 4 8 2 9 1 10 3 11 6 12 7 15
REMARK SMILES IDX 8 16 9 17 13 18 10 19 12 20 11 21 14 22 16 23 15 24 20 25
REMARK SMILES IDX 21 26 22 27 23 28 27 29 24 30 25 31 26 32
REMARK H PARENT 18 6 6 13 6 14
ROOT
ATOM     1   C14 UNL     1      -0.581  -1.484   0.770  1.00  0.00     0.127 A   
ATOM     2   C15 UNL     1      -1.679  -1.566  -0.054  1.00  0.00     0.045 A   
ATOM     3   N2  UNL     1      -2.188  -2.807   0.197  1.00  0.00    -0.212 N   
ATOM     4   N5  UNL     1      -1.519  -3.405   1.202  1.00  0.00    -0.076 NA  
ATOM     5   N6  UNL     1      -0.516  -2.614   1.546  1.00  0.00    -0.132 NA  
ATOM     6   H20 UNL     1      -2.095  -0.915  -0.811  1.00  0.00     0.083 HD  
ENDROOT
BRANCH   1   7
ATOM     7   C5  UNL     1       0.439  -0.407   0.953  1.00  0.00     0.114 C   
BRANCH   7   8
ATOM     8   C4  UNL     1       1.638  -0.557  -0.003  1.00  0.00     0.064 C   
BRANCH   8   9
ATOM     9   C2  UNL     1       1.308  -0.405  -1.505  1.00  0.00    -0.012 C   
ATOM     10  C1  UNL     1       2.574  -0.633  -2.336  1.00  0.00     0.007 C   
ATOM     11  C3  UNL     1       0.716   0.966  -1.836  1.00  0.00     0.007 C   
ENDBRANCH   8   9
ENDBRANCH   7   8
BRANCH   7  12
ATOM     12  N1  UNL     1       0.936  -0.492   2.383  1.00  0.00     0.249 N   
ATOM     13  H11 UNL     1       0.097  -0.589   2.970  1.00  0.00     0.199 HD  
ATOM     14  H12 UNL     1       1.408  -1.401   2.485  1.00  0.00     0.199 HD  
BRANCH  12  15
ATOM     15  C6  UNL     1       1.773   0.604   2.927  1.00  0.00     0.164 C   
BRANCH  15  16
ATOM     16  C7  UNL     1       1.076   1.935   2.928  1.00  0.00    -0.002 A   
ATOM     17  C8  UNL     1       0.091   2.226   3.903  1.00  0.00     0.012 A   
ATOM     18  C12 UNL     1       1.367   2.886   1.935  1.00  0.00     0.045 A   
ATOM     19  C9  UNL     1      -0.594   3.446   3.890  1.00  0.00     0.037 A   
ATOM     20  C11 UNL     1       0.668   4.075   1.947  1.00  0.00     0.109 A   
ATOM     21  C10 UNL     1      -0.285   4.348   2.897  1.00  0.00     0.108 A   
ATOM     22  O1  UNL     1       0.818   5.088   1.054  1.00  0.00    -0.316 OA  
ATOM     23  O2  UNL     1      -0.851   5.571   2.726  1.00  0.00    -0.316 OA  
ATOM     24  C13 UNL     1      -0.130   6.051   1.571  1.00  0.00     0.337 C   
ENDBRANCH  15  16
ENDBRANCH  12  15
ENDBRANCH   7  12
ENDBRANCH   1   7
BRANCH   3  25
ATOM     25  C16 UNL     1      -3.325  -3.458  -0.419  1.00  0.00     0.140 C   
BRANCH  25  26
ATOM     26  C17 UNL     1      -2.922  -4.485  -1.471  1.00  0.00     0.079 C   
BRANCH  26  27
ATOM     27  C18 UNL     1      -2.619  -3.883  -2.805  1.00  0.00     0.062 A   
ATOM     28  C19 UNL     1      -3.262  -4.155  -4.035  1.00  0.00     0.042 A   
ATOM     29  N4  UNL     1      -1.633  -2.986  -2.952  1.00  0.00    -0.187 NA  
ATOM     30  C20 UNL     1      -2.601  -3.386  -4.961  1.00  0.00     0.097 A   
ATOM     31  N3  UNL     1      -1.627  -2.725  -4.275  1.00  0.00    -0.236 N   
ATOM     32  C21 UNL     1      -0.644  -1.823  -4.823  1.00  0.00     0.159 C   
ENDBRANCH  26  27
ENDBRANCH  25  26
ENDBRANCH   3  25
TORSDOF 9
