REMARK SMILES [O-]N([O-])c1ccc(-n2cc([C@@H]([NH2+]Cc3ccc4c(c3)OCO4)C3CCCC3)nn2)cc1
REMARK SMILES IDX 8 1 9 2 10 3 28 4 29 5 7 6 4 7 5 8 31 9 6 10 30 11 2 12 1 13
REMARK SMILES IDX 3 14 11 15 12 16 13 19 14 20 15 21 19 22 16 23 18 24 17 25
REMARK SMILES IDX 20 26 22 27 21 28 23 29 24 30 27 31 25 32 26 33
REMARK H PARENT 12 17 12 18
ROOT
ATOM     1   N2  UNL     1      -1.369   0.556   0.635  1.00  0.00    -0.181 N   
ATOM     2   C5  UNL     1      -0.929  -0.530  -0.096  1.00  0.00     0.135 A   
ATOM     3   C6  UNL     1      -0.453  -1.418   0.843  1.00  0.00     0.127 A   
ATOM     4   N4  UNL     1      -0.657  -0.905   2.092  1.00  0.00    -0.131 NA  
ATOM     5   N5  UNL     1      -1.224   0.283   1.957  1.00  0.00    -0.071 NA  
ENDROOT
BRANCH   1   6
ATOM     6   C4  UNL     1      -1.859   1.805   0.174  1.00  0.00     0.058 A   
ATOM     7   C1  UNL     1      -2.783   4.303  -0.693  1.00  0.00     0.118 A   
ATOM     8   C2  UNL     1      -2.414   3.331  -1.632  1.00  0.00     0.033 A   
ATOM     9   C22 UNL     1      -2.699   4.033   0.678  1.00  0.00     0.033 A   
ATOM     10  C3  UNL     1      -1.952   2.083  -1.198  1.00  0.00     0.028 A   
ATOM     11  C21 UNL     1      -2.236   2.785   1.108  1.00  0.00     0.028 A   
BRANCH   7  12
ATOM     12  N1  UNL     1      -3.257   5.616  -1.151  1.00  0.00     0.092 N   
ATOM     13  O1  UNL     1      -3.662   6.413  -0.294  1.00  0.00    -0.138 OA  
ATOM     14  O2  UNL     1      -3.218   5.844  -2.368  1.00  0.00    -0.138 OA  
ENDBRANCH   7  12
ENDBRANCH   1   6
BRANCH   3  15
ATOM     15  C7  UNL     1       0.294  -2.706   0.696  1.00  0.00     0.117 C   
BRANCH  15  16
ATOM     16  N3  UNL     1       1.509  -2.675   1.606  1.00  0.00     0.249 N   
ATOM     17  H5  UNL     1       1.715  -3.608   1.973  1.00  0.00     0.199 HD  
ATOM     18  H6  UNL     1       1.238  -2.108   2.426  1.00  0.00     0.199 HD  
BRANCH  16  19
ATOM     19  C8  UNL     1       2.763  -2.104   1.029  1.00  0.00     0.164 C   
BRANCH  19  20
ATOM     20  C9  UNL     1       2.649  -0.662   0.617  1.00  0.00    -0.002 A   
ATOM     21  C10 UNL     1       2.569   0.358   1.596  1.00  0.00     0.012 A   
ATOM     22  C14 UNL     1       2.559  -0.319  -0.744  1.00  0.00     0.045 A   
ATOM     23  C11 UNL     1       2.378   1.695   1.230  1.00  0.00     0.037 A   
ATOM     24  C13 UNL     1       2.365   1.008  -1.069  1.00  0.00     0.109 A   
ATOM     25  C12 UNL     1       2.274   1.986  -0.111  1.00  0.00     0.108 A   
ATOM     26  O3  UNL     1       2.217   1.499  -2.328  1.00  0.00    -0.316 OA  
ATOM     27  O4  UNL     1       2.064   3.217  -0.645  1.00  0.00    -0.316 OA  
ATOM     28  C15 UNL     1       2.095   2.915  -2.056  1.00  0.00     0.337 C   
ENDBRANCH  19  20
ENDBRANCH  16  19
ENDBRANCH  15  16
BRANCH  15  29
ATOM     29  C16 UNL     1      -0.575  -3.922   1.070  1.00  0.00     0.043 C   
ATOM     30  C17 UNL     1      -1.815  -4.077   0.184  1.00  0.00     0.010 C   
ATOM     31  C20 UNL     1       0.128  -5.276   0.889  1.00  0.00     0.010 C   
ATOM     32  C18 UNL     1      -2.269  -5.499   0.470  1.00  0.00     0.001 C   
ATOM     33  C19 UNL     1      -0.980  -6.296   0.624  1.00  0.00     0.001 C   
ENDBRANCH  15  29
ENDBRANCH   3  15
TORSDOF 7
