REMARK SMILES Cc1cccc2c1O[C@@H](Cn1cc([C@@H]([NH2+]Cc3ccc4c(c3)OCO4)C(C)(C)C)nn1)C2
REMARK SMILES IDX 11 1 12 2 13 3 30 4 31 5 10 7 9 8 2 9 3 10 7 11 4 12 6 13
REMARK SMILES IDX 8 14 5 15 32 16 1 17 14 18 15 19 16 22 17 23 18 24 22 25
REMARK SMILES IDX 19 26 21 27 20 28 23 29 25 30 24 31 26 32 27 33 28 34 29 35
REMARK H PARENT 12 6 15 20 15 21
ROOT
ATOM     1   N1  UNL     1       0.786   2.883  -0.772  1.00  0.00    -0.210 N   
ATOM     2   C10 UNL     1       1.511   1.782  -1.130  1.00  0.00     0.045 A   
ATOM     3   C11 UNL     1       0.553   0.833  -1.409  1.00  0.00     0.127 A   
ATOM     4   N3  UNL     1      -0.690   1.392  -1.258  1.00  0.00    -0.132 NA  
ATOM     5   N4  UNL     1      -0.533   2.651  -0.886  1.00  0.00    -0.076 NA  
ATOM     6   H10 UNL     1       2.591   1.762  -1.084  1.00  0.00     0.083 HD  
ENDROOT
BRANCH   1   7
ATOM     7   C9  UNL     1       1.275   4.143  -0.254  1.00  0.00     0.166 C   
BRANCH   7   8
ATOM     8   C8  UNL     1       1.499   4.141   1.263  1.00  0.00     0.149 C   
ATOM     9   C2  UNL     1       2.465   1.047   2.815  1.00  0.00    -0.020 A   
ATOM     10  C3  UNL     1       1.675   0.197   3.603  1.00  0.00     0.006 A   
ATOM     11  C7  UNL     1       1.877   2.219   2.362  1.00  0.00     0.082 A   
ATOM     12  C4  UNL     1       0.341   0.524   3.902  1.00  0.00     0.001 A   
ATOM     13  C6  UNL     1       0.563   2.546   2.655  1.00  0.00    -0.015 A   
ATOM     14  O1  UNL     1       2.522   3.163   1.603  1.00  0.00    -0.340 OA  
ATOM     15  C5  UNL     1      -0.225   1.709   3.425  1.00  0.00     0.006 A   
ATOM     16  C25 UNL     1       0.240   3.883   2.108  1.00  0.00     0.072 C   
ATOM     17  C1  UNL     1       3.901   0.738   2.529  1.00  0.00     0.047 C   
ENDBRANCH   7   8
ENDBRANCH   1   7
BRANCH   3  18
ATOM     18  C12 UNL     1       0.676  -0.634  -1.677  1.00  0.00     0.120 C   
BRANCH  18  19
ATOM     19  N2  UNL     1      -0.339  -1.359  -0.824  1.00  0.00     0.250 N   
ATOM     20  H12 UNL     1      -0.482  -2.328  -1.117  1.00  0.00     0.199 HD  
ATOM     21  H13 UNL     1      -1.239  -0.875  -0.964  1.00  0.00     0.199 HD  
BRANCH  19  22
ATOM     22  C13 UNL     1      -0.058  -1.331   0.641  1.00  0.00     0.164 C   
BRANCH  22  23
ATOM     23  C14 UNL     1      -1.161  -2.006   1.405  1.00  0.00    -0.002 A   
ATOM     24  C15 UNL     1      -1.062  -3.372   1.758  1.00  0.00     0.012 A   
ATOM     25  C19 UNL     1      -2.320  -1.284   1.740  1.00  0.00     0.045 A   
ATOM     26  C16 UNL     1      -2.099  -4.011   2.446  1.00  0.00     0.037 A   
ATOM     27  C18 UNL     1      -3.323  -1.944   2.419  1.00  0.00     0.109 A   
ATOM     28  C17 UNL     1      -3.216  -3.269   2.762  1.00  0.00     0.108 A   
ATOM     29  O2  UNL     1      -4.498  -1.396   2.823  1.00  0.00    -0.316 OA  
ATOM     30  O3  UNL     1      -4.311  -3.723   3.425  1.00  0.00    -0.316 OA  
ATOM     31  C20 UNL     1      -5.123  -2.530   3.466  1.00  0.00     0.337 C   
ENDBRANCH  22  23
ENDBRANCH  19  22
ENDBRANCH  18  19
BRANCH  18  32
ATOM     32  C21 UNL     1       0.520  -1.033  -3.184  1.00  0.00     0.010 C   
ATOM     33  C22 UNL     1      -0.890  -0.752  -3.739  1.00  0.00     0.017 C   
ATOM     34  C23 UNL     1       0.821  -2.538  -3.373  1.00  0.00     0.017 C   
ATOM     35  C24 UNL     1       1.545  -0.257  -4.043  1.00  0.00     0.017 C   
ENDBRANCH  18  32
ENDBRANCH   3  18
TORSDOF 7
