REMARK SMILES Cc1cccc2c1O[C@H](Cn1cc([C@@H]([NH2+]Cc3ccc4c(c3)OCO4)C(C)(C)C)nn1)C2
REMARK SMILES IDX 11 1 12 2 13 3 30 4 31 5 10 7 9 8 2 9 3 10 7 11 4 12 6 13
REMARK SMILES IDX 8 14 5 15 32 16 1 17 14 18 15 19 16 22 17 23 18 24 22 25
REMARK SMILES IDX 19 26 21 27 20 28 23 29 25 30 24 31 26 32 27 33 28 34 29 35
REMARK H PARENT 12 6 15 20 15 21
ROOT
ATOM     1   N1  UNL     1       3.002  -0.311   1.000  1.00  0.00    -0.210 N   
ATOM     2   C10 UNL     1       2.542  -0.126  -0.273  1.00  0.00     0.045 A   
ATOM     3   C11 UNL     1       1.176  -0.037  -0.125  1.00  0.00     0.127 A   
ATOM     4   N3  UNL     1       0.858  -0.242   1.196  1.00  0.00    -0.132 NA  
ATOM     5   N4  UNL     1       1.980  -0.442   1.865  1.00  0.00    -0.076 NA  
ATOM     6   H10 UNL     1       3.210  -0.035  -1.120  1.00  0.00     0.083 HD  
ENDROOT
BRANCH   1   7
ATOM     7   C9  UNL     1       4.371  -0.443   1.454  1.00  0.00     0.166 C   
BRANCH   7   8
ATOM     8   C8  UNL     1       5.055   0.884   1.802  1.00  0.00     0.149 C   
ATOM     9   C2  UNL     1       4.201   3.727  -0.215  1.00  0.00    -0.020 A   
ATOM     10  C3  UNL     1       3.351   4.791   0.120  1.00  0.00     0.006 A   
ATOM     11  C7  UNL     1       4.428   2.767   0.759  1.00  0.00     0.082 A   
ATOM     12  C4  UNL     1       2.750   4.862   1.389  1.00  0.00     0.001 A   
ATOM     13  C6  UNL     1       3.847   2.840   2.016  1.00  0.00    -0.015 A   
ATOM     14  O1  UNL     1       5.233   1.669   0.590  1.00  0.00    -0.340 OA  
ATOM     15  C5  UNL     1       3.002   3.882   2.351  1.00  0.00     0.006 A   
ATOM     16  C25 UNL     1       4.337   1.732   2.864  1.00  0.00     0.072 C   
ATOM     17  C1  UNL     1       4.876   3.664  -1.549  1.00  0.00     0.047 C   
ENDBRANCH   7   8
ENDBRANCH   1   7
BRANCH   3  18
ATOM     18  C12 UNL     1       0.070   0.170  -1.119  1.00  0.00     0.120 C   
BRANCH  18  19
ATOM     19  N2  UNL     1      -1.184  -0.484  -0.580  1.00  0.00     0.250 N   
ATOM     20  H12 UNL     1      -2.040  -0.111  -0.997  1.00  0.00     0.199 HD  
ATOM     21  H13 UNL     1      -1.227  -0.243   0.423  1.00  0.00     0.199 HD  
BRANCH  19  22
ATOM     22  C13 UNL     1      -1.218  -1.970  -0.671  1.00  0.00     0.164 C   
BRANCH  22  23
ATOM     23  C14 UNL     1      -2.479  -2.503  -0.051  1.00  0.00    -0.002 A   
ATOM     24  C15 UNL     1      -3.621  -2.757  -0.848  1.00  0.00     0.012 A   
ATOM     25  C19 UNL     1      -2.544  -2.702   1.339  1.00  0.00     0.045 A   
ATOM     26  C16 UNL     1      -4.811  -3.213  -0.271  1.00  0.00     0.037 A   
ATOM     27  C18 UNL     1      -3.732  -3.154   1.875  1.00  0.00     0.109 A   
ATOM     28  C17 UNL     1      -4.835  -3.401   1.094  1.00  0.00     0.108 A   
ATOM     29  O2  UNL     1      -3.962  -3.402   3.191  1.00  0.00    -0.316 OA  
ATOM     30  O3  UNL     1      -5.897  -3.836   1.819  1.00  0.00    -0.316 OA  
ATOM     31  C20 UNL     1      -5.332  -3.864   3.147  1.00  0.00     0.337 C   
ENDBRANCH  22  23
ENDBRANCH  19  22
ENDBRANCH  18  19
BRANCH  18  32
ATOM     32  C21 UNL     1      -0.212   1.673  -1.470  1.00  0.00     0.010 C   
ATOM     33  C22 UNL     1       1.050   2.320  -2.082  1.00  0.00     0.017 C   
ATOM     34  C23 UNL     1      -0.635   2.498  -0.239  1.00  0.00     0.017 C   
ATOM     35  C24 UNL     1      -1.326   1.787  -2.538  1.00  0.00     0.017 C   
ENDBRANCH  18  32
ENDBRANCH   3  18
TORSDOF 7
