REMARK SMILES Cc1cc(-n2cc([C@@H]([NH2+]Cc3ccc4c(c3)OCO4)C(C)(C)C)nn2)ccc1O
REMARK SMILES IDX 5 1 6 2 7 3 24 4 25 5 4 6 2 7 3 8 28 9 27 10 26 11 1 12
REMARK SMILES IDX 29 13 8 15 9 16 10 19 11 20 12 21 16 22 13 23 15 24 14 25
REMARK SMILES IDX 17 26 19 27 18 28 20 29 21 30 22 31 23 32
REMARK H PARENT 29 14 9 17 9 18
ROOT
ATOM     1   N1  UNL     1       0.349   2.055  -1.176  1.00  0.00    -0.181 N   
ATOM     2   C5  UNL     1      -0.718   1.904  -0.309  1.00  0.00     0.135 A   
ATOM     3   C6  UNL     1      -0.548   0.661   0.259  1.00  0.00     0.128 A   
ATOM     4   N3  UNL     1       0.557   0.071  -0.287  1.00  0.00    -0.131 NA  
ATOM     5   N4  UNL     1       1.084   0.913  -1.159  1.00  0.00    -0.071 NA  
ENDROOT
BRANCH   1   6
ATOM     6   C4  UNL     1       0.692   3.162  -1.991  1.00  0.00     0.058 A   
ATOM     7   C2  UNL     1       2.206   4.173  -3.630  1.00  0.00    -0.019 A   
ATOM     8   C3  UNL     1       1.832   3.091  -2.813  1.00  0.00     0.032 A   
ATOM     9   C22 UNL     1       1.417   5.326  -3.603  1.00  0.00     0.074 A   
ATOM     10  C21 UNL     1       0.284   5.404  -2.795  1.00  0.00     0.035 A   
ATOM     11  C20 UNL     1      -0.083   4.326  -1.987  1.00  0.00     0.028 A   
ATOM     12  C1  UNL     1       3.431   4.060  -4.491  1.00  0.00     0.047 C   
BRANCH   9  13
ATOM     13  O3  UNL     1       1.692   6.435  -4.348  1.00  0.00    -0.361 OA  
ATOM     14  H27 UNL     1       2.521   6.309  -4.838  1.00  0.00     0.218 HD  
ENDBRANCH   9  13
ENDBRANCH   1   6
BRANCH   3  15
ATOM     15  C7  UNL     1      -1.367  -0.103   1.260  1.00  0.00     0.120 C   
BRANCH  15  16
ATOM     16  N2  UNL     1      -1.215  -1.580   0.975  1.00  0.00     0.250 N   
ATOM     17  H7  UNL     1      -0.224  -1.734   0.727  1.00  0.00     0.199 HD  
ATOM     18  H8  UNL     1      -1.387  -2.164   1.797  1.00  0.00     0.199 HD  
BRANCH  16  19
ATOM     19  C8  UNL     1      -2.036  -2.097  -0.155  1.00  0.00     0.164 C   
BRANCH  19  20
ATOM     20  C9  UNL     1      -1.705  -3.536  -0.428  1.00  0.00    -0.002 A   
ATOM     21  C10 UNL     1      -0.754  -3.870  -1.421  1.00  0.00     0.012 A   
ATOM     22  C14 UNL     1      -2.292  -4.556   0.340  1.00  0.00     0.045 A   
ATOM     23  C11 UNL     1      -0.404  -5.204  -1.660  1.00  0.00     0.037 A   
ATOM     24  C13 UNL     1      -1.919  -5.860   0.083  1.00  0.00     0.109 A   
ATOM     25  C12 UNL     1      -1.004  -6.175  -0.891  1.00  0.00     0.108 A   
ATOM     26  O1  UNL     1      -2.383  -6.957   0.736  1.00  0.00    -0.316 OA  
ATOM     27  O2  UNL     1      -0.783  -7.512  -0.979  1.00  0.00    -0.316 OA  
ATOM     28  C15 UNL     1      -1.664  -8.008   0.051  1.00  0.00     0.337 C   
ENDBRANCH  19  20
ENDBRANCH  16  19
ENDBRANCH  15  16
BRANCH  15  29
ATOM     29  C16 UNL     1      -1.007   0.204   2.757  1.00  0.00     0.010 C   
ATOM     30  C17 UNL     1      -1.168   1.713   3.046  1.00  0.00     0.017 C   
ATOM     31  C18 UNL     1       0.434  -0.208   3.115  1.00  0.00     0.017 C   
ATOM     32  C19 UNL     1      -1.978  -0.538   3.707  1.00  0.00     0.017 C   
ENDBRANCH  15  29
ENDBRANCH   3  15
TORSDOF 7
