REMARK SMILES Cc1ccc(C)c([C@@H](CO)n2cc([C@H](CC(C)C)[NH2+]Cc3ccc4c(c3)OCO4)nn2)c1
REMARK SMILES IDX 11 1 12 2 13 3 30 4 31 5 8 7 7 8 2 9 3 10 32 11 4 12 5 13
REMARK SMILES IDX 1 14 6 15 9 16 10 17 14 19 15 20 16 21 17 22 18 23 19 24
REMARK SMILES IDX 20 27 21 28 22 29 26 30 23 31 25 32 24 33 27 34 29 35 28 36
REMARK H PARENT 12 6 10 18 19 25 19 26
ROOT
ATOM     1   N1  UNL     1       2.250   0.468  -0.357  1.00  0.00    -0.202 N   
ATOM     2   C10 UNL     1       0.891   0.316  -0.430  1.00  0.00     0.046 A   
ATOM     3   C11 UNL     1       0.388   1.473   0.118  1.00  0.00     0.127 A   
ATOM     4   N3  UNL     1       1.431   2.278   0.497  1.00  0.00    -0.132 NA  
ATOM     5   N4  UNL     1       2.562   1.661   0.195  1.00  0.00    -0.075 NA  
ATOM     6   H13 UNL     1       0.434  -0.572  -0.846  1.00  0.00     0.083 HD  
ENDROOT
BRANCH   1   7
ATOM     7   C8  UNL     1       3.307  -0.462  -0.754  1.00  0.00     0.155 C   
BRANCH   7   8
ATOM     8   C7  UNL     1       3.110  -1.824  -0.081  1.00  0.00    -0.020 A   
ATOM     9   C2  UNL     1       2.226  -4.117  -0.152  1.00  0.00    -0.051 A   
ATOM     10  C3  UNL     1       2.685  -4.333   1.145  1.00  0.00     0.004 A   
ATOM     11  C25 UNL     1       2.450  -2.872  -0.755  1.00  0.00     0.009 A   
ATOM     12  C4  UNL     1       3.336  -3.314   1.836  1.00  0.00     0.004 A   
ATOM     13  C5  UNL     1       3.551  -2.058   1.246  1.00  0.00    -0.046 A   
ATOM     14  C1  UNL     1       1.556  -5.221  -0.916  1.00  0.00     0.044 C   
ATOM     15  C6  UNL     1       4.272  -1.013   2.058  1.00  0.00     0.045 C   
ENDBRANCH   7   8
BRANCH   7  16
ATOM     16  C9  UNL     1       3.517  -0.449  -2.285  1.00  0.00     0.185 C   
BRANCH  16  17
ATOM     17  O1  UNL     1       2.327  -0.719  -3.029  1.00  0.00    -0.394 OA  
ATOM     18  H12 UNL     1       2.581  -0.735  -3.972  1.00  0.00     0.210 HD  
ENDBRANCH  16  17
ENDBRANCH   7  16
ENDBRANCH   1   7
BRANCH   3  19
ATOM     19  C12 UNL     1      -1.018   1.892   0.375  1.00  0.00     0.114 C   
BRANCH  19  20
ATOM     20  C13 UNL     1      -1.798   2.294  -0.895  1.00  0.00     0.064 C   
BRANCH  20  21
ATOM     21  C14 UNL     1      -1.538   3.683  -1.522  1.00  0.00    -0.012 C   
ATOM     22  C15 UNL     1      -0.123   3.853  -2.073  1.00  0.00     0.007 C   
ATOM     23  C16 UNL     1      -2.548   3.919  -2.653  1.00  0.00     0.007 C   
ENDBRANCH  20  21
ENDBRANCH  19  20
BRANCH  19  24
ATOM     24  N2  UNL     1      -1.104   3.005   1.388  1.00  0.00     0.249 N   
ATOM     25  H24 UNL     1      -0.422   3.716   1.092  1.00  0.00     0.199 HD  
ATOM     26  H25 UNL     1      -2.033   3.435   1.364  1.00  0.00     0.199 HD  
BRANCH  24  27
ATOM     27  C17 UNL     1      -0.769   2.642   2.798  1.00  0.00     0.164 C   
BRANCH  27  28
ATOM     28  C18 UNL     1      -1.790   1.739   3.431  1.00  0.00    -0.002 A   
ATOM     29  C19 UNL     1      -3.036   2.254   3.861  1.00  0.00     0.012 A   
ATOM     30  C23 UNL     1      -1.524   0.366   3.572  1.00  0.00     0.045 A   
ATOM     31  C20 UNL     1      -4.005   1.414   4.421  1.00  0.00     0.037 A   
ATOM     32  C22 UNL     1      -2.502  -0.433   4.125  1.00  0.00     0.109 A   
ATOM     33  C21 UNL     1      -3.708   0.075   4.537  1.00  0.00     0.108 A   
ATOM     34  O2  UNL     1      -2.408  -1.774   4.323  1.00  0.00    -0.316 OA  
ATOM     35  O3  UNL     1      -4.526  -0.881   5.048  1.00  0.00    -0.316 OA  
ATOM     36  C24 UNL     1      -3.685  -2.050   4.941  1.00  0.00     0.337 C   
ENDBRANCH  27  28
ENDBRANCH  24  27
ENDBRANCH  19  24
ENDBRANCH   3  19
TORSDOF 10
