REMARK SMILES Cc1ccc(C)c([C@H](CO)n2cc([C@H](CC(C)C)[NH2+]Cc3ccc4c(c3)OCO4)nn2)c1
REMARK SMILES IDX 11 1 12 2 13 3 30 4 31 5 8 7 7 8 2 9 3 10 32 11 4 12 5 13
REMARK SMILES IDX 1 14 6 15 9 16 10 17 14 19 15 20 16 21 17 22 18 23 19 24
REMARK SMILES IDX 20 27 21 28 22 29 26 30 23 31 25 32 24 33 27 34 29 35 28 36
REMARK H PARENT 12 6 10 18 19 25 19 26
ROOT
ATOM     1   N1  UNL     1       1.036   0.131  -1.430  1.00  0.00    -0.202 N   
ATOM     2   C10 UNL     1      -0.035  -0.391  -0.755  1.00  0.00     0.046 A   
ATOM     3   C11 UNL     1      -1.040   0.524  -0.957  1.00  0.00     0.127 A   
ATOM     4   N3  UNL     1      -0.560   1.565  -1.708  1.00  0.00    -0.132 NA  
ATOM     5   N4  UNL     1       0.712   1.322  -1.982  1.00  0.00    -0.075 NA  
ATOM     6   H13 UNL     1       0.024  -1.324  -0.211  1.00  0.00     0.083 HD  
ENDROOT
BRANCH   1   7
ATOM     7   C8  UNL     1       2.395  -0.397  -1.561  1.00  0.00     0.155 C   
BRANCH   7   8
ATOM     8   C7  UNL     1       2.376  -1.904  -1.832  1.00  0.00    -0.020 A   
ATOM     9   C2  UNL     1       2.557  -4.212  -1.007  1.00  0.00    -0.051 A   
ATOM     10  C3  UNL     1       2.296  -4.689  -2.290  1.00  0.00     0.004 A   
ATOM     11  C25 UNL     1       2.581  -2.828  -0.786  1.00  0.00     0.009 A   
ATOM     12  C4  UNL     1       2.083  -3.798  -3.340  1.00  0.00     0.004 A   
ATOM     13  C5  UNL     1       2.117  -2.409  -3.131  1.00  0.00    -0.046 A   
ATOM     14  C1  UNL     1       2.752  -5.169   0.133  1.00  0.00     0.044 C   
ATOM     15  C6  UNL     1       1.882  -1.511  -4.319  1.00  0.00     0.045 C   
ENDBRANCH   7   8
BRANCH   7  16
ATOM     16  C9  UNL     1       3.284   0.101  -0.400  1.00  0.00     0.185 C   
BRANCH  16  17
ATOM     17  O1  UNL     1       2.730  -0.161   0.893  1.00  0.00    -0.394 OA  
ATOM     18  H12 UNL     1       3.410   0.092   1.545  1.00  0.00     0.210 HD  
ENDBRANCH  16  17
ENDBRANCH   7  16
ENDBRANCH   1   7
BRANCH   3  19
ATOM     19  C12 UNL     1      -2.434   0.563  -0.437  1.00  0.00     0.114 C   
BRANCH  19  20
ATOM     20  C13 UNL     1      -3.478   0.225  -1.520  1.00  0.00     0.064 C   
BRANCH  20  21
ATOM     21  C14 UNL     1      -3.372  -1.197  -2.113  1.00  0.00    -0.012 C   
ATOM     22  C15 UNL     1      -4.422  -1.375  -3.213  1.00  0.00     0.007 C   
ATOM     23  C16 UNL     1      -3.546  -2.286  -1.054  1.00  0.00     0.007 C   
ENDBRANCH  20  21
ENDBRANCH  19  20
BRANCH  19  24
ATOM     24  N2  UNL     1      -2.761   1.954   0.070  1.00  0.00     0.249 N   
ATOM     25  H24 UNL     1      -2.571   2.596  -0.712  1.00  0.00     0.199 HD  
ATOM     26  H25 UNL     1      -3.758   2.019   0.289  1.00  0.00     0.199 HD  
BRANCH  24  27
ATOM     27  C17 UNL     1      -1.965   2.435   1.240  1.00  0.00     0.164 C   
BRANCH  27  28
ATOM     28  C18 UNL     1      -2.186   1.618   2.482  1.00  0.00    -0.002 A   
ATOM     29  C19 UNL     1      -3.396   1.729   3.208  1.00  0.00     0.012 A   
ATOM     30  C23 UNL     1      -1.202   0.710   2.911  1.00  0.00     0.045 A   
ATOM     31  C20 UNL     1      -3.627   0.944   4.342  1.00  0.00     0.037 A   
ATOM     32  C22 UNL     1      -1.462  -0.050   4.032  1.00  0.00     0.109 A   
ATOM     33  C21 UNL     1      -2.641   0.062   4.727  1.00  0.00     0.108 A   
ATOM     34  O2  UNL     1      -0.627  -0.976   4.573  1.00  0.00    -0.316 OA  
ATOM     35  O3  UNL     1      -2.696  -0.776   5.794  1.00  0.00    -0.316 OA  
ATOM     36  C24 UNL     1      -1.404  -1.416   5.709  1.00  0.00     0.337 C   
ENDBRANCH  27  28
ENDBRANCH  24  27
ENDBRANCH  19  24
ENDBRANCH   3  19
TORSDOF 10
