REMARK SMILES c1cn2ccc(Cn3cc([C@@H]([NH2+]Cc4ccc5c(c4)OCO5)C4CCCC4)nn3)cc2n1
REMARK SMILES IDX 11 1 10 2 8 3 9 4 29 5 28 6 7 8 6 9 1 10 2 11 32 12 3 13
REMARK SMILES IDX 31 14 4 15 30 16 5 17 12 18 13 21 14 22 15 23 19 24 16 25
REMARK SMILES IDX 18 26 17 27 20 28 22 29 21 30 23 31 24 32 27 33 25 34 26 35
REMARK H PARENT 9 7 12 19 12 20
ROOT
ATOM     1   C9  UNL     1       1.538   1.153   1.112  1.00  0.00     0.117 C   
ENDROOT
BRANCH   1   2
ATOM     2   C8  UNL     1       0.774   0.136   0.332  1.00  0.00     0.127 A   
ATOM     3   N2  UNL     1      -0.185  -1.129  -1.134  1.00  0.00    -0.208 N   
ATOM     4   C7  UNL     1       0.764  -0.150  -1.014  1.00  0.00     0.046 A   
ATOM     5   N5  UNL     1      -0.704  -1.447   0.066  1.00  0.00    -0.076 NA  
ATOM     6   N4  UNL     1      -0.129  -0.673   0.973  1.00  0.00    -0.132 NA  
ATOM     7   H7  UNL     1       1.297   0.249  -1.866  1.00  0.00     0.083 HD  
BRANCH   3   8
ATOM     8   C6  UNL     1      -0.649  -1.773  -2.353  1.00  0.00     0.169 C   
BRANCH   8   9
ATOM     9   C5  UNL     1      -1.711  -0.951  -3.038  1.00  0.00    -0.024 A   
ATOM     10  C1  UNL     1      -3.678   2.107  -5.662  1.00  0.00     0.129 A   
ATOM     11  C2  UNL     1      -4.540   1.339  -4.912  1.00  0.00     0.102 A   
ATOM     12  N6  UNL     1      -2.372   1.748  -5.437  1.00  0.00    -0.239 NA  
ATOM     13  N1  UNL     1      -3.741   0.480  -4.203  1.00  0.00    -0.267 N   
ATOM     14  C24 UNL     1      -2.432   0.758  -4.573  1.00  0.00     0.128 A   
ATOM     15  C3  UNL     1      -4.083  -0.494  -3.271  1.00  0.00     0.082 A   
ATOM     16  C23 UNL     1      -1.405  -0.021  -3.972  1.00  0.00     0.050 A   
ATOM     17  C4  UNL     1      -3.109  -1.203  -2.675  1.00  0.00     0.021 A   
ENDBRANCH   8   9
ENDBRANCH   3   8
ENDBRANCH   1   2
BRANCH   1  18
ATOM     18  N3  UNL     1       0.690   1.698   2.236  1.00  0.00     0.249 N   
ATOM     19  H9  UNL     1       0.021   0.948   2.479  1.00  0.00     0.199 HD  
ATOM     20  H10 UNL     1       1.254   1.852   3.077  1.00  0.00     0.199 HD  
BRANCH  18  21
ATOM     21  C10 UNL     1      -0.081   2.937   1.938  1.00  0.00     0.164 C   
BRANCH  21  22
ATOM     22  C11 UNL     1      -1.272   2.714   1.049  1.00  0.00    -0.002 A   
ATOM     23  C12 UNL     1      -1.236   3.078  -0.318  1.00  0.00     0.012 A   
ATOM     24  C16 UNL     1      -2.436   2.129   1.577  1.00  0.00     0.045 A   
ATOM     25  C13 UNL     1      -2.344   2.870  -1.148  1.00  0.00     0.037 A   
ATOM     26  C15 UNL     1      -3.512   1.945   0.734  1.00  0.00     0.109 A   
ATOM     27  C14 UNL     1      -3.470   2.307  -0.589  1.00  0.00     0.108 A   
ATOM     28  O1  UNL     1      -4.711   1.416   1.092  1.00  0.00    -0.316 OA  
ATOM     29  O2  UNL     1      -4.641   2.055  -1.231  1.00  0.00    -0.316 OA  
ATOM     30  C17 UNL     1      -5.433   1.509  -0.155  1.00  0.00     0.337 C   
ENDBRANCH  21  22
ENDBRANCH  18  21
ENDBRANCH   1  18
BRANCH   1  31
ATOM     31  C18 UNL     1       2.856   0.572   1.666  1.00  0.00     0.043 C   
ATOM     32  C19 UNL     1       2.712  -0.535   2.720  1.00  0.00     0.010 C   
ATOM     33  C22 UNL     1       3.784   1.621   2.312  1.00  0.00     0.010 C   
ATOM     34  C20 UNL     1       4.043  -0.497   3.453  1.00  0.00     0.001 C   
ATOM     35  C21 UNL     1       4.308   0.992   3.602  1.00  0.00     0.001 C   
ENDBRANCH   1  31
TORSDOF 7
