REMARK SMILES COc1cc(Cn2cc([C@@H]([NH2+]Cc3ccc4c(c3)OCO4)C(C)C)nn2)ccc1O
REMARK SMILES IDX 7 1 8 2 9 3 25 4 26 5 6 7 5 8 3 9 4 10 29 11 28 12 27 13
REMARK SMILES IDX 2 14 1 15 30 16 10 18 11 19 12 22 13 23 14 24 18 25 15 26
REMARK SMILES IDX 17 27 16 28 19 29 21 30 20 31 22 32 23 33 24 34
REMARK H PARENT 8 6 30 17 11 20 11 21
ROOT
ATOM     1   N1  UNL     1       0.742   1.643   0.861  1.00  0.00    -0.208 N   
ATOM     2   C6  UNL     1       0.250   1.185  -0.331  1.00  0.00     0.046 A   
ATOM     3   C7  UNL     1       0.293  -0.186  -0.205  1.00  0.00     0.127 A   
ATOM     4   N3  UNL     1       0.857  -0.507   1.004  1.00  0.00    -0.132 NA  
ATOM     5   N4  UNL     1       1.140   0.618   1.640  1.00  0.00    -0.076 NA  
ATOM     6   H7  UNL     1      -0.105   1.851  -1.105  1.00  0.00     0.083 HD  
ENDROOT
BRANCH   1   7
ATOM     7   C5  UNL     1       0.863   3.017   1.318  1.00  0.00     0.169 C   
BRANCH   7   8
ATOM     8   C4  UNL     1      -0.493   3.596   1.639  1.00  0.00    -0.026 A   
ATOM     9   C2  UNL     1      -2.434   3.723   3.105  1.00  0.00     0.105 A   
ATOM     10  C3  UNL     1      -1.166   3.216   2.819  1.00  0.00     0.041 A   
ATOM     11  C22 UNL     1      -3.025   4.608   2.198  1.00  0.00     0.101 A   
ATOM     12  C21 UNL     1      -2.377   5.000   1.034  1.00  0.00     0.036 A   
ATOM     13  C20 UNL     1      -1.109   4.496   0.754  1.00  0.00     0.008 A   
BRANCH   9  14
ATOM     14  O1  UNL     1      -3.192   3.432   4.208  1.00  0.00    -0.347 OA  
ATOM     15  C1  UNL     1      -2.581   2.635   5.216  1.00  0.00     0.203 C   
ENDBRANCH   9  14
BRANCH  11  16
ATOM     16  O4  UNL     1      -4.271   5.117   2.442  1.00  0.00    -0.358 OA  
ATOM     17  H27 UNL     1      -4.535   4.751   3.308  1.00  0.00     0.218 HD  
ENDBRANCH  11  16
ENDBRANCH   7   8
ENDBRANCH   1   7
BRANCH   3  18
ATOM     18  C8  UNL     1      -0.117  -1.277  -1.140  1.00  0.00     0.117 C   
BRANCH  18  19
ATOM     19  N2  UNL     1       0.759  -2.497  -0.934  1.00  0.00     0.249 N   
ATOM     20  H9  UNL     1       0.327  -3.321  -1.361  1.00  0.00     0.199 HD  
ATOM     21  H10 UNL     1       0.790  -2.657   0.083  1.00  0.00     0.199 HD  
BRANCH  19  22
ATOM     22  C9  UNL     1       2.172  -2.384  -1.400  1.00  0.00     0.164 C   
BRANCH  22  23
ATOM     23  C10 UNL     1       2.290  -2.326  -2.898  1.00  0.00    -0.002 A   
ATOM     24  C11 UNL     1       2.082  -3.487  -3.680  1.00  0.00     0.012 A   
ATOM     25  C15 UNL     1       2.578  -1.106  -3.534  1.00  0.00     0.045 A   
ATOM     26  C12 UNL     1       2.153  -3.435  -5.077  1.00  0.00     0.037 A   
ATOM     27  C14 UNL     1       2.639  -1.089  -4.912  1.00  0.00     0.109 A   
ATOM     28  C13 UNL     1       2.432  -2.220  -5.662  1.00  0.00     0.108 A   
ATOM     29  O2  UNL     1       2.894   0.003  -5.679  1.00  0.00    -0.316 OA  
ATOM     30  O3  UNL     1       2.535  -1.984  -6.995  1.00  0.00    -0.316 OA  
ATOM     31  C16 UNL     1       2.859  -0.577  -7.003  1.00  0.00     0.337 C   
ENDBRANCH  22  23
ENDBRANCH  19  22
ENDBRANCH  18  19
BRANCH  18  32
ATOM     32  C17 UNL     1      -1.599  -1.714  -0.991  1.00  0.00     0.037 C   
ATOM     33  C18 UNL     1      -1.966  -2.234   0.404  1.00  0.00     0.014 C   
ATOM     34  C19 UNL     1      -2.564  -0.593  -1.394  1.00  0.00     0.014 C   
ENDBRANCH  18  32
ENDBRANCH   3  18
TORSDOF 9
