REMARK SMILES COc1ncccc1CCn1cc([C@@H]([NH2+]Cc2ccc3c(c2)OCO3)C2CCCC2)nn1
REMARK SMILES IDX 11 1 12 2 13 3 31 4 32 5 10 7 9 8 8 9 3 10 4 11 5 12 7 13
REMARK SMILES IDX 6 14 2 15 1 16 14 17 15 18 16 21 17 22 18 23 22 24 19 25
REMARK SMILES IDX 21 26 20 27 23 28 25 29 24 30 26 31 27 32 30 33 28 34 29 35
REMARK H PARENT 12 6 15 19 15 20
ROOT
ATOM     1   N2  UNL     1      -2.612   0.364  -2.600  1.00  0.00    -0.212 N   
ATOM     2   C9  UNL     1      -1.934   1.105  -1.674  1.00  0.00     0.045 A   
ATOM     3   C10 UNL     1      -0.665   1.204  -2.200  1.00  0.00     0.127 A   
ATOM     4   N4  UNL     1      -0.625   0.560  -3.410  1.00  0.00    -0.132 NA  
ATOM     5   N5  UNL     1      -1.827   0.061  -3.648  1.00  0.00    -0.076 NA  
ATOM     6   H11 UNL     1      -2.385   1.438  -0.750  1.00  0.00     0.083 HD  
ENDROOT
BRANCH   1   7
ATOM     7   C8  UNL     1      -3.970  -0.131  -2.526  1.00  0.00     0.139 C   
BRANCH   7   8
ATOM     8   C7  UNL     1      -4.053  -1.595  -2.088  1.00  0.00     0.061 C   
BRANCH   8   9
ATOM     9   C6  UNL     1      -3.566  -1.820  -0.677  1.00  0.00     0.003 A   
ATOM     10  C2  UNL     1      -2.291  -2.310  -0.394  1.00  0.00     0.169 A   
ATOM     11  N1  UNL     1      -1.793  -2.454   0.854  1.00  0.00    -0.233 NA  
ATOM     12  C3  UNL     1      -2.630  -2.178   1.878  1.00  0.00     0.114 A   
ATOM     13  C5  UNL     1      -4.392  -1.525   0.413  1.00  0.00     0.010 A   
ATOM     14  C4  UNL     1      -3.923  -1.715   1.709  1.00  0.00     0.021 A   
BRANCH  10  15
ATOM     15  O1  UNL     1      -1.446  -2.578  -1.448  1.00  0.00    -0.332 OA  
ATOM     16  C1  UNL     1      -0.661  -3.741  -1.194  1.00  0.00     0.205 C   
ENDBRANCH  10  15
ENDBRANCH   8   9
ENDBRANCH   7   8
ENDBRANCH   1   7
BRANCH   3  17
ATOM     17  C11 UNL     1       0.590   1.780  -1.638  1.00  0.00     0.117 C   
BRANCH  17  18
ATOM     18  N3  UNL     1       1.698   0.758  -1.775  1.00  0.00     0.249 N   
ATOM     19  H13 UNL     1       2.617   1.194  -1.683  1.00  0.00     0.199 HD  
ATOM     20  H14 UNL     1       1.628   0.393  -2.736  1.00  0.00     0.199 HD  
BRANCH  18  21
ATOM     21  C12 UNL     1       1.620  -0.407  -0.843  1.00  0.00     0.164 C   
BRANCH  21  22
ATOM     22  C13 UNL     1       1.927  -0.027   0.579  1.00  0.00    -0.002 A   
ATOM     23  C14 UNL     1       0.897  -0.019   1.550  1.00  0.00     0.012 A   
ATOM     24  C18 UNL     1       3.228   0.352   0.951  1.00  0.00     0.045 A   
ATOM     25  C15 UNL     1       1.152   0.369   2.869  1.00  0.00     0.037 A   
ATOM     26  C17 UNL     1       3.446   0.731   2.259  1.00  0.00     0.109 A   
ATOM     27  C16 UNL     1       2.438   0.742   3.191  1.00  0.00     0.108 A   
ATOM     28  O2  UNL     1       4.636   1.132   2.776  1.00  0.00    -0.316 OA  
ATOM     29  O3  UNL     1       2.866   1.149   4.413  1.00  0.00    -0.316 OA  
ATOM     30  C19 UNL     1       4.269   1.368   4.155  1.00  0.00     0.337 C   
ENDBRANCH  21  22
ENDBRANCH  18  21
ENDBRANCH  17  18
BRANCH  17  31
ATOM     31  C20 UNL     1       1.015   3.067  -2.370  1.00  0.00     0.043 C   
ATOM     32  C21 UNL     1       2.274   3.729  -1.802  1.00  0.00     0.010 C   
ATOM     33  C24 UNL     1      -0.010   4.199  -2.241  1.00  0.00     0.010 C   
ATOM     34  C22 UNL     1       2.229   5.158  -2.333  1.00  0.00     0.001 C   
ATOM     35  C23 UNL     1       0.760   5.458  -2.622  1.00  0.00     0.001 C   
ENDBRANCH  17  31
ENDBRANCH   3  17
TORSDOF 9
