REMARK SMILES CC(C)C[C@H]([NH2+]Cc1ccc2c(c1)OCO2)c1cn(Cc2cccc3c2ccn3C)nn1
REMARK SMILES IDX 17 1 18 2 19 3 31 4 32 5 5 7 4 8 2 9 1 10 3 11 6 12 7 15
REMARK SMILES IDX 8 16 9 17 13 18 10 19 12 20 11 21 14 22 16 23 15 24 20 25
REMARK SMILES IDX 21 26 22 27 26 28 23 29 25 30 27 31 24 32 29 33 28 34 30 35
REMARK H PARENT 18 6 6 13 6 14
ROOT
ATOM     1   C14 UNL     1      -2.312  -0.717  -0.322  1.00  0.00     0.127 A   
ATOM     2   C15 UNL     1      -1.971  -0.042   0.827  1.00  0.00     0.046 A   
ATOM     3   N2  UNL     1      -2.245  -0.934   1.828  1.00  0.00    -0.208 N   
ATOM     4   N4  UNL     1      -2.776  -2.067   1.325  1.00  0.00    -0.076 NA  
ATOM     5   N5  UNL     1      -2.817  -1.947   0.009  1.00  0.00    -0.132 NA  
ATOM     6   H20 UNL     1      -1.522   0.923   1.018  1.00  0.00     0.083 HD  
ENDROOT
BRANCH   1   7
ATOM     7   C5  UNL     1      -2.119  -0.360  -1.754  1.00  0.00     0.114 C   
BRANCH   7   8
ATOM     8   C4  UNL     1      -3.440   0.005  -2.458  1.00  0.00     0.064 C   
BRANCH   8   9
ATOM     9   C2  UNL     1      -4.152   1.261  -1.906  1.00  0.00    -0.012 C   
ATOM     10  C1  UNL     1      -3.301   2.523  -2.047  1.00  0.00     0.007 C   
ATOM     11  C3  UNL     1      -5.487   1.456  -2.631  1.00  0.00     0.007 C   
ENDBRANCH   8   9
ENDBRANCH   7   8
BRANCH   7  12
ATOM     12  N1  UNL     1      -1.532  -1.540  -2.510  1.00  0.00     0.249 N   
ATOM     13  H11 UNL     1      -1.504  -1.336  -3.510  1.00  0.00     0.199 HD  
ATOM     14  H12 UNL     1      -2.185  -2.322  -2.373  1.00  0.00     0.199 HD  
BRANCH  12  15
ATOM     15  C6  UNL     1      -0.186  -2.014  -2.065  1.00  0.00     0.164 C   
BRANCH  15  16
ATOM     16  C7  UNL     1       0.884  -0.962  -2.149  1.00  0.00    -0.002 A   
ATOM     17  C8  UNL     1       1.516  -0.503  -0.967  1.00  0.00     0.012 A   
ATOM     18  C12 UNL     1       1.265  -0.419  -3.389  1.00  0.00     0.045 A   
ATOM     19  C9  UNL     1       2.507   0.483  -1.014  1.00  0.00     0.037 A   
ATOM     20  C11 UNL     1       2.241   0.557  -3.399  1.00  0.00     0.109 A   
ATOM     21  C10 UNL     1       2.847   0.993  -2.247  1.00  0.00     0.108 A   
ATOM     22  O1  UNL     1       2.711   1.192  -4.507  1.00  0.00    -0.316 OA  
ATOM     23  O2  UNL     1       3.782   1.949  -2.485  1.00  0.00    -0.316 OA  
ATOM     24  C13 UNL     1       3.723   2.044  -3.926  1.00  0.00     0.337 C   
ENDBRANCH  15  16
ENDBRANCH  12  15
ENDBRANCH   7  12
ENDBRANCH   1   7
BRANCH   3  25
ATOM     25  C16 UNL     1      -1.971  -0.808   3.252  1.00  0.00     0.170 C   
BRANCH  25  26
ATOM     26  C17 UNL     1      -0.523  -0.445   3.495  1.00  0.00    -0.019 A   
ATOM     27  C18 UNL     1      -0.212   0.799   4.082  1.00  0.00     0.006 A   
ATOM     28  C22 UNL     1       0.555  -1.302   3.149  1.00  0.00     0.002 A   
ATOM     29  C19 UNL     1       1.107   1.190   4.304  1.00  0.00     0.002 A   
ATOM     30  C21 UNL     1       1.870  -0.882   3.377  1.00  0.00     0.040 A   
ATOM     31  C23 UNL     1       0.631  -2.603   2.573  1.00  0.00     0.026 A   
ATOM     32  C20 UNL     1       2.169   0.360   3.953  1.00  0.00     0.024 A   
ATOM     33  N3  UNL     1       2.698  -1.901   2.958  1.00  0.00    -0.310 N   
ATOM     34  C24 UNL     1       1.959  -2.938   2.455  1.00  0.00     0.075 A   
ATOM     35  C25 UNL     1       4.144  -1.890   3.054  1.00  0.00     0.136 C   
ENDBRANCH  25  26
ENDBRANCH   3  25
TORSDOF 8
