REMARK SMILES COc1c(C)ccnc1Cn1cc([C@@H]([NH2+]Cc2ccc3c(c2)OCO3)C(C)C)nn1
REMARK SMILES IDX 11 1 12 2 13 3 29 4 30 5 10 7 9 8 3 9 4 10 6 11 8 12 7 13
REMARK SMILES IDX 5 14 2 15 1 16 14 17 15 18 16 21 17 22 18 23 22 24 19 25
REMARK SMILES IDX 21 26 20 27 23 28 25 29 24 30 26 31 27 32 28 33
REMARK H PARENT 12 6 15 19 15 20
ROOT
ATOM     1   N2  UNL     1      -1.204  -1.429  -0.652  1.00  0.00    -0.206 N   
ATOM     2   C9  UNL     1      -0.048  -1.948  -0.133  1.00  0.00     0.046 A   
ATOM     3   C10 UNL     1       0.923  -1.052  -0.517  1.00  0.00     0.127 A   
ATOM     4   N4  UNL     1       0.349  -0.070  -1.284  1.00  0.00    -0.132 NA  
ATOM     5   N5  UNL     1      -0.944  -0.328  -1.385  1.00  0.00    -0.076 NA  
ATOM     6   H11 UNL     1      -0.040  -2.854   0.459  1.00  0.00     0.083 HD  
ENDROOT
BRANCH   1   7
ATOM     7   C8  UNL     1      -2.552  -1.962  -0.571  1.00  0.00     0.192 C   
BRANCH   7   8
ATOM     8   C7  UNL     1      -2.967  -2.178   0.859  1.00  0.00     0.090 A   
ATOM     9   C2  UNL     1      -3.361  -1.111   1.675  1.00  0.00     0.101 A   
ATOM     10  C3  UNL     1      -3.641  -1.350   3.026  1.00  0.00    -0.017 A   
ATOM     11  C5  UNL     1      -3.601  -2.670   3.484  1.00  0.00     0.026 A   
ATOM     12  N1  UNL     1      -2.894  -3.458   1.315  1.00  0.00    -0.257 NA  
ATOM     13  C6  UNL     1      -3.232  -3.675   2.605  1.00  0.00     0.112 A   
ATOM     14  C4  UNL     1      -4.014  -0.252   3.977  1.00  0.00     0.047 C   
BRANCH   9  15
ATOM     15  O1  UNL     1      -3.375   0.160   1.169  1.00  0.00    -0.347 OA  
ATOM     16  C1  UNL     1      -4.700   0.539   0.784  1.00  0.00     0.203 C   
ENDBRANCH   9  15
ENDBRANCH   7   8
ENDBRANCH   1   7
BRANCH   3  17
ATOM     17  C11 UNL     1       2.395  -1.017  -0.254  1.00  0.00     0.117 C   
BRANCH  17  18
ATOM     18  N3  UNL     1       3.084  -0.140  -1.264  1.00  0.00     0.249 N   
ATOM     19  H13 UNL     1       3.990   0.203  -0.933  1.00  0.00     0.199 HD  
ATOM     20  H14 UNL     1       2.486   0.691  -1.383  1.00  0.00     0.199 HD  
BRANCH  18  21
ATOM     21  C12 UNL     1       3.257  -0.745  -2.614  1.00  0.00     0.164 C   
BRANCH  21  22
ATOM     22  C13 UNL     1       3.841   0.258  -3.567  1.00  0.00    -0.002 A   
ATOM     23  C14 UNL     1       5.239   0.321  -3.778  1.00  0.00     0.012 A   
ATOM     24  C18 UNL     1       2.999   1.180  -4.214  1.00  0.00     0.045 A   
ATOM     25  C15 UNL     1       5.792   1.280  -4.634  1.00  0.00     0.037 A   
ATOM     26  C17 UNL     1       3.578   2.113  -5.049  1.00  0.00     0.109 A   
ATOM     27  C16 UNL     1       4.935   2.160  -5.255  1.00  0.00     0.108 A   
ATOM     28  O2  UNL     1       2.913   3.070  -5.746  1.00  0.00    -0.316 OA  
ATOM     29  O3  UNL     1       5.295   3.151  -6.111  1.00  0.00    -0.316 OA  
ATOM     30  C19 UNL     1       4.007   3.719  -6.434  1.00  0.00     0.337 C   
ENDBRANCH  21  22
ENDBRANCH  18  21
ENDBRANCH  17  18
BRANCH  17  31
ATOM     31  C20 UNL     1       2.720  -0.536   1.185  1.00  0.00     0.037 C   
ATOM     32  C21 UNL     1       4.185  -0.799   1.553  1.00  0.00     0.014 C   
ATOM     33  C22 UNL     1       2.378   0.936   1.440  1.00  0.00     0.014 C   
ENDBRANCH  17  31
ENDBRANCH   3  17
TORSDOF 8
