REMARK SMILES CC(C)(C)[C@H]([NH2+]Cc1ccc2c(c1)OCO2)c1cn(Cc2cc(F)ccc2O)nn1
REMARK SMILES IDX 17 1 18 2 19 3 29 4 30 5 5 7 2 8 1 9 3 10 4 11 6 12 7 15
REMARK SMILES IDX 8 16 9 17 13 18 10 19 12 20 11 21 14 22 16 23 15 24 20 25
REMARK SMILES IDX 21 26 22 27 27 28 23 29 26 30 25 31 24 32 28 33
REMARK H PARENT 18 6 6 13 6 14 28 34
ROOT
ATOM     1   C14 UNL     1      -0.804   0.226  -0.710  1.00  0.00     0.127 A   
ATOM     2   C15 UNL     1      -1.790  -0.167  -1.588  1.00  0.00     0.046 A   
ATOM     3   N2  UNL     1      -1.158  -0.200  -2.801  1.00  0.00    -0.208 N   
ATOM     4   N3  UNL     1       0.155   0.073  -2.664  1.00  0.00    -0.076 NA  
ATOM     5   N4  UNL     1       0.381   0.349  -1.391  1.00  0.00    -0.132 NA  
ATOM     6   H20 UNL     1      -2.843  -0.390  -1.482  1.00  0.00     0.083 HD  
ENDROOT
BRANCH   1   7
ATOM     7   C5  UNL     1      -0.826   0.446   0.772  1.00  0.00     0.120 C   
BRANCH   7   8
ATOM     8   C2  UNL     1      -1.122   1.929   1.195  1.00  0.00     0.010 C   
ATOM     9   C1  UNL     1      -0.025   2.910   0.736  1.00  0.00     0.017 C   
ATOM     10  C3  UNL     1      -2.470   2.396   0.599  1.00  0.00     0.017 C   
ATOM     11  C4  UNL     1      -1.252   2.034   2.733  1.00  0.00     0.017 C   
ENDBRANCH   7   8
BRANCH   7  12
ATOM     12  N1  UNL     1       0.494  -0.009   1.349  1.00  0.00     0.250 N   
ATOM     13  H11 UNL     1       1.232   0.384   0.746  1.00  0.00     0.199 HD  
ATOM     14  H12 UNL     1       0.661   0.366   2.286  1.00  0.00     0.199 HD  
BRANCH  12  15
ATOM     15  C6  UNL     1       0.703  -1.484   1.385  1.00  0.00     0.164 C   
BRANCH  15  16
ATOM     16  C7  UNL     1       2.036  -1.806   1.999  1.00  0.00    -0.002 A   
ATOM     17  C8  UNL     1       3.195  -1.872   1.189  1.00  0.00     0.012 A   
ATOM     18  C12 UNL     1       2.149  -1.979   3.389  1.00  0.00     0.045 A   
ATOM     19  C9  UNL     1       4.451  -2.119   1.754  1.00  0.00     0.037 A   
ATOM     20  C11 UNL     1       3.403  -2.220   3.912  1.00  0.00     0.109 A   
ATOM     21  C10 UNL     1       4.522  -2.288   3.119  1.00  0.00     0.108 A   
ATOM     22  O1  UNL     1       3.686  -2.401   5.228  1.00  0.00    -0.316 OA  
ATOM     23  O2  UNL     1       5.651  -2.525   3.836  1.00  0.00    -0.316 OA  
ATOM     24  C13 UNL     1       5.116  -2.609   5.174  1.00  0.00     0.337 C   
ENDBRANCH  15  16
ENDBRANCH  12  15
ENDBRANCH   7  12
ENDBRANCH   1   7
BRANCH   3  25
ATOM     25  C16 UNL     1      -1.717  -0.527  -4.102  1.00  0.00     0.172 C   
BRANCH  25  26
ATOM     26  C17 UNL     1      -2.565   0.602  -4.627  1.00  0.00     0.004 A   
ATOM     27  C18 UNL     1      -1.962   1.685  -5.285  1.00  0.00     0.047 A   
ATOM     28  C22 UNL     1      -3.956   0.614  -4.459  1.00  0.00     0.076 A   
ATOM     29  C19 UNL     1      -2.743   2.732  -5.766  1.00  0.00     0.123 A   
ATOM     30  C21 UNL     1      -4.738   1.663  -4.949  1.00  0.00     0.036 A   
ATOM     31  C20 UNL     1      -4.124   2.728  -5.606  1.00  0.00     0.042 A   
ATOM     32  F1  UNL     1      -2.153   3.761  -6.385  1.00  0.00    -0.207 F   
BRANCH  28  33
ATOM     33  O3  UNL     1      -4.544  -0.423  -3.791  1.00  0.00    -0.361 OA  
ATOM     34  H26 UNL     1      -5.507  -0.383  -3.947  1.00  0.00     0.218 HD  
ENDBRANCH  28  33
ENDBRANCH  25  26
ENDBRANCH   3  25
TORSDOF 8
