REMARK SMILES Cc1cc(N([O-])[O-])ccc1-n1cc([C@@H]([NH2+]Cc2ccc3c(c2)OCO3)C(C)C)nn1
REMARK SMILES IDX 11 1 12 2 13 3 29 4 30 5 10 6 2 7 3 8 4 9 9 10 8 11 1 12
REMARK SMILES IDX 5 13 6 14 7 15 14 16 15 17 16 20 17 21 18 22 22 23 19 24
REMARK SMILES IDX 21 25 20 26 23 27 25 28 24 29 26 30 27 31 28 32
REMARK H PARENT 15 18 15 19
ROOT
ATOM     1   N2  UNL     1      -0.894  -1.200  -0.031  1.00  0.00    -0.180 N   
ATOM     2   C8  UNL     1      -0.355  -0.294   0.870  1.00  0.00     0.135 A   
ATOM     3   C9  UNL     1      -1.064   0.871   0.684  1.00  0.00     0.127 A   
ATOM     4   N4  UNL     1      -2.036   0.655  -0.246  1.00  0.00    -0.131 NA  
ATOM     5   N5  UNL     1      -1.939  -0.598  -0.652  1.00  0.00    -0.071 NA  
ENDROOT
BRANCH   1   6
ATOM     6   C7  UNL     1      -0.451  -2.524  -0.340  1.00  0.00     0.061 A   
ATOM     7   C2  UNL     1      -1.084  -3.339  -1.314  1.00  0.00    -0.025 A   
ATOM     8   C3  UNL     1      -0.562  -4.626  -1.575  1.00  0.00     0.036 A   
ATOM     9   C4  UNL     1       0.560  -5.102  -0.887  1.00  0.00     0.118 A   
ATOM     10  C6  UNL     1       0.677  -3.029   0.344  1.00  0.00     0.028 A   
ATOM     11  C5  UNL     1       1.181  -4.306   0.075  1.00  0.00     0.033 A   
ATOM     12  C1  UNL     1      -2.294  -2.933  -2.120  1.00  0.00     0.046 C   
BRANCH   9  13
ATOM     13  N1  UNL     1       1.091  -6.439  -1.182  1.00  0.00     0.092 N   
ATOM     14  O1  UNL     1       2.130  -6.782  -0.601  1.00  0.00    -0.138 OA  
ATOM     15  O2  UNL     1       0.472  -7.138  -1.995  1.00  0.00    -0.138 OA  
ENDBRANCH   9  13
ENDBRANCH   1   6
BRANCH   3  16
ATOM     16  C10 UNL     1      -0.851   2.252   1.220  1.00  0.00     0.117 C   
BRANCH  16  17
ATOM     17  N3  UNL     1      -1.013   3.264   0.106  1.00  0.00     0.249 N   
ATOM     18  H9  UNL     1      -1.720   2.871  -0.535  1.00  0.00     0.199 HD  
ATOM     19  H10 UNL     1      -1.410   4.139   0.460  1.00  0.00     0.199 HD  
BRANCH  17  20
ATOM     20  C11 UNL     1       0.212   3.586  -0.689  1.00  0.00     0.164 C   
BRANCH  20  21
ATOM     21  C12 UNL     1       0.800   2.407  -1.415  1.00  0.00    -0.002 A   
ATOM     22  C13 UNL     1       0.156   1.878  -2.559  1.00  0.00     0.012 A   
ATOM     23  C17 UNL     1       1.958   1.778  -0.923  1.00  0.00     0.045 A   
ATOM     24  C14 UNL     1       0.639   0.726  -3.189  1.00  0.00     0.037 A   
ATOM     25  C16 UNL     1       2.403   0.640  -1.564  1.00  0.00     0.109 A   
ATOM     26  C15 UNL     1       1.760   0.126  -2.663  1.00  0.00     0.108 A   
ATOM     27  O3  UNL     1       3.473  -0.110  -1.191  1.00  0.00    -0.316 OA  
ATOM     28  O4  UNL     1       2.349  -1.007  -3.124  1.00  0.00    -0.316 OA  
ATOM     29  C18 UNL     1       3.471  -1.123  -2.224  1.00  0.00     0.337 C   
ENDBRANCH  20  21
ENDBRANCH  17  20
ENDBRANCH  16  17
BRANCH  16  30
ATOM     30  C19 UNL     1      -1.799   2.582   2.403  1.00  0.00     0.037 C   
ATOM     31  C20 UNL     1      -3.277   2.710   2.015  1.00  0.00     0.014 C   
ATOM     32  C21 UNL     1      -1.349   3.848   3.143  1.00  0.00     0.014 C   
ENDBRANCH  16  30
ENDBRANCH   3  16
TORSDOF 7
