REMARK SMILES CC(C)(C)[C@H]([NH2+]Cc1ccc2c(c1)OCO2)c1cn([C@@H](CO)c2ccc(Cl)o2)nn1
REMARK SMILES IDX 17 1 18 2 19 3 29 4 30 5 5 7 2 8 1 9 3 10 4 11 6 12 7 15
REMARK SMILES IDX 8 16 9 17 13 18 10 19 12 20 11 21 14 22 16 23 15 24 20 25
REMARK SMILES IDX 21 26 22 27 23 29 24 30 28 31 25 32 26 33 27 34
REMARK H PARENT 18 6 6 13 6 14 22 28
ROOT
ATOM     1   C14 UNL     1       1.008   0.614  -0.422  1.00  0.00     0.127 A   
ATOM     2   C15 UNL     1       2.161   1.365  -0.453  1.00  0.00     0.046 A   
ATOM     3   N2  UNL     1       1.746   2.603  -0.870  1.00  0.00    -0.200 N   
ATOM     4   N3  UNL     1       0.401   2.630  -0.995  1.00  0.00    -0.075 NA  
ATOM     5   N4  UNL     1      -0.057   1.415  -0.744  1.00  0.00    -0.132 NA  
ATOM     6   H20 UNL     1       3.199   1.146  -0.246  1.00  0.00     0.083 HD  
ENDROOT
BRANCH   1   7
ATOM     7   C5  UNL     1       0.769  -0.816  -0.042  1.00  0.00     0.120 C   
BRANCH   7   8
ATOM     8   C2  UNL     1       0.846  -1.821  -1.244  1.00  0.00     0.010 C   
ATOM     9   C1  UNL     1       0.715  -3.277  -0.738  1.00  0.00     0.017 C   
ATOM     10  C3  UNL     1      -0.253  -1.575  -2.296  1.00  0.00     0.017 C   
ATOM     11  C4  UNL     1       2.221  -1.713  -1.943  1.00  0.00     0.017 C   
ENDBRANCH   7   8
BRANCH   7  12
ATOM     12  N1  UNL     1      -0.575  -0.916   0.643  1.00  0.00     0.250 N   
ATOM     13  H11 UNL     1      -0.930  -1.875   0.675  1.00  0.00     0.199 HD  
ATOM     14  H12 UNL     1      -1.239  -0.381   0.063  1.00  0.00     0.199 HD  
BRANCH  12  15
ATOM     15  C6  UNL     1      -0.632  -0.340   2.016  1.00  0.00     0.164 C   
BRANCH  15  16
ATOM     16  C7  UNL     1      -2.012  -0.482   2.592  1.00  0.00    -0.002 A   
ATOM     17  C8  UNL     1      -2.308  -1.527   3.500  1.00  0.00     0.012 A   
ATOM     18  C12 UNL     1      -3.031   0.405   2.199  1.00  0.00     0.045 A   
ATOM     19  C9  UNL     1      -3.599  -1.685   4.017  1.00  0.00     0.037 A   
ATOM     20  C11 UNL     1      -4.291   0.220   2.728  1.00  0.00     0.109 A   
ATOM     21  C10 UNL     1      -4.568  -0.793   3.612  1.00  0.00     0.108 A   
ATOM     22  O1  UNL     1      -5.382   0.983   2.454  1.00  0.00    -0.316 OA  
ATOM     23  O2  UNL     1      -5.865  -0.793   4.013  1.00  0.00    -0.316 OA  
ATOM     24  C13 UNL     1      -6.375   0.352   3.296  1.00  0.00     0.337 C   
ENDBRANCH  15  16
ENDBRANCH  12  15
ENDBRANCH   7  12
ENDBRANCH   1   7
BRANCH   3  25
ATOM     25  C16 UNL     1       2.531   3.809  -1.131  1.00  0.00     0.179 C   
BRANCH  25  26
ATOM     26  C17 UNL     1       2.753   4.615   0.158  1.00  0.00     0.188 C   
BRANCH  26  27
ATOM     27  O3  UNL     1       3.466   3.874   1.154  1.00  0.00    -0.394 OA  
ATOM     28  H24 UNL     1       3.608   4.477   1.908  1.00  0.00     0.210 HD  
ENDBRANCH  26  27
ENDBRANCH  25  26
BRANCH  25  29
ATOM     29  C18 UNL     1       3.791   3.477  -1.872  1.00  0.00     0.086 A   
ATOM     30  C19 UNL     1       5.138   3.492  -1.564  1.00  0.00     0.035 A   
ATOM     31  O4  UNL     1       3.624   3.058  -3.163  1.00  0.00    -0.301 OA  
ATOM     32  C20 UNL     1       5.822   3.060  -2.728  1.00  0.00     0.049 A   
ATOM     33  C21 UNL     1       4.859   2.804  -3.678  1.00  0.00     0.147 A   
ATOM     34  CL1 UNL     1       5.114   2.242  -5.280  1.00  0.00    -0.056 Cl  
ENDBRANCH  25  29
ENDBRANCH   3  25
TORSDOF 9
