REMARK SMILES CC(C)(C)[C@H]([NH2+]Cc1ccc2c(c1)OCO2)c1cn([C@H](CO)c2ccc(Cl)o2)nn1
REMARK SMILES IDX 17 1 18 2 19 3 29 4 30 5 5 7 2 8 1 9 3 10 4 11 6 12 7 15
REMARK SMILES IDX 8 16 9 17 13 18 10 19 12 20 11 21 14 22 16 23 15 24 20 25
REMARK SMILES IDX 21 26 22 27 23 29 24 30 28 31 25 32 26 33 27 34
REMARK H PARENT 18 6 6 13 6 14 22 28
ROOT
ATOM     1   C14 UNL     1       0.336  -1.200  -1.093  1.00  0.00     0.127 A   
ATOM     2   C15 UNL     1      -0.467  -0.998  -2.191  1.00  0.00     0.046 A   
ATOM     3   N2  UNL     1      -1.513  -1.864  -2.007  1.00  0.00    -0.200 N   
ATOM     4   N3  UNL     1      -1.333  -2.590  -0.883  1.00  0.00    -0.075 NA  
ATOM     5   N4  UNL     1      -0.217  -2.178  -0.306  1.00  0.00    -0.132 NA  
ATOM     6   H20 UNL     1      -0.432  -0.314  -3.030  1.00  0.00     0.083 HD  
ENDROOT
BRANCH   1   7
ATOM     7   C5  UNL     1       1.551  -0.467  -0.616  1.00  0.00     0.120 C   
BRANCH   7   8
ATOM     8   C2  UNL     1       2.909  -1.173  -0.959  1.00  0.00     0.010 C   
ATOM     9   C1  UNL     1       4.098  -0.267  -0.560  1.00  0.00     0.017 C   
ATOM     10  C3  UNL     1       3.013  -1.413  -2.484  1.00  0.00     0.017 C   
ATOM     11  C4  UNL     1       3.076  -2.530  -0.243  1.00  0.00     0.017 C   
ENDBRANCH   7   8
BRANCH   7  12
ATOM     12  N1  UNL     1       1.425  -0.262   0.875  1.00  0.00     0.250 N   
ATOM     13  H11 UNL     1       2.319  -0.035   1.315  1.00  0.00     0.199 HD  
ATOM     14  H12 UNL     1       1.130  -1.167   1.272  1.00  0.00     0.199 HD  
BRANCH  12  15
ATOM     15  C6  UNL     1       0.411   0.745   1.303  1.00  0.00     0.164 C   
BRANCH  15  16
ATOM     16  C7  UNL     1       0.291   0.747   2.803  1.00  0.00    -0.002 A   
ATOM     17  C8  UNL     1      -0.657  -0.097   3.439  1.00  0.00     0.012 A   
ATOM     18  C12 UNL     1       1.159   1.528   3.585  1.00  0.00     0.045 A   
ATOM     19  C9  UNL     1      -0.744  -0.161   4.833  1.00  0.00     0.037 A   
ATOM     20  C11 UNL     1       1.049   1.438   4.960  1.00  0.00     0.109 A   
ATOM     21  C10 UNL     1       0.127   0.615   5.566  1.00  0.00     0.108 A   
ATOM     22  O1  UNL     1       1.810   2.114   5.858  1.00  0.00    -0.316 OA  
ATOM     23  O2  UNL     1       0.194   0.669   6.921  1.00  0.00    -0.316 OA  
ATOM     24  C13 UNL     1       1.278   1.603   7.107  1.00  0.00     0.337 C   
ENDBRANCH  15  16
ENDBRANCH  12  15
ENDBRANCH   7  12
ENDBRANCH   1   7
BRANCH   3  25
ATOM     25  C16 UNL     1      -2.730  -2.022  -2.804  1.00  0.00     0.179 C   
BRANCH  25  26
ATOM     26  C17 UNL     1      -2.434  -2.667  -4.167  1.00  0.00     0.188 C   
BRANCH  26  27
ATOM     27  O3  UNL     1      -1.583  -1.862  -4.988  1.00  0.00    -0.394 OA  
ATOM     28  H24 UNL     1      -1.500  -2.312  -5.852  1.00  0.00     0.210 HD  
ENDBRANCH  26  27
ENDBRANCH  25  26
BRANCH  25  29
ATOM     29  C18 UNL     1      -3.471  -0.719  -2.877  1.00  0.00     0.086 A   
ATOM     30  C19 UNL     1      -3.963   0.071  -3.900  1.00  0.00     0.035 A   
ATOM     31  O4  UNL     1      -3.764  -0.134  -1.674  1.00  0.00    -0.301 OA  
ATOM     32  C20 UNL     1      -4.581   1.190  -3.288  1.00  0.00     0.049 A   
ATOM     33  C21 UNL     1      -4.431   1.027  -1.929  1.00  0.00     0.147 A   
ATOM     34  CL1 UNL     1      -4.968   2.088  -0.691  1.00  0.00    -0.056 Cl  
ENDBRANCH  25  29
ENDBRANCH   3  25
TORSDOF 9
