REMARK SMILES Cc1ccc(F)cc1Cn1cc([C@@H]([NH2+]Cc2ccc3c(c2)OCO3)C(C)C)nn1
REMARK SMILES IDX 10 1 11 2 12 3 28 4 29 5 9 7 8 8 2 9 3 10 4 11 7 12 5 13
REMARK SMILES IDX 1 14 6 15 13 16 14 17 15 20 16 21 17 22 21 23 18 24 20 25
REMARK SMILES IDX 19 26 22 27 24 28 23 29 25 30 26 31 27 32
REMARK H PARENT 11 6 14 18 14 19
ROOT
ATOM     1   N1  UNL     1      -2.215   0.622   0.947  1.00  0.00    -0.208 N   
ATOM     2   C9  UNL     1      -1.205   1.411   1.430  1.00  0.00     0.046 A   
ATOM     3   C10 UNL     1      -0.141   1.136   0.600  1.00  0.00     0.127 A   
ATOM     4   N3  UNL     1      -0.534   0.225  -0.348  1.00  0.00    -0.132 NA  
ATOM     5   N4  UNL     1      -1.802  -0.077  -0.129  1.00  0.00    -0.076 NA  
ATOM     6   H9  UNL     1      -1.333   2.054   2.290  1.00  0.00     0.083 HD  
ENDROOT
BRANCH   1   7
ATOM     7   C8  UNL     1      -3.583   0.511   1.427  1.00  0.00     0.169 C   
BRANCH   7   8
ATOM     8   C7  UNL     1      -3.645  -0.196   2.763  1.00  0.00    -0.023 A   
ATOM     9   C2  UNL     1      -3.626  -1.605   2.883  1.00  0.00    -0.046 A   
ATOM     10  C3  UNL     1      -3.650  -2.189   4.164  1.00  0.00     0.007 A   
ATOM     11  C4  UNL     1      -3.701  -1.399   5.311  1.00  0.00     0.039 A   
ATOM     12  C6  UNL     1      -3.701   0.583   3.933  1.00  0.00     0.045 A   
ATOM     13  C5  UNL     1      -3.727  -0.021   5.185  1.00  0.00     0.123 A   
ATOM     14  C1  UNL     1      -3.549  -2.515   1.685  1.00  0.00     0.044 C   
ATOM     15  F1  UNL     1      -3.766   0.746   6.283  1.00  0.00    -0.207 F   
ENDBRANCH   7   8
ENDBRANCH   1   7
BRANCH   3  16
ATOM     16  C11 UNL     1       1.273   1.626   0.611  1.00  0.00     0.117 C   
BRANCH  16  17
ATOM     17  N2  UNL     1       2.181   0.621  -0.046  1.00  0.00     0.249 N   
ATOM     18  H11 UNL     1       1.708   0.314  -0.909  1.00  0.00     0.199 HD  
ATOM     19  H12 UNL     1       3.071   1.035  -0.337  1.00  0.00     0.199 HD  
BRANCH  17  20
ATOM     20  C12 UNL     1       2.459  -0.604   0.755  1.00  0.00     0.164 C   
BRANCH  20  21
ATOM     21  C13 UNL     1       3.320  -1.555  -0.026  1.00  0.00    -0.002 A   
ATOM     22  C14 UNL     1       4.726  -1.542   0.125  1.00  0.00     0.012 A   
ATOM     23  C18 UNL     1       2.730  -2.431  -0.954  1.00  0.00     0.045 A   
ATOM     24  C15 UNL     1       5.537  -2.396  -0.630  1.00  0.00     0.037 A   
ATOM     25  C17 UNL     1       3.558  -3.260  -1.683  1.00  0.00     0.109 A   
ATOM     26  C16 UNL     1       4.922  -3.243  -1.526  1.00  0.00     0.108 A   
ATOM     27  O1  UNL     1       3.153  -4.162  -2.615  1.00  0.00    -0.316 OA  
ATOM     28  O2  UNL     1       5.548  -4.131  -2.341  1.00  0.00    -0.316 OA  
ATOM     29  C19 UNL     1       4.420  -4.726  -3.019  1.00  0.00     0.337 C   
ENDBRANCH  20  21
ENDBRANCH  17  20
ENDBRANCH  16  17
BRANCH  16  30
ATOM     30  C20 UNL     1       1.417   3.011  -0.074  1.00  0.00     0.037 C   
ATOM     31  C21 UNL     1       2.776   3.654   0.227  1.00  0.00     0.014 C   
ATOM     32  C22 UNL     1       1.183   2.984  -1.589  1.00  0.00     0.014 C   
ENDBRANCH  16  30
ENDBRANCH   3  16
TORSDOF 7
