REMARK SMILES CC(C)(C)[C@H]([NH2+]Cc1ccc2c(c1)OCO2)c1cn(C[C@H](O)c2cncc(F)c2)nn1
REMARK SMILES IDX 17 1 18 2 19 3 30 4 31 5 5 7 2 8 1 9 3 10 4 11 6 12 7 15
REMARK SMILES IDX 8 16 9 17 13 18 10 19 12 20 11 21 14 22 16 23 15 24 20 25
REMARK SMILES IDX 21 26 22 27 23 29 24 30 29 31 25 32 27 33 26 34 28 35
REMARK H PARENT 18 6 6 13 6 14 22 28
ROOT
ATOM     1   C14 UNL     1      -1.072   0.879   1.592  1.00  0.00     0.127 A   
ATOM     2   C15 UNL     1      -1.619   1.543   0.515  1.00  0.00     0.046 A   
ATOM     3   N2  UNL     1      -1.851   2.804   0.987  1.00  0.00    -0.209 N   
ATOM     4   N4  UNL     1      -1.486   2.909   2.278  1.00  0.00    -0.076 NA  
ATOM     5   N5  UNL     1      -0.995   1.741   2.657  1.00  0.00    -0.132 NA  
ATOM     6   H20 UNL     1      -1.820   1.259  -0.510  1.00  0.00     0.083 HD  
ENDROOT
BRANCH   1   7
ATOM     7   C5  UNL     1      -0.493  -0.499   1.708  1.00  0.00     0.120 C   
BRANCH   7   8
ATOM     8   C2  UNL     1      -1.452  -1.546   2.377  1.00  0.00     0.010 C   
ATOM     9   C1  UNL     1      -0.833  -2.962   2.300  1.00  0.00     0.017 C   
ATOM     10  C3  UNL     1      -1.750  -1.231   3.857  1.00  0.00     0.017 C   
ATOM     11  C4  UNL     1      -2.793  -1.599   1.611  1.00  0.00     0.017 C   
ENDBRANCH   7   8
BRANCH   7  12
ATOM     12  N1  UNL     1       0.816  -0.417   2.469  1.00  0.00     0.250 N   
ATOM     13  H11 UNL     1       1.126  -1.340   2.776  1.00  0.00     0.199 HD  
ATOM     14  H12 UNL     1       0.623   0.138   3.315  1.00  0.00     0.199 HD  
BRANCH  12  15
ATOM     15  C6  UNL     1       1.953   0.250   1.759  1.00  0.00     0.164 C   
BRANCH  15  16
ATOM     16  C7  UNL     1       2.469  -0.564   0.605  1.00  0.00    -0.002 A   
ATOM     17  C8  UNL     1       3.278  -1.702   0.833  1.00  0.00     0.012 A   
ATOM     18  C12 UNL     1       2.119  -0.217  -0.711  1.00  0.00     0.045 A   
ATOM     19  C9  UNL     1       3.731  -2.486  -0.234  1.00  0.00     0.037 A   
ATOM     20  C11 UNL     1       2.583  -1.009  -1.740  1.00  0.00     0.109 A   
ATOM     21  C10 UNL     1       3.365  -2.112  -1.509  1.00  0.00     0.108 A   
ATOM     22  O1  UNL     1       2.332  -0.816  -3.061  1.00  0.00    -0.316 OA  
ATOM     23  O2  UNL     1       3.707  -2.754  -2.655  1.00  0.00    -0.316 OA  
ATOM     24  C13 UNL     1       3.075  -1.911  -3.643  1.00  0.00     0.337 C   
ENDBRANCH  15  16
ENDBRANCH  12  15
ENDBRANCH   7  12
ENDBRANCH   1   7
BRANCH   3  25
ATOM     25  C16 UNL     1      -2.259   3.974   0.242  1.00  0.00     0.170 C   
BRANCH  25  26
ATOM     26  C17 UNL     1      -1.172   5.059   0.178  1.00  0.00     0.165 C   
BRANCH  26  27
ATOM     27  O3  UNL     1      -1.666   6.146  -0.607  1.00  0.00    -0.387 OA  
ATOM     28  H24 UNL     1      -0.976   6.834  -0.630  1.00  0.00     0.211 HD  
ENDBRANCH  26  27
BRANCH  26  29
ATOM     29  C18 UNL     1       0.122   4.553  -0.420  1.00  0.00     0.003 A   
ATOM     30  C19 UNL     1       1.143   4.085   0.411  1.00  0.00     0.117 A   
ATOM     31  C22 UNL     1       0.329   4.465  -1.801  1.00  0.00     0.049 A   
ATOM     32  N3  UNL     1       2.292   3.521  -0.031  1.00  0.00    -0.261 NA  
ATOM     33  C21 UNL     1       1.521   3.939  -2.279  1.00  0.00     0.141 A   
ATOM     34  C20 UNL     1       2.466   3.488  -1.376  1.00  0.00     0.150 A   
ATOM     35  F1  UNL     1       1.738   3.849  -3.596  1.00  0.00    -0.205 F   
ENDBRANCH  26  29
ENDBRANCH  25  26
ENDBRANCH   3  25
TORSDOF 9
