REMARK SMILES CC(C)(C)[C@H]([NH2+]Cc1ccc2c(c1)OCO2)c1cn(C[C@@H](O)c2cncc(F)c2)nn1
REMARK SMILES IDX 17 1 18 2 19 3 30 4 31 5 5 7 2 8 1 9 3 10 4 11 6 12 7 15
REMARK SMILES IDX 8 16 9 17 13 18 10 19 12 20 11 21 14 22 16 23 15 24 20 25
REMARK SMILES IDX 21 26 22 27 23 29 24 30 29 31 25 32 27 33 26 34 28 35
REMARK H PARENT 18 6 6 13 6 14 22 28
ROOT
ATOM     1   C14 UNL     1       1.611   1.032  -0.195  1.00  0.00     0.127 A   
ATOM     2   C15 UNL     1       1.656   1.378   1.138  1.00  0.00     0.046 A   
ATOM     3   N2  UNL     1       1.321   2.704   1.145  1.00  0.00    -0.209 N   
ATOM     4   N4  UNL     1       1.144   3.162  -0.106  1.00  0.00    -0.076 NA  
ATOM     5   N5  UNL     1       1.295   2.143  -0.935  1.00  0.00    -0.132 NA  
ATOM     6   H20 UNL     1       1.831   0.815   2.045  1.00  0.00     0.083 HD  
ENDROOT
BRANCH   1   7
ATOM     7   C5  UNL     1       1.735  -0.296  -0.877  1.00  0.00     0.120 C   
BRANCH   7   8
ATOM     8   C2  UNL     1       3.146  -0.573  -1.503  1.00  0.00     0.010 C   
ATOM     9   C1  UNL     1       3.483   0.378  -2.668  1.00  0.00     0.017 C   
ATOM     10  C3  UNL     1       4.243  -0.428  -0.423  1.00  0.00     0.017 C   
ATOM     11  C4  UNL     1       3.220  -2.028  -2.025  1.00  0.00     0.017 C   
ENDBRANCH   7   8
BRANCH   7  12
ATOM     12  N1  UNL     1       0.656  -0.386  -1.939  1.00  0.00     0.250 N   
ATOM     13  H11 UNL     1       0.619   0.545  -2.381  1.00  0.00     0.199 HD  
ATOM     14  H12 UNL     1       0.901  -1.052  -2.674  1.00  0.00     0.199 HD  
BRANCH  12  15
ATOM     15  C6  UNL     1      -0.719  -0.702  -1.446  1.00  0.00     0.164 C   
BRANCH  15  16
ATOM     16  C7  UNL     1      -0.866  -2.150  -1.069  1.00  0.00    -0.002 A   
ATOM     17  C8  UNL     1      -0.961  -3.147  -2.069  1.00  0.00     0.012 A   
ATOM     18  C12 UNL     1      -0.876  -2.528   0.284  1.00  0.00     0.045 A   
ATOM     19  C9  UNL     1      -1.059  -4.501  -1.728  1.00  0.00     0.037 A   
ATOM     20  C11 UNL     1      -0.974  -3.869   0.588  1.00  0.00     0.109 A   
ATOM     21  C10 UNL     1      -1.062  -4.829  -0.390  1.00  0.00     0.108 A   
ATOM     22  O1  UNL     1      -0.991  -4.398   1.839  1.00  0.00    -0.316 OA  
ATOM     23  O2  UNL     1      -1.148  -6.083   0.122  1.00  0.00    -0.316 OA  
ATOM     24  C13 UNL     1      -1.135  -5.805   1.539  1.00  0.00     0.337 C   
ENDBRANCH  15  16
ENDBRANCH  12  15
ENDBRANCH   7  12
ENDBRANCH   1   7
BRANCH   3  25
ATOM     25  C16 UNL     1       1.079   3.561   2.290  1.00  0.00     0.170 C   
BRANCH  25  26
ATOM     26  C17 UNL     1      -0.414   3.729   2.637  1.00  0.00     0.165 C   
BRANCH  26  27
ATOM     27  O3  UNL     1      -1.102   4.502   1.655  1.00  0.00    -0.387 OA  
ATOM     28  H24 UNL     1      -0.710   5.393   1.629  1.00  0.00     0.211 HD  
ENDBRANCH  26  27
BRANCH  26  29
ATOM     29  C18 UNL     1      -1.130   2.410   2.818  1.00  0.00     0.003 A   
ATOM     30  C19 UNL     1      -1.758   1.772   1.745  1.00  0.00     0.117 A   
ATOM     31  C22 UNL     1      -1.135   1.747   4.050  1.00  0.00     0.049 A   
ATOM     32  N3  UNL     1      -2.316   0.537   1.805  1.00  0.00    -0.261 NA  
ATOM     33  C21 UNL     1      -1.754   0.508   4.151  1.00  0.00     0.141 A   
ATOM     34  C20 UNL     1      -2.325  -0.055   3.024  1.00  0.00     0.150 A   
ATOM     35  F1  UNL     1      -1.770  -0.141   5.321  1.00  0.00    -0.205 F   
ENDBRANCH  26  29
ENDBRANCH  25  26
ENDBRANCH   3  25
TORSDOF 9
