REMARK SMILES COc1cccnc1CCn1cc([C@@H]([NH2+]Cc2ccc3c(c2)OCO3)C(C)C)nn1
REMARK SMILES IDX 11 1 12 2 13 3 29 4 30 5 10 7 9 8 8 9 3 10 4 11 5 12 7 13
REMARK SMILES IDX 6 14 2 15 1 16 14 17 15 18 16 21 17 22 18 23 22 24 19 25
REMARK SMILES IDX 21 26 20 27 23 28 25 29 24 30 26 31 27 32 28 33
REMARK H PARENT 12 6 15 19 15 20
ROOT
ATOM     1   N2  UNL     1       2.794   0.703  -0.606  1.00  0.00    -0.212 N   
ATOM     2   C9  UNL     1       2.516  -0.631  -0.703  1.00  0.00     0.045 A   
ATOM     3   C10 UNL     1       1.488  -0.691  -1.615  1.00  0.00     0.127 A   
ATOM     4   N4  UNL     1       1.198   0.577  -2.053  1.00  0.00    -0.132 NA  
ATOM     5   N5  UNL     1       2.005   1.420  -1.431  1.00  0.00    -0.076 NA  
ATOM     6   H11 UNL     1       3.037  -1.371  -0.111  1.00  0.00     0.083 HD  
ENDROOT
BRANCH   1   7
ATOM     7   C8  UNL     1       3.795   1.358   0.210  1.00  0.00     0.140 C   
BRANCH   7   8
ATOM     8   C7  UNL     1       3.197   2.142   1.377  1.00  0.00     0.080 C   
BRANCH   8   9
ATOM     9   C6  UNL     1       2.624   1.296   2.496  1.00  0.00     0.072 A   
ATOM     10  C2  UNL     1       1.942   1.918   3.555  1.00  0.00     0.096 A   
ATOM     11  C3  UNL     1       1.474   1.113   4.593  1.00  0.00     0.037 A   
ATOM     12  C4  UNL     1       1.705  -0.259   4.561  1.00  0.00     0.023 A   
ATOM     13  N1  UNL     1       2.847  -0.046   2.449  1.00  0.00    -0.259 NA  
ATOM     14  C5  UNL     1       2.394  -0.786   3.484  1.00  0.00     0.111 A   
BRANCH  10  15
ATOM     15  O1  UNL     1       1.790   3.275   3.479  1.00  0.00    -0.347 OA  
ATOM     16  C1  UNL     1       1.192   3.930   4.592  1.00  0.00     0.203 C   
ENDBRANCH  10  15
ENDBRANCH   8   9
ENDBRANCH   7   8
ENDBRANCH   1   7
BRANCH   3  17
ATOM     17  C11 UNL     1       0.673  -1.843  -2.106  1.00  0.00     0.117 C   
BRANCH  17  18
ATOM     18  N3  UNL     1      -0.697  -1.370  -2.511  1.00  0.00     0.249 N   
ATOM     19  H13 UNL     1      -1.174  -2.036  -3.125  1.00  0.00     0.199 HD  
ATOM     20  H14 UNL     1      -0.558  -0.511  -3.064  1.00  0.00     0.199 HD  
BRANCH  18  21
ATOM     21  C12 UNL     1      -1.601  -1.014  -1.381  1.00  0.00     0.164 C   
BRANCH  21  22
ATOM     22  C13 UNL     1      -2.897  -0.463  -1.902  1.00  0.00    -0.002 A   
ATOM     23  C14 UNL     1      -3.002   0.911  -2.229  1.00  0.00     0.012 A   
ATOM     24  C18 UNL     1      -3.994  -1.313  -2.119  1.00  0.00     0.045 A   
ATOM     25  C15 UNL     1      -4.189   1.436  -2.754  1.00  0.00     0.037 A   
ATOM     26  C17 UNL     1      -5.149  -0.763  -2.637  1.00  0.00     0.109 A   
ATOM     27  C16 UNL     1      -5.244   0.572  -2.945  1.00  0.00     0.108 A   
ATOM     28  O2  UNL     1      -6.296  -1.440  -2.902  1.00  0.00    -0.316 OA  
ATOM     29  O3  UNL     1      -6.464   0.903  -3.442  1.00  0.00    -0.316 OA  
ATOM     30  C19 UNL     1      -7.139  -0.371  -3.390  1.00  0.00     0.337 C   
ENDBRANCH  21  22
ENDBRANCH  18  21
ENDBRANCH  17  18
BRANCH  17  31
ATOM     31  C20 UNL     1       1.357  -2.589  -3.281  1.00  0.00     0.037 C   
ATOM     32  C21 UNL     1       1.436  -1.773  -4.577  1.00  0.00     0.014 C   
ATOM     33  C22 UNL     1       0.686  -3.939  -3.562  1.00  0.00     0.014 C   
ENDBRANCH  17  31
ENDBRANCH   3  17
TORSDOF 9
