REMARK SMILES Cn1cc(Cn2cc([C@@H]([NH2+]Cc3ccc4c(c3)OCO4)C(C)(C)C)nn2)c2cccnc21
REMARK SMILES IDX 6 1 7 2 8 3 25 4 26 5 5 7 4 8 2 9 3 10 32 11 27 12 31 13
REMARK SMILES IDX 28 14 30 15 29 16 1 17 9 18 10 19 11 22 12 23 13 24 17 25
REMARK SMILES IDX 14 26 16 27 15 28 18 29 20 30 19 31 21 32 22 33 23 34 24 35
REMARK H PARENT 7 6 10 20 10 21
ROOT
ATOM     1   N2  UNL     1       1.000  -2.119  -0.554  1.00  0.00    -0.208 N   
ATOM     2   C5  UNL     1       0.358  -1.563   0.519  1.00  0.00     0.046 A   
ATOM     3   C6  UNL     1      -0.978  -1.754   0.244  1.00  0.00     0.127 A   
ATOM     4   N4  UNL     1      -1.100  -2.453  -0.929  1.00  0.00    -0.132 NA  
ATOM     5   N5  UNL     1       0.114  -2.669  -1.408  1.00  0.00    -0.076 NA  
ATOM     6   H7  UNL     1       0.885  -1.043   1.306  1.00  0.00     0.083 HD  
ENDROOT
BRANCH   1   7
ATOM     7   C4  UNL     1       2.418  -2.059  -0.877  1.00  0.00     0.171 C   
BRANCH   7   8
ATOM     8   C3  UNL     1       2.768  -0.679  -1.332  1.00  0.00    -0.004 A   
ATOM     9   N1  UNL     1       3.051   1.127  -2.623  1.00  0.00    -0.295 N   
ATOM     10  C2  UNL     1       2.667  -0.189  -2.626  1.00  0.00     0.082 A   
ATOM     11  C24 UNL     1       3.384   1.511  -1.351  1.00  0.00     0.131 A   
ATOM     12  C20 UNL     1       3.249   0.400  -0.522  1.00  0.00     0.021 A   
ATOM     13  N6  UNL     1       3.773   2.750  -0.993  1.00  0.00    -0.240 NA  
ATOM     14  C21 UNL     1       3.578   0.571   0.835  1.00  0.00     0.014 A   
ATOM     15  C23 UNL     1       4.086   2.857   0.316  1.00  0.00     0.113 A   
ATOM     16  C22 UNL     1       4.009   1.833   1.249  1.00  0.00     0.021 A   
ATOM     17  C1  UNL     1       3.111   1.994  -3.777  1.00  0.00     0.137 C   
ENDBRANCH   7   8
ENDBRANCH   1   7
BRANCH   3  18
ATOM     18  C7  UNL     1      -2.194  -1.220   0.932  1.00  0.00     0.120 C   
BRANCH  18  19
ATOM     19  N3  UNL     1      -3.172  -0.677  -0.095  1.00  0.00     0.250 N   
ATOM     20  H9  UNL     1      -4.022  -0.343   0.362  1.00  0.00     0.199 HD  
ATOM     21  H10 UNL     1      -3.432  -1.464  -0.703  1.00  0.00     0.199 HD  
BRANCH  19  22
ATOM     22  C8  UNL     1      -2.668   0.405  -1.003  1.00  0.00     0.164 C   
BRANCH  22  23
ATOM     23  C9  UNL     1      -2.101   1.597  -0.284  1.00  0.00    -0.002 A   
ATOM     24  C10 UNL     1      -0.722   1.902  -0.400  1.00  0.00     0.012 A   
ATOM     25  C14 UNL     1      -2.921   2.407   0.519  1.00  0.00     0.045 A   
ATOM     26  C11 UNL     1      -0.163   2.987   0.282  1.00  0.00     0.037 A   
ATOM     27  C13 UNL     1      -2.337   3.468   1.180  1.00  0.00     0.109 A   
ATOM     28  C12 UNL     1      -0.997   3.750   1.067  1.00  0.00     0.108 A   
ATOM     29  O1  UNL     1      -2.983   4.338   1.999  1.00  0.00    -0.316 OA  
ATOM     30  O2  UNL     1      -0.632   4.832   1.801  1.00  0.00    -0.316 OA  
ATOM     31  C15 UNL     1      -1.902   5.228   2.362  1.00  0.00     0.337 C   
ENDBRANCH  22  23
ENDBRANCH  19  22
ENDBRANCH  18  19
BRANCH  18  32
ATOM     32  C16 UNL     1      -2.907  -2.253   1.875  1.00  0.00     0.010 C   
ATOM     33  C17 UNL     1      -3.472  -3.473   1.120  1.00  0.00     0.017 C   
ATOM     34  C18 UNL     1      -1.911  -2.764   2.942  1.00  0.00     0.017 C   
ATOM     35  C19 UNL     1      -4.072  -1.575   2.633  1.00  0.00     0.017 C   
ENDBRANCH  18  32
ENDBRANCH   3  18
TORSDOF 7
