REMARK SMILES CC(C)C[C@H]([NH2+]Cc1ccc2c(c1)OCO2)c1cn(Cc2ccccc2N(C)C)nn1
REMARK SMILES IDX 17 1 18 2 19 3 30 4 31 5 5 7 4 8 2 9 1 10 3 11 6 12 7 15
REMARK SMILES IDX 8 16 9 17 13 18 10 19 12 20 11 21 14 22 16 23 15 24 20 25
REMARK SMILES IDX 21 26 22 27 26 28 23 29 25 30 24 31 27 32 28 33 29 34
REMARK H PARENT 18 6 6 13 6 14
ROOT
ATOM     1   C14 UNL     1       0.944  -0.742   0.507  1.00  0.00     0.127 A   
ATOM     2   C15 UNL     1       0.189  -1.466  -0.387  1.00  0.00     0.046 A   
ATOM     3   N2  UNL     1       0.856  -2.656  -0.496  1.00  0.00    -0.208 N   
ATOM     4   N4  UNL     1       1.916  -2.688   0.339  1.00  0.00    -0.076 NA  
ATOM     5   N5  UNL     1       1.994  -1.512   0.940  1.00  0.00    -0.132 NA  
ATOM     6   H20 UNL     1      -0.704  -1.257  -0.960  1.00  0.00     0.083 HD  
ENDROOT
BRANCH   1   7
ATOM     7   C5  UNL     1       0.777   0.644   1.040  1.00  0.00     0.114 C   
BRANCH   7   8
ATOM     8   C4  UNL     1       1.445   1.672   0.105  1.00  0.00     0.064 C   
BRANCH   8   9
ATOM     9   C2  UNL     1       1.246   3.159   0.469  1.00  0.00    -0.012 C   
ATOM     10  C1  UNL     1       1.978   4.039  -0.549  1.00  0.00     0.007 C   
ATOM     11  C3  UNL     1      -0.230   3.558   0.524  1.00  0.00     0.007 C   
ENDBRANCH   8   9
ENDBRANCH   7   8
BRANCH   7  12
ATOM     12  N1  UNL     1       1.403   0.749   2.411  1.00  0.00     0.249 N   
ATOM     13  H11 UNL     1       1.556   1.724   2.675  1.00  0.00     0.199 HD  
ATOM     14  H12 UNL     1       2.330   0.306   2.331  1.00  0.00     0.199 HD  
BRANCH  12  15
ATOM     15  C6  UNL     1       0.676   0.059   3.518  1.00  0.00     0.164 C   
BRANCH  15  16
ATOM     16  C7  UNL     1      -0.617   0.740   3.870  1.00  0.00    -0.002 A   
ATOM     17  C8  UNL     1      -1.854   0.150   3.516  1.00  0.00     0.012 A   
ATOM     18  C12 UNL     1      -0.606   1.985   4.523  1.00  0.00     0.045 A   
ATOM     19  C9  UNL     1      -3.064   0.792   3.800  1.00  0.00     0.037 A   
ATOM     20  C11 UNL     1      -1.817   2.591   4.786  1.00  0.00     0.109 A   
ATOM     21  C10 UNL     1      -3.011   2.014   4.433  1.00  0.00     0.108 A   
ATOM     22  O1  UNL     1      -1.981   3.793   5.398  1.00  0.00    -0.316 OA  
ATOM     23  O2  UNL     1      -4.079   2.778   4.780  1.00  0.00    -0.316 OA  
ATOM     24  C13 UNL     1      -3.424   3.895   5.418  1.00  0.00     0.337 C   
ENDBRANCH  15  16
ENDBRANCH  12  15
ENDBRANCH   7  12
ENDBRANCH   1   7
BRANCH   3  25
ATOM     25  C16 UNL     1       0.523  -3.805  -1.321  1.00  0.00     0.171 C   
BRANCH  25  26
ATOM     26  C17 UNL     1       0.898  -3.563  -2.763  1.00  0.00    -0.007 A   
ATOM     27  C18 UNL     1       2.235  -3.768  -3.155  1.00  0.00     0.007 A   
ATOM     28  C22 UNL     1      -0.045  -3.096  -3.706  1.00  0.00     0.033 A   
ATOM     29  C19 UNL     1       2.639  -3.531  -4.466  1.00  0.00     0.000 A   
ATOM     30  C21 UNL     1       0.386  -2.872  -5.025  1.00  0.00     0.024 A   
ATOM     31  C20 UNL     1       1.714  -3.085  -5.402  1.00  0.00     0.002 A   
BRANCH  28  32
ATOM     32  N3  UNL     1      -1.392  -2.904  -3.308  1.00  0.00    -0.337 N   
ATOM     33  C23 UNL     1      -2.005  -1.676  -3.831  1.00  0.00     0.129 C   
ATOM     34  C24 UNL     1      -2.182  -4.110  -3.622  1.00  0.00     0.129 C   
ENDBRANCH  28  32
ENDBRANCH  25  26
ENDBRANCH   3  25
TORSDOF 9
