REMARK SMILES CC(C)(C)[C@H]([NH2+]Cc1ccc2c(c1)OCO2)c1cn(C[C@@H](O)c2cccc(Cl)c2)nn1
REMARK SMILES IDX 17 1 18 2 19 3 30 4 31 5 5 7 2 8 1 9 3 10 4 11 6 12 7 15
REMARK SMILES IDX 8 16 9 17 13 18 10 19 12 20 11 21 14 22 16 23 15 24 20 25
REMARK SMILES IDX 21 26 22 27 23 29 24 30 29 31 25 32 27 33 26 34 28 35
REMARK H PARENT 18 6 6 13 6 14 22 28
ROOT
ATOM     1   C14 UNL     1      -0.000  -1.581  -1.244  1.00  0.00     0.127 A   
ATOM     2   C15 UNL     1       0.494  -1.655   0.040  1.00  0.00     0.046 A   
ATOM     3   N2  UNL     1       1.845  -1.547  -0.121  1.00  0.00    -0.209 N   
ATOM     4   N3  UNL     1       2.168  -1.406  -1.419  1.00  0.00    -0.076 NA  
ATOM     5   N4  UNL     1       1.045  -1.425  -2.119  1.00  0.00    -0.132 NA  
ATOM     6   H20 UNL     1       0.031  -1.746   1.013  1.00  0.00     0.083 HD  
ENDROOT
BRANCH   1   7
ATOM     7   C5  UNL     1      -1.408  -1.545  -1.753  1.00  0.00     0.120 C   
BRANCH   7   8
ATOM     8   C2  UNL     1      -1.950  -2.933  -2.248  1.00  0.00     0.010 C   
ATOM     9   C1  UNL     1      -1.190  -3.473  -3.475  1.00  0.00     0.017 C   
ATOM     10  C3  UNL     1      -1.841  -3.978  -1.113  1.00  0.00     0.017 C   
ATOM     11  C4  UNL     1      -3.448  -2.825  -2.616  1.00  0.00     0.017 C   
ENDBRANCH   7   8
BRANCH   7  12
ATOM     12  N1  UNL     1      -1.504  -0.515  -2.864  1.00  0.00     0.250 N   
ATOM     13  H11 UNL     1      -2.396  -0.587  -3.356  1.00  0.00     0.199 HD  
ATOM     14  H12 UNL     1      -0.761  -0.748  -3.537  1.00  0.00     0.199 HD  
BRANCH  12  15
ATOM     15  C6  UNL     1      -1.295   0.911  -2.465  1.00  0.00     0.164 C   
BRANCH  15  16
ATOM     16  C7  UNL     1      -2.352   1.420  -1.524  1.00  0.00    -0.002 A   
ATOM     17  C8  UNL     1      -2.039   1.657  -0.164  1.00  0.00     0.012 A   
ATOM     18  C12 UNL     1      -3.664   1.633  -1.980  1.00  0.00     0.045 A   
ATOM     19  C9  UNL     1      -3.019   2.094   0.734  1.00  0.00     0.037 A   
ATOM     20  C11 UNL     1      -4.606   2.063  -1.068  1.00  0.00     0.109 A   
ATOM     21  C10 UNL     1      -4.294   2.286   0.250  1.00  0.00     0.108 A   
ATOM     22  O1  UNL     1      -5.914   2.310  -1.342  1.00  0.00    -0.316 OA  
ATOM     23  O2  UNL     1      -5.366   2.701   0.973  1.00  0.00    -0.316 OA  
ATOM     24  C13 UNL     1      -6.388   2.745  -0.046  1.00  0.00     0.337 C   
ENDBRANCH  15  16
ENDBRANCH  12  15
ENDBRANCH   7  12
ENDBRANCH   1   7
BRANCH   3  25
ATOM     25  C16 UNL     1       2.872  -1.539   0.902  1.00  0.00     0.170 C   
BRANCH  25  26
ATOM     26  C17 UNL     1       3.323  -0.112   1.226  1.00  0.00     0.164 C   
BRANCH  26  27
ATOM     27  O3  UNL     1       2.251   0.607   1.852  1.00  0.00    -0.387 OA  
ATOM     28  H24 UNL     1       2.653   1.350   2.341  1.00  0.00     0.211 HD  
ENDBRANCH  26  27
BRANCH  26  29
ATOM     29  C18 UNL     1       4.529  -0.106   2.141  1.00  0.00    -0.016 A   
ATOM     30  C19 UNL     1       5.792   0.248   1.643  1.00  0.00     0.006 A   
ATOM     31  C23 UNL     1       4.415  -0.470   3.494  1.00  0.00     0.027 A   
ATOM     32  C20 UNL     1       6.913   0.245   2.478  1.00  0.00     0.002 A   
ATOM     33  C22 UNL     1       5.538  -0.471   4.322  1.00  0.00     0.041 A   
ATOM     34  C21 UNL     1       6.786  -0.115   3.819  1.00  0.00     0.020 A   
ATOM     35  CL1 UNL     1       5.375  -0.918   5.975  1.00  0.00    -0.084 Cl  
ENDBRANCH  26  29
ENDBRANCH  25  26
ENDBRANCH   3  25
TORSDOF 9
