REMARK SMILES CC(C)(C)[C@H]([NH2+]Cc1ccc2c(c1)OCO2)c1cn(C[C@H](O)c2cccc(Cl)c2)nn1
REMARK SMILES IDX 17 1 18 2 19 3 30 4 31 5 5 7 2 8 1 9 3 10 4 11 6 12 7 15
REMARK SMILES IDX 8 16 9 17 13 18 10 19 12 20 11 21 14 22 16 23 15 24 20 25
REMARK SMILES IDX 21 26 22 27 23 29 24 30 29 31 25 32 27 33 26 34 28 35
REMARK H PARENT 18 6 6 13 6 14 22 28
ROOT
ATOM     1   C14 UNL     1      -0.838  -1.388  -0.202  1.00  0.00     0.127 A   
ATOM     2   C15 UNL     1      -2.128  -0.917  -0.318  1.00  0.00     0.046 A   
ATOM     3   N2  UNL     1      -2.737  -1.336   0.831  1.00  0.00    -0.209 N   
ATOM     4   N3  UNL     1      -1.877  -2.018   1.610  1.00  0.00    -0.076 NA  
ATOM     5   N4  UNL     1      -0.708  -2.050   0.992  1.00  0.00    -0.132 NA  
ATOM     6   H20 UNL     1      -2.641  -0.330  -1.067  1.00  0.00     0.083 HD  
ENDROOT
BRANCH   1   7
ATOM     7   C5  UNL     1       0.363  -1.194  -1.078  1.00  0.00     0.120 C   
BRANCH   7   8
ATOM     8   C2  UNL     1       0.663  -2.401  -2.035  1.00  0.00     0.010 C   
ATOM     9   C1  UNL     1       1.046  -3.689  -1.278  1.00  0.00     0.017 C   
ATOM     10  C3  UNL     1       1.819  -2.047  -2.999  1.00  0.00     0.017 C   
ATOM     11  C4  UNL     1      -0.575  -2.703  -2.910  1.00  0.00     0.017 C   
ENDBRANCH   7   8
BRANCH   7  12
ATOM     12  N1  UNL     1       1.568  -0.897  -0.206  1.00  0.00     0.250 N   
ATOM     13  H11 UNL     1       1.608  -1.650   0.495  1.00  0.00     0.199 HD  
ATOM     14  H12 UNL     1       2.434  -0.937  -0.747  1.00  0.00     0.199 HD  
BRANCH  12  15
ATOM     15  C6  UNL     1       1.541   0.394   0.548  1.00  0.00     0.164 C   
BRANCH  15  16
ATOM     16  C7  UNL     1       1.622   1.597  -0.349  1.00  0.00    -0.002 A   
ATOM     17  C8  UNL     1       2.856   1.982  -0.924  1.00  0.00     0.012 A   
ATOM     18  C12 UNL     1       0.461   2.332  -0.649  1.00  0.00     0.045 A   
ATOM     19  C9  UNL     1       2.936   3.083  -1.784  1.00  0.00     0.037 A   
ATOM     20  C11 UNL     1       0.574   3.411  -1.499  1.00  0.00     0.109 A   
ATOM     21  C10 UNL     1       1.776   3.776  -2.052  1.00  0.00     0.108 A   
ATOM     22  O1  UNL     1      -0.446   4.220  -1.891  1.00  0.00    -0.316 OA  
ATOM     23  O2  UNL     1       1.666   4.862  -2.860  1.00  0.00    -0.316 OA  
ATOM     24  C13 UNL     1       0.259   5.160  -2.733  1.00  0.00     0.337 C   
ENDBRANCH  15  16
ENDBRANCH  12  15
ENDBRANCH   7  12
ENDBRANCH   1   7
BRANCH   3  25
ATOM     25  C16 UNL     1      -4.081  -1.057   1.282  1.00  0.00     0.170 C   
BRANCH  25  26
ATOM     26  C17 UNL     1      -4.128  -0.199   2.552  1.00  0.00     0.164 C   
BRANCH  26  27
ATOM     27  O3  UNL     1      -5.496   0.029   2.898  1.00  0.00    -0.387 OA  
ATOM     28  H24 UNL     1      -5.508   0.672   3.631  1.00  0.00     0.211 HD  
ENDBRANCH  26  27
BRANCH  26  29
ATOM     29  C18 UNL     1      -3.423   1.136   2.391  1.00  0.00    -0.016 A   
ATOM     30  C19 UNL     1      -4.012   2.192   1.678  1.00  0.00     0.006 A   
ATOM     31  C23 UNL     1      -2.136   1.315   2.924  1.00  0.00     0.027 A   
ATOM     32  C20 UNL     1      -3.333   3.401   1.508  1.00  0.00     0.002 A   
ATOM     33  C22 UNL     1      -1.460   2.522   2.742  1.00  0.00     0.041 A   
ATOM     34  C21 UNL     1      -2.054   3.566   2.039  1.00  0.00     0.020 A   
ATOM     35  CL1 UNL     1       0.141   2.697   3.347  1.00  0.00    -0.084 Cl  
ENDBRANCH  26  29
ENDBRANCH  25  26
ENDBRANCH   3  25
TORSDOF 9
