REMARK SMILES Cc1nc[nH]c1[C@H](CO)n1cc([C@H](CC(C)C)[NH2+]Cc2ccc3c(c2)OCO3)nn1
REMARK SMILES IDX 10 1 11 2 12 3 29 4 30 5 7 7 6 8 2 9 3 10 4 11 5 12 1 13
REMARK SMILES IDX 8 15 9 16 13 18 14 19 15 20 16 21 17 22 18 23 19 26 20 27
REMARK SMILES IDX 21 28 25 29 22 30 24 31 23 32 26 33 28 34 27 35
REMARK H PARENT 11 6 5 14 9 17 18 24 18 25
ROOT
ATOM     1   N3  UNL     1      -0.328  -3.286  -0.307  1.00  0.00    -0.201 N   
ATOM     2   C7  UNL     1       0.034  -2.367  -1.258  1.00  0.00     0.046 A   
ATOM     3   C8  UNL     1      -0.833  -1.316  -1.060  1.00  0.00     0.127 A   
ATOM     4   N5  UNL     1      -1.708  -1.643  -0.054  1.00  0.00    -0.132 NA  
ATOM     5   N6  UNL     1      -1.389  -2.844   0.399  1.00  0.00    -0.075 NA  
ATOM     6   H10 UNL     1       0.873  -2.529  -1.919  1.00  0.00     0.083 HD  
ENDROOT
BRANCH   1   7
ATOM     7   C5  UNL     1       0.344  -4.530   0.073  1.00  0.00     0.171 C   
BRANCH   7   8
ATOM     8   C4  UNL     1       1.776  -4.238   0.424  1.00  0.00     0.055 A   
ATOM     9   C2  UNL     1       2.340  -3.635   1.536  1.00  0.00     0.058 A   
ATOM     10  N1  UNL     1       3.697  -3.510   1.370  1.00  0.00    -0.245 NA  
ATOM     11  C3  UNL     1       3.972  -4.061   0.211  1.00  0.00     0.186 A   
ATOM     12  N2  UNL     1       2.842  -4.513  -0.402  1.00  0.00    -0.306 N   
ATOM     13  C1  UNL     1       1.684  -3.124   2.762  1.00  0.00     0.068 C   
ATOM     14  H5  UNL     1       2.789  -4.951  -1.316  1.00  0.00     0.154 HD  
ENDBRANCH   7   8
BRANCH   7  15
ATOM     15  C6  UNL     1       0.148  -5.632  -0.985  1.00  0.00     0.187 C   
BRANCH  15  16
ATOM     16  O1  UNL     1       0.866  -5.365  -2.197  1.00  0.00    -0.394 OA  
ATOM     17  H9  UNL     1       0.629  -6.079  -2.822  1.00  0.00     0.210 HD  
ENDBRANCH  15  16
ENDBRANCH   7  15
ENDBRANCH   1   7
BRANCH   3  18
ATOM     18  C9  UNL     1      -0.918   0.052  -1.661  1.00  0.00     0.114 C   
BRANCH  18  19
ATOM     19  C10 UNL     1       0.285   0.443  -2.536  1.00  0.00     0.064 C   
BRANCH  19  20
ATOM     20  C11 UNL     1       0.235   1.852  -3.166  1.00  0.00    -0.012 C   
ATOM     21  C12 UNL     1       1.514   2.101  -3.972  1.00  0.00     0.007 C   
ATOM     22  C13 UNL     1      -0.987   2.046  -4.065  1.00  0.00     0.007 C   
ENDBRANCH  19  20
ENDBRANCH  18  19
BRANCH  18  23
ATOM     23  N4  UNL     1      -1.160   1.068  -0.576  1.00  0.00     0.249 N   
ATOM     24  H21 UNL     1      -1.457   1.968  -0.965  1.00  0.00     0.199 HD  
ATOM     25  H22 UNL     1      -1.972   0.715  -0.047  1.00  0.00     0.199 HD  
BRANCH  23  26
ATOM     26  C14 UNL     1      -0.073   1.276   0.425  1.00  0.00     0.164 C   
BRANCH  26  27
ATOM     27  C15 UNL     1      -0.563   2.142   1.551  1.00  0.00    -0.002 A   
ATOM     28  C16 UNL     1      -1.228   1.558   2.656  1.00  0.00     0.012 A   
ATOM     29  C20 UNL     1      -0.415   3.538   1.489  1.00  0.00     0.045 A   
ATOM     30  C17 UNL     1      -1.730   2.351   3.694  1.00  0.00     0.037 A   
ATOM     31  C19 UNL     1      -0.921   4.290   2.529  1.00  0.00     0.109 A   
ATOM     32  C18 UNL     1      -1.560   3.715   3.600  1.00  0.00     0.108 A   
ATOM     33  O2  UNL     1      -0.864   5.644   2.625  1.00  0.00    -0.316 OA  
ATOM     34  O3  UNL     1      -1.984   4.634   4.506  1.00  0.00    -0.316 OA  
ATOM     35  C21 UNL     1      -1.515   5.857   3.898  1.00  0.00     0.337 C   
ENDBRANCH  26  27
ENDBRANCH  23  26
ENDBRANCH  18  23
ENDBRANCH   3  18
TORSDOF 10
