REMARK SMILES Cc1nc[nH]c1[C@@H](CO)n1cc([C@H](CC(C)C)[NH2+]Cc2ccc3c(c2)OCO3)nn1
REMARK SMILES IDX 10 1 11 2 12 3 29 4 30 5 7 7 6 8 2 9 3 10 4 11 5 12 1 13
REMARK SMILES IDX 8 15 9 16 13 18 14 19 15 20 16 21 17 22 18 23 19 26 20 27
REMARK SMILES IDX 21 28 25 29 22 30 24 31 23 32 26 33 28 34 27 35
REMARK H PARENT 11 6 5 14 9 17 18 24 18 25
ROOT
ATOM     1   N3  UNL     1       0.129  -1.253  -3.207  1.00  0.00    -0.201 N   
ATOM     2   C7  UNL     1       0.392   0.035  -2.816  1.00  0.00     0.046 A   
ATOM     3   C8  UNL     1       1.272  -0.106  -1.768  1.00  0.00     0.127 A   
ATOM     4   N5  UNL     1       1.536  -1.436  -1.575  1.00  0.00    -0.132 NA  
ATOM     5   N6  UNL     1       0.834  -2.127  -2.458  1.00  0.00    -0.075 NA  
ATOM     6   H10 UNL     1      -0.096   0.886  -3.273  1.00  0.00     0.083 HD  
ENDROOT
BRANCH   1   7
ATOM     7   C5  UNL     1      -0.874  -1.738  -4.155  1.00  0.00     0.171 C   
BRANCH   7   8
ATOM     8   C4  UNL     1      -2.235  -1.272  -3.715  1.00  0.00     0.055 A   
ATOM     9   C2  UNL     1      -3.045  -1.681  -2.669  1.00  0.00     0.058 A   
ATOM     10  N1  UNL     1      -4.170  -0.897  -2.606  1.00  0.00    -0.245 NA  
ATOM     11  C3  UNL     1      -4.083  -0.059  -3.612  1.00  0.00     0.186 A   
ATOM     12  N2  UNL     1      -2.928  -0.243  -4.312  1.00  0.00    -0.306 N   
ATOM     13  C1  UNL     1      -2.825  -2.753  -1.670  1.00  0.00     0.068 C   
ATOM     14  H5  UNL     1      -2.620   0.299  -5.114  1.00  0.00     0.154 HD  
ENDBRANCH   7   8
BRANCH   7  15
ATOM     15  C6  UNL     1      -0.508  -1.393  -5.611  1.00  0.00     0.187 C   
BRANCH  15  16
ATOM     16  O1  UNL     1      -0.604   0.011  -5.886  1.00  0.00    -0.394 OA  
ATOM     17  H9  UNL     1      -0.316   0.133  -6.811  1.00  0.00     0.210 HD  
ENDBRANCH  15  16
ENDBRANCH   7  15
ENDBRANCH   1   7
BRANCH   3  18
ATOM     18  C9  UNL     1       1.847   0.903  -0.830  1.00  0.00     0.114 C   
BRANCH  18  19
ATOM     19  C10 UNL     1       3.343   1.130  -1.117  1.00  0.00     0.064 C   
BRANCH  19  20
ATOM     20  C11 UNL     1       4.037   2.238  -0.296  1.00  0.00    -0.012 C   
ATOM     21  C12 UNL     1       5.513   2.322  -0.696  1.00  0.00     0.007 C   
ATOM     22  C13 UNL     1       3.377   3.605  -0.480  1.00  0.00     0.007 C   
ENDBRANCH  19  20
ENDBRANCH  18  19
BRANCH  18  23
ATOM     23  N4  UNL     1       1.678   0.427   0.589  1.00  0.00     0.249 N   
ATOM     24  H21 UNL     1       2.261   0.957   1.241  1.00  0.00     0.199 HD  
ATOM     25  H22 UNL     1       2.015  -0.547   0.622  1.00  0.00     0.199 HD  
BRANCH  23  26
ATOM     26  C14 UNL     1       0.274   0.435   1.091  1.00  0.00     0.164 C   
BRANCH  26  27
ATOM     27  C15 UNL     1       0.217  -0.071   2.505  1.00  0.00    -0.002 A   
ATOM     28  C16 UNL     1       0.381   0.821   3.593  1.00  0.00     0.012 A   
ATOM     29  C20 UNL     1       0.046  -1.446   2.753  1.00  0.00     0.045 A   
ATOM     30  C17 UNL     1       0.360   0.353   4.912  1.00  0.00     0.037 A   
ATOM     31  C19 UNL     1       0.028  -1.872   4.065  1.00  0.00     0.109 A   
ATOM     32  C18 UNL     1       0.179  -0.999   5.115  1.00  0.00     0.108 A   
ATOM     33  O2  UNL     1      -0.130  -3.157   4.476  1.00  0.00    -0.316 OA  
ATOM     34  O3  UNL     1       0.133  -1.626   6.320  1.00  0.00    -0.316 OA  
ATOM     35  C21 UNL     1      -0.088  -2.993   5.912  1.00  0.00     0.337 C   
ENDBRANCH  26  27
ENDBRANCH  23  26
ENDBRANCH  18  23
ENDBRANCH   3  18
TORSDOF 10
