REMARK SMILES Cc1nccnc1CCn1cc([C@@H]([NH2+]Cc2ccc3c(c2)OCO3)C2CCCCC2)nn1
REMARK SMILES IDX 10 1 11 2 12 3 31 4 32 5 9 7 8 8 7 9 2 10 3 11 4 12 6 13
REMARK SMILES IDX 5 14 1 15 13 16 14 17 15 20 16 21 17 22 21 23 18 24 20 25
REMARK SMILES IDX 19 26 22 27 24 28 23 29 25 30 26 31 30 32 27 33 29 34 28 35
REMARK H PARENT 11 6 14 18 14 19
ROOT
ATOM     1   N3  UNL     1      -4.182   0.096   0.157  1.00  0.00    -0.212 N   
ATOM     2   C8  UNL     1      -3.429  -0.359  -0.891  1.00  0.00     0.045 A   
ATOM     3   C9  UNL     1      -2.219  -0.675  -0.312  1.00  0.00     0.127 A   
ATOM     4   N5  UNL     1      -2.332  -0.563   1.047  1.00  0.00    -0.132 NA  
ATOM     5   N6  UNL     1      -3.537  -0.089   1.323  1.00  0.00    -0.076 NA  
ATOM     6   H10 UNL     1      -3.763  -0.274  -1.917  1.00  0.00     0.083 HD  
ENDROOT
BRANCH   1   7
ATOM     7   C7  UNL     1      -5.316   1.000   0.075  1.00  0.00     0.140 C   
BRANCH   7   8
ATOM     8   C6  UNL     1      -4.895   2.474   0.200  1.00  0.00     0.079 C   
BRANCH   8   9
ATOM     9   C5  UNL     1      -3.774   2.805  -0.757  1.00  0.00     0.063 A   
ATOM     10  C2  UNL     1      -2.443   2.973  -0.344  1.00  0.00     0.059 A   
ATOM     11  N1  UNL     1      -1.413   2.962  -1.242  1.00  0.00    -0.258 NA  
ATOM     12  C3  UNL     1      -1.772   3.003  -2.549  1.00  0.00     0.131 A   
ATOM     13  N2  UNL     1      -4.098   2.763  -2.077  1.00  0.00    -0.258 NA  
ATOM     14  C4  UNL     1      -3.087   2.921  -2.957  1.00  0.00     0.131 A   
ATOM     15  C1  UNL     1      -2.074   3.175   1.097  1.00  0.00     0.069 C   
ENDBRANCH   8   9
ENDBRANCH   7   8
ENDBRANCH   1   7
BRANCH   3  16
ATOM     16  C10 UNL     1      -0.903  -0.958  -0.961  1.00  0.00     0.117 C   
BRANCH  16  17
ATOM     17  N4  UNL     1       0.068   0.174  -0.717  1.00  0.00     0.249 N   
ATOM     18  H12 UNL     1       0.875   0.084  -1.343  1.00  0.00     0.199 HD  
ATOM     19  H13 UNL     1      -0.397   1.057  -0.994  1.00  0.00     0.199 HD  
BRANCH  17  20
ATOM     20  C11 UNL     1       0.563   0.394   0.675  1.00  0.00     0.164 C   
BRANCH  20  21
ATOM     21  C12 UNL     1       1.849   1.181   0.679  1.00  0.00    -0.002 A   
ATOM     22  C13 UNL     1       3.035   0.604   1.196  1.00  0.00     0.012 A   
ATOM     23  C17 UNL     1       1.890   2.490   0.168  1.00  0.00     0.045 A   
ATOM     24  C14 UNL     1       4.241   1.313   1.197  1.00  0.00     0.037 A   
ATOM     25  C16 UNL     1       3.095   3.160   0.180  1.00  0.00     0.109 A   
ATOM     26  C15 UNL     1       4.239   2.589   0.679  1.00  0.00     0.108 A   
ATOM     27  O1  UNL     1       3.303   4.418  -0.288  1.00  0.00    -0.316 OA  
ATOM     28  O2  UNL     1       5.310   3.419   0.598  1.00  0.00    -0.316 OA  
ATOM     29  C18 UNL     1       4.708   4.590   0.007  1.00  0.00     0.337 C   
ENDBRANCH  20  21
ENDBRANCH  17  20
ENDBRANCH  16  17
BRANCH  16  30
ATOM     30  C19 UNL     1      -0.307  -2.349  -0.605  1.00  0.00     0.043 C   
ATOM     31  C20 UNL     1      -1.269  -3.478  -1.043  1.00  0.00     0.010 C   
ATOM     32  C24 UNL     1       1.079  -2.575  -1.243  1.00  0.00     0.010 C   
ATOM     33  C21 UNL     1      -0.705  -4.868  -0.758  1.00  0.00     0.001 C   
ATOM     34  C23 UNL     1       1.631  -3.970  -0.957  1.00  0.00     0.001 C   
ATOM     35  C22 UNL     1       0.664  -5.060  -1.396  1.00  0.00     0.000 C   
ENDBRANCH  16  30
ENDBRANCH   3  16
TORSDOF 8
