REMARK SMILES Cc1cc(Cn2cc([C@@H]([NH2+]Cc3ccc4c(c3)OCO4)C(C)C)nn2)cc(C)c1O
REMARK SMILES IDX 6 1 7 2 8 3 24 4 25 5 5 7 4 8 2 9 3 10 29 11 27 12 26 13
REMARK SMILES IDX 1 14 28 15 30 16 9 18 10 19 11 22 12 23 13 24 17 25 14 26
REMARK SMILES IDX 16 27 15 28 18 29 20 30 19 31 21 32 22 33 23 34
REMARK H PARENT 7 6 30 17 10 20 10 21
ROOT
ATOM     1   N1  UNL     1      -2.123  -0.022   2.272  1.00  0.00    -0.208 N   
ATOM     2   C6  UNL     1      -2.053  -0.405   0.960  1.00  0.00     0.046 A   
ATOM     3   C7  UNL     1      -1.378  -1.604   1.001  1.00  0.00     0.127 A   
ATOM     4   N3  UNL     1      -1.135  -1.940   2.308  1.00  0.00    -0.132 NA  
ATOM     5   N4  UNL     1      -1.588  -0.962   3.075  1.00  0.00    -0.076 NA  
ATOM     6   H7  UNL     1      -2.400   0.224   0.153  1.00  0.00     0.083 HD  
ENDROOT
BRANCH   1   7
ATOM     7   C5  UNL     1      -2.537   1.266   2.803  1.00  0.00     0.169 C   
BRANCH   7   8
ATOM     8   C4  UNL     1      -1.524   2.321   2.427  1.00  0.00    -0.028 A   
ATOM     9   C2  UNL     1      -0.761   4.062   0.904  1.00  0.00    -0.020 A   
ATOM     10  C3  UNL     1      -1.737   3.147   1.315  1.00  0.00     0.011 A   
ATOM     11  C23 UNL     1       0.427   4.162   1.639  1.00  0.00     0.077 A   
ATOM     12  C21 UNL     1       0.665   3.353   2.757  1.00  0.00    -0.020 A   
ATOM     13  C20 UNL     1      -0.323   2.437   3.142  1.00  0.00     0.011 A   
ATOM     14  C1  UNL     1      -1.016   4.952  -0.281  1.00  0.00     0.047 C   
ATOM     15  C22 UNL     1       1.939   3.437   3.548  1.00  0.00     0.047 C   
BRANCH  11  16
ATOM     16  O3  UNL     1       1.347   5.076   1.207  1.00  0.00    -0.360 OA  
ATOM     17  H29 UNL     1       1.981   5.261   1.916  1.00  0.00     0.218 HD  
ENDBRANCH  11  16
ENDBRANCH   7   8
ENDBRANCH   1   7
BRANCH   3  18
ATOM     18  C8  UNL     1      -0.822  -2.440  -0.104  1.00  0.00     0.117 C   
BRANCH  18  19
ATOM     19  N2  UNL     1       0.524  -3.019   0.270  1.00  0.00     0.249 N   
ATOM     20  H9  UNL     1       0.860  -3.639  -0.470  1.00  0.00     0.199 HD  
ATOM     21  H10 UNL     1       0.378  -3.589   1.112  1.00  0.00     0.199 HD  
BRANCH  19  22
ATOM     22  C9  UNL     1       1.605  -2.040   0.611  1.00  0.00     0.164 C   
BRANCH  22  23
ATOM     23  C10 UNL     1       1.901  -1.050  -0.481  1.00  0.00    -0.002 A   
ATOM     24  C11 UNL     1       1.551   0.313  -0.318  1.00  0.00     0.012 A   
ATOM     25  C15 UNL     1       2.509  -1.470  -1.677  1.00  0.00     0.045 A   
ATOM     26  C12 UNL     1       1.795   1.247  -1.331  1.00  0.00     0.037 A   
ATOM     27  C14 UNL     1       2.735  -0.524  -2.656  1.00  0.00     0.109 A   
ATOM     28  C13 UNL     1       2.388   0.796  -2.489  1.00  0.00     0.108 A   
ATOM     29  O1  UNL     1       3.301  -0.761  -3.868  1.00  0.00    -0.316 OA  
ATOM     30  O2  UNL     1       2.698   1.555  -3.573  1.00  0.00    -0.316 OA  
ATOM     31  C16 UNL     1       3.310   0.570  -4.433  1.00  0.00     0.337 C   
ENDBRANCH  22  23
ENDBRANCH  19  22
ENDBRANCH  18  19
BRANCH  18  32
ATOM     32  C17 UNL     1      -1.796  -3.567  -0.541  1.00  0.00     0.037 C   
ATOM     33  C18 UNL     1      -1.996  -4.671   0.504  1.00  0.00     0.014 C   
ATOM     34  C19 UNL     1      -1.373  -4.195  -1.875  1.00  0.00     0.014 C   
ENDBRANCH  18  32
ENDBRANCH   3  18
TORSDOF 8
