REMARK SMILES CC(C)[C@H]([NH2+]Cc1ccc2c(c1)OCO2)c1cn(-c2ccc(CCO)cc2)nn1
REMARK SMILES IDX 19 1 20 2 21 3 22 4 26 5 27 6 18 7 16 8 17 9 29 10 28 11
REMARK SMILES IDX 4 12 2 13 1 14 3 15 5 16 6 19 7 20 8 21 12 22 9 23 11 24
REMARK SMILES IDX 10 25 13 26 15 27 14 28 23 29 24 30 25 31
REMARK H PARENT 5 17 5 18 25 32
ROOT
ATOM     1   C15 UNL     1      -2.468   2.173   2.808  1.00  0.00     0.058 A   
ATOM     2   C16 UNL     1      -3.409   1.304   3.380  1.00  0.00     0.026 A   
ATOM     3   C17 UNL     1      -4.144   1.699   4.500  1.00  0.00     0.006 A   
ATOM     4   C18 UNL     1      -3.952   2.964   5.066  1.00  0.00    -0.046 A   
ATOM     5   C21 UNL     1      -3.016   3.831   4.489  1.00  0.00     0.006 A   
ATOM     6   C22 UNL     1      -2.275   3.443   3.368  1.00  0.00     0.026 A   
ENDROOT
BRANCH   1   7
ATOM     7   N2  UNL     1      -1.728   1.754   1.676  1.00  0.00    -0.181 N   
ATOM     8   C13 UNL     1      -0.377   1.572  -0.040  1.00  0.00     0.127 A   
ATOM     9   C14 UNL     1      -0.753   2.432   0.967  1.00  0.00     0.135 A   
ATOM     10  N4  UNL     1      -1.094   0.414   0.071  1.00  0.00    -0.131 NA  
ATOM     11  N3  UNL     1      -1.897   0.528   1.115  1.00  0.00    -0.071 NA  
BRANCH   8  12
ATOM     12  C4  UNL     1       0.638   1.710  -1.133  1.00  0.00     0.117 C   
BRANCH  12  13
ATOM     13  C2  UNL     1       0.118   2.586  -2.304  1.00  0.00     0.037 C   
ATOM     14  C1  UNL     1       1.251   2.993  -3.254  1.00  0.00     0.014 C   
ATOM     15  C3  UNL     1      -1.022   1.943  -3.103  1.00  0.00     0.014 C   
ENDBRANCH  12  13
BRANCH  12  16
ATOM     16  N1  UNL     1       1.054   0.356  -1.642  1.00  0.00     0.249 N   
ATOM     17  H9  UNL     1       0.195  -0.208  -1.729  1.00  0.00     0.199 HD  
ATOM     18  H10 UNL     1       1.460   0.401  -2.581  1.00  0.00     0.199 HD  
BRANCH  16  19
ATOM     19  C5  UNL     1       1.983  -0.402  -0.756  1.00  0.00     0.164 C   
BRANCH  19  20
ATOM     20  C6  UNL     1       2.259  -1.762  -1.329  1.00  0.00    -0.002 A   
ATOM     21  C7  UNL     1       3.389  -1.981  -2.151  1.00  0.00     0.012 A   
ATOM     22  C11 UNL     1       1.358  -2.817  -1.093  1.00  0.00     0.045 A   
ATOM     23  C8  UNL     1       3.629  -3.235  -2.723  1.00  0.00     0.037 A   
ATOM     24  C10 UNL     1       1.624  -4.040  -1.674  1.00  0.00     0.109 A   
ATOM     25  C9  UNL     1       2.727  -4.243  -2.466  1.00  0.00     0.108 A   
ATOM     26  O1  UNL     1       0.860  -5.156  -1.550  1.00  0.00    -0.316 OA  
ATOM     27  O2  UNL     1       2.798  -5.514  -2.938  1.00  0.00    -0.316 OA  
ATOM     28  C12 UNL     1       1.623  -6.099  -2.336  1.00  0.00     0.337 C   
ENDBRANCH  19  20
ENDBRANCH  16  19
ENDBRANCH  12  16
ENDBRANCH   8  12
ENDBRANCH   1   7
BRANCH   4  29
ATOM     29  C19 UNL     1      -4.758   3.399   6.271  1.00  0.00     0.063 C   
BRANCH  29  30
ATOM     30  C20 UNL     1      -6.158   3.883   5.897  1.00  0.00     0.161 C   
BRANCH  30  31
ATOM     31  O3  UNL     1      -6.098   5.106   5.170  1.00  0.00    -0.396 OA  
ATOM     32  H25 UNL     1      -5.718   4.899   4.298  1.00  0.00     0.210 HD  
ENDBRANCH  30  31
ENDBRANCH  29  30
ENDBRANCH   4  29
TORSDOF 9
