REMARK SMILES COc1cc(O)ccc1Cn1cc([C@@H]([NH2+]Cc2ccc3c(c2)OCO3)C(C)(C)C)nn1
REMARK SMILES IDX 11 1 12 2 13 3 30 4 31 5 10 7 9 8 3 9 4 10 5 11 8 12 7 13
REMARK SMILES IDX 2 14 1 15 6 16 14 18 15 19 16 22 17 23 18 24 22 25 19 26
REMARK SMILES IDX 21 27 20 28 23 29 25 30 24 31 26 32 27 33 28 34 29 35
REMARK H PARENT 12 6 6 17 15 20 15 21
ROOT
ATOM     1   N1  UNL     1      -1.839  -2.352   1.203  1.00  0.00    -0.208 N   
ATOM     2   C9  UNL     1      -0.528  -2.739   1.189  1.00  0.00     0.046 A   
ATOM     3   C10 UNL     1       0.136  -1.689   1.783  1.00  0.00     0.127 A   
ATOM     4   N3  UNL     1      -0.771  -0.723   2.134  1.00  0.00    -0.132 NA  
ATOM     5   N4  UNL     1      -1.974  -1.142   1.780  1.00  0.00    -0.076 NA  
ATOM     6   H10 UNL     1      -0.209  -3.672   0.749  1.00  0.00     0.083 HD  
ENDROOT
BRANCH   1   7
ATOM     7   C8  UNL     1      -2.993  -3.056   0.668  1.00  0.00     0.172 C   
BRANCH   7   8
ATOM     8   C7  UNL     1      -3.227  -2.677  -0.775  1.00  0.00     0.002 A   
ATOM     9   C2  UNL     1      -2.583  -3.357  -1.825  1.00  0.00     0.082 A   
ATOM     10  C3  UNL     1      -2.786  -2.944  -3.146  1.00  0.00     0.067 A   
ATOM     11  C4  UNL     1      -3.637  -1.876  -3.419  1.00  0.00     0.074 A   
ATOM     12  C6  UNL     1      -4.080  -1.599  -1.075  1.00  0.00     0.011 A   
ATOM     13  C5  UNL     1      -4.291  -1.202  -2.397  1.00  0.00     0.034 A   
BRANCH   9  14
ATOM     14  O1  UNL     1      -1.753  -4.387  -1.458  1.00  0.00    -0.349 OA  
ATOM     15  C1  UNL     1      -1.459  -5.346  -2.473  1.00  0.00     0.203 C   
ENDBRANCH   9  14
BRANCH  11  16
ATOM     16  O2  UNL     1      -3.792  -1.513  -4.726  1.00  0.00    -0.361 OA  
ATOM     17  H5  UNL     1      -4.484  -0.832  -4.787  1.00  0.00     0.218 HD  
ENDBRANCH  11  16
ENDBRANCH   7   8
ENDBRANCH   1   7
BRANCH   3  18
ATOM     18  C11 UNL     1       1.599  -1.432   1.979  1.00  0.00     0.120 C   
BRANCH  18  19
ATOM     19  N2  UNL     1       1.867   0.024   1.674  1.00  0.00     0.250 N   
ATOM     20  H12 UNL     1       2.752   0.355   2.069  1.00  0.00     0.199 HD  
ATOM     21  H13 UNL     1       1.123   0.561   2.143  1.00  0.00     0.199 HD  
BRANCH  19  22
ATOM     22  C12 UNL     1       1.820   0.382   0.228  1.00  0.00     0.164 C   
BRANCH  22  23
ATOM     23  C13 UNL     1       1.943   1.868   0.045  1.00  0.00    -0.002 A   
ATOM     24  C14 UNL     1       0.794   2.689   0.146  1.00  0.00     0.012 A   
ATOM     25  C18 UNL     1       3.195   2.457  -0.192  1.00  0.00     0.045 A   
ATOM     26  C15 UNL     1       0.885   4.077  -0.006  1.00  0.00     0.037 A   
ATOM     27  C17 UNL     1       3.249   3.828  -0.341  1.00  0.00     0.109 A   
ATOM     28  C16 UNL     1       2.126   4.616  -0.252  1.00  0.00     0.108 A   
ATOM     29  O3  UNL     1       4.373   4.552  -0.586  1.00  0.00    -0.316 OA  
ATOM     30  O4  UNL     1       2.399   5.935  -0.436  1.00  0.00    -0.316 OA  
ATOM     31  C19 UNL     1       3.822   5.888  -0.682  1.00  0.00     0.337 C   
ENDBRANCH  22  23
ENDBRANCH  19  22
ENDBRANCH  18  19
BRANCH  18  32
ATOM     32  C20 UNL     1       2.136  -1.804   3.403  1.00  0.00     0.010 C   
ATOM     33  C21 UNL     1       3.678  -1.698   3.434  1.00  0.00     0.017 C   
ATOM     34  C22 UNL     1       1.567  -0.900   4.515  1.00  0.00     0.017 C   
ATOM     35  C23 UNL     1       1.780  -3.269   3.741  1.00  0.00     0.017 C   
ENDBRANCH  18  32
ENDBRANCH   3  18
TORSDOF 9
