REMARK SMILES Cc1c[nH]c(C)c1CCn1cc([C@@H]([NH2+]Cc2ccc3c(c2)OCO3)C(C)C)nn1
REMARK SMILES IDX 10 1 11 2 12 3 28 4 29 5 9 7 8 8 7 9 2 10 3 11 4 12 5 13
REMARK SMILES IDX 1 14 6 16 13 17 14 18 15 21 16 22 17 23 21 24 18 25 20 26
REMARK SMILES IDX 19 27 22 28 24 29 23 30 25 31 26 32 27 33
REMARK H PARENT 11 6 4 15 14 19 14 20
ROOT
ATOM     1   N2  UNL     1       1.932  -0.070  -2.061  1.00  0.00    -0.212 N   
ATOM     2   C9  UNL     1       1.320  -0.252  -0.855  1.00  0.00     0.045 A   
ATOM     3   C10 UNL     1       0.285   0.655  -0.864  1.00  0.00     0.127 A   
ATOM     4   N4  UNL     1       0.343   1.386  -2.026  1.00  0.00    -0.132 NA  
ATOM     5   N5  UNL     1       1.363   0.943  -2.742  1.00  0.00    -0.076 NA  
ATOM     6   H13 UNL     1       1.643  -1.009  -0.153  1.00  0.00     0.083 HD  
ENDROOT
BRANCH   1   7
ATOM     7   C8  UNL     1       3.059  -0.793  -2.610  1.00  0.00     0.139 C   
BRANCH   7   8
ATOM     8   C7  UNL     1       2.640  -1.914  -3.558  1.00  0.00     0.059 C   
BRANCH   8   9
ATOM     9   C6  UNL     1       1.861  -3.004  -2.879  1.00  0.00    -0.025 A   
ATOM     10  C2  UNL     1       0.454  -3.248  -3.012  1.00  0.00    -0.032 A   
ATOM     11  C3  UNL     1       0.162  -4.340  -2.220  1.00  0.00     0.075 A   
ATOM     12  N1  UNL     1       1.317  -4.776  -1.637  1.00  0.00    -0.324 N   
ATOM     13  C4  UNL     1       2.363  -3.972  -2.021  1.00  0.00     0.007 A   
ATOM     14  C1  UNL     1      -0.511  -2.498  -3.859  1.00  0.00     0.046 C   
ATOM     15  H5  UNL     1       1.395  -5.586  -1.033  1.00  0.00     0.152 HD  
ATOM     16  C5  UNL     1       3.742  -4.242  -1.534  1.00  0.00     0.062 C   
ENDBRANCH   8   9
ENDBRANCH   7   8
ENDBRANCH   1   7
BRANCH   3  17
ATOM     17  C11 UNL     1      -0.772   0.964   0.151  1.00  0.00     0.117 C   
BRANCH  17  18
ATOM     18  N3  UNL     1      -1.208   2.396  -0.068  1.00  0.00     0.249 N   
ATOM     19  H15 UNL     1      -0.343   2.946  -0.142  1.00  0.00     0.199 HD  
ATOM     20  H16 UNL     1      -1.602   2.458  -1.016  1.00  0.00     0.199 HD  
BRANCH  18  21
ATOM     21  C12 UNL     1      -2.099   3.048   0.921  1.00  0.00     0.164 C   
BRANCH  21  22
ATOM     22  C13 UNL     1      -1.480   3.165   2.284  1.00  0.00    -0.002 A   
ATOM     23  C14 UNL     1      -0.459   4.116   2.526  1.00  0.00     0.012 A   
ATOM     24  C18 UNL     1      -1.888   2.312   3.324  1.00  0.00     0.045 A   
ATOM     25  C15 UNL     1       0.149   4.216   3.782  1.00  0.00     0.037 A   
ATOM     26  C17 UNL     1      -1.267   2.436   4.550  1.00  0.00     0.109 A   
ATOM     27  C16 UNL     1      -0.278   3.360   4.772  1.00  0.00     0.108 A   
ATOM     28  O1  UNL     1      -1.538   1.690   5.651  1.00  0.00    -0.316 OA  
ATOM     29  O2  UNL     1       0.197   3.315   6.043  1.00  0.00    -0.316 OA  
ATOM     30  C19 UNL     1      -0.626   2.273   6.609  1.00  0.00     0.337 C   
ENDBRANCH  21  22
ENDBRANCH  18  21
ENDBRANCH  17  18
BRANCH  17  31
ATOM     31  C20 UNL     1      -1.988   0.002   0.111  1.00  0.00     0.037 C   
ATOM     32  C21 UNL     1      -2.755   0.012  -1.216  1.00  0.00     0.014 C   
ATOM     33  C22 UNL     1      -1.590  -1.436   0.467  1.00  0.00     0.014 C   
ENDBRANCH  17  31
ENDBRANCH   3  17
TORSDOF 8
