REMARK SMILES Cc1c(F)cccc1Cn1cc([C@@H]([NH2+]Cc2ccc3c(c2)OCO3)C(C)C)nn1
REMARK SMILES IDX 10 1 11 2 12 3 28 4 29 5 9 7 8 8 2 9 3 10 5 11 7 12 6 13
REMARK SMILES IDX 1 14 4 15 13 16 14 17 15 20 16 21 17 22 21 23 18 24 20 25
REMARK SMILES IDX 19 26 22 27 24 28 23 29 25 30 26 31 27 32
REMARK H PARENT 11 6 14 18 14 19
ROOT
ATOM     1   N1  UNL     1       2.432  -1.576  -1.823  1.00  0.00    -0.208 N   
ATOM     2   C9  UNL     1       2.036  -1.808  -0.533  1.00  0.00     0.046 A   
ATOM     3   C10 UNL     1       0.706  -1.450  -0.522  1.00  0.00     0.127 A   
ATOM     4   N3  UNL     1       0.344  -1.030  -1.777  1.00  0.00    -0.132 NA  
ATOM     5   N4  UNL     1       1.404  -1.117  -2.563  1.00  0.00    -0.076 NA  
ATOM     6   H9  UNL     1       2.716  -2.171   0.225  1.00  0.00     0.083 HD  
ENDROOT
BRANCH   1   7
ATOM     7   C8  UNL     1       3.748  -1.763  -2.416  1.00  0.00     0.169 C   
BRANCH   7   8
ATOM     8   C7  UNL     1       4.801  -0.935  -1.712  1.00  0.00    -0.023 A   
ATOM     9   C2  UNL     1       4.870   0.471  -1.833  1.00  0.00    -0.010 A   
ATOM     10  C3  UNL     1       5.845   1.164  -1.100  1.00  0.00     0.126 A   
ATOM     11  C4  UNL     1       6.761   0.503  -0.291  1.00  0.00     0.039 A   
ATOM     12  C6  UNL     1       5.741  -1.595  -0.893  1.00  0.00     0.006 A   
ATOM     13  C5  UNL     1       6.714  -0.882  -0.191  1.00  0.00     0.003 A   
ATOM     14  C1  UNL     1       3.912   1.264  -2.679  1.00  0.00     0.048 C   
ATOM     15  F1  UNL     1       5.901   2.502  -1.166  1.00  0.00    -0.207 F   
ENDBRANCH   7   8
ENDBRANCH   1   7
BRANCH   3  16
ATOM     16  C11 UNL     1      -0.294  -1.389   0.587  1.00  0.00     0.117 C   
BRANCH  16  17
ATOM     17  N2  UNL     1      -1.260  -0.255   0.343  1.00  0.00     0.249 N   
ATOM     18  H11 UNL     1      -2.117  -0.364   0.894  1.00  0.00     0.199 HD  
ATOM     19  H12 UNL     1      -1.540  -0.310  -0.648  1.00  0.00     0.199 HD  
BRANCH  17  20
ATOM     20  C12 UNL     1      -0.707   1.110   0.564  1.00  0.00     0.164 C   
BRANCH  20  21
ATOM     21  C13 UNL     1      -1.732   2.152   0.219  1.00  0.00    -0.002 A   
ATOM     22  C14 UNL     1      -1.866   2.599  -1.118  1.00  0.00     0.012 A   
ATOM     23  C18 UNL     1      -2.598   2.650   1.206  1.00  0.00     0.045 A   
ATOM     24  C15 UNL     1      -2.843   3.538  -1.466  1.00  0.00     0.037 A   
ATOM     25  C17 UNL     1      -3.549   3.575   0.829  1.00  0.00     0.109 A   
ATOM     26  C16 UNL     1      -3.669   4.007  -0.469  1.00  0.00     0.108 A   
ATOM     27  O1  UNL     1      -4.457   4.155   1.656  1.00  0.00    -0.316 OA  
ATOM     28  O2  UNL     1      -4.667   4.915  -0.622  1.00  0.00    -0.316 OA  
ATOM     29  C19 UNL     1      -5.155   5.022   0.732  1.00  0.00     0.337 C   
ENDBRANCH  20  21
ENDBRANCH  17  20
ENDBRANCH  16  17
BRANCH  16  30
ATOM     30  C20 UNL     1      -1.110  -2.693   0.782  1.00  0.00     0.037 C   
ATOM     31  C21 UNL     1      -0.220  -3.853   1.244  1.00  0.00     0.014 C   
ATOM     32  C22 UNL     1      -1.919  -3.120  -0.448  1.00  0.00     0.014 C   
ENDBRANCH  16  30
ENDBRANCH   3  16
TORSDOF 7
