REMARK SMILES Cc1cc(CCn2cc([C@@H]([NH2+]Cc3ccc4c(c3)OCO4)C3CCCC3)nn2)cnc1Cl
REMARK SMILES IDX 7 1 8 2 9 3 27 4 28 5 6 7 5 8 4 9 2 10 3 11 31 12 30 13
REMARK SMILES IDX 29 14 1 15 32 16 10 17 11 18 12 21 13 22 14 23 18 24 15 25
REMARK SMILES IDX 17 26 16 27 19 28 21 29 20 30 22 31 23 32 26 33 24 34 25 35
REMARK H PARENT 8 6 11 19 11 20
ROOT
ATOM     1   N1  UNL     1      -0.976   2.286   3.240  1.00  0.00    -0.212 N   
ATOM     2   C7  UNL     1       0.059   1.812   2.482  1.00  0.00     0.045 A   
ATOM     3   C8  UNL     1      -0.410   1.898   1.192  1.00  0.00     0.127 A   
ATOM     4   N3  UNL     1      -1.663   2.462   1.206  1.00  0.00    -0.132 NA  
ATOM     5   N4  UNL     1      -1.998   2.693   2.465  1.00  0.00    -0.076 NA  
ATOM     6   H9  UNL     1       0.966   1.413   2.918  1.00  0.00     0.083 HD  
ENDROOT
BRANCH   1   7
ATOM     7   C6  UNL     1      -1.131   2.205   4.680  1.00  0.00     0.139 C   
BRANCH   7   8
ATOM     8   C5  UNL     1      -2.089   1.083   5.111  1.00  0.00     0.058 C   
BRANCH   8   9
ATOM     9   C4  UNL     1      -1.678  -0.272   4.588  1.00  0.00    -0.028 A   
ATOM     10  C2  UNL     1      -0.302  -2.268   4.686  1.00  0.00    -0.013 A   
ATOM     11  C3  UNL     1      -0.725  -1.056   5.247  1.00  0.00     0.012 A   
ATOM     12  C24 UNL     1      -0.857  -2.624   3.458  1.00  0.00     0.131 A   
ATOM     13  N5  UNL     1      -1.762  -1.881   2.778  1.00  0.00    -0.244 NA  
ATOM     14  C23 UNL     1      -2.180  -0.748   3.379  1.00  0.00     0.116 A   
ATOM     15  C1  UNL     1       0.703  -3.127   5.392  1.00  0.00     0.048 C   
ATOM     16  CL1 UNL     1      -0.424  -4.068   2.630  1.00  0.00    -0.062 Cl  
ENDBRANCH   8   9
ENDBRANCH   7   8
ENDBRANCH   1   7
BRANCH   3  17
ATOM     17  C9  UNL     1       0.165   1.416  -0.102  1.00  0.00     0.117 C   
BRANCH  17  18
ATOM     18  N2  UNL     1      -0.960   1.081  -1.049  1.00  0.00     0.249 N   
ATOM     19  H11 UNL     1      -0.690   1.217  -2.025  1.00  0.00     0.199 HD  
ATOM     20  H12 UNL     1      -1.706   1.766  -0.852  1.00  0.00     0.199 HD  
BRANCH  18  21
ATOM     21  C10 UNL     1      -1.556  -0.278  -0.890  1.00  0.00     0.164 C   
BRANCH  21  22
ATOM     22  C11 UNL     1      -0.742  -1.330  -1.588  1.00  0.00    -0.002 A   
ATOM     23  C12 UNL     1      -0.759  -1.421  -3.002  1.00  0.00     0.012 A   
ATOM     24  C16 UNL     1       0.061  -2.214  -0.849  1.00  0.00     0.045 A   
ATOM     25  C13 UNL     1       0.006  -2.382  -3.671  1.00  0.00     0.037 A   
ATOM     26  C15 UNL     1       0.804  -3.150  -1.538  1.00  0.00     0.109 A   
ATOM     27  C14 UNL     1       0.774  -3.236  -2.908  1.00  0.00     0.108 A   
ATOM     28  O1  UNL     1       1.626  -4.076  -0.977  1.00  0.00    -0.316 OA  
ATOM     29  O2  UNL     1       1.571  -4.228  -3.381  1.00  0.00    -0.316 OA  
ATOM     30  C17 UNL     1       2.076  -4.789  -2.150  1.00  0.00     0.337 C   
ENDBRANCH  21  22
ENDBRANCH  18  21
ENDBRANCH  17  18
BRANCH  17  31
ATOM     31  C18 UNL     1       1.123   2.444  -0.729  1.00  0.00     0.043 C   
ATOM     32  C19 UNL     1       1.952   1.896  -1.898  1.00  0.00     0.010 C   
ATOM     33  C22 UNL     1       0.489   3.706  -1.317  1.00  0.00     0.010 C   
ATOM     34  C20 UNL     1       2.390   3.122  -2.700  1.00  0.00     0.001 C   
ATOM     35  C21 UNL     1       1.633   4.313  -2.118  1.00  0.00     0.001 C   
ENDBRANCH  17  31
ENDBRANCH   3  17
TORSDOF 8
