REMARK SMILES CC(C)(C)[C@H]([NH2+]Cc1ccc2c(c1)OCO2)c1cn(CCc2cccnc2)nn1
REMARK SMILES IDX 17 1 18 2 19 3 28 4 29 5 5 7 2 8 1 9 3 10 4 11 6 12 7 15
REMARK SMILES IDX 8 16 9 17 13 18 10 19 12 20 11 21 14 22 16 23 15 24 20 25
REMARK SMILES IDX 21 26 22 27 23 28 27 29 24 30 26 31 25 32
REMARK H PARENT 18 6 6 13 6 14
ROOT
ATOM     1   C14 UNL     1      -2.007   0.564   0.095  1.00  0.00     0.127 A   
ATOM     2   C15 UNL     1      -1.876  -0.802  -0.029  1.00  0.00     0.045 A   
ATOM     3   N2  UNL     1      -2.641  -1.108  -1.119  1.00  0.00    -0.212 N   
ATOM     4   N4  UNL     1      -3.232  -0.007  -1.617  1.00  0.00    -0.076 NA  
ATOM     5   N5  UNL     1      -2.838   1.027  -0.893  1.00  0.00    -0.132 NA  
ATOM     6   H20 UNL     1      -1.294  -1.543   0.501  1.00  0.00     0.083 HD  
ENDROOT
BRANCH   1   7
ATOM     7   C5  UNL     1      -1.321   1.538   1.005  1.00  0.00     0.120 C   
BRANCH   7   8
ATOM     8   C2  UNL     1      -2.208   2.048   2.194  1.00  0.00     0.010 C   
ATOM     9   C1  UNL     1      -2.751   0.847   3.002  1.00  0.00     0.017 C   
ATOM     10  C3  UNL     1      -1.357   2.898   3.167  1.00  0.00     0.017 C   
ATOM     11  C4  UNL     1      -3.405   2.902   1.731  1.00  0.00     0.017 C   
ENDBRANCH   7   8
BRANCH   7  12
ATOM     12  N1  UNL     1      -0.819   2.704   0.177  1.00  0.00     0.250 N   
ATOM     13  H11 UNL     1      -1.603   2.980  -0.431  1.00  0.00     0.199 HD  
ATOM     14  H12 UNL     1      -0.593   3.510   0.762  1.00  0.00     0.199 HD  
BRANCH  12  15
ATOM     15  C6  UNL     1       0.349   2.421  -0.714  1.00  0.00     0.164 C   
BRANCH  15  16
ATOM     16  C7  UNL     1       1.622   2.206   0.057  1.00  0.00    -0.002 A   
ATOM     17  C8  UNL     1       2.300   3.300   0.646  1.00  0.00     0.012 A   
ATOM     18  C12 UNL     1       2.130   0.906   0.228  1.00  0.00     0.045 A   
ATOM     19  C9  UNL     1       3.465   3.104   1.395  1.00  0.00     0.037 A   
ATOM     20  C11 UNL     1       3.279   0.747   0.972  1.00  0.00     0.109 A   
ATOM     21  C10 UNL     1       3.928   1.815   1.541  1.00  0.00     0.108 A   
ATOM     22  O1  UNL     1       3.895  -0.436   1.234  1.00  0.00    -0.316 OA  
ATOM     23  O2  UNL     1       5.035   1.440   2.232  1.00  0.00    -0.316 OA  
ATOM     24  C13 UNL     1       5.028   0.013   2.013  1.00  0.00     0.337 C   
ENDBRANCH  15  16
ENDBRANCH  12  15
ENDBRANCH   7  12
ENDBRANCH   1   7
BRANCH   3  25
ATOM     25  C16 UNL     1      -2.729  -2.375  -1.817  1.00  0.00     0.139 C   
BRANCH  25  26
ATOM     26  C17 UNL     1      -2.071  -2.347  -3.203  1.00  0.00     0.058 C   
BRANCH  26  27
ATOM     27  C18 UNL     1      -0.616  -1.957  -3.153  1.00  0.00    -0.028 A   
ATOM     28  C19 UNL     1       0.388  -2.889  -2.888  1.00  0.00     0.007 A   
ATOM     29  C22 UNL     1      -0.231  -0.627  -3.316  1.00  0.00     0.114 A   
ATOM     30  C20 UNL     1       1.712  -2.466  -2.804  1.00  0.00     0.020 A   
ATOM     31  N3  UNL     1       1.038  -0.179  -3.186  1.00  0.00    -0.264 NA  
ATOM     32  C21 UNL     1       1.986  -1.117  -2.962  1.00  0.00     0.111 A   
ENDBRANCH  26  27
ENDBRANCH  25  26
ENDBRANCH   3  25
TORSDOF 8
