REMARK SMILES COc1cc(CCn2cc([C@@H]([NH2+]Cc3ccc4c(c3)OCO4)C(C)C)nn2)ccc1O
REMARK SMILES IDX 8 1 9 2 10 3 26 4 27 5 7 7 6 8 5 9 3 10 4 11 30 12 29 13
REMARK SMILES IDX 28 14 2 15 1 16 31 17 11 19 12 20 13 23 14 24 15 25 19 26
REMARK SMILES IDX 16 27 18 28 17 29 20 30 22 31 21 32 23 33 24 34 25 35
REMARK H PARENT 9 6 31 18 12 21 12 22
ROOT
ATOM     1   N1  UNL     1      -2.602   2.034  -0.569  1.00  0.00    -0.212 N   
ATOM     2   C7  UNL     1      -2.410   0.814   0.016  1.00  0.00     0.045 A   
ATOM     3   C8  UNL     1      -1.521   1.072   1.035  1.00  0.00     0.127 A   
ATOM     4   N3  UNL     1      -1.223   2.411   1.044  1.00  0.00    -0.132 NA  
ATOM     5   N4  UNL     1      -1.899   2.990   0.065  1.00  0.00    -0.076 NA  
ATOM     6   H9  UNL     1      -2.867  -0.090  -0.362  1.00  0.00     0.083 HD  
ENDROOT
BRANCH   1   7
ATOM     7   C6  UNL     1      -3.331   2.330  -1.786  1.00  0.00     0.139 C   
BRANCH   7   8
ATOM     8   C5  UNL     1      -2.416   2.694  -2.962  1.00  0.00     0.057 C   
BRANCH   8   9
ATOM     9   C4  UNL     1      -1.343   1.657  -3.216  1.00  0.00    -0.044 A   
ATOM     10  C2  UNL     1       0.968   0.941  -2.990  1.00  0.00     0.105 A   
ATOM     11  C3  UNL     1      -0.013   1.920  -2.839  1.00  0.00     0.040 A   
ATOM     12  C23 UNL     1       0.608  -0.308  -3.499  1.00  0.00     0.101 A   
ATOM     13  C22 UNL     1      -0.695  -0.579  -3.895  1.00  0.00     0.036 A   
ATOM     14  C21 UNL     1      -1.672   0.407  -3.761  1.00  0.00     0.006 A   
BRANCH  10  15
ATOM     15  O1  UNL     1       2.275   1.085  -2.599  1.00  0.00    -0.347 OA  
ATOM     16  C1  UNL     1       2.810   2.390  -2.820  1.00  0.00     0.203 C   
ENDBRANCH  10  15
BRANCH  12  17
ATOM     17  O4  UNL     1       1.536  -1.305  -3.614  1.00  0.00    -0.358 OA  
ATOM     18  H29 UNL     1       2.401  -0.892  -3.423  1.00  0.00     0.218 HD  
ENDBRANCH  12  17
ENDBRANCH   8   9
ENDBRANCH   7   8
ENDBRANCH   1   7
BRANCH   3  19
ATOM     19  C9  UNL     1      -0.818   0.153   1.980  1.00  0.00     0.117 C   
BRANCH  19  20
ATOM     20  N2  UNL     1       0.614   0.610   2.155  1.00  0.00     0.249 N   
ATOM     21  H11 UNL     1       1.016   0.215   3.010  1.00  0.00     0.199 HD  
ATOM     22  H12 UNL     1       0.573   1.631   2.277  1.00  0.00     0.199 HD  
BRANCH  20  23
ATOM     23  C10 UNL     1       1.526   0.334   1.005  1.00  0.00     0.164 C   
BRANCH  23  24
ATOM     24  C11 UNL     1       1.936  -1.111   0.931  1.00  0.00    -0.002 A   
ATOM     25  C12 UNL     1       1.398  -1.957  -0.066  1.00  0.00     0.012 A   
ATOM     26  C16 UNL     1       2.840  -1.639   1.870  1.00  0.00     0.045 A   
ATOM     27  C13 UNL     1       1.752  -3.309  -0.134  1.00  0.00     0.037 A   
ATOM     28  C15 UNL     1       3.165  -2.977   1.778  1.00  0.00     0.109 A   
ATOM     29  C14 UNL     1       2.637  -3.789   0.805  1.00  0.00     0.108 A   
ATOM     30  O2  UNL     1       4.014  -3.641   2.605  1.00  0.00    -0.316 OA  
ATOM     31  O3  UNL     1       3.089  -5.066   0.895  1.00  0.00    -0.316 OA  
ATOM     32  C17 UNL     1       3.984  -4.965   2.023  1.00  0.00     0.337 C   
ENDBRANCH  23  24
ENDBRANCH  20  23
ENDBRANCH  19  20
BRANCH  19  33
ATOM     33  C18 UNL     1      -1.478   0.049   3.379  1.00  0.00     0.037 C   
ATOM     34  C19 UNL     1      -2.871  -0.586   3.296  1.00  0.00     0.014 C   
ATOM     35  C20 UNL     1      -1.559   1.376   4.143  1.00  0.00     0.014 C   
ENDBRANCH  19  33
ENDBRANCH   3  19
TORSDOF 10
