REMARK SMILES Cc1ccsc1[C@H](O)Cn1cc([C@@H]([NH2+]Cc2ccc3c(c2)OCO3)C2CCCCC2)nn1
REMARK SMILES IDX 10 1 11 2 12 3 31 4 32 5 9 7 7 8 6 9 2 10 3 11 4 12 5 13
REMARK SMILES IDX 1 14 8 15 13 17 14 18 15 21 16 22 17 23 21 24 18 25 20 26
REMARK SMILES IDX 19 27 22 28 24 29 23 30 25 31 26 32 30 33 27 34 29 35 28 36
REMARK H PARENT 11 6 8 16 14 19 14 20
ROOT
ATOM     1   N1  UNL     1      -2.067  -0.091  -1.267  1.00  0.00    -0.209 N   
ATOM     2   C8  UNL     1      -1.006   0.629  -0.790  1.00  0.00     0.045 A   
ATOM     3   C9  UNL     1       0.084   0.081  -1.427  1.00  0.00     0.127 A   
ATOM     4   N3  UNL     1      -0.345  -0.904  -2.281  1.00  0.00    -0.132 NA  
ATOM     5   N4  UNL     1      -1.661  -0.983  -2.191  1.00  0.00    -0.076 NA  
ATOM     6   H10 UNL     1      -1.121   1.402  -0.043  1.00  0.00     0.083 HD  
ENDROOT
BRANCH   1   7
ATOM     7   C7  UNL     1      -3.472   0.077  -0.956  1.00  0.00     0.171 C   
BRANCH   7   8
ATOM     8   C6  UNL     1      -3.956  -0.689   0.282  1.00  0.00     0.171 C   
BRANCH   8   9
ATOM     9   C5  UNL     1      -3.164  -0.402   1.538  1.00  0.00     0.022 A   
ATOM     10  C2  UNL     1      -2.128  -1.107   2.143  1.00  0.00    -0.038 A   
ATOM     11  C3  UNL     1      -1.669  -0.439   3.328  1.00  0.00     0.011 A   
ATOM     12  C4  UNL     1      -2.350   0.728   3.583  1.00  0.00     0.046 A   
ATOM     13  S1  UNL     1      -3.546   1.033   2.412  1.00  0.00    -0.099 S   
ATOM     14  C1  UNL     1      -1.549  -2.406   1.673  1.00  0.00     0.045 C   
ENDBRANCH   8   9
BRANCH   8  15
ATOM     15  O1  UNL     1      -3.953  -2.095   0.049  1.00  0.00    -0.386 OA  
ATOM     16  H7  UNL     1      -4.403  -2.508   0.808  1.00  0.00     0.211 HD  
ENDBRANCH   8  15
ENDBRANCH   7   8
ENDBRANCH   1   7
BRANCH   3  17
ATOM     17  C10 UNL     1       1.551   0.318  -1.268  1.00  0.00     0.117 C   
BRANCH  17  18
ATOM     18  N2  UNL     1       2.295  -0.900  -1.778  1.00  0.00     0.249 N   
ATOM     19  H12 UNL     1       1.604  -1.668  -1.788  1.00  0.00     0.199 HD  
ATOM     20  H13 UNL     1       2.526  -0.777  -2.769  1.00  0.00     0.199 HD  
BRANCH  18  21
ATOM     21  C11 UNL     1       3.484  -1.339  -1.007  1.00  0.00     0.164 C   
BRANCH  21  22
ATOM     22  C12 UNL     1       3.111  -2.036   0.273  1.00  0.00    -0.002 A   
ATOM     23  C13 UNL     1       2.615  -3.363   0.240  1.00  0.00     0.012 A   
ATOM     24  C17 UNL     1       3.207  -1.367   1.505  1.00  0.00     0.045 A   
ATOM     25  C14 UNL     1       2.221  -4.014   1.414  1.00  0.00     0.037 A   
ATOM     26  C16 UNL     1       2.803  -2.035   2.642  1.00  0.00     0.109 A   
ATOM     27  C15 UNL     1       2.325  -3.321   2.599  1.00  0.00     0.108 A   
ATOM     28  O2  UNL     1       2.809  -1.526   3.903  1.00  0.00    -0.316 OA  
ATOM     29  O3  UNL     1       1.973  -3.786   3.826  1.00  0.00    -0.316 OA  
ATOM     30  C18 UNL     1       2.318  -2.658   4.658  1.00  0.00     0.337 C   
ENDBRANCH  21  22
ENDBRANCH  18  21
ENDBRANCH  17  18
BRANCH  17  31
ATOM     31  C19 UNL     1       2.099   1.584  -1.974  1.00  0.00     0.043 C   
ATOM     32  C20 UNL     1       1.721   1.694  -3.466  1.00  0.00     0.010 C   
ATOM     33  C24 UNL     1       1.681   2.868  -1.230  1.00  0.00     0.010 C   
ATOM     34  C21 UNL     1       2.315   2.947  -4.107  1.00  0.00     0.001 C   
ATOM     35  C23 UNL     1       2.283   4.115  -1.874  1.00  0.00     0.001 C   
ATOM     36  C22 UNL     1       1.920   4.211  -3.351  1.00  0.00     0.000 C   
ENDBRANCH  17  31
ENDBRANCH   3  17
TORSDOF 9
