REMARK SMILES Cc1ccsc1[C@@H](O)Cn1cc([C@@H]([NH2+]Cc2ccc3c(c2)OCO3)C2CCCCC2)nn1
REMARK SMILES IDX 10 1 11 2 12 3 31 4 32 5 9 7 7 8 6 9 2 10 3 11 4 12 5 13
REMARK SMILES IDX 1 14 8 15 13 17 14 18 15 21 16 22 17 23 21 24 18 25 20 26
REMARK SMILES IDX 19 27 22 28 24 29 23 30 25 31 26 32 30 33 27 34 29 35 28 36
REMARK H PARENT 11 6 8 16 14 19 14 20
ROOT
ATOM     1   N1  UNL     1       0.637   0.790  -1.774  1.00  0.00    -0.209 N   
ATOM     2   C8  UNL     1       1.531  -0.236  -1.678  1.00  0.00     0.045 A   
ATOM     3   C9  UNL     1       1.256  -0.803  -0.455  1.00  0.00     0.127 A   
ATOM     4   N3  UNL     1       0.278  -0.070   0.170  1.00  0.00    -0.132 NA  
ATOM     5   N4  UNL     1      -0.077   0.914  -0.639  1.00  0.00    -0.076 NA  
ATOM     6   H10 UNL     1       2.211  -0.483  -2.479  1.00  0.00     0.083 HD  
ENDROOT
BRANCH   1   7
ATOM     7   C7  UNL     1       0.424   1.696  -2.885  1.00  0.00     0.171 C   
BRANCH   7   8
ATOM     8   C6  UNL     1      -0.767   1.254  -3.734  1.00  0.00     0.171 C   
BRANCH   8   9
ATOM     9   C5  UNL     1      -1.136   2.303  -4.757  1.00  0.00     0.022 A   
ATOM     10  C2  UNL     1      -2.170   3.227  -4.696  1.00  0.00    -0.038 A   
ATOM     11  C3  UNL     1      -2.196   4.053  -5.868  1.00  0.00     0.011 A   
ATOM     12  C4  UNL     1      -1.196   3.747  -6.759  1.00  0.00     0.046 A   
ATOM     13  S1  UNL     1      -0.213   2.476  -6.197  1.00  0.00    -0.099 S   
ATOM     14  C1  UNL     1      -3.149   3.358  -3.573  1.00  0.00     0.045 C   
ENDBRANCH   8   9
BRANCH   8  15
ATOM     15  O1  UNL     1      -0.447   0.037  -4.422  1.00  0.00    -0.386 OA  
ATOM     16  H7  UNL     1      -0.983   0.019  -5.237  1.00  0.00     0.211 HD  
ENDBRANCH   8  15
ENDBRANCH   7   8
ENDBRANCH   1   7
BRANCH   3  17
ATOM     17  C10 UNL     1       1.831  -2.002   0.232  1.00  0.00     0.117 C   
BRANCH  17  18
ATOM     18  N2  UNL     1       1.496  -1.963   1.699  1.00  0.00     0.249 N   
ATOM     19  H12 UNL     1       1.411  -2.897   2.109  1.00  0.00     0.199 HD  
ATOM     20  H13 UNL     1       0.557  -1.536   1.767  1.00  0.00     0.199 HD  
BRANCH  18  21
ATOM     21  C11 UNL     1       2.409  -1.139   2.535  1.00  0.00     0.164 C   
BRANCH  21  22
ATOM     22  C12 UNL     1       1.843  -0.966   3.915  1.00  0.00    -0.002 A   
ATOM     23  C13 UNL     1       2.037  -1.959   4.905  1.00  0.00     0.012 A   
ATOM     24  C17 UNL     1       1.055   0.160   4.210  1.00  0.00     0.045 A   
ATOM     25  C14 UNL     1       1.465  -1.827   6.176  1.00  0.00     0.037 A   
ATOM     26  C16 UNL     1       0.515   0.263   5.474  1.00  0.00     0.109 A   
ATOM     27  C15 UNL     1       0.711  -0.703   6.430  1.00  0.00     0.108 A   
ATOM     28  O2  UNL     1      -0.260   1.285   5.921  1.00  0.00    -0.316 OA  
ATOM     29  O3  UNL     1       0.083  -0.410   7.598  1.00  0.00    -0.316 OA  
ATOM     30  C18 UNL     1      -0.526   0.858   7.277  1.00  0.00     0.337 C   
ENDBRANCH  21  22
ENDBRANCH  18  21
ENDBRANCH  17  18
BRANCH  17  31
ATOM     31  C19 UNL     1       1.335  -3.329  -0.403  1.00  0.00     0.043 C   
ATOM     32  C20 UNL     1       2.178  -4.531   0.065  1.00  0.00     0.010 C   
ATOM     33  C24 UNL     1      -0.166  -3.605  -0.181  1.00  0.00     0.010 C   
ATOM     34  C21 UNL     1       1.730  -5.829  -0.605  1.00  0.00     0.001 C   
ATOM     35  C23 UNL     1      -0.603  -4.908  -0.850  1.00  0.00     0.001 C   
ATOM     36  C22 UNL     1       0.244  -6.089  -0.390  1.00  0.00     0.000 C   
ENDBRANCH  17  31
ENDBRANCH   3  17
TORSDOF 9
