REMARK SMILES CC(=O)Nc1ccc(S(=O)(=O)n2cc([C@H](CC(C)C)[NH2+]Cc3ccc4c(c3)OCO4)nn2)cc1
REMARK SMILES IDX 12 1 13 2 14 3 31 4 32 5 9 6 10 7 11 8 8 9 5 10 6 11 34 12
REMARK SMILES IDX 7 13 33 14 4 15 2 16 1 17 3 18 15 20 16 21 17 22 18 23 19 24
REMARK SMILES IDX 20 25 21 28 22 29 23 30 27 31 24 32 26 33 25 34 28 35 30 36
REMARK SMILES IDX 29 37
REMARK H PARENT 4 19 20 26 20 27
ROOT
ATOM     1   N2  UNL     1       0.389   1.870  -0.730  1.00  0.00     0.097 N   
ATOM     2   C7  UNL     1       0.872   0.768  -0.058  1.00  0.00     0.250 A   
ATOM     3   C8  UNL     1       0.088  -0.271  -0.507  1.00  0.00     0.138 A   
ATOM     4   N4  UNL     1      -0.852   0.218  -1.380  1.00  0.00    -0.123 NA  
ATOM     5   N5  UNL     1      -0.690   1.530  -1.474  1.00  0.00     0.020 NA  
ENDROOT
BRANCH   1   6
ATOM     6   S1  UNL     1       0.943   3.457  -0.419  1.00  0.00    -0.080 S   
ATOM     7   O2  UNL     1       2.382   3.323  -0.282  1.00  0.00    -0.476 OA  
ATOM     8   O3  UNL     1       0.099   3.917   0.667  1.00  0.00    -0.476 OA  
BRANCH   6   9
ATOM     9   C6  UNL     1       0.590   4.356  -1.894  1.00  0.00     0.341 A   
ATOM     10  C3  UNL     1       0.045   5.776  -4.248  1.00  0.00     0.033 A   
ATOM     11  C4  UNL     1       0.985   4.742  -4.246  1.00  0.00     0.036 A   
ATOM     12  C23 UNL     1      -0.608   6.102  -3.051  1.00  0.00     0.036 A   
ATOM     13  C5  UNL     1       1.265   4.034  -3.072  1.00  0.00     0.140 A   
ATOM     14  C22 UNL     1      -0.340   5.396  -1.873  1.00  0.00     0.140 A   
BRANCH  10  15
ATOM     15  N1  UNL     1      -0.283   6.534  -5.391  1.00  0.00    -0.286 N   
ATOM     16  C2  UNL     1       0.171   6.341  -6.684  1.00  0.00     0.213 C   
ATOM     17  C1  UNL     1      -0.371   7.374  -7.641  1.00  0.00     0.111 C   
ATOM     18  O1  UNL     1       0.901   5.438  -7.077  1.00  0.00    -0.278 OA  
ATOM     19  H4  UNL     1      -0.945   7.288  -5.254  1.00  0.00     0.156 HD  
ENDBRANCH  10  15
ENDBRANCH   6   9
ENDBRANCH   1   6
BRANCH   3  20
ATOM     20  C9  UNL     1       0.102  -1.732  -0.172  1.00  0.00     0.115 C   
BRANCH  20  21
ATOM     21  C10 UNL     1       1.018  -2.501  -1.147  1.00  0.00     0.064 C   
BRANCH  21  22
ATOM     22  C11 UNL     1       1.233  -4.000  -0.848  1.00  0.00    -0.012 C   
ATOM     23  C12 UNL     1       1.824  -4.243   0.541  1.00  0.00     0.007 C   
ATOM     24  C13 UNL     1       2.152  -4.609  -1.913  1.00  0.00     0.007 C   
ENDBRANCH  21  22
ENDBRANCH  20  21
BRANCH  20  25
ATOM     25  N3  UNL     1      -1.293  -2.305  -0.255  1.00  0.00     0.249 N   
ATOM     26  H18 UNL     1      -1.265  -3.327  -0.283  1.00  0.00     0.199 HD  
ATOM     27  H19 UNL     1      -1.689  -1.992  -1.152  1.00  0.00     0.199 HD  
BRANCH  25  28
ATOM     28  C14 UNL     1      -2.241  -1.893   0.826  1.00  0.00     0.164 C   
BRANCH  28  29
ATOM     29  C15 UNL     1      -1.871  -2.464   2.167  1.00  0.00    -0.002 A   
ATOM     30  C16 UNL     1      -1.380  -1.622   3.193  1.00  0.00     0.012 A   
ATOM     31  C20 UNL     1      -1.983  -3.847   2.401  1.00  0.00     0.045 A   
ATOM     32  C17 UNL     1      -0.994  -2.148   4.431  1.00  0.00     0.037 A   
ATOM     33  C19 UNL     1      -1.589  -4.332   3.631  1.00  0.00     0.109 A   
ATOM     34  C18 UNL     1      -1.108  -3.508   4.617  1.00  0.00     0.108 A   
ATOM     35  O4  UNL     1      -1.620  -5.636   4.011  1.00  0.00    -0.316 OA  
ATOM     36  O5  UNL     1      -0.777  -4.188   5.745  1.00  0.00    -0.316 OA  
ATOM     37  C21 UNL     1      -1.127  -5.537   5.368  1.00  0.00     0.337 C   
ENDBRANCH  28  29
ENDBRANCH  25  28
ENDBRANCH  20  25
ENDBRANCH   3  20
TORSDOF 9
