REMARK SMILES Cc1cc(F)cc(CCn2cc([C@@H]([NH2+]Cc3ccc4c(c3)OCO4)C3CCCC3)nn2)c1
REMARK SMILES IDX 10 1 11 2 12 3 30 4 31 5 9 7 8 8 7 9 2 10 3 11 32 12 4 13
REMARK SMILES IDX 6 14 1 15 5 16 13 17 14 18 15 21 16 22 17 23 21 24 18 25
REMARK SMILES IDX 20 26 19 27 22 28 24 29 23 30 25 31 26 32 29 33 27 34 28 35
REMARK H PARENT 11 6 14 19 14 20
ROOT
ATOM     1   N1  UNL     1       3.283  -0.183   0.638  1.00  0.00    -0.212 N   
ATOM     2   C9  UNL     1       2.532   0.330  -0.383  1.00  0.00     0.045 A   
ATOM     3   C10 UNL     1       1.404   0.808   0.245  1.00  0.00     0.127 A   
ATOM     4   N3  UNL     1       1.525   0.615   1.598  1.00  0.00    -0.132 NA  
ATOM     5   N4  UNL     1       2.679   0.009   1.825  1.00  0.00    -0.076 NA  
ATOM     6   H10 UNL     1       2.833   0.253  -1.419  1.00  0.00     0.083 HD  
ENDROOT
BRANCH   1   7
ATOM     7   C8  UNL     1       4.489  -0.981   0.543  1.00  0.00     0.139 C   
BRANCH   7   8
ATOM     8   C7  UNL     1       4.236  -2.475   0.777  1.00  0.00     0.057 C   
BRANCH   8   9
ATOM     9   C6  UNL     1       3.254  -3.062  -0.212  1.00  0.00    -0.043 A   
ATOM     10  C2  UNL     1       2.757  -3.985  -2.416  1.00  0.00    -0.048 A   
ATOM     11  C3  UNL     1       1.393  -3.986  -2.100  1.00  0.00     0.042 A   
ATOM     12  C25 UNL     1       3.679  -3.502  -1.474  1.00  0.00     0.007 A   
ATOM     13  C4  UNL     1       0.974  -3.550  -0.849  1.00  0.00     0.123 A   
ATOM     14  C5  UNL     1       1.889  -3.109   0.100  1.00  0.00     0.043 A   
ATOM     15  C1  UNL     1       3.224  -4.440  -3.769  1.00  0.00     0.044 C   
ATOM     16  F1  UNL     1      -0.335  -3.506  -0.564  1.00  0.00    -0.207 F   
ENDBRANCH   8   9
ENDBRANCH   7   8
ENDBRANCH   1   7
BRANCH   3  17
ATOM     17  C11 UNL     1       0.138   1.378  -0.306  1.00  0.00     0.117 C   
BRANCH  17  18
ATOM     18  N2  UNL     1      -1.030   0.956   0.544  1.00  0.00     0.249 N   
ATOM     19  H12 UNL     1      -0.739   1.074   1.527  1.00  0.00     0.199 HD  
ATOM     20  H13 UNL     1      -1.845   1.561   0.413  1.00  0.00     0.199 HD  
BRANCH  18  21
ATOM     21  C12 UNL     1      -1.447  -0.467   0.388  1.00  0.00     0.164 C   
BRANCH  21  22
ATOM     22  C13 UNL     1      -2.595  -0.777   1.307  1.00  0.00    -0.002 A   
ATOM     23  C14 UNL     1      -3.929  -0.684   0.845  1.00  0.00     0.012 A   
ATOM     24  C18 UNL     1      -2.347  -1.110   2.650  1.00  0.00     0.045 A   
ATOM     25  C15 UNL     1      -5.005  -0.928   1.707  1.00  0.00     0.037 A   
ATOM     26  C17 UNL     1      -3.430  -1.343   3.472  1.00  0.00     0.109 A   
ATOM     27  C16 UNL     1      -4.721  -1.255   3.014  1.00  0.00     0.108 A   
ATOM     28  O1  UNL     1      -3.367  -1.671   4.789  1.00  0.00    -0.316 OA  
ATOM     29  O2  UNL     1      -5.634  -1.519   3.984  1.00  0.00    -0.316 OA  
ATOM     30  C19 UNL     1      -4.771  -1.804   5.106  1.00  0.00     0.337 C   
ENDBRANCH  21  22
ENDBRANCH  18  21
ENDBRANCH  17  18
BRANCH  17  31
ATOM     31  C20 UNL     1       0.200   2.914  -0.416  1.00  0.00     0.043 C   
ATOM     32  C21 UNL     1       0.239   3.688   0.907  1.00  0.00     0.010 C   
ATOM     33  C24 UNL     1      -0.970   3.540  -1.200  1.00  0.00     0.010 C   
ATOM     34  C22 UNL     1      -0.189   5.087   0.498  1.00  0.00     0.001 C   
ATOM     35  C23 UNL     1      -1.338   4.829  -0.464  1.00  0.00     0.001 C   
ENDBRANCH  17  31
ENDBRANCH   3  17
TORSDOF 8
