REMARK SMILES Cc1cccnc1[C@@H](CO)n1cc([C@@H]([NH2+]Cc2ccc3c(c2)OCO3)C(C)(C)C)nn1
REMARK SMILES IDX 11 1 12 2 13 3 30 4 31 5 8 7 7 8 2 9 3 10 4 11 6 12 5 13
REMARK SMILES IDX 1 14 9 15 10 16 14 18 15 19 16 22 17 23 18 24 22 25 19 26
REMARK SMILES IDX 21 27 20 28 23 29 25 30 24 31 26 32 27 33 28 34 29 35
REMARK H PARENT 12 6 10 17 15 20 15 21
ROOT
ATOM     1   N2  UNL     1       1.192  -0.734  -2.485  1.00  0.00    -0.201 N   
ATOM     2   C9  UNL     1       0.948  -1.074  -1.181  1.00  0.00     0.046 A   
ATOM     3   C10 UNL     1      -0.348  -0.668  -0.959  1.00  0.00     0.127 A   
ATOM     4   N4  UNL     1      -0.824  -0.052  -2.087  1.00  0.00    -0.132 NA  
ATOM     5   N5  UNL     1       0.122  -0.097  -3.012  1.00  0.00    -0.075 NA  
ATOM     6   H11 UNL     1       1.689  -1.569  -0.565  1.00  0.00     0.083 HD  
ENDROOT
BRANCH   1   7
ATOM     7   C7  UNL     1       2.389  -0.944  -3.292  1.00  0.00     0.174 C   
BRANCH   7   8
ATOM     8   C6  UNL     1       3.527  -0.076  -2.775  1.00  0.00     0.068 A   
ATOM     9   C2  UNL     1       3.764   1.219  -3.267  1.00  0.00    -0.027 A   
ATOM     10  C3  UNL     1       4.832   1.945  -2.723  1.00  0.00     0.007 A   
ATOM     11  C4  UNL     1       5.621   1.390  -1.723  1.00  0.00     0.020 A   
ATOM     12  N1  UNL     1       4.292  -0.619  -1.782  1.00  0.00    -0.259 NA  
ATOM     13  C5  UNL     1       5.316   0.116  -1.290  1.00  0.00     0.111 A   
ATOM     14  C1  UNL     1       2.948   1.843  -4.362  1.00  0.00     0.046 C   
ENDBRANCH   7   8
BRANCH   7  15
ATOM     15  C8  UNL     1       2.761  -2.437  -3.410  1.00  0.00     0.187 C   
BRANCH  15  16
ATOM     16  O1  UNL     1       3.114  -3.046  -2.167  1.00  0.00    -0.394 OA  
ATOM     17  H10 UNL     1       3.851  -2.506  -1.799  1.00  0.00     0.210 HD  
ENDBRANCH  15  16
ENDBRANCH   7  15
ENDBRANCH   1   7
BRANCH   3  18
ATOM     18  C11 UNL     1      -1.206  -0.723   0.269  1.00  0.00     0.120 C   
BRANCH  18  19
ATOM     19  N3  UNL     1      -2.037   0.545   0.313  1.00  0.00     0.250 N   
ATOM     20  H13 UNL     1      -2.905   0.412   0.837  1.00  0.00     0.199 HD  
ATOM     21  H14 UNL     1      -2.311   0.730  -0.665  1.00  0.00     0.199 HD  
BRANCH  19  22
ATOM     22  C12 UNL     1      -1.344   1.761   0.826  1.00  0.00     0.164 C   
BRANCH  22  23
ATOM     23  C13 UNL     1      -1.247   1.760   2.327  1.00  0.00    -0.002 A   
ATOM     24  C14 UNL     1      -0.026   1.442   2.970  1.00  0.00     0.012 A   
ATOM     25  C18 UNL     1      -2.388   2.034   3.105  1.00  0.00     0.045 A   
ATOM     26  C15 UNL     1       0.059   1.385   4.366  1.00  0.00     0.037 A   
ATOM     27  C17 UNL     1      -2.268   1.975   4.479  1.00  0.00     0.109 A   
ATOM     28  C16 UNL     1      -1.080   1.657   5.092  1.00  0.00     0.108 A   
ATOM     29  O2  UNL     1      -3.268   2.205   5.370  1.00  0.00    -0.316 OA  
ATOM     30  O3  UNL     1      -1.183   1.648   6.447  1.00  0.00    -0.316 OA  
ATOM     31  C19 UNL     1      -2.561   2.047   6.622  1.00  0.00     0.337 C   
ENDBRANCH  22  23
ENDBRANCH  19  22
ENDBRANCH  18  19
BRANCH  18  32
ATOM     32  C20 UNL     1      -2.133  -1.984   0.361  1.00  0.00     0.010 C   
ATOM     33  C21 UNL     1      -1.288  -3.277   0.271  1.00  0.00     0.017 C   
ATOM     34  C22 UNL     1      -2.856  -2.016   1.729  1.00  0.00     0.017 C   
ATOM     35  C23 UNL     1      -3.198  -2.024  -0.753  1.00  0.00     0.017 C   
ENDBRANCH  18  32
ENDBRANCH   3  18
TORSDOF 9
