REMARK SMILES Cc1cccnc1[C@H](CO)n1cc([C@@H]([NH2+]Cc2ccc3c(c2)OCO3)C(C)(C)C)nn1
REMARK SMILES IDX 11 1 12 2 13 3 30 4 31 5 8 7 7 8 2 9 3 10 4 11 6 12 5 13
REMARK SMILES IDX 1 14 9 15 10 16 14 18 15 19 16 22 17 23 18 24 22 25 19 26
REMARK SMILES IDX 21 27 20 28 23 29 25 30 24 31 26 32 27 33 28 34 29 35
REMARK H PARENT 12 6 10 17 15 20 15 21
ROOT
ATOM     1   N2  UNL     1      -2.224   1.118  -1.388  1.00  0.00    -0.201 N   
ATOM     2   C9  UNL     1      -1.088   1.059  -0.627  1.00  0.00     0.046 A   
ATOM     3   C10 UNL     1      -0.328   0.082  -1.228  1.00  0.00     0.127 A   
ATOM     4   N4  UNL     1      -0.999  -0.400  -2.321  1.00  0.00    -0.132 NA  
ATOM     5   N5  UNL     1      -2.154   0.240  -2.412  1.00  0.00    -0.075 NA  
ATOM     6   H11 UNL     1      -0.962   1.651   0.270  1.00  0.00     0.083 HD  
ENDROOT
BRANCH   1   7
ATOM     7   C7  UNL     1      -3.458   1.861  -1.147  1.00  0.00     0.174 C   
BRANCH   7   8
ATOM     8   C6  UNL     1      -3.157   3.299  -0.749  1.00  0.00     0.068 A   
ATOM     9   C2  UNL     1      -2.914   4.299  -1.705  1.00  0.00    -0.027 A   
ATOM     10  C3  UNL     1      -2.638   5.592  -1.244  1.00  0.00     0.007 A   
ATOM     11  C4  UNL     1      -2.596   5.857   0.119  1.00  0.00     0.020 A   
ATOM     12  N1  UNL     1      -3.097   3.551   0.593  1.00  0.00    -0.259 NA  
ATOM     13  C5  UNL     1      -2.830   4.815   0.991  1.00  0.00     0.111 A   
ATOM     14  C1  UNL     1      -2.961   4.043  -3.184  1.00  0.00     0.046 C   
ENDBRANCH   7   8
BRANCH   7  15
ATOM     15  C8  UNL     1      -4.343   1.113  -0.130  1.00  0.00     0.187 C   
BRANCH  15  16
ATOM     16  O1  UNL     1      -3.712   0.939   1.146  1.00  0.00    -0.394 OA  
ATOM     17  H10 UNL     1      -3.547   1.852   1.473  1.00  0.00     0.210 HD  
ENDBRANCH  15  16
ENDBRANCH   7  15
ENDBRANCH   1   7
BRANCH   3  18
ATOM     18  C11 UNL     1       0.949  -0.557  -0.784  1.00  0.00     0.120 C   
BRANCH  18  19
ATOM     19  N3  UNL     1       0.800  -2.065  -0.846  1.00  0.00     0.250 N   
ATOM     20  H13 UNL     1       0.531  -2.295  -1.812  1.00  0.00     0.199 HD  
ATOM     21  H14 UNL     1       1.692  -2.527  -0.655  1.00  0.00     0.199 HD  
BRANCH  19  22
ATOM     22  C12 UNL     1      -0.245  -2.666   0.043  1.00  0.00     0.164 C   
BRANCH  22  23
ATOM     23  C13 UNL     1      -0.024  -2.390   1.505  1.00  0.00    -0.002 A   
ATOM     24  C14 UNL     1      -0.928  -1.562   2.214  1.00  0.00     0.012 A   
ATOM     25  C18 UNL     1       1.089  -2.928   2.173  1.00  0.00     0.045 A   
ATOM     26  C15 UNL     1      -0.725  -1.266   3.566  1.00  0.00     0.037 A   
ATOM     27  C17 UNL     1       1.261  -2.613   3.506  1.00  0.00     0.109 A   
ATOM     28  C16 UNL     1       0.381  -1.805   4.183  1.00  0.00     0.108 A   
ATOM     29  O2  UNL     1       2.284  -3.040   4.291  1.00  0.00    -0.316 OA  
ATOM     30  O3  UNL     1       0.739  -1.623   5.480  1.00  0.00    -0.316 OA  
ATOM     31  C19 UNL     1       1.929  -2.435   5.555  1.00  0.00     0.337 C   
ENDBRANCH  22  23
ENDBRANCH  19  22
ENDBRANCH  18  19
BRANCH  18  32
ATOM     32  C20 UNL     1       2.215  -0.093  -1.588  1.00  0.00     0.010 C   
ATOM     33  C21 UNL     1       3.496  -0.699  -0.968  1.00  0.00     0.017 C   
ATOM     34  C22 UNL     1       2.356   1.444  -1.503  1.00  0.00     0.017 C   
ATOM     35  C23 UNL     1       2.170  -0.493  -3.076  1.00  0.00     0.017 C   
ENDBRANCH  18  32
ENDBRANCH   3  18
TORSDOF 9
