REMARK SMILES CC(C)[C@H]([NH2+]Cc1ccc2c(c1)OCO2)c1cn(Cc2ccc(F)cc2N(C)C)nn1
REMARK SMILES IDX 16 1 17 2 18 3 30 4 31 5 4 7 2 8 1 9 3 10 5 11 6 14 7 15
REMARK SMILES IDX 8 16 12 17 9 18 11 19 10 20 13 21 15 22 14 23 19 24 20 25
REMARK SMILES IDX 21 26 26 27 22 28 25 29 23 30 24 31 27 32 28 33 29 34
REMARK H PARENT 17 6 5 12 5 13
ROOT
ATOM     1   C13 UNL     1       1.831   1.580  -0.479  1.00  0.00     0.127 A   
ATOM     2   C14 UNL     1       1.088   1.696   0.673  1.00  0.00     0.046 A   
ATOM     3   N2  UNL     1       0.915   3.045   0.821  1.00  0.00    -0.208 N   
ATOM     4   N4  UNL     1       1.553   3.719  -0.159  1.00  0.00    -0.076 NA  
ATOM     5   N5  UNL     1       2.114   2.831  -0.963  1.00  0.00    -0.132 NA  
ATOM     6   H18 UNL     1       0.641   0.984   1.352  1.00  0.00     0.083 HD  
ENDROOT
BRANCH   1   7
ATOM     7   C4  UNL     1       2.251   0.374  -1.251  1.00  0.00     0.117 C   
BRANCH   7   8
ATOM     8   C2  UNL     1       3.668  -0.121  -0.854  1.00  0.00     0.037 C   
ATOM     9   C1  UNL     1       4.806   0.819  -1.268  1.00  0.00     0.014 C   
ATOM     10  C3  UNL     1       3.945  -1.530  -1.394  1.00  0.00     0.014 C   
ENDBRANCH   7   8
BRANCH   7  11
ATOM     11  N1  UNL     1       2.185   0.645  -2.737  1.00  0.00     0.249 N   
ATOM     12  H9  UNL     1       2.741   1.495  -2.900  1.00  0.00     0.199 HD  
ATOM     13  H10 UNL     1       2.621  -0.116  -3.263  1.00  0.00     0.199 HD  
BRANCH  11  14
ATOM     14  C5  UNL     1       0.826   0.913  -3.301  1.00  0.00     0.164 C   
BRANCH  14  15
ATOM     15  C6  UNL     1      -0.116  -0.251  -3.160  1.00  0.00    -0.002 A   
ATOM     16  C7  UNL     1       0.046  -1.408  -3.960  1.00  0.00     0.012 A   
ATOM     17  C11 UNL     1      -1.145  -0.209  -2.203  1.00  0.00     0.045 A   
ATOM     18  C8  UNL     1      -0.802  -2.510  -3.806  1.00  0.00     0.037 A   
ATOM     19  C10 UNL     1      -1.961  -1.314  -2.075  1.00  0.00     0.109 A   
ATOM     20  C9  UNL     1      -1.794  -2.432  -2.854  1.00  0.00     0.108 A   
ATOM     21  O1  UNL     1      -2.989  -1.443  -1.195  1.00  0.00    -0.316 OA  
ATOM     22  O2  UNL     1      -2.699  -3.403  -2.568  1.00  0.00    -0.316 OA  
ATOM     23  C12 UNL     1      -3.484  -2.756  -1.544  1.00  0.00     0.337 C   
ENDBRANCH  14  15
ENDBRANCH  11  14
ENDBRANCH   7  11
ENDBRANCH   1   7
BRANCH   3  24
ATOM     24  C15 UNL     1       0.148   3.749   1.833  1.00  0.00     0.171 C   
BRANCH  24  25
ATOM     25  C16 UNL     1      -1.291   3.904   1.397  1.00  0.00    -0.007 A   
ATOM     26  C17 UNL     1      -1.645   5.037   0.635  1.00  0.00     0.010 A   
ATOM     27  C21 UNL     1      -2.263   2.916   1.682  1.00  0.00     0.036 A   
ATOM     28  C18 UNL     1      -2.946   5.199   0.167  1.00  0.00     0.040 A   
ATOM     29  C20 UNL     1      -3.569   3.105   1.203  1.00  0.00     0.063 A   
ATOM     30  C19 UNL     1      -3.895   4.232   0.456  1.00  0.00     0.125 A   
ATOM     31  F1  UNL     1      -5.148   4.383   0.008  1.00  0.00    -0.207 F   
BRANCH  27  32
ATOM     32  N3  UNL     1      -1.899   1.788   2.460  1.00  0.00    -0.337 N   
ATOM     33  C22 UNL     1      -2.217   2.034   3.880  1.00  0.00     0.129 C   
ATOM     34  C23 UNL     1      -2.449   0.514   1.974  1.00  0.00     0.129 C   
ENDBRANCH  27  32
ENDBRANCH  24  25
ENDBRANCH   3  24
TORSDOF 8
