REMARK SMILES CC(C)(C)[C@H]([NH2+]Cc1ccc2c(c1)OCO2)c1cn(-c2cc3ccccc3oc2=O)nn1
REMARK SMILES IDX 5 1 2 2 1 3 3 4 4 5 6 6 7 9 8 10 9 11 13 12 10 13 12 14
REMARK SMILES IDX 11 15 14 16 16 17 15 18 17 19 18 20 32 21 19 22 31 23 20 24
REMARK SMILES IDX 21 25 29 26 22 27 28 28 23 29 27 30 24 31 26 32 25 33 30 34
REMARK H PARENT 6 7 6 8
ROOT
ATOM     1   C5  UNL     1       0.575   1.563   2.584  1.00  0.00     0.120 C   
ENDROOT
BRANCH   1   2
ATOM     2   C2  UNL     1       1.404   2.756   3.173  1.00  0.00     0.010 C   
ATOM     3   C1  UNL     1       2.923   2.492   3.180  1.00  0.00     0.017 C   
ATOM     4   C3  UNL     1       0.954   3.050   4.623  1.00  0.00     0.017 C   
ATOM     5   C4  UNL     1       1.140   4.039   2.351  1.00  0.00     0.017 C   
ENDBRANCH   1   2
BRANCH   1   6
ATOM     6   N1  UNL     1       0.862   0.279   3.347  1.00  0.00     0.250 N   
ATOM     7   H11 UNL     1       1.579  -0.221   2.799  1.00  0.00     0.199 HD  
ATOM     8   H12 UNL     1       1.296   0.474   4.253  1.00  0.00     0.199 HD  
BRANCH   6   9
ATOM     9   C6  UNL     1      -0.296  -0.642   3.563  1.00  0.00     0.164 C   
BRANCH   9  10
ATOM     10  C7  UNL     1      -0.951  -1.111   2.293  1.00  0.00    -0.002 A   
ATOM     11  C8  UNL     1      -0.288  -2.019   1.432  1.00  0.00     0.012 A   
ATOM     12  C12 UNL     1      -2.204  -0.595   1.917  1.00  0.00     0.045 A   
ATOM     13  C9  UNL     1      -0.841  -2.373   0.196  1.00  0.00     0.037 A   
ATOM     14  C11 UNL     1      -2.719  -0.963   0.691  1.00  0.00     0.109 A   
ATOM     15  C10 UNL     1      -2.052  -1.817  -0.151  1.00  0.00     0.108 A   
ATOM     16  O1  UNL     1      -3.891  -0.524   0.167  1.00  0.00    -0.316 OA  
ATOM     17  O2  UNL     1      -2.712  -2.010  -1.322  1.00  0.00    -0.316 OA  
ATOM     18  C13 UNL     1      -3.891  -1.200  -1.111  1.00  0.00     0.337 C   
ENDBRANCH   9  10
ENDBRANCH   6   9
ENDBRANCH   1   6
BRANCH   1  19
ATOM     19  C14 UNL     1       0.813   1.305   1.127  1.00  0.00     0.128 A   
ATOM     20  C15 UNL     1       0.032   1.565   0.027  1.00  0.00     0.135 A   
ATOM     21  N4  UNL     1       1.901   0.591   0.734  1.00  0.00    -0.131 NA  
ATOM     22  N2  UNL     1       0.642   0.934  -1.058  1.00  0.00    -0.174 N   
ATOM     23  N3  UNL     1       1.820   0.408  -0.572  1.00  0.00    -0.071 NA  
BRANCH  22  24
ATOM     24  C16 UNL     1       0.191   0.815  -2.391  1.00  0.00     0.131 A   
ATOM     25  C17 UNL     1       0.974   0.234  -3.324  1.00  0.00     0.043 A   
ATOM     26  C24 UNL     1      -1.163   1.290  -2.801  1.00  0.00     0.314 A   
ATOM     27  C18 UNL     1       0.560   0.091  -4.709  1.00  0.00     0.008 A   
ATOM     28  O3  UNL     1      -1.510   1.207  -4.144  1.00  0.00    -0.273 OA  
ATOM     29  C19 UNL     1       1.364  -0.524  -5.671  1.00  0.00     0.011 A   
ATOM     30  C23 UNL     1      -0.674   0.596  -5.090  1.00  0.00     0.093 A   
ATOM     31  C20 UNL     1       0.920  -0.623  -6.993  1.00  0.00     0.001 A   
ATOM     32  C22 UNL     1      -1.131   0.508  -6.402  1.00  0.00     0.035 A   
ATOM     33  C21 UNL     1      -0.326  -0.106  -7.358  1.00  0.00     0.003 A   
ATOM     34  O4  UNL     1      -1.975   1.732  -1.994  1.00  0.00    -0.259 OA  
ENDBRANCH  22  24
ENDBRANCH   1  19
TORSDOF 6
