REMARK SMILES CC(C)C[C@H]([NH2+]Cc1ccc2c(c1)OCO2)c1cn(CCc2ccccc2O)nn1
REMARK SMILES IDX 17 1 18 2 19 3 29 4 30 5 5 7 4 8 2 9 1 10 3 11 6 12 7 15
REMARK SMILES IDX 8 16 9 17 13 18 10 19 12 20 11 21 14 22 16 23 15 24 20 25
REMARK SMILES IDX 21 26 22 27 23 28 27 29 24 30 26 31 25 32 28 33
REMARK H PARENT 18 6 6 13 6 14 28 34
ROOT
ATOM     1   C14 UNL     1       1.467  -1.649  -0.923  1.00  0.00     0.127 A   
ATOM     2   C15 UNL     1       2.414  -0.663  -1.081  1.00  0.00     0.045 A   
ATOM     3   N2  UNL     1       2.978  -0.943  -2.293  1.00  0.00    -0.212 N   
ATOM     4   N3  UNL     1       2.416  -2.032  -2.849  1.00  0.00    -0.076 NA  
ATOM     5   N4  UNL     1       1.491  -2.478  -2.015  1.00  0.00    -0.132 NA  
ATOM     6   H20 UNL     1       2.716   0.187  -0.485  1.00  0.00     0.083 HD  
ENDROOT
BRANCH   1   7
ATOM     7   C5  UNL     1       0.460  -1.876   0.155  1.00  0.00     0.114 C   
BRANCH   7   8
ATOM     8   C4  UNL     1       0.958  -2.946   1.149  1.00  0.00     0.064 C   
BRANCH   8   9
ATOM     9   C2  UNL     1       0.036  -3.254   2.348  1.00  0.00    -0.012 C   
ATOM     10  C1  UNL     1      -0.306  -2.008   3.165  1.00  0.00     0.007 C   
ATOM     11  C3  UNL     1       0.701  -4.296   3.252  1.00  0.00     0.007 C   
ENDBRANCH   8   9
ENDBRANCH   7   8
BRANCH   7  12
ATOM     12  N1  UNL     1      -0.854  -2.326  -0.439  1.00  0.00     0.249 N   
ATOM     13  H11 UNL     1      -0.644  -3.158  -1.007  1.00  0.00     0.199 HD  
ATOM     14  H12 UNL     1      -1.503  -2.610   0.298  1.00  0.00     0.199 HD  
BRANCH  12  15
ATOM     15  C6  UNL     1      -1.546  -1.344  -1.329  1.00  0.00     0.164 C   
BRANCH  15  16
ATOM     16  C7  UNL     1      -1.979  -0.101  -0.603  1.00  0.00    -0.002 A   
ATOM     17  C8  UNL     1      -1.258   1.105  -0.768  1.00  0.00     0.012 A   
ATOM     18  C12 UNL     1      -3.076  -0.136   0.273  1.00  0.00     0.045 A   
ATOM     19  C9  UNL     1      -1.619   2.262  -0.071  1.00  0.00     0.037 A   
ATOM     20  C11 UNL     1      -3.407   1.022   0.945  1.00  0.00     0.109 A   
ATOM     21  C10 UNL     1      -2.699   2.187   0.780  1.00  0.00     0.108 A   
ATOM     22  O1  UNL     1      -4.433   1.158   1.826  1.00  0.00    -0.316 OA  
ATOM     23  O2  UNL     1      -3.190   3.204   1.535  1.00  0.00    -0.316 OA  
ATOM     24  C13 UNL     1      -4.312   2.557   2.173  1.00  0.00     0.337 C   
ENDBRANCH  15  16
ENDBRANCH  12  15
ENDBRANCH   7  12
ENDBRANCH   1   7
BRANCH   3  25
ATOM     25  C16 UNL     1       4.028  -0.218  -2.976  1.00  0.00     0.139 C   
BRANCH  25  26
ATOM     26  C17 UNL     1       3.520   0.593  -4.169  1.00  0.00     0.059 C   
BRANCH  26  27
ATOM     27  C18 UNL     1       2.462   1.623  -3.837  1.00  0.00    -0.016 A   
ATOM     28  C19 UNL     1       1.190   1.525  -4.422  1.00  0.00     0.006 A   
ATOM     29  C23 UNL     1       2.724   2.711  -2.996  1.00  0.00     0.074 A   
ATOM     30  C20 UNL     1       0.212   2.489  -4.169  1.00  0.00     0.000 A   
ATOM     31  C22 UNL     1       1.749   3.674  -2.733  1.00  0.00     0.033 A   
ATOM     32  C21 UNL     1       0.491   3.562  -3.324  1.00  0.00     0.003 A   
BRANCH  29  33
ATOM     33  O3  UNL     1       3.963   2.826  -2.434  1.00  0.00    -0.361 OA  
ATOM     34  H29 UNL     1       4.074   3.740  -2.118  1.00  0.00     0.218 HD  
ENDBRANCH  29  33
ENDBRANCH  26  27
ENDBRANCH  25  26
ENDBRANCH   3  25
TORSDOF 10
