REMARK SMILES c1cc(-n2cc([C@@H]([NH2+]Cc3ccc4c(c3)OCO4)C3CCCC3)nn2)c2cc[nH]c2n1
REMARK SMILES IDX 7 1 6 2 4 3 5 4 25 5 24 6 3 7 1 8 2 9 31 10 30 11 26 12
REMARK SMILES IDX 29 13 27 14 28 15 8 17 9 20 10 21 11 22 15 23 12 24 14 25
REMARK SMILES IDX 13 26 16 27 18 28 17 29 19 30 20 31 23 32 21 33 22 34
REMARK H PARENT 29 16 8 18 8 19
ROOT
ATOM     1   C6  UNL     1      -0.462   1.002  -0.797  1.00  0.00     0.117 C   
ENDROOT
BRANCH   1   2
ATOM     2   C5  UNL     1      -0.763  -0.051   0.224  1.00  0.00     0.127 A   
ATOM     3   N1  UNL     1      -1.612  -1.447   1.690  1.00  0.00    -0.180 N   
ATOM     4   C4  UNL     1      -1.941  -0.411   0.841  1.00  0.00     0.135 A   
ATOM     5   N4  UNL     1      -0.269  -1.661   1.594  1.00  0.00    -0.071 NA  
ATOM     6   N3  UNL     1       0.246  -0.832   0.703  1.00  0.00    -0.131 NA  
BRANCH   3   7
ATOM     7   C3  UNL     1      -2.416  -2.219   2.563  1.00  0.00     0.070 A   
ATOM     8   C1  UNL     1      -2.546  -3.989   4.204  1.00  0.00     0.115 A   
ATOM     9   C2  UNL     1      -1.790  -3.218   3.336  1.00  0.00     0.047 A   
ATOM     10  N6  UNL     1      -3.871  -3.869   4.387  1.00  0.00    -0.241 NA  
ATOM     11  C23 UNL     1      -4.435  -2.913   3.633  1.00  0.00     0.130 A   
ATOM     12  C20 UNL     1      -3.816  -2.060   2.715  1.00  0.00     0.040 A   
ATOM     13  N5  UNL     1      -5.772  -2.636   3.667  1.00  0.00    -0.306 N   
ATOM     14  C21 UNL     1      -4.871  -1.253   2.188  1.00  0.00     0.029 A   
ATOM     15  C22 UNL     1      -6.055  -1.628   2.789  1.00  0.00     0.074 A   
ATOM     16  H25 UNL     1      -6.430  -3.127   4.257  1.00  0.00     0.154 HD  
ENDBRANCH   3   7
ENDBRANCH   1   2
BRANCH   1  17
ATOM     17  N2  UNL     1       0.986   1.400  -0.721  1.00  0.00     0.249 N   
ATOM     18  H5  UNL     1       1.530   0.532  -0.598  1.00  0.00     0.199 HD  
ATOM     19  H6  UNL     1       1.323   1.822  -1.591  1.00  0.00     0.199 HD  
BRANCH  17  20
ATOM     20  C7  UNL     1       1.339   2.297   0.415  1.00  0.00     0.164 C   
BRANCH  20  21
ATOM     21  C8  UNL     1       2.818   2.554   0.442  1.00  0.00    -0.002 A   
ATOM     22  C9  UNL     1       3.676   1.694   1.170  1.00  0.00     0.012 A   
ATOM     23  C13 UNL     1       3.366   3.615  -0.297  1.00  0.00     0.045 A   
ATOM     24  C10 UNL     1       5.060   1.898   1.177  1.00  0.00     0.037 A   
ATOM     25  C12 UNL     1       4.735   3.786  -0.271  1.00  0.00     0.109 A   
ATOM     26  C11 UNL     1       5.558   2.954   0.448  1.00  0.00     0.108 A   
ATOM     27  O1  UNL     1       5.422   4.759  -0.926  1.00  0.00    -0.316 OA  
ATOM     28  O2  UNL     1       6.866   3.301   0.340  1.00  0.00    -0.316 OA  
ATOM     29  C14 UNL     1       6.778   4.454  -0.524  1.00  0.00     0.337 C   
ENDBRANCH  20  21
ENDBRANCH  17  20
ENDBRANCH   1  17
BRANCH   1  30
ATOM     30  C15 UNL     1      -0.829   0.528  -2.217  1.00  0.00     0.043 C   
ATOM     31  C16 UNL     1      -0.775   1.616  -3.292  1.00  0.00     0.010 C   
ATOM     32  C19 UNL     1       0.057  -0.564  -2.822  1.00  0.00     0.010 C   
ATOM     33  C17 UNL     1      -0.866   0.837  -4.601  1.00  0.00     0.001 C   
ATOM     34  C18 UNL     1      -0.303  -0.554  -4.306  1.00  0.00     0.001 C   
ENDBRANCH   1  30
TORSDOF 6
