REMARK SMILES CC(C)C[C@H]([NH2+]Cc1ccc2c(c1)OCO2)c1cn([C@H](CO)c2ccc(O)cc2F)nn1
REMARK SMILES IDX 17 1 18 2 19 3 31 4 32 5 5 7 4 8 2 9 1 10 3 11 6 12 7 15
REMARK SMILES IDX 8 16 9 17 13 18 10 19 12 20 11 21 14 22 16 23 15 24 20 25
REMARK SMILES IDX 21 26 22 27 23 29 24 30 29 31 25 32 28 33 26 34 30 35 27 36
REMARK H PARENT 18 6 6 13 6 14 22 28 27 37
ROOT
ATOM     1   C14 UNL     1       0.618   0.376  -0.661  1.00  0.00     0.127 A   
ATOM     2   C15 UNL     1       0.140  -0.890  -0.912  1.00  0.00     0.046 A   
ATOM     3   N2  UNL     1       1.135  -1.718  -0.463  1.00  0.00    -0.202 N   
ATOM     4   N3  UNL     1       2.161  -0.996   0.031  1.00  0.00    -0.075 NA  
ATOM     5   N4  UNL     1       1.860   0.286  -0.094  1.00  0.00    -0.132 NA  
ATOM     6   H20 UNL     1      -0.788  -1.268  -1.317  1.00  0.00     0.083 HD  
ENDROOT
BRANCH   1   7
ATOM     7   C5  UNL     1      -0.017   1.716  -0.830  1.00  0.00     0.114 C   
BRANCH   7   8
ATOM     8   C4  UNL     1       0.548   2.432  -2.074  1.00  0.00     0.064 C   
BRANCH   8   9
ATOM     9   C2  UNL     1      -0.072   3.803  -2.418  1.00  0.00    -0.012 C   
ATOM     10  C1  UNL     1      -1.584   3.727  -2.627  1.00  0.00     0.007 C   
ATOM     11  C3  UNL     1       0.595   4.363  -3.678  1.00  0.00     0.007 C   
ENDBRANCH   8   9
ENDBRANCH   7   8
BRANCH   7  12
ATOM     12  N1  UNL     1       0.228   2.577   0.387  1.00  0.00     0.249 N   
ATOM     13  H11 UNL     1       1.249   2.644   0.495  1.00  0.00     0.199 HD  
ATOM     14  H12 UNL     1      -0.129   3.522   0.233  1.00  0.00     0.199 HD  
BRANCH  12  15
ATOM     15  C6  UNL     1      -0.317   2.068   1.685  1.00  0.00     0.164 C   
BRANCH  15  16
ATOM     16  C7  UNL     1      -1.810   1.889   1.668  1.00  0.00    -0.002 A   
ATOM     17  C8  UNL     1      -2.368   0.587   1.655  1.00  0.00     0.012 A   
ATOM     18  C12 UNL     1      -2.660   3.006   1.626  1.00  0.00     0.045 A   
ATOM     19  C9  UNL     1      -3.752   0.398   1.581  1.00  0.00     0.037 A   
ATOM     20  C11 UNL     1      -4.019   2.785   1.548  1.00  0.00     0.109 A   
ATOM     21  C10 UNL     1      -4.549   1.518   1.523  1.00  0.00     0.108 A   
ATOM     22  O1  UNL     1      -4.975   3.749   1.481  1.00  0.00    -0.316 OA  
ATOM     23  O2  UNL     1      -5.904   1.526   1.429  1.00  0.00    -0.316 OA  
ATOM     24  C13 UNL     1      -6.175   2.944   1.434  1.00  0.00     0.337 C   
ENDBRANCH  15  16
ENDBRANCH  12  15
ENDBRANCH   7  12
ENDBRANCH   1   7
BRANCH   3  25
ATOM     25  C16 UNL     1       1.122  -3.182  -0.403  1.00  0.00     0.158 C   
BRANCH  25  26
ATOM     26  C17 UNL     1       1.143  -3.672   1.056  1.00  0.00     0.186 C   
BRANCH  26  27
ATOM     27  O3  UNL     1      -0.118  -3.400   1.687  1.00  0.00    -0.394 OA  
ATOM     28  H24 UNL     1      -0.062  -3.785   2.582  1.00  0.00     0.210 HD  
ENDBRANCH  26  27
ENDBRANCH  25  26
BRANCH  25  29
ATOM     29  C18 UNL     1       2.189  -3.761  -1.311  1.00  0.00     0.013 A   
ATOM     30  C19 UNL     1       1.881  -4.076  -2.648  1.00  0.00     0.011 A   
ATOM     31  C23 UNL     1       3.500  -3.981  -0.871  1.00  0.00     0.131 A   
ATOM     32  C20 UNL     1       2.856  -4.604  -3.501  1.00  0.00     0.034 A   
ATOM     33  C22 UNL     1       4.475  -4.504  -1.712  1.00  0.00     0.072 A   
ATOM     34  C21 UNL     1       4.145  -4.815  -3.024  1.00  0.00     0.074 A   
ATOM     35  F1  UNL     1       3.841  -3.691   0.392  1.00  0.00    -0.207 F   
BRANCH  34  36
ATOM     36  O4  UNL     1       5.123  -5.330  -3.819  1.00  0.00    -0.361 OA  
ATOM     37  H27 UNL     1       4.763  -5.504  -4.704  1.00  0.00     0.218 HD  
ENDBRANCH  34  36
ENDBRANCH  25  29
ENDBRANCH   3  25
TORSDOF 11
