REMARK SMILES CC(C)C[C@H]([NH2+]Cc1ccc2c(c1)OCO2)c1cn([C@@H](CO)c2ccc(O)cc2F)nn1
REMARK SMILES IDX 17 1 18 2 19 3 31 4 32 5 5 7 4 8 2 9 1 10 3 11 6 12 7 15
REMARK SMILES IDX 8 16 9 17 13 18 10 19 12 20 11 21 14 22 16 23 15 24 20 25
REMARK SMILES IDX 21 26 22 27 23 29 24 30 29 31 25 32 28 33 26 34 30 35 27 36
REMARK H PARENT 18 6 6 13 6 14 22 28 27 37
ROOT
ATOM     1   C14 UNL     1       0.598  -0.543   1.645  1.00  0.00     0.127 A   
ATOM     2   C15 UNL     1       1.882  -0.095   1.430  1.00  0.00     0.046 A   
ATOM     3   N2  UNL     1       2.100   0.804   2.440  1.00  0.00    -0.202 N   
ATOM     4   N3  UNL     1       1.011   0.898   3.233  1.00  0.00    -0.075 NA  
ATOM     5   N4  UNL     1       0.090   0.075   2.760  1.00  0.00    -0.132 NA  
ATOM     6   H20 UNL     1       2.642  -0.326   0.695  1.00  0.00     0.083 HD  
ENDROOT
BRANCH   1   7
ATOM     7   C5  UNL     1      -0.262  -1.523   0.913  1.00  0.00     0.114 C   
BRANCH   7   8
ATOM     8   C4  UNL     1       0.175  -1.790  -0.539  1.00  0.00     0.064 C   
BRANCH   8   9
ATOM     9   C2  UNL     1      -0.681  -2.800  -1.332  1.00  0.00    -0.012 C   
ATOM     10  C1  UNL     1      -0.700  -4.184  -0.680  1.00  0.00     0.007 C   
ATOM     11  C3  UNL     1      -0.147  -2.912  -2.764  1.00  0.00     0.007 C   
ENDBRANCH   8   9
ENDBRANCH   7   8
BRANCH   7  12
ATOM     12  N1  UNL     1      -1.708  -1.113   0.990  1.00  0.00     0.249 N   
ATOM     13  H11 UNL     1      -1.884  -0.903   1.985  1.00  0.00     0.199 HD  
ATOM     14  H12 UNL     1      -2.322  -1.901   0.762  1.00  0.00     0.199 HD  
BRANCH  12  15
ATOM     15  C6  UNL     1      -2.125   0.106   0.241  1.00  0.00     0.164 C   
BRANCH  15  16
ATOM     16  C7  UNL     1      -3.580   0.406   0.478  1.00  0.00    -0.002 A   
ATOM     17  C8  UNL     1      -3.961   1.534   1.242  1.00  0.00     0.012 A   
ATOM     18  C12 UNL     1      -4.573  -0.440  -0.049  1.00  0.00     0.045 A   
ATOM     19  C9  UNL     1      -5.310   1.817   1.481  1.00  0.00     0.037 A   
ATOM     20  C11 UNL     1      -5.893  -0.140   0.217  1.00  0.00     0.109 A   
ATOM     21  C10 UNL     1      -6.252   0.959   0.961  1.00  0.00     0.108 A   
ATOM     22  O1  UNL     1      -6.965  -0.860  -0.205  1.00  0.00    -0.316 OA  
ATOM     23  O2  UNL     1      -7.598   1.076   1.090  1.00  0.00    -0.316 OA  
ATOM     24  C13 UNL     1      -8.050  -0.075   0.341  1.00  0.00     0.337 C   
ENDBRANCH  15  16
ENDBRANCH  12  15
ENDBRANCH   7  12
ENDBRANCH   1   7
BRANCH   3  25
ATOM     25  C16 UNL     1       3.304   1.584   2.744  1.00  0.00     0.158 C   
BRANCH  25  26
ATOM     26  C17 UNL     1       4.280   0.742   3.591  1.00  0.00     0.186 C   
BRANCH  26  27
ATOM     27  O3  UNL     1       4.696  -0.453   2.926  1.00  0.00    -0.394 OA  
ATOM     28  H24 UNL     1       5.285  -0.929   3.541  1.00  0.00     0.210 HD  
ENDBRANCH  26  27
ENDBRANCH  25  26
BRANCH  25  29
ATOM     29  C18 UNL     1       3.857   2.252   1.491  1.00  0.00     0.013 A   
ATOM     30  C19 UNL     1       5.078   1.906   0.892  1.00  0.00     0.011 A   
ATOM     31  C23 UNL     1       3.105   3.277   0.892  1.00  0.00     0.131 A   
ATOM     32  C20 UNL     1       5.522   2.560  -0.264  1.00  0.00     0.034 A   
ATOM     33  C22 UNL     1       3.535   3.930  -0.257  1.00  0.00     0.072 A   
ATOM     34  C21 UNL     1       4.743   3.564  -0.830  1.00  0.00     0.074 A   
ATOM     35  F1  UNL     1       1.927   3.630   1.425  1.00  0.00    -0.207 F   
BRANCH  34  36
ATOM     36  O4  UNL     1       5.127   4.216  -1.961  1.00  0.00    -0.361 OA  
ATOM     37  H27 UNL     1       6.004   3.898  -2.240  1.00  0.00     0.218 HD  
ENDBRANCH  34  36
ENDBRANCH  25  29
ENDBRANCH   3  25
TORSDOF 11
