REMARK SMILES Cc1cc(Cn2cc([C@@H]([NH2+]Cc3ccc4c(c3)OCO4)C(C)C)nn2)nn1C
REMARK SMILES IDX 6 1 7 2 8 3 24 4 25 5 5 7 4 8 2 9 3 10 27 11 26 12 1 13
REMARK SMILES IDX 28 14 9 15 10 16 11 19 12 20 13 21 17 22 14 23 16 24 15 25
REMARK SMILES IDX 18 26 20 27 19 28 21 29 22 30 23 31
REMARK H PARENT 7 6 10 17 10 18
ROOT
ATOM     1   N1  UNL     1      -0.898  -2.693   0.940  1.00  0.00    -0.206 N   
ATOM     2   C6  UNL     1       0.353  -2.491   0.420  1.00  0.00     0.046 A   
ATOM     3   C7  UNL     1       0.255  -1.284  -0.232  1.00  0.00     0.127 A   
ATOM     4   N3  UNL     1      -1.035  -0.823  -0.132  1.00  0.00    -0.132 NA  
ATOM     5   N4  UNL     1      -1.734  -1.702   0.567  1.00  0.00    -0.076 NA  
ATOM     6   H7  UNL     1       1.164  -3.186   0.596  1.00  0.00     0.083 HD  
ENDROOT
BRANCH   1   7
ATOM     7   C5  UNL     1      -1.372  -3.813   1.733  1.00  0.00     0.191 C   
BRANCH   7   8
ATOM     8   C4  UNL     1      -0.810  -3.745   3.110  1.00  0.00     0.080 A   
ATOM     9   C2  UNL     1      -0.502  -3.400   5.282  1.00  0.00     0.027 A   
ATOM     10  C3  UNL     1      -1.408  -3.191   4.264  1.00  0.00     0.047 A   
ATOM     11  N6  UNL     1       0.554  -4.057   4.706  1.00  0.00    -0.233 N   
ATOM     12  N5  UNL     1       0.402  -4.252   3.380  1.00  0.00    -0.185 NA  
ATOM     13  C1  UNL     1      -0.565  -3.048   6.721  1.00  0.00     0.063 C   
ATOM     14  C20 UNL     1       1.754  -4.525   5.362  1.00  0.00     0.159 C   
ENDBRANCH   7   8
ENDBRANCH   1   7
BRANCH   3  15
ATOM     15  C8  UNL     1       1.273  -0.480  -0.978  1.00  0.00     0.117 C   
BRANCH  15  16
ATOM     16  N2  UNL     1       0.593   0.517  -1.878  1.00  0.00     0.249 N   
ATOM     17  H9  UNL     1      -0.188   0.915  -1.335  1.00  0.00     0.199 HD  
ATOM     18  H10 UNL     1       1.202   1.303  -2.122  1.00  0.00     0.199 HD  
BRANCH  16  19
ATOM     19  C9  UNL     1       0.010  -0.048  -3.126  1.00  0.00     0.164 C   
BRANCH  19  20
ATOM     20  C10 UNL     1      -0.760   1.008  -3.867  1.00  0.00    -0.002 A   
ATOM     21  C11 UNL     1      -2.111   1.267  -3.527  1.00  0.00     0.012 A   
ATOM     22  C15 UNL     1      -0.133   1.783  -4.856  1.00  0.00     0.045 A   
ATOM     23  C12 UNL     1      -2.832   2.278  -4.172  1.00  0.00     0.037 A   
ATOM     24  C14 UNL     1      -0.873   2.772  -5.471  1.00  0.00     0.109 A   
ATOM     25  C13 UNL     1      -2.184   3.012  -5.140  1.00  0.00     0.108 A   
ATOM     26  O1  UNL     1      -0.420   3.609  -6.441  1.00  0.00    -0.316 OA  
ATOM     27  O2  UNL     1      -2.723   4.028  -5.862  1.00  0.00    -0.316 OA  
ATOM     28  C16 UNL     1      -1.607   4.393  -6.702  1.00  0.00     0.337 C   
ENDBRANCH  19  20
ENDBRANCH  16  19
ENDBRANCH  15  16
BRANCH  15  29
ATOM     29  C17 UNL     1       2.260   0.244  -0.024  1.00  0.00     0.037 C   
ATOM     30  C18 UNL     1       1.613   1.357   0.810  1.00  0.00     0.014 C   
ATOM     31  C19 UNL     1       3.473   0.801  -0.779  1.00  0.00     0.014 C   
ENDBRANCH  15  29
ENDBRANCH   3  15
TORSDOF 7
