REMARK SMILES COc1ccc(C(=O)Cn2cc([C@@H]([NH2+]Cc3ccc4c(c3)OCO4)C3CCCC3)nn2)cc1
REMARK SMILES IDX 10 1 11 2 12 3 30 4 31 5 9 7 7 8 8 9 6 10 3 11 4 12 33 13
REMARK SMILES IDX 5 14 32 15 2 16 1 17 13 18 14 19 15 22 16 23 17 24 21 25
REMARK SMILES IDX 18 26 20 27 19 28 22 29 24 30 23 31 25 32 26 33 29 34 27 35
REMARK SMILES IDX 28 36
REMARK H PARENT 11 6 14 20 14 21
ROOT
ATOM     1   N1  UNL     1       0.165   0.853  -1.338  1.00  0.00    -0.204 N   
ATOM     2   C8  UNL     1       1.392   0.420  -1.758  1.00  0.00     0.046 A   
ATOM     3   C9  UNL     1       1.151  -0.846  -2.238  1.00  0.00     0.127 A   
ATOM     4   N3  UNL     1      -0.189  -1.125  -2.124  1.00  0.00    -0.132 NA  
ATOM     5   N4  UNL     1      -0.781  -0.077  -1.574  1.00  0.00    -0.076 NA  
ATOM     6   H8  UNL     1       2.287   1.016  -1.640  1.00  0.00     0.083 HD  
ENDROOT
BRANCH   1   7
ATOM     7   C7  UNL     1      -0.185   2.126  -0.749  1.00  0.00     0.214 C   
BRANCH   7   8
ATOM     8   C6  UNL     1       0.415   2.263   0.628  1.00  0.00     0.182 C   
ATOM     9   O2  UNL     1       1.631   2.360   0.793  1.00  0.00    -0.292 OA  
BRANCH   8  10
ATOM     10  C5  UNL     1      -0.480   2.290   1.815  1.00  0.00     0.019 A   
ATOM     11  C2  UNL     1      -2.064   2.342   4.131  1.00  0.00     0.075 A   
ATOM     12  C3  UNL     1      -0.857   3.043   4.084  1.00  0.00     0.034 A   
ATOM     13  C25 UNL     1      -2.476   1.613   3.014  1.00  0.00     0.034 A   
ATOM     14  C4  UNL     1      -0.065   3.019   2.934  1.00  0.00     0.014 A   
ATOM     15  C24 UNL     1      -1.685   1.582   1.857  1.00  0.00     0.014 A   
BRANCH  11  16
ATOM     16  O1  UNL     1      -2.731   2.442   5.318  1.00  0.00    -0.349 OA  
ATOM     17  C1  UNL     1      -3.984   1.778   5.420  1.00  0.00     0.203 C   
ENDBRANCH  11  16
ENDBRANCH   8  10
ENDBRANCH   7   8
ENDBRANCH   1   7
BRANCH   3  18
ATOM     18  C10 UNL     1       2.081  -1.890  -2.766  1.00  0.00     0.117 C   
BRANCH  18  19
ATOM     19  N2  UNL     1       1.600  -3.265  -2.356  1.00  0.00     0.249 N   
ATOM     20  H10 UNL     1       0.576  -3.188  -2.264  1.00  0.00     0.199 HD  
ATOM     21  H11 UNL     1       1.766  -3.948  -3.100  1.00  0.00     0.199 HD  
BRANCH  19  22
ATOM     22  C11 UNL     1       2.148  -3.810  -1.079  1.00  0.00     0.164 C   
BRANCH  22  23
ATOM     23  C12 UNL     1       1.827  -2.982   0.134  1.00  0.00    -0.002 A   
ATOM     24  C13 UNL     1       0.503  -2.916   0.632  1.00  0.00     0.012 A   
ATOM     25  C17 UNL     1       2.835  -2.223   0.754  1.00  0.00     0.045 A   
ATOM     26  C14 UNL     1       0.180  -2.088   1.713  1.00  0.00     0.037 A   
ATOM     27  C16 UNL     1       2.482  -1.414   1.812  1.00  0.00     0.109 A   
ATOM     28  C15 UNL     1       1.192  -1.343   2.275  1.00  0.00     0.108 A   
ATOM     29  O3  UNL     1       3.329  -0.606   2.501  1.00  0.00    -0.316 OA  
ATOM     30  O4  UNL     1       1.060  -0.474   3.309  1.00  0.00    -0.316 OA  
ATOM     31  C18 UNL     1       2.420  -0.004   3.449  1.00  0.00     0.337 C   
ENDBRANCH  22  23
ENDBRANCH  19  22
ENDBRANCH  18  19
BRANCH  18  32
ATOM     32  C19 UNL     1       2.217  -1.798  -4.299  1.00  0.00     0.043 C   
ATOM     33  C20 UNL     1       3.346  -2.658  -4.887  1.00  0.00     0.010 C   
ATOM     34  C23 UNL     1       0.992  -2.207  -5.120  1.00  0.00     0.010 C   
ATOM     35  C21 UNL     1       2.922  -2.989  -6.320  1.00  0.00     0.001 C   
ATOM     36  C22 UNL     1       1.561  -2.335  -6.525  1.00  0.00     0.001 C   
ENDBRANCH  18  32
ENDBRANCH   3  18
TORSDOF 9
