REMARK SMILES CC(C)[C@H]([NH2+]Cc1ccc2c(c1)OCO2)c1cn(Cc2ccc(N(C)C)nc2)nn1
REMARK SMILES IDX 16 1 17 2 18 3 29 4 30 5 4 7 2 8 1 9 3 10 5 11 6 14 7 15
REMARK SMILES IDX 8 16 12 17 9 18 11 19 10 20 13 21 15 22 14 23 19 24 20 25
REMARK SMILES IDX 21 26 28 27 22 28 27 29 23 30 24 31 25 32 26 33
REMARK H PARENT 17 6 5 12 5 13
ROOT
ATOM     1   C13 UNL     1       0.694  -1.167   2.380  1.00  0.00     0.127 A   
ATOM     2   C14 UNL     1      -0.659  -1.250   2.141  1.00  0.00     0.046 A   
ATOM     3   N2  UNL     1      -1.180  -0.181   2.822  1.00  0.00    -0.208 N   
ATOM     4   N5  UNL     1      -0.216   0.470   3.503  1.00  0.00    -0.076 NA  
ATOM     5   N6  UNL     1       0.936  -0.130   3.245  1.00  0.00    -0.132 NA  
ATOM     6   H18 UNL     1      -1.264  -1.883   1.506  1.00  0.00     0.083 HD  
ENDROOT
BRANCH   1   7
ATOM     7   C4  UNL     1       1.835  -1.917   1.772  1.00  0.00     0.117 C   
BRANCH   7   8
ATOM     8   C2  UNL     1       2.256  -3.148   2.616  1.00  0.00     0.037 C   
ATOM     9   C1  UNL     1       3.192  -4.076   1.833  1.00  0.00     0.014 C   
ATOM     10  C3  UNL     1       2.892  -2.800   3.967  1.00  0.00     0.014 C   
ENDBRANCH   7   8
BRANCH   7  11
ATOM     11  N1  UNL     1       3.018  -1.004   1.539  1.00  0.00     0.249 N   
ATOM     12  H9  UNL     1       3.242  -0.574   2.444  1.00  0.00     0.199 HD  
ATOM     13  H10 UNL     1       3.833  -1.544   1.245  1.00  0.00     0.199 HD  
BRANCH  11  14
ATOM     14  C5  UNL     1       2.811   0.121   0.572  1.00  0.00     0.164 C   
BRANCH  14  15
ATOM     15  C6  UNL     1       2.427  -0.330  -0.809  1.00  0.00    -0.002 A   
ATOM     16  C7  UNL     1       1.154   0.004  -1.334  1.00  0.00     0.012 A   
ATOM     17  C11 UNL     1       3.317  -1.088  -1.589  1.00  0.00     0.045 A   
ATOM     18  C8  UNL     1       0.767  -0.411  -2.612  1.00  0.00     0.037 A   
ATOM     19  C10 UNL     1       2.903  -1.484  -2.844  1.00  0.00     0.109 A   
ATOM     20  C9  UNL     1       1.667  -1.154  -3.343  1.00  0.00     0.108 A   
ATOM     21  O1  UNL     1       3.636  -2.223  -3.718  1.00  0.00    -0.316 OA  
ATOM     22  O2  UNL     1       1.468  -1.640  -4.595  1.00  0.00    -0.316 OA  
ATOM     23  C12 UNL     1       2.738  -2.278  -4.849  1.00  0.00     0.337 C   
ENDBRANCH  14  15
ENDBRANCH  11  14
ENDBRANCH   7  11
ENDBRANCH   1   7
BRANCH   3  24
ATOM     24  C15 UNL     1      -2.510   0.397   2.682  1.00  0.00     0.171 C   
BRANCH  24  25
ATOM     25  C16 UNL     1      -2.675   0.941   1.290  1.00  0.00    -0.010 A   
ATOM     26  C17 UNL     1      -3.585   0.395   0.389  1.00  0.00     0.010 A   
ATOM     27  C22 UNL     1      -1.859   1.960   0.816  1.00  0.00     0.118 A   
ATOM     28  C18 UNL     1      -3.611   0.862  -0.927  1.00  0.00     0.045 A   
ATOM     29  N4  UNL     1      -1.852   2.396  -0.464  1.00  0.00    -0.241 NA  
ATOM     30  C19 UNL     1      -2.734   1.867  -1.342  1.00  0.00     0.119 A   
BRANCH  30  31
ATOM     31  N3  UNL     1      -2.720   2.295  -2.683  1.00  0.00    -0.322 N   
ATOM     32  C20 UNL     1      -4.037   2.671  -3.201  1.00  0.00     0.131 C   
ATOM     33  C21 UNL     1      -1.673   3.278  -2.968  1.00  0.00     0.131 C   
ENDBRANCH  30  31
ENDBRANCH  24  25
ENDBRANCH   3  24
TORSDOF 8
