REMARK SMILES CC(C)(C)[C@H]([NH2+]Cc1ccc2c(c1)OCO2)c1cn([C@H](CO)c2ccccc2O)nn1
REMARK SMILES IDX 17 1 18 2 19 3 30 4 31 5 5 7 2 8 1 9 3 10 4 11 6 12 7 15
REMARK SMILES IDX 8 16 9 17 13 18 10 19 12 20 11 21 14 22 16 23 15 24 20 25
REMARK SMILES IDX 21 26 22 27 23 29 24 30 28 31 25 32 27 33 26 34 29 35
REMARK H PARENT 18 6 6 13 6 14 22 28 29 36
ROOT
ATOM     1   C14 UNL     1      -0.306   0.189   0.938  1.00  0.00     0.127 A   
ATOM     2   C15 UNL     1       0.302  -0.291   2.075  1.00  0.00     0.046 A   
ATOM     3   N2  UNL     1       1.197  -1.219   1.610  1.00  0.00    -0.202 N   
ATOM     4   N3  UNL     1       1.169  -1.271   0.260  1.00  0.00    -0.075 NA  
ATOM     5   N4  UNL     1       0.246  -0.423  -0.160  1.00  0.00    -0.132 NA  
ATOM     6   H20 UNL     1       0.190  -0.083   3.129  1.00  0.00     0.083 HD  
ENDROOT
BRANCH   1   7
ATOM     7   C5  UNL     1      -1.337   1.258   0.741  1.00  0.00     0.120 C   
BRANCH   7   8
ATOM     8   C2  UNL     1      -2.816   0.734   0.756  1.00  0.00     0.010 C   
ATOM     9   C1  UNL     1      -3.111   0.008   2.088  1.00  0.00     0.017 C   
ATOM     10  C3  UNL     1      -3.113  -0.239  -0.403  1.00  0.00     0.017 C   
ATOM     11  C4  UNL     1      -3.808   1.917   0.662  1.00  0.00     0.017 C   
ENDBRANCH   7   8
BRANCH   7  12
ATOM     12  N1  UNL     1      -1.043   1.968  -0.560  1.00  0.00     0.250 N   
ATOM     13  H11 UNL     1      -1.847   2.486  -0.920  1.00  0.00     0.199 HD  
ATOM     14  H12 UNL     1      -0.843   1.229  -1.251  1.00  0.00     0.199 HD  
BRANCH  12  15
ATOM     15  C6  UNL     1       0.142   2.872  -0.539  1.00  0.00     0.164 C   
BRANCH  15  16
ATOM     16  C7  UNL     1       0.391   3.434  -1.910  1.00  0.00    -0.002 A   
ATOM     17  C8  UNL     1      -0.115   4.705  -2.270  1.00  0.00     0.012 A   
ATOM     18  C12 UNL     1       1.086   2.668  -2.863  1.00  0.00     0.045 A   
ATOM     19  C9  UNL     1       0.073   5.213  -3.560  1.00  0.00     0.037 A   
ATOM     20  C11 UNL     1       1.250   3.197  -4.126  1.00  0.00     0.109 A   
ATOM     21  C10 UNL     1       0.758   4.433  -4.465  1.00  0.00     0.108 A   
ATOM     22  O1  UNL     1       1.888   2.590  -5.160  1.00  0.00    -0.316 OA  
ATOM     23  O2  UNL     1       1.027   4.761  -5.755  1.00  0.00    -0.316 OA  
ATOM     24  C13 UNL     1       1.747   3.590  -6.194  1.00  0.00     0.337 C   
ENDBRANCH  15  16
ENDBRANCH  12  15
ENDBRANCH   7  12
ENDBRANCH   1   7
BRANCH   3  25
ATOM     25  C16 UNL     1       2.116  -2.044   2.394  1.00  0.00     0.158 C   
BRANCH  25  26
ATOM     26  C17 UNL     1       3.582  -1.783   2.000  1.00  0.00     0.186 C   
BRANCH  26  27
ATOM     27  O3  UNL     1       3.982  -0.469   2.407  1.00  0.00    -0.394 OA  
ATOM     28  H24 UNL     1       4.948  -0.415   2.275  1.00  0.00     0.210 HD  
ENDBRANCH  26  27
ENDBRANCH  25  26
BRANCH  25  29
ATOM     29  C18 UNL     1       1.683  -3.501   2.333  1.00  0.00     0.007 A   
ATOM     30  C19 UNL     1       2.158  -4.375   1.341  1.00  0.00     0.008 A   
ATOM     31  C23 UNL     1       0.757  -4.002   3.260  1.00  0.00     0.076 A   
ATOM     32  C20 UNL     1       1.742  -5.708   1.302  1.00  0.00     0.001 A   
ATOM     33  C22 UNL     1       0.338  -5.332   3.225  1.00  0.00     0.033 A   
ATOM     34  C21 UNL     1       0.837  -6.186   2.245  1.00  0.00     0.003 A   
BRANCH  31  35
ATOM     35  O4  UNL     1       0.251  -3.156   4.209  1.00  0.00    -0.361 OA  
ATOM     36  H29 UNL     1      -0.313  -3.674   4.810  1.00  0.00     0.218 HD  
ENDBRANCH  31  35
ENDBRANCH  25  29
ENDBRANCH   3  25
TORSDOF 10
