REMARK SMILES CC(C)(C)[C@H]([NH2+]Cc1ccc2c(c1)OCO2)c1cn([C@@H](CO)c2ccccc2O)nn1
REMARK SMILES IDX 17 1 18 2 19 3 30 4 31 5 5 7 2 8 1 9 3 10 4 11 6 12 7 15
REMARK SMILES IDX 8 16 9 17 13 18 10 19 12 20 11 21 14 22 16 23 15 24 20 25
REMARK SMILES IDX 21 26 22 27 23 29 24 30 28 31 25 32 27 33 26 34 29 35
REMARK H PARENT 18 6 6 13 6 14 22 28 29 36
ROOT
ATOM     1   C14 UNL     1      -0.387   0.826   0.533  1.00  0.00     0.127 A   
ATOM     2   C15 UNL     1      -1.542   1.514   0.829  1.00  0.00     0.046 A   
ATOM     3   N2  UNL     1      -1.877   2.132  -0.347  1.00  0.00    -0.202 N   
ATOM     4   N3  UNL     1      -0.985   1.816  -1.314  1.00  0.00    -0.075 NA  
ATOM     5   N4  UNL     1      -0.071   1.022  -0.785  1.00  0.00    -0.132 NA  
ATOM     6   H20 UNL     1      -2.128   1.627   1.730  1.00  0.00     0.083 HD  
ENDROOT
BRANCH   1   7
ATOM     7   C5  UNL     1       0.463  -0.090   1.359  1.00  0.00     0.120 C   
BRANCH   7   8
ATOM     8   C2  UNL     1       1.635   0.628   2.116  1.00  0.00     0.010 C   
ATOM     9   C1  UNL     1       2.359  -0.368   3.053  1.00  0.00     0.017 C   
ATOM     10  C3  UNL     1       1.080   1.761   3.010  1.00  0.00     0.017 C   
ATOM     11  C4  UNL     1       2.679   1.236   1.157  1.00  0.00     0.017 C   
ENDBRANCH   7   8
BRANCH   7  12
ATOM     12  N1  UNL     1       1.006  -1.177   0.460  1.00  0.00     0.250 N   
ATOM     13  H11 UNL     1       1.325  -0.705  -0.401  1.00  0.00     0.199 HD  
ATOM     14  H12 UNL     1       1.827  -1.643   0.851  1.00  0.00     0.199 HD  
BRANCH  12  15
ATOM     15  C6  UNL     1       0.018  -2.210   0.040  1.00  0.00     0.164 C   
BRANCH  15  16
ATOM     16  C7  UNL     1       0.669  -3.215  -0.869  1.00  0.00    -0.002 A   
ATOM     17  C8  UNL     1       1.199  -4.417  -0.345  1.00  0.00     0.012 A   
ATOM     18  C12 UNL     1       0.805  -2.935  -2.240  1.00  0.00     0.045 A   
ATOM     19  C9  UNL     1       1.849  -5.337  -1.177  1.00  0.00     0.037 A   
ATOM     20  C11 UNL     1       1.453  -3.861  -3.031  1.00  0.00     0.109 A   
ATOM     21  C10 UNL     1       1.961  -5.027  -2.515  1.00  0.00     0.108 A   
ATOM     22  O1  UNL     1       1.675  -3.743  -4.365  1.00  0.00    -0.316 OA  
ATOM     23  O2  UNL     1       2.564  -5.794  -3.459  1.00  0.00    -0.316 OA  
ATOM     24  C13 UNL     1       2.367  -4.982  -4.639  1.00  0.00     0.337 C   
ENDBRANCH  15  16
ENDBRANCH  12  15
ENDBRANCH   7  12
ENDBRANCH   1   7
BRANCH   3  25
ATOM     25  C16 UNL     1      -2.991   3.033  -0.644  1.00  0.00     0.158 C   
BRANCH  25  26
ATOM     26  C17 UNL     1      -4.346   2.512  -0.126  1.00  0.00     0.186 C   
BRANCH  26  27
ATOM     27  O3  UNL     1      -4.746   1.343  -0.849  1.00  0.00    -0.394 OA  
ATOM     28  H24 UNL     1      -5.686   1.189  -0.645  1.00  0.00     0.210 HD  
ENDBRANCH  26  27
ENDBRANCH  25  26
BRANCH  25  29
ATOM     29  C18 UNL     1      -2.636   4.451  -0.219  1.00  0.00     0.007 A   
ATOM     30  C19 UNL     1      -2.113   5.331  -1.186  1.00  0.00     0.008 A   
ATOM     31  C23 UNL     1      -2.772   4.926   1.092  1.00  0.00     0.076 A   
ATOM     32  C20 UNL     1      -1.758   6.640  -0.854  1.00  0.00     0.001 A   
ATOM     33  C22 UNL     1      -2.421   6.235   1.429  1.00  0.00     0.033 A   
ATOM     34  C21 UNL     1      -1.915   7.092   0.453  1.00  0.00     0.003 A   
BRANCH  31  35
ATOM     35  O4  UNL     1      -3.245   4.091   2.066  1.00  0.00    -0.361 OA  
ATOM     36  H29 UNL     1      -3.338   4.605   2.888  1.00  0.00     0.218 HD  
ENDBRANCH  31  35
ENDBRANCH  25  29
ENDBRANCH   3  25
TORSDOF 10
