REMARK SMILES Cc1cc(N([O-])[O-])ccc1-n1cc([C@@H]([NH2+]Cc2ccc3c(c2)OCO3)C(C)(C)C)nn1
REMARK SMILES IDX 11 1 12 2 13 3 30 4 31 5 10 6 2 7 3 8 4 9 9 10 8 11 1 12
REMARK SMILES IDX 5 13 6 14 7 15 14 16 15 17 16 20 17 21 18 22 22 23 19 24
REMARK SMILES IDX 21 25 20 26 23 27 25 28 24 29 26 30 27 31 28 32 29 33
REMARK H PARENT 15 18 15 19
ROOT
ATOM     1   N2  UNL     1       0.551  -0.422  -1.952  1.00  0.00    -0.180 N   
ATOM     2   C8  UNL     1      -0.063  -1.131  -0.928  1.00  0.00     0.135 A   
ATOM     3   C9  UNL     1       0.336  -0.515   0.237  1.00  0.00     0.128 A   
ATOM     4   N4  UNL     1       1.193   0.499  -0.072  1.00  0.00    -0.131 NA  
ATOM     5   N5  UNL     1       1.325   0.536  -1.386  1.00  0.00    -0.071 NA  
ENDROOT
BRANCH   1   6
ATOM     6   C7  UNL     1       0.449  -0.620  -3.365  1.00  0.00     0.061 A   
ATOM     7   C2  UNL     1       1.161   0.170  -4.305  1.00  0.00    -0.025 A   
ATOM     8   C3  UNL     1       0.999  -0.094  -5.684  1.00  0.00     0.036 A   
ATOM     9   C4  UNL     1       0.151  -1.115  -6.128  1.00  0.00     0.118 A   
ATOM     10  C6  UNL     1      -0.402  -1.644  -3.839  1.00  0.00     0.028 A   
ATOM     11  C5  UNL     1      -0.551  -1.891  -5.208  1.00  0.00     0.033 A   
ATOM     12  C1  UNL     1       2.099   1.297  -3.948  1.00  0.00     0.046 C   
BRANCH   9  13
ATOM     13  N1  UNL     1      -0.002  -1.370  -7.567  1.00  0.00     0.092 N   
ATOM     14  O1  UNL     1      -0.784  -2.268  -7.908  1.00  0.00    -0.138 OA  
ATOM     15  O2  UNL     1       0.661  -0.674  -8.349  1.00  0.00    -0.138 OA  
ENDBRANCH   9  13
ENDBRANCH   1   6
BRANCH   3  16
ATOM     16  C10 UNL     1       0.044  -0.817   1.679  1.00  0.00     0.120 C   
BRANCH  16  17
ATOM     17  N3  UNL     1       1.257  -0.460   2.507  1.00  0.00     0.250 N   
ATOM     18  H9  UNL     1       1.037  -0.336   3.498  1.00  0.00     0.199 HD  
ATOM     19  H10 UNL     1       1.583   0.461   2.174  1.00  0.00     0.199 HD  
BRANCH  17  20
ATOM     20  C11 UNL     1       2.410  -1.397   2.395  1.00  0.00     0.164 C   
BRANCH  20  21
ATOM     21  C12 UNL     1       3.575  -0.890   3.197  1.00  0.00    -0.002 A   
ATOM     22  C13 UNL     1       3.780  -1.331   4.526  1.00  0.00     0.012 A   
ATOM     23  C17 UNL     1       4.439   0.072   2.645  1.00  0.00     0.045 A   
ATOM     24  C14 UNL     1       4.837  -0.830   5.293  1.00  0.00     0.037 A   
ATOM     25  C16 UNL     1       5.470   0.546   3.429  1.00  0.00     0.109 A   
ATOM     26  C15 UNL     1       5.664   0.108   4.716  1.00  0.00     0.108 A   
ATOM     27  O3  UNL     1       6.389   1.472   3.052  1.00  0.00    -0.316 OA  
ATOM     28  O4  UNL     1       6.731   0.702   5.310  1.00  0.00    -0.316 OA  
ATOM     29  C18 UNL     1       7.204   1.553   4.243  1.00  0.00     0.337 C   
ENDBRANCH  20  21
ENDBRANCH  17  20
ENDBRANCH  16  17
BRANCH  16  30
ATOM     30  C19 UNL     1      -1.230  -0.092   2.241  1.00  0.00     0.010 C   
ATOM     31  C20 UNL     1      -1.532  -0.573   3.680  1.00  0.00     0.017 C   
ATOM     32  C21 UNL     1      -2.469  -0.441   1.385  1.00  0.00     0.017 C   
ATOM     33  C22 UNL     1      -1.075   1.442   2.267  1.00  0.00     0.017 C   
ENDBRANCH  16  30
ENDBRANCH   3  16
TORSDOF 7
