REMARK SMILES COc1ccc(Cn2cc([C@@H]([NH2+]Cc3ccc4c(c3)OCO4)C3CCCC3)nn2)nc1
REMARK SMILES IDX 8 1 9 2 10 3 28 4 29 5 7 7 6 8 3 9 4 10 31 11 5 12 30 13
REMARK SMILES IDX 2 14 1 15 11 16 12 17 13 20 14 21 15 22 19 23 16 24 18 25
REMARK SMILES IDX 17 26 20 27 22 28 21 29 23 30 24 31 27 32 25 33 26 34
REMARK H PARENT 9 6 12 18 12 19
ROOT
ATOM     1   N1  UNL     1       0.003   0.709  -2.732  1.00  0.00    -0.206 N   
ATOM     2   C7  UNL     1      -0.710  -0.249  -2.064  1.00  0.00     0.046 A   
ATOM     3   C8  UNL     1      -0.030  -0.404  -0.878  1.00  0.00     0.127 A   
ATOM     4   N3  UNL     1       1.077   0.406  -0.888  1.00  0.00    -0.132 NA  
ATOM     5   N4  UNL     1       1.100   1.063  -2.036  1.00  0.00    -0.076 NA  
ATOM     6   H8  UNL     1      -1.623  -0.665  -2.463  1.00  0.00     0.083 HD  
ENDROOT
BRANCH   1   7
ATOM     7   C6  UNL     1      -0.306   1.329  -4.005  1.00  0.00     0.190 C   
BRANCH   7   8
ATOM     8   C5  UNL     1      -1.274   2.463  -3.797  1.00  0.00     0.060 A   
ATOM     9   C2  UNL     1      -3.098   4.491  -3.341  1.00  0.00     0.093 A   
ATOM     10  C3  UNL     1      -1.738   4.789  -3.389  1.00  0.00     0.037 A   
ATOM     11  C23 UNL     1      -3.464   3.163  -3.527  1.00  0.00     0.144 A   
ATOM     12  C4  UNL     1      -0.815   3.767  -3.618  1.00  0.00     0.028 A   
ATOM     13  N5  UNL     1      -2.593   2.144  -3.745  1.00  0.00    -0.257 NA  
BRANCH   9  14
ATOM     14  O1  UNL     1      -4.117   5.370  -3.119  1.00  0.00    -0.348 OA  
ATOM     15  C1  UNL     1      -3.765   6.745  -2.988  1.00  0.00     0.203 C   
ENDBRANCH   9  14
ENDBRANCH   7   8
ENDBRANCH   1   7
BRANCH   3  16
ATOM     16  C9  UNL     1      -0.319  -1.252   0.322  1.00  0.00     0.117 C   
BRANCH  16  17
ATOM     17  N2  UNL     1       0.888  -1.297   1.221  1.00  0.00     0.249 N   
ATOM     18  H10 UNL     1       0.649  -1.484   2.199  1.00  0.00     0.199 HD  
ATOM     19  H11 UNL     1       1.298  -0.348   1.206  1.00  0.00     0.199 HD  
BRANCH  17  20
ATOM     20  C10 UNL     1       1.966  -2.235   0.796  1.00  0.00     0.164 C   
BRANCH  20  21
ATOM     21  C11 UNL     1       3.177  -2.060   1.670  1.00  0.00    -0.002 A   
ATOM     22  C12 UNL     1       4.205  -1.165   1.285  1.00  0.00     0.012 A   
ATOM     23  C16 UNL     1       3.263  -2.725   2.905  1.00  0.00     0.045 A   
ATOM     24  C13 UNL     1       5.312  -0.944   2.112  1.00  0.00     0.037 A   
ATOM     25  C15 UNL     1       4.364  -2.478   3.698  1.00  0.00     0.109 A   
ATOM     26  C14 UNL     1       5.361  -1.615   3.313  1.00  0.00     0.108 A   
ATOM     27  O2  UNL     1       4.593  -3.026   4.921  1.00  0.00    -0.316 OA  
ATOM     28  O3  UNL     1       6.348  -1.514   4.242  1.00  0.00    -0.316 OA  
ATOM     29  C17 UNL     1       5.865  -2.422   5.256  1.00  0.00     0.337 C   
ENDBRANCH  20  21
ENDBRANCH  17  20
ENDBRANCH  16  17
BRANCH  16  30
ATOM     30  C18 UNL     1      -1.556  -0.743   1.091  1.00  0.00     0.043 C   
ATOM     31  C19 UNL     1      -1.392   0.590   1.828  1.00  0.00     0.010 C   
ATOM     32  C22 UNL     1      -2.049  -1.675   2.202  1.00  0.00     0.010 C   
ATOM     33  C20 UNL     1      -2.623   0.649   2.727  1.00  0.00     0.001 C   
ATOM     34  C21 UNL     1      -2.968  -0.803   3.059  1.00  0.00     0.001 C   
ENDBRANCH  16  30
ENDBRANCH   3  16
TORSDOF 8
