REMARK SMILES c1nc(C2CC2)c(Cn2cc([C@@H]([NH2+]Cc3ccc4c(c3)OCO4)C3CCCCC3)nn2)s1
REMARK SMILES IDX 9 1 10 2 11 3 30 4 31 5 8 7 7 8 1 9 2 10 32 11 3 12 4 13
REMARK SMILES IDX 5 14 6 15 12 16 13 17 14 20 15 21 16 22 20 23 17 24 19 25
REMARK SMILES IDX 18 26 21 27 23 28 22 29 24 30 25 31 29 32 26 33 28 34 27 35
REMARK H PARENT 10 6 13 18 13 19
ROOT
ATOM     1   N2  UNL     1       1.147   2.893   1.198  1.00  0.00    -0.207 N   
ATOM     2   C8  UNL     1       0.861   1.938   0.259  1.00  0.00     0.046 A   
ATOM     3   C9  UNL     1       0.539   0.825   1.004  1.00  0.00     0.127 A   
ATOM     4   N4  UNL     1       0.677   1.121   2.336  1.00  0.00    -0.132 NA  
ATOM     5   N5  UNL     1       1.069   2.379   2.441  1.00  0.00    -0.076 NA  
ATOM     6   H9  UNL     1       0.887   2.143  -0.802  1.00  0.00     0.083 HD  
ENDROOT
BRANCH   1   7
ATOM     7   C7  UNL     1       1.532   4.282   0.990  1.00  0.00     0.178 C   
BRANCH   7   8
ATOM     8   C6  UNL     1       0.415   5.054   0.375  1.00  0.00     0.032 A   
ATOM     9   C1  UNL     1      -1.028   6.339  -1.082  1.00  0.00     0.157 A   
ATOM     10  N1  UNL     1      -1.644   6.119   0.057  1.00  0.00    -0.253 NA  
ATOM     11  S1  UNL     1       0.546   5.676  -1.223  1.00  0.00    -0.079 S   
ATOM     12  C2  UNL     1      -0.814   5.412   0.897  1.00  0.00     0.056 A   
BRANCH  12  13
ATOM     13  C3  UNL     1      -1.281   5.036   2.335  1.00  0.00     0.039 C   
ATOM     14  C4  UNL     1      -2.022   6.065   3.147  1.00  0.00     0.011 C   
ATOM     15  C5  UNL     1      -0.620   5.689   3.521  1.00  0.00     0.011 C   
ENDBRANCH  12  13
ENDBRANCH   7   8
ENDBRANCH   1   7
BRANCH   3  16
ATOM     16  C10 UNL     1       0.113  -0.550   0.595  1.00  0.00     0.117 C   
BRANCH  16  17
ATOM     17  N3  UNL     1       0.425  -1.543   1.691  1.00  0.00     0.249 N   
ATOM     18  H11 UNL     1      -0.137  -2.391   1.595  1.00  0.00     0.199 HD  
ATOM     19  H12 UNL     1       0.141  -1.090   2.572  1.00  0.00     0.199 HD  
BRANCH  17  20
ATOM     20  C11 UNL     1       1.860  -1.925   1.841  1.00  0.00     0.164 C   
BRANCH  20  21
ATOM     21  C12 UNL     1       2.360  -2.763   0.697  1.00  0.00    -0.002 A   
ATOM     22  C13 UNL     1       1.918  -4.098   0.535  1.00  0.00     0.012 A   
ATOM     23  C17 UNL     1       3.254  -2.213  -0.238  1.00  0.00     0.045 A   
ATOM     24  C14 UNL     1       2.353  -4.872  -0.546  1.00  0.00     0.037 A   
ATOM     25  C16 UNL     1       3.662  -3.003  -1.292  1.00  0.00     0.109 A   
ATOM     26  C15 UNL     1       3.223  -4.295  -1.444  1.00  0.00     0.108 A   
ATOM     27  O1  UNL     1       4.512  -2.624  -2.281  1.00  0.00    -0.316 OA  
ATOM     28  O2  UNL     1       3.745  -4.894  -2.544  1.00  0.00    -0.316 OA  
ATOM     29  C18 UNL     1       4.588  -3.841  -3.058  1.00  0.00     0.337 C   
ENDBRANCH  20  21
ENDBRANCH  17  20
ENDBRANCH  16  17
BRANCH  16  30
ATOM     30  C19 UNL     1      -1.395  -0.609   0.229  1.00  0.00     0.043 C   
ATOM     31  C20 UNL     1      -2.340  -0.393   1.428  1.00  0.00     0.010 C   
ATOM     32  C24 UNL     1      -1.753  -1.918  -0.504  1.00  0.00     0.010 C   
ATOM     33  C21 UNL     1      -3.808  -0.427   1.001  1.00  0.00     0.001 C   
ATOM     34  C23 UNL     1      -3.221  -1.947  -0.924  1.00  0.00     0.001 C   
ATOM     35  C22 UNL     1      -4.151  -1.718   0.264  1.00  0.00     0.000 C   
ENDBRANCH  16  30
ENDBRANCH   3  16
TORSDOF 8
