REMARK SMILES Cc1cccc([C@H](CO)n2cc([C@@H]([NH2+]Cc3ccc4c(c3)OCO4)C3CCCC3)nn2)c1C
REMARK SMILES IDX 10 1 11 2 12 3 30 4 31 5 7 7 6 8 2 9 3 10 32 11 4 12 5 13
REMARK SMILES IDX 1 14 33 15 8 16 9 17 13 19 14 20 15 23 16 24 17 25 21 26
REMARK SMILES IDX 18 27 20 28 19 29 22 30 24 31 23 32 25 33 26 34 29 35 27 36
REMARK SMILES IDX 28 37
REMARK H PARENT 11 6 9 18 14 21 14 22
ROOT
ATOM     1   N1  UNL     1      -1.663   0.112   1.683  1.00  0.00    -0.202 N   
ATOM     2   C9  UNL     1      -0.533   0.874   1.850  1.00  0.00     0.046 A   
ATOM     3   C10 UNL     1      -0.231   1.307   0.579  1.00  0.00     0.127 A   
ATOM     4   N3  UNL     1      -1.170   0.829  -0.297  1.00  0.00    -0.132 NA  
ATOM     5   N4  UNL     1      -2.034   0.097   0.384  1.00  0.00    -0.075 NA  
ATOM     6   H11 UNL     1      -0.058   0.998   2.813  1.00  0.00     0.083 HD  
ENDROOT
BRANCH   1   7
ATOM     7   C7  UNL     1      -2.340  -0.707   2.693  1.00  0.00     0.155 C   
BRANCH   7   8
ATOM     8   C6  UNL     1      -1.827  -2.147   2.610  1.00  0.00    -0.020 A   
ATOM     9   C2  UNL     1      -0.518  -4.045   3.445  1.00  0.00    -0.048 A   
ATOM     10  C3  UNL     1      -0.936  -4.802   2.340  1.00  0.00     0.004 A   
ATOM     11  C25 UNL     1      -0.951  -2.703   3.584  1.00  0.00    -0.043 A   
ATOM     12  C4  UNL     1      -1.787  -4.258   1.386  1.00  0.00     0.001 A   
ATOM     13  C5  UNL     1      -2.228  -2.947   1.520  1.00  0.00     0.006 A   
ATOM     14  C1  UNL     1       0.394  -4.707   4.447  1.00  0.00     0.044 C   
ATOM     15  C26 UNL     1      -0.524  -1.886   4.781  1.00  0.00     0.045 C   
ENDBRANCH   7   8
BRANCH   7  16
ATOM     16  C8  UNL     1      -3.874  -0.595   2.621  1.00  0.00     0.185 C   
BRANCH  16  17
ATOM     17  O1  UNL     1      -4.293   0.686   3.102  1.00  0.00    -0.394 OA  
ATOM     18  H10 UNL     1      -5.267   0.681   3.111  1.00  0.00     0.210 HD  
ENDBRANCH  16  17
ENDBRANCH   7  16
ENDBRANCH   1   7
BRANCH   3  19
ATOM     19  C11 UNL     1       0.936   2.072   0.048  1.00  0.00     0.117 C   
BRANCH  19  20
ATOM     20  N2  UNL     1       1.297   1.539  -1.313  1.00  0.00     0.249 N   
ATOM     21  H13 UNL     1       1.840   2.205  -1.869  1.00  0.00     0.199 HD  
ATOM     22  H14 UNL     1       0.404   1.409  -1.814  1.00  0.00     0.199 HD  
BRANCH  20  23
ATOM     23  C12 UNL     1       1.988   0.217  -1.306  1.00  0.00     0.164 C   
BRANCH  23  24
ATOM     24  C13 UNL     1       2.067  -0.346  -2.696  1.00  0.00    -0.002 A   
ATOM     25  C14 UNL     1       3.244  -0.206  -3.466  1.00  0.00     0.012 A   
ATOM     26  C18 UNL     1       0.943  -0.983  -3.254  1.00  0.00     0.045 A   
ATOM     27  C15 UNL     1       3.308  -0.701  -4.774  1.00  0.00     0.037 A   
ATOM     28  C17 UNL     1       1.040  -1.458  -4.544  1.00  0.00     0.109 A   
ATOM     29  C16 UNL     1       2.188  -1.319  -5.284  1.00  0.00     0.108 A   
ATOM     30  O2  UNL     1       0.054  -2.094  -5.229  1.00  0.00    -0.316 OA  
ATOM     31  O3  UNL     1       2.071  -1.854  -6.527  1.00  0.00    -0.316 OA  
ATOM     32  C19 UNL     1       0.725  -2.376  -6.477  1.00  0.00     0.337 C   
ENDBRANCH  23  24
ENDBRANCH  20  23
ENDBRANCH  19  20
BRANCH  19  33
ATOM     33  C20 UNL     1       0.659   3.585  -0.006  1.00  0.00     0.043 C   
ATOM     34  C21 UNL     1       1.903   4.443  -0.270  1.00  0.00     0.010 C   
ATOM     35  C24 UNL     1      -0.317   4.063  -1.084  1.00  0.00     0.010 C   
ATOM     36  C22 UNL     1       1.378   5.768  -0.825  1.00  0.00     0.001 C   
ATOM     37  C23 UNL     1      -0.115   5.571  -1.077  1.00  0.00     0.001 C   
ENDBRANCH  19  33
ENDBRANCH   3  19
TORSDOF 9
