REMARK SMILES Cc1cccc([C@@H](CO)n2cc([C@@H]([NH2+]Cc3ccc4c(c3)OCO4)C3CCCC3)nn2)c1C
REMARK SMILES IDX 10 1 11 2 12 3 30 4 31 5 7 7 6 8 2 9 3 10 32 11 4 12 5 13
REMARK SMILES IDX 1 14 33 15 8 16 9 17 13 19 14 20 15 23 16 24 17 25 21 26
REMARK SMILES IDX 18 27 20 28 19 29 22 30 24 31 23 32 25 33 26 34 29 35 27 36
REMARK SMILES IDX 28 37
REMARK H PARENT 11 6 9 18 14 21 14 22
ROOT
ATOM     1   N1  UNL     1      -1.846  -0.385  -1.348  1.00  0.00    -0.202 N   
ATOM     2   C9  UNL     1      -0.863  -0.669  -0.439  1.00  0.00     0.046 A   
ATOM     3   C10 UNL     1      -1.045   0.261   0.558  1.00  0.00     0.127 A   
ATOM     4   N3  UNL     1      -2.107   1.065   0.236  1.00  0.00    -0.132 NA  
ATOM     5   N4  UNL     1      -2.591   0.661  -0.927  1.00  0.00    -0.075 NA  
ATOM     6   H11 UNL     1      -0.152  -1.469  -0.589  1.00  0.00     0.083 HD  
ENDROOT
BRANCH   1   7
ATOM     7   C7  UNL     1      -2.115  -1.013  -2.643  1.00  0.00     0.155 C   
BRANCH   7   8
ATOM     8   C6  UNL     1      -0.835  -1.090  -3.488  1.00  0.00    -0.020 A   
ATOM     9   C2  UNL     1       0.778  -0.113  -5.064  1.00  0.00    -0.048 A   
ATOM     10  C3  UNL     1       1.519  -1.302  -5.024  1.00  0.00     0.004 A   
ATOM     11  C25 UNL     1      -0.391   0.016  -4.272  1.00  0.00    -0.043 A   
ATOM     12  C4  UNL     1       1.107  -2.368  -4.236  1.00  0.00     0.001 A   
ATOM     13  C5  UNL     1      -0.058  -2.264  -3.482  1.00  0.00     0.006 A   
ATOM     14  C1  UNL     1       1.274   0.995  -5.959  1.00  0.00     0.044 C   
ATOM     15  C26 UNL     1      -1.188   1.302  -4.317  1.00  0.00     0.045 C   
ENDBRANCH   7   8
BRANCH   7  16
ATOM     16  C8  UNL     1      -2.928  -2.316  -2.468  1.00  0.00     0.185 C   
BRANCH  16  17
ATOM     17  O1  UNL     1      -2.322  -3.248  -1.571  1.00  0.00    -0.394 OA  
ATOM     18  H10 UNL     1      -2.897  -4.037  -1.556  1.00  0.00     0.210 HD  
ENDBRANCH  16  17
ENDBRANCH   7  16
ENDBRANCH   1   7
BRANCH   3  19
ATOM     19  C11 UNL     1      -0.241   0.537   1.783  1.00  0.00     0.117 C   
BRANCH  19  20
ATOM     20  N2  UNL     1      -0.135   2.030   2.019  1.00  0.00     0.249 N   
ATOM     21  H13 UNL     1      -1.099   2.386   2.066  1.00  0.00     0.199 HD  
ATOM     22  H14 UNL     1       0.305   2.210   2.926  1.00  0.00     0.199 HD  
BRANCH  20  23
ATOM     23  C12 UNL     1       0.567   2.823   0.964  1.00  0.00     0.164 C   
BRANCH  23  24
ATOM     24  C13 UNL     1       2.001   2.417   0.767  1.00  0.00    -0.002 A   
ATOM     25  C14 UNL     1       2.383   1.700  -0.394  1.00  0.00     0.012 A   
ATOM     26  C18 UNL     1       2.966   2.714   1.745  1.00  0.00     0.045 A   
ATOM     27  C15 UNL     1       3.705   1.279  -0.578  1.00  0.00     0.037 A   
ATOM     28  C17 UNL     1       4.260   2.285   1.532  1.00  0.00     0.109 A   
ATOM     29  C16 UNL     1       4.620   1.587   0.404  1.00  0.00     0.108 A   
ATOM     30  O2  UNL     1       5.307   2.484   2.375  1.00  0.00    -0.316 OA  
ATOM     31  O3  UNL     1       5.938   1.261   0.397  1.00  0.00    -0.316 OA  
ATOM     32  C19 UNL     1       6.379   1.857   1.636  1.00  0.00     0.337 C   
ENDBRANCH  23  24
ENDBRANCH  20  23
ENDBRANCH  19  20
BRANCH  19  33
ATOM     33  C20 UNL     1      -0.784  -0.105   3.074  1.00  0.00     0.043 C   
ATOM     34  C21 UNL     1      -2.191   0.306   3.513  1.00  0.00     0.010 C   
ATOM     35  C24 UNL     1      -0.895  -1.631   3.034  1.00  0.00     0.010 C   
ATOM     36  C22 UNL     1      -2.569  -0.735   4.565  1.00  0.00     0.001 C   
ATOM     37  C23 UNL     1      -1.712  -1.968   4.278  1.00  0.00     0.001 C   
ENDBRANCH  19  33
ENDBRANCH   3  19
TORSDOF 9
