REMARK SMILES Cn1cccc1[C@H](CO)n1cc([C@@H]([NH2+]Cc2ccc3c(c2)OCO3)C2CCCC2)nn1
REMARK SMILES IDX 10 1 11 2 12 3 30 4 31 5 7 7 6 8 2 9 3 10 4 11 5 12 1 13
REMARK SMILES IDX 8 14 9 15 13 17 14 18 15 21 16 22 17 23 21 24 18 25 20 26
REMARK SMILES IDX 19 27 22 28 24 29 23 30 25 31 26 32 29 33 27 34 28 35
REMARK H PARENT 11 6 9 16 14 19 14 20
ROOT
ATOM     1   N2  UNL     1       0.089   2.169   0.306  1.00  0.00    -0.201 N   
ATOM     2   C8  UNL     1      -0.048   0.809   0.374  1.00  0.00     0.046 A   
ATOM     3   C9  UNL     1       1.124   0.322  -0.154  1.00  0.00     0.127 A   
ATOM     4   N4  UNL     1       1.910   1.374  -0.549  1.00  0.00    -0.132 NA  
ATOM     5   N5  UNL     1       1.269   2.497  -0.265  1.00  0.00    -0.075 NA  
ATOM     6   H11 UNL     1      -0.939   0.342   0.772  1.00  0.00     0.083 HD  
ENDROOT
BRANCH   1   7
ATOM     7   C6  UNL     1      -0.839   3.213   0.737  1.00  0.00     0.169 C   
BRANCH   7   8
ATOM     8   C5  UNL     1      -1.367   2.922   2.129  1.00  0.00     0.034 A   
ATOM     9   N1  UNL     1      -0.684   3.263   3.283  1.00  0.00    -0.312 N   
ATOM     10  C2  UNL     1      -1.400   2.858   4.378  1.00  0.00     0.074 A   
ATOM     11  C3  UNL     1      -2.556   2.257   3.941  1.00  0.00     0.017 A   
ATOM     12  C4  UNL     1      -2.538   2.296   2.530  1.00  0.00     0.023 A   
ATOM     13  C1  UNL     1       0.593   3.945   3.362  1.00  0.00     0.135 C   
ENDBRANCH   7   8
BRANCH   7  14
ATOM     14  C7  UNL     1      -1.935   3.460  -0.319  1.00  0.00     0.187 C   
BRANCH  14  15
ATOM     15  O1  UNL     1      -2.659   2.276  -0.667  1.00  0.00    -0.394 OA  
ATOM     16  H10 UNL     1      -3.430   2.561  -1.192  1.00  0.00     0.210 HD  
ENDBRANCH  14  15
ENDBRANCH   7  14
ENDBRANCH   1   7
BRANCH   3  17
ATOM     17  C10 UNL     1       1.562  -1.080  -0.409  1.00  0.00     0.117 C   
BRANCH  17  18
ATOM     18  N3  UNL     1       2.288  -1.169  -1.735  1.00  0.00     0.249 N   
ATOM     19  H13 UNL     1       3.028  -0.453  -1.706  1.00  0.00     0.199 HD  
ATOM     20  H14 UNL     1       2.744  -2.081  -1.825  1.00  0.00     0.199 HD  
BRANCH  18  21
ATOM     21  C11 UNL     1       1.468  -0.904  -2.956  1.00  0.00     0.164 C   
BRANCH  21  22
ATOM     22  C12 UNL     1       0.403  -1.939  -3.186  1.00  0.00    -0.002 A   
ATOM     23  C13 UNL     1       0.746  -3.231  -3.651  1.00  0.00     0.012 A   
ATOM     24  C17 UNL     1      -0.942  -1.638  -2.907  1.00  0.00     0.045 A   
ATOM     25  C14 UNL     1      -0.234  -4.213  -3.831  1.00  0.00     0.037 A   
ATOM     26  C16 UNL     1      -1.883  -2.629  -3.095  1.00  0.00     0.109 A   
ATOM     27  C15 UNL     1      -1.539  -3.881  -3.542  1.00  0.00     0.108 A   
ATOM     28  O2  UNL     1      -3.217  -2.506  -2.869  1.00  0.00    -0.316 OA  
ATOM     29  O3  UNL     1      -2.614  -4.704  -3.654  1.00  0.00    -0.316 OA  
ATOM     30  C18 UNL     1      -3.682  -3.822  -3.246  1.00  0.00     0.337 C   
ENDBRANCH  21  22
ENDBRANCH  18  21
ENDBRANCH  17  18
BRANCH  17  31
ATOM     31  C19 UNL     1       2.485  -1.675   0.673  1.00  0.00     0.043 C   
ATOM     32  C20 UNL     1       1.886  -1.708   2.081  1.00  0.00     0.010 C   
ATOM     33  C23 UNL     1       3.820  -0.966   0.909  1.00  0.00     0.010 C   
ATOM     34  C21 UNL     1       3.076  -2.062   2.966  1.00  0.00     0.001 C   
ATOM     35  C22 UNL     1       4.311  -1.518   2.246  1.00  0.00     0.001 C   
ENDBRANCH  17  31
ENDBRANCH   3  17
TORSDOF 9
