REMARK SMILES Cn1cccc1[C@@H](CO)n1cc([C@@H]([NH2+]Cc2ccc3c(c2)OCO3)C2CCCC2)nn1
REMARK SMILES IDX 10 1 11 2 12 3 30 4 31 5 7 7 6 8 2 9 3 10 4 11 5 12 1 13
REMARK SMILES IDX 8 14 9 15 13 17 14 18 15 21 16 22 17 23 21 24 18 25 20 26
REMARK SMILES IDX 19 27 22 28 24 29 23 30 25 31 26 32 29 33 27 34 28 35
REMARK H PARENT 11 6 9 16 14 19 14 20
ROOT
ATOM     1   N2  UNL     1       1.158  -0.270  -2.361  1.00  0.00    -0.201 N   
ATOM     2   C8  UNL     1       0.604   0.508  -1.380  1.00  0.00     0.046 A   
ATOM     3   C9  UNL     1       1.269   0.134  -0.235  1.00  0.00     0.127 A   
ATOM     4   N4  UNL     1       2.204  -0.819  -0.545  1.00  0.00    -0.132 NA  
ATOM     5   N5  UNL     1       2.127  -1.060  -1.843  1.00  0.00    -0.075 NA  
ATOM     6   H11 UNL     1      -0.214   1.188  -1.576  1.00  0.00     0.083 HD  
ENDROOT
BRANCH   1   7
ATOM     7   C6  UNL     1       0.718  -0.460  -3.743  1.00  0.00     0.169 C   
BRANCH   7   8
ATOM     8   C5  UNL     1      -0.605  -1.207  -3.750  1.00  0.00     0.034 A   
ATOM     9   N1  UNL     1      -0.697  -2.583  -3.847  1.00  0.00    -0.312 N   
ATOM     10  C2  UNL     1      -2.013  -2.964  -3.799  1.00  0.00     0.074 A   
ATOM     11  C3  UNL     1      -2.784  -1.835  -3.674  1.00  0.00     0.017 A   
ATOM     12  C4  UNL     1      -1.903  -0.732  -3.642  1.00  0.00     0.023 A   
ATOM     13  C1  UNL     1       0.399  -3.515  -3.991  1.00  0.00     0.135 C   
ENDBRANCH   7   8
BRANCH   7  14
ATOM     14  C7  UNL     1       0.718   0.846  -4.563  1.00  0.00     0.187 C   
BRANCH  14  15
ATOM     15  O1  UNL     1      -0.151   1.851  -4.040  1.00  0.00    -0.394 OA  
ATOM     16  H10 UNL     1      -0.217   2.555  -4.711  1.00  0.00     0.210 HD  
ENDBRANCH  14  15
ENDBRANCH   7  14
ENDBRANCH   1   7
BRANCH   3  17
ATOM     17  C10 UNL     1       1.032   0.514   1.187  1.00  0.00     0.117 C   
BRANCH  17  18
ATOM     18  N3  UNL     1       0.921  -0.734   2.039  1.00  0.00     0.249 N   
ATOM     19  H13 UNL     1       1.806  -1.246   1.923  1.00  0.00     0.199 HD  
ATOM     20  H14 UNL     1       0.838  -0.479   3.026  1.00  0.00     0.199 HD  
BRANCH  18  21
ATOM     21  C11 UNL     1      -0.186  -1.679   1.694  1.00  0.00     0.164 C   
BRANCH  21  22
ATOM     22  C12 UNL     1      -1.555  -1.082   1.865  1.00  0.00    -0.002 A   
ATOM     23  C13 UNL     1      -2.339  -0.772   0.727  1.00  0.00     0.012 A   
ATOM     24  C17 UNL     1      -2.058  -0.805   3.150  1.00  0.00     0.045 A   
ATOM     25  C14 UNL     1      -3.598  -0.178   0.862  1.00  0.00     0.037 A   
ATOM     26  C16 UNL     1      -3.308  -0.232   3.247  1.00  0.00     0.109 A   
ATOM     27  C15 UNL     1      -4.055   0.078   2.137  1.00  0.00     0.108 A   
ATOM     28  O2  UNL     1      -3.940   0.091   4.405  1.00  0.00    -0.316 OA  
ATOM     29  O3  UNL     1      -5.250   0.640   2.456  1.00  0.00    -0.316 OA  
ATOM     30  C18 UNL     1      -5.191   0.614   3.898  1.00  0.00     0.337 C   
ENDBRANCH  21  22
ENDBRANCH  18  21
ENDBRANCH  17  18
BRANCH  17  31
ATOM     31  C19 UNL     1       2.176   1.384   1.744  1.00  0.00     0.043 C   
ATOM     32  C20 UNL     1       2.301   2.736   1.030  1.00  0.00     0.010 C   
ATOM     33  C23 UNL     1       1.998   1.819   3.201  1.00  0.00     0.010 C   
ATOM     34  C21 UNL     1       3.118   3.604   1.979  1.00  0.00     0.001 C   
ATOM     35  C22 UNL     1       2.977   2.974   3.364  1.00  0.00     0.001 C   
ENDBRANCH  17  31
ENDBRANCH   3  17
TORSDOF 9
