REMARK SMILES Cc1nc(Cn2cc([C@@H]([NH2+]Cc3ccc4c(c3)OCO4)C3CCCCC3)nn2)ccc1F
REMARK SMILES IDX 6 1 7 2 8 3 27 4 28 5 5 7 4 8 2 9 3 10 31 11 30 12 29 13
REMARK SMILES IDX 1 14 32 15 9 16 10 17 11 20 12 21 13 22 17 23 14 24 16 25
REMARK SMILES IDX 15 26 18 27 20 28 19 29 21 30 22 31 26 32 23 33 25 34 24 35
REMARK H PARENT 7 6 10 18 10 19
ROOT
ATOM     1   N2  UNL     1       0.143  -1.316  -0.667  1.00  0.00    -0.206 N   
ATOM     2   C5  UNL     1      -0.858  -0.447  -1.006  1.00  0.00     0.046 A   
ATOM     3   C6  UNL     1      -0.656   0.631  -0.175  1.00  0.00     0.127 A   
ATOM     4   N4  UNL     1       0.418   0.376   0.642  1.00  0.00    -0.132 NA  
ATOM     5   N5  UNL     1       0.897  -0.818   0.333  1.00  0.00    -0.076 NA  
ATOM     6   H6  UNL     1      -1.578  -0.674  -1.780  1.00  0.00     0.083 HD  
ENDROOT
BRANCH   1   7
ATOM     7   C4  UNL     1       0.414  -2.628  -1.220  1.00  0.00     0.190 C   
BRANCH   7   8
ATOM     8   C3  UNL     1       1.151  -2.496  -2.525  1.00  0.00     0.060 A   
ATOM     9   C2  UNL     1       1.041  -2.264  -4.841  1.00  0.00     0.073 A   
ATOM     10  N1  UNL     1       0.394  -2.394  -3.650  1.00  0.00    -0.253 NA  
ATOM     11  C24 UNL     1       2.426  -2.215  -4.934  1.00  0.00     0.144 A   
ATOM     12  C23 UNL     1       3.189  -2.305  -3.779  1.00  0.00     0.043 A   
ATOM     13  C22 UNL     1       2.546  -2.446  -2.553  1.00  0.00     0.028 A   
ATOM     14  C1  UNL     1       0.204  -2.166  -6.080  1.00  0.00     0.070 C   
ATOM     15  F1  UNL     1       3.032  -2.076  -6.120  1.00  0.00    -0.205 F   
ENDBRANCH   7   8
ENDBRANCH   1   7
BRANCH   3  16
ATOM     16  C7  UNL     1      -1.423   1.900   0.001  1.00  0.00     0.117 C   
BRANCH  16  17
ATOM     17  N3  UNL     1      -1.462   2.264   1.474  1.00  0.00     0.249 N   
ATOM     18  H8  UNL     1      -1.379   3.277   1.598  1.00  0.00     0.199 HD  
ATOM     19  H9  UNL     1      -0.608   1.855   1.886  1.00  0.00     0.199 HD  
BRANCH  17  20
ATOM     20  C8  UNL     1      -2.641   1.778   2.248  1.00  0.00     0.164 C   
BRANCH  20  21
ATOM     21  C9  UNL     1      -2.787   0.283   2.279  1.00  0.00    -0.002 A   
ATOM     22  C10 UNL     1      -3.804  -0.353   1.528  1.00  0.00     0.012 A   
ATOM     23  C14 UNL     1      -1.888  -0.501   3.025  1.00  0.00     0.045 A   
ATOM     24  C11 UNL     1      -3.916  -1.748   1.502  1.00  0.00     0.037 A   
ATOM     25  C13 UNL     1      -2.026  -1.873   2.978  1.00  0.00     0.109 A   
ATOM     26  C12 UNL     1      -3.008  -2.479   2.234  1.00  0.00     0.108 A   
ATOM     27  O1  UNL     1      -1.236  -2.769   3.623  1.00  0.00    -0.316 OA  
ATOM     28  O2  UNL     1      -2.956  -3.834   2.313  1.00  0.00    -0.316 OA  
ATOM     29  C15 UNL     1      -1.857  -4.014   3.232  1.00  0.00     0.337 C   
ENDBRANCH  20  21
ENDBRANCH  17  20
ENDBRANCH  16  17
BRANCH  16  30
ATOM     30  C16 UNL     1      -0.848   3.105  -0.792  1.00  0.00     0.043 C   
ATOM     31  C17 UNL     1      -0.985   2.897  -2.313  1.00  0.00     0.010 C   
ATOM     32  C21 UNL     1       0.609   3.464  -0.437  1.00  0.00     0.010 C   
ATOM     33  C18 UNL     1      -0.500   4.116  -3.095  1.00  0.00     0.001 C   
ATOM     34  C20 UNL     1       1.092   4.683  -1.221  1.00  0.00     0.001 C   
ATOM     35  C19 UNL     1       0.933   4.486  -2.725  1.00  0.00     0.000 C   
ENDBRANCH  16  30
ENDBRANCH   3  16
TORSDOF 7
