REMARK SMILES CC(C)C[C@H]([NH2+]Cc1ccc2c(c1)OCO2)c1cn(Cc2cc3c([nH]2)CCCC3)nn1
REMARK SMILES IDX 17 1 18 2 19 3 30 4 31 5 5 7 4 8 2 9 1 10 3 11 6 12 7 15
REMARK SMILES IDX 8 16 9 17 13 18 10 19 12 20 11 21 14 22 16 23 15 24 20 25
REMARK SMILES IDX 21 26 22 27 25 28 23 29 24 30 29 31 26 32 28 33 27 34
REMARK H PARENT 18 6 6 13 6 14 25 35
ROOT
ATOM     1   C14 UNL     1      -1.053   0.652  -1.481  1.00  0.00     0.127 A   
ATOM     2   C15 UNL     1      -0.584   1.682  -0.696  1.00  0.00     0.046 A   
ATOM     3   N2  UNL     1      -0.583   2.762  -1.536  1.00  0.00    -0.206 N   
ATOM     4   N4  UNL     1      -1.093   2.435  -2.741  1.00  0.00    -0.076 NA  
ATOM     5   N5  UNL     1      -1.379   1.143  -2.720  1.00  0.00    -0.132 NA  
ATOM     6   H20 UNL     1      -0.217   1.740   0.319  1.00  0.00     0.083 HD  
ENDROOT
BRANCH   1   7
ATOM     7   C5  UNL     1      -1.262  -0.799  -1.184  1.00  0.00     0.114 C   
BRANCH   7   8
ATOM     8   C4  UNL     1      -0.057  -1.661  -1.605  1.00  0.00     0.064 C   
BRANCH   8   9
ATOM     9   C2  UNL     1       1.269  -1.345  -0.877  1.00  0.00    -0.012 C   
ATOM     10  C1  UNL     1       2.389  -2.225  -1.441  1.00  0.00     0.007 C   
ATOM     11  C3  UNL     1       1.165  -1.550   0.635  1.00  0.00     0.007 C   
ENDBRANCH   8   9
ENDBRANCH   7   8
BRANCH   7  12
ATOM     12  N1  UNL     1      -2.486  -1.246  -1.958  1.00  0.00     0.249 N   
ATOM     13  H11 UNL     1      -3.216  -0.545  -1.777  1.00  0.00     0.199 HD  
ATOM     14  H12 UNL     1      -2.272  -1.123  -2.957  1.00  0.00     0.199 HD  
BRANCH  12  15
ATOM     15  C6  UNL     1      -3.053  -2.592  -1.703  1.00  0.00     0.164 C   
BRANCH  15  16
ATOM     16  C7  UNL     1      -3.519  -2.779  -0.286  1.00  0.00    -0.002 A   
ATOM     17  C8  UNL     1      -2.764  -3.563   0.620  1.00  0.00     0.012 A   
ATOM     18  C12 UNL     1      -4.699  -2.155   0.157  1.00  0.00     0.045 A   
ATOM     19  C9  UNL     1      -3.179  -3.728   1.946  1.00  0.00     0.037 A   
ATOM     20  C11 UNL     1      -5.080  -2.341   1.470  1.00  0.00     0.109 A   
ATOM     21  C10 UNL     1      -4.343  -3.106   2.340  1.00  0.00     0.108 A   
ATOM     22  O1  UNL     1      -6.190  -1.816   2.053  1.00  0.00    -0.316 OA  
ATOM     23  O2  UNL     1      -4.898  -3.164   3.577  1.00  0.00    -0.316 OA  
ATOM     24  C13 UNL     1      -6.091  -2.373   3.383  1.00  0.00     0.337 C   
ENDBRANCH  15  16
ENDBRANCH  12  15
ENDBRANCH   7  12
ENDBRANCH   1   7
BRANCH   3  25
ATOM     25  C16 UNL     1      -0.066   4.097  -1.279  1.00  0.00     0.185 C   
BRANCH  25  26
ATOM     26  C17 UNL     1       1.424   4.081  -1.305  1.00  0.00     0.027 A   
ATOM     27  C18 UNL     1       2.344   4.197  -0.277  1.00  0.00     0.026 A   
ATOM     28  N3  UNL     1       2.125   3.927  -2.481  1.00  0.00    -0.320 N   
ATOM     29  C19 UNL     1       3.632   4.083  -0.846  1.00  0.00    -0.029 A   
ATOM     30  C20 UNL     1       3.461   3.908  -2.202  1.00  0.00     0.010 A   
ATOM     31  C24 UNL     1       4.978   4.113  -0.202  1.00  0.00     0.037 C   
ATOM     32  C21 UNL     1       4.546   3.769  -3.213  1.00  0.00     0.051 C   
ATOM     33  C23 UNL     1       6.087   4.329  -1.250  1.00  0.00     0.005 C   
ATOM     34  C22 UNL     1       5.879   3.459  -2.505  1.00  0.00     0.006 C   
ATOM     35  H24 UNL     1       1.718   3.831  -3.406  1.00  0.00     0.152 HD  
ENDBRANCH  25  26
ENDBRANCH   3  25
TORSDOF 8
