REMARK SMILES CC(C)n1nccc1CCn1cc([C@@H]([NH2+]Cc2ccc3c(c2)OCO3)C(C)(C)C)nn1
REMARK SMILES IDX 11 1 12 2 13 3 30 4 31 5 10 7 9 8 8 9 4 10 5 11 6 12 7 13
REMARK SMILES IDX 2 14 1 15 3 16 14 17 15 18 16 21 17 22 18 23 22 24 19 25
REMARK SMILES IDX 21 26 20 27 23 28 25 29 24 30 26 31 27 32 28 33 29 34
REMARK H PARENT 12 6 15 19 15 20
ROOT
ATOM     1   N3  UNL     1      -2.258  -2.614  -0.116  1.00  0.00    -0.212 N   
ATOM     2   C9  UNL     1      -2.239  -1.315  -0.551  1.00  0.00     0.045 A   
ATOM     3   C10 UNL     1      -1.412  -0.672   0.344  1.00  0.00     0.127 A   
ATOM     4   N5  UNL     1      -1.107  -1.553   1.358  1.00  0.00    -0.132 NA  
ATOM     5   N6  UNL     1      -1.631  -2.734   1.065  1.00  0.00    -0.076 NA  
ATOM     6   H14 UNL     1      -2.683  -1.036  -1.494  1.00  0.00     0.083 HD  
ENDROOT
BRANCH   1   7
ATOM     7   C8  UNL     1      -2.543  -3.779  -0.932  1.00  0.00     0.140 C   
BRANCH   7   8
ATOM     8   C7  UNL     1      -1.269  -4.450  -1.482  1.00  0.00     0.074 C   
BRANCH   8   9
ATOM     9   C6  UNL     1      -0.252  -3.448  -1.955  1.00  0.00     0.032 A   
ATOM     10  N1  UNL     1       0.906  -3.135  -1.266  1.00  0.00    -0.227 N   
ATOM     11  N2  UNL     1       1.401  -1.921  -1.649  1.00  0.00    -0.190 NA  
ATOM     12  C4  UNL     1       0.827  -1.741  -2.847  1.00  0.00     0.133 A   
ATOM     13  C5  UNL     1      -0.231  -2.639  -3.072  1.00  0.00     0.043 A   
BRANCH  10  14
ATOM     14  C2  UNL     1       1.607  -3.977  -0.290  1.00  0.00     0.092 C   
ATOM     15  C1  UNL     1       2.187  -5.216  -0.980  1.00  0.00     0.030 C   
ATOM     16  C3  UNL     1       2.719  -3.259   0.477  1.00  0.00     0.030 C   
ENDBRANCH  10  14
ENDBRANCH   8   9
ENDBRANCH   7   8
ENDBRANCH   1   7
BRANCH   3  17
ATOM     17  C11 UNL     1      -0.717   0.662   0.317  1.00  0.00     0.120 C   
BRANCH  17  18
ATOM     18  N4  UNL     1       0.759   0.434   0.032  1.00  0.00     0.250 N   
ATOM     19  H16 UNL     1       0.858  -0.424  -0.552  1.00  0.00     0.199 HD  
ATOM     20  H17 UNL     1       1.164   1.180  -0.534  1.00  0.00     0.199 HD  
BRANCH  18  21
ATOM     21  C12 UNL     1       1.629   0.227   1.224  1.00  0.00     0.164 C   
BRANCH  21  22
ATOM     22  C13 UNL     1       1.809   1.464   2.060  1.00  0.00    -0.002 A   
ATOM     23  C14 UNL     1       1.184   1.566   3.326  1.00  0.00     0.012 A   
ATOM     24  C18 UNL     1       2.590   2.533   1.587  1.00  0.00     0.045 A   
ATOM     25  C15 UNL     1       1.326   2.716   4.110  1.00  0.00     0.037 A   
ATOM     26  C17 UNL     1       2.709   3.652   2.385  1.00  0.00     0.109 A   
ATOM     27  C16 UNL     1       2.096   3.742   3.611  1.00  0.00     0.108 A   
ATOM     28  O1  UNL     1       3.421   4.768   2.077  1.00  0.00    -0.316 OA  
ATOM     29  O2  UNL     1       2.349   4.922   4.231  1.00  0.00    -0.316 OA  
ATOM     30  C19 UNL     1       3.212   5.563   3.267  1.00  0.00     0.337 C   
ENDBRANCH  21  22
ENDBRANCH  18  21
ENDBRANCH  17  18
BRANCH  17  31
ATOM     31  C20 UNL     1      -1.290   1.778  -0.629  1.00  0.00     0.010 C   
ATOM     32  C21 UNL     1      -1.067   1.495  -2.129  1.00  0.00     0.017 C   
ATOM     33  C22 UNL     1      -2.799   1.991  -0.371  1.00  0.00     0.017 C   
ATOM     34  C23 UNL     1      -0.605   3.133  -0.311  1.00  0.00     0.017 C   
ENDBRANCH  17  31
ENDBRANCH   3  17
TORSDOF 9
