REMARK SMILES CC(C)[C@H]([NH2+]Cc1ccc2c(c1)OCO2)c1cn(Cc2cc3ccccc3n2C)nn1
REMARK SMILES IDX 16 1 17 2 18 3 30 4 31 5 4 7 2 8 1 9 3 10 5 11 6 14 7 15
REMARK SMILES IDX 8 16 12 17 9 18 11 19 10 20 13 21 15 22 14 23 19 24 20 25
REMARK SMILES IDX 21 26 28 27 22 28 27 29 23 30 26 31 24 32 25 33 29 34
REMARK H PARENT 17 6 5 12 5 13
ROOT
ATOM     1   C13 UNL     1       2.179  -0.976   1.211  1.00  0.00     0.127 A   
ATOM     2   C14 UNL     1       2.243  -0.908  -0.162  1.00  0.00     0.046 A   
ATOM     3   N2  UNL     1       1.931  -2.176  -0.572  1.00  0.00    -0.206 N   
ATOM     4   N4  UNL     1       1.734  -2.987   0.487  1.00  0.00    -0.076 NA  
ATOM     5   N5  UNL     1       1.889  -2.264   1.585  1.00  0.00    -0.132 NA  
ATOM     6   H18 UNL     1       2.400  -0.098  -0.861  1.00  0.00     0.083 HD  
ENDROOT
BRANCH   1   7
ATOM     7   C4  UNL     1       2.247   0.107   2.235  1.00  0.00     0.117 C   
BRANCH   7   8
ATOM     8   C2  UNL     1       3.633   0.256   2.918  1.00  0.00     0.037 C   
ATOM     9   C1  UNL     1       4.113  -0.992   3.667  1.00  0.00     0.014 C   
ATOM     10  C3  UNL     1       4.705   0.697   1.914  1.00  0.00     0.014 C   
ENDBRANCH   7   8
BRANCH   7  11
ATOM     11  N1  UNL     1       1.198  -0.096   3.310  1.00  0.00     0.249 N   
ATOM     12  H9  UNL     1       1.384  -1.012   3.737  1.00  0.00     0.199 HD  
ATOM     13  H10 UNL     1       1.310   0.614   4.039  1.00  0.00     0.199 HD  
BRANCH  11  14
ATOM     14  C5  UNL     1      -0.230  -0.123   2.861  1.00  0.00     0.164 C   
BRANCH  14  15
ATOM     15  C6  UNL     1      -0.659   1.097   2.097  1.00  0.00    -0.002 A   
ATOM     16  C7  UNL     1      -0.992   0.992   0.724  1.00  0.00     0.012 A   
ATOM     17  C11 UNL     1      -0.721   2.351   2.727  1.00  0.00     0.045 A   
ATOM     18  C8  UNL     1      -1.374   2.116  -0.015  1.00  0.00     0.037 A   
ATOM     19  C10 UNL     1      -1.098   3.441   1.969  1.00  0.00     0.109 A   
ATOM     20  C9  UNL     1      -1.414   3.328   0.637  1.00  0.00     0.108 A   
ATOM     21  O1  UNL     1      -1.201   4.718   2.421  1.00  0.00    -0.316 OA  
ATOM     22  O2  UNL     1      -1.757   4.520   0.083  1.00  0.00    -0.316 OA  
ATOM     23  C12 UNL     1      -1.653   5.396   1.226  1.00  0.00     0.337 C   
ENDBRANCH  14  15
ENDBRANCH  11  14
ENDBRANCH   7  11
ENDBRANCH   1   7
BRANCH   3  24
ATOM     24  C15 UNL     1       1.643  -2.624  -1.927  1.00  0.00     0.185 C   
BRANCH  24  25
ATOM     25  C16 UNL     1       0.330  -2.054  -2.367  1.00  0.00     0.030 A   
ATOM     26  C17 UNL     1       0.095  -0.946  -3.162  1.00  0.00     0.031 A   
ATOM     27  N3  UNL     1      -0.903  -2.551  -1.991  1.00  0.00    -0.305 N   
ATOM     28  C18 UNL     1      -1.302  -0.705  -3.189  1.00  0.00    -0.002 A   
ATOM     29  C23 UNL     1      -1.908  -1.708  -2.430  1.00  0.00     0.040 A   
ATOM     30  C19 UNL     1      -2.104   0.288  -3.784  1.00  0.00     0.010 A   
ATOM     31  C22 UNL     1      -3.299  -1.745  -2.235  1.00  0.00     0.024 A   
ATOM     32  C20 UNL     1      -3.489   0.258  -3.594  1.00  0.00     0.001 A   
ATOM     33  C21 UNL     1      -4.075  -0.745  -2.828  1.00  0.00     0.002 A   
ATOM     34  C24 UNL     1      -1.143  -3.754  -1.217  1.00  0.00     0.136 C   
ENDBRANCH  24  25
ENDBRANCH   3  24
TORSDOF 7
