REMARK SMILES Cc1cc(Cn2cc([C@@H]([NH2+]Cc3ccc4c(c3)OCO4)C3CCCC3)nn2)n(C)n1
REMARK SMILES IDX 6 1 7 2 8 3 26 4 27 5 5 7 4 8 2 9 3 10 30 11 28 12 1 13
REMARK SMILES IDX 29 14 9 15 10 16 11 19 12 20 13 21 17 22 14 23 16 24 15 25
REMARK SMILES IDX 18 26 20 27 19 28 21 29 22 30 25 31 23 32 24 33
REMARK H PARENT 7 6 10 17 10 18
ROOT
ATOM     1   N1  UNL     1      -2.174   0.077  -1.437  1.00  0.00    -0.206 N   
ATOM     2   C6  UNL     1      -1.187   0.980  -1.150  1.00  0.00     0.046 A   
ATOM     3   C7  UNL     1      -0.056   0.419  -1.700  1.00  0.00     0.127 A   
ATOM     4   N3  UNL     1      -0.384  -0.774  -2.292  1.00  0.00    -0.132 NA  
ATOM     5   N4  UNL     1      -1.683  -0.966  -2.138  1.00  0.00    -0.076 NA  
ATOM     6   H7  UNL     1      -1.372   1.875  -0.573  1.00  0.00     0.083 HD  
ENDROOT
BRANCH   1   7
ATOM     7   C5  UNL     1      -3.578   0.121  -1.057  1.00  0.00     0.187 C   
BRANCH   7   8
ATOM     8   C4  UNL     1      -3.781  -0.523   0.269  1.00  0.00     0.049 A   
ATOM     9   C2  UNL     1      -4.064  -1.046   2.410  1.00  0.00     0.057 A   
ATOM     10  C3  UNL     1      -3.967   0.041   1.516  1.00  0.00     0.047 A   
ATOM     11  N6  UNL     1      -3.936  -2.213   1.772  1.00  0.00    -0.187 NA  
ATOM     12  N5  UNL     1      -3.821  -1.880   0.474  1.00  0.00    -0.231 N   
ATOM     13  C1  UNL     1      -4.264  -1.015   3.879  1.00  0.00     0.068 C   
ATOM     14  C22 UNL     1      -3.732  -2.948  -0.496  1.00  0.00     0.159 C   
ENDBRANCH   7   8
ENDBRANCH   1   7
BRANCH   3  15
ATOM     15  C8  UNL     1       1.379   0.833  -1.660  1.00  0.00     0.117 C   
BRANCH  15  16
ATOM     16  N2  UNL     1       2.206  -0.377  -1.264  1.00  0.00     0.249 N   
ATOM     17  H9  UNL     1       2.971  -0.531  -1.926  1.00  0.00     0.199 HD  
ATOM     18  H10 UNL     1       1.588  -1.195  -1.389  1.00  0.00     0.199 HD  
BRANCH  16  19
ATOM     19  C9  UNL     1       2.738  -0.395   0.126  1.00  0.00     0.164 C   
BRANCH  19  20
ATOM     20  C10 UNL     1       1.687  -0.243   1.191  1.00  0.00    -0.002 A   
ATOM     21  C11 UNL     1       0.720  -1.254   1.405  1.00  0.00     0.012 A   
ATOM     22  C15 UNL     1       1.645   0.925   1.972  1.00  0.00     0.045 A   
ATOM     23  C12 UNL     1      -0.278  -1.102   2.374  1.00  0.00     0.037 A   
ATOM     24  C14 UNL     1       0.649   1.043   2.918  1.00  0.00     0.109 A   
ATOM     25  C13 UNL     1      -0.287   0.059   3.115  1.00  0.00     0.108 A   
ATOM     26  O1  UNL     1       0.466   2.108   3.743  1.00  0.00    -0.316 OA  
ATOM     27  O2  UNL     1      -1.175   0.379   4.092  1.00  0.00    -0.316 OA  
ATOM     28  C16 UNL     1      -0.667   1.660   4.519  1.00  0.00     0.337 C   
ENDBRANCH  19  20
ENDBRANCH  16  19
ENDBRANCH  15  16
BRANCH  15  29
ATOM     29  C17 UNL     1       1.879   1.354  -3.019  1.00  0.00     0.043 C   
ATOM     30  C18 UNL     1       1.140   2.606  -3.499  1.00  0.00     0.010 C   
ATOM     31  C21 UNL     1       3.334   1.839  -3.001  1.00  0.00     0.010 C   
ATOM     32  C19 UNL     1       2.036   3.155  -4.601  1.00  0.00     0.001 C   
ATOM     33  C20 UNL     1       3.459   2.768  -4.207  1.00  0.00     0.001 C   
ENDBRANCH  15  29
ENDBRANCH   3  15
TORSDOF 7
