REMARK SMILES COc1ccc(Cn2cc([C@@H]([NH2+]Cc3ccc4c(c3)OCO4)C(C)C)nn2)c(O)c1
REMARK SMILES IDX 8 1 9 2 10 3 26 4 27 5 7 7 6 8 3 9 4 10 30 11 5 12 28 13
REMARK SMILES IDX 2 14 1 15 29 16 11 18 12 19 13 22 14 23 15 24 19 25 16 26
REMARK SMILES IDX 18 27 17 28 20 29 22 30 21 31 23 32 24 33 25 34
REMARK H PARENT 9 6 29 17 12 20 12 21
ROOT
ATOM     1   N1  UNL     1       0.227   3.036  -0.500  1.00  0.00    -0.208 N   
ATOM     2   C7  UNL     1       0.369   2.450   0.729  1.00  0.00     0.046 A   
ATOM     3   C8  UNL     1      -0.171   1.196   0.567  1.00  0.00     0.127 A   
ATOM     4   N3  UNL     1      -0.655   1.076  -0.713  1.00  0.00    -0.132 NA  
ATOM     5   N4  UNL     1      -0.423   2.212  -1.349  1.00  0.00    -0.076 NA  
ATOM     6   H8  UNL     1       0.850   2.959   1.553  1.00  0.00     0.083 HD  
ENDROOT
BRANCH   1   7
ATOM     7   C6  UNL     1       0.639   4.364  -0.921  1.00  0.00     0.172 C   
BRANCH   7   8
ATOM     8   C5  UNL     1       2.118   4.405  -1.201  1.00  0.00     0.002 A   
ATOM     9   C2  UNL     1       4.885   4.440  -1.745  1.00  0.00     0.077 A   
ATOM     10  C3  UNL     1       3.979   4.074  -2.740  1.00  0.00     0.034 A   
ATOM     11  C22 UNL     1       4.408   4.784  -0.478  1.00  0.00     0.067 A   
ATOM     12  C4  UNL     1       2.606   4.055  -2.469  1.00  0.00     0.011 A   
ATOM     13  C21 UNL     1       3.039   4.764  -0.213  1.00  0.00     0.079 A   
BRANCH   9  14
ATOM     14  O1  UNL     1       6.245   4.494  -1.875  1.00  0.00    -0.349 OA  
ATOM     15  C1  UNL     1       6.784   4.203  -3.158  1.00  0.00     0.203 C   
ENDBRANCH   9  14
BRANCH  13  16
ATOM     16  O4  UNL     1       2.577   5.092   1.031  1.00  0.00    -0.361 OA  
ATOM     17  H26 UNL     1       3.317   5.473   1.539  1.00  0.00     0.218 HD  
ENDBRANCH  13  16
ENDBRANCH   7   8
ENDBRANCH   1   7
BRANCH   3  18
ATOM     18  C9  UNL     1      -0.310   0.051   1.519  1.00  0.00     0.117 C   
BRANCH  18  19
ATOM     19  N2  UNL     1      -1.409  -0.874   1.068  1.00  0.00     0.249 N   
ATOM     20  H10 UNL     1      -1.300  -0.984   0.048  1.00  0.00     0.199 HD  
ATOM     21  H11 UNL     1      -1.317  -1.812   1.469  1.00  0.00     0.199 HD  
BRANCH  19  22
ATOM     22  C10 UNL     1      -2.793  -0.377   1.308  1.00  0.00     0.164 C   
BRANCH  22  23
ATOM     23  C11 UNL     1      -3.798  -1.335   0.735  1.00  0.00    -0.002 A   
ATOM     24  C12 UNL     1      -4.155  -1.253  -0.633  1.00  0.00     0.012 A   
ATOM     25  C16 UNL     1      -4.348  -2.350   1.535  1.00  0.00     0.045 A   
ATOM     26  C13 UNL     1      -5.057  -2.162  -1.196  1.00  0.00     0.037 A   
ATOM     27  C15 UNL     1      -5.236  -3.229   0.949  1.00  0.00     0.109 A   
ATOM     28  C14 UNL     1      -5.581  -3.139  -0.378  1.00  0.00     0.108 A   
ATOM     29  O2  UNL     1      -5.854  -4.263   1.577  1.00  0.00    -0.316 OA  
ATOM     30  O3  UNL     1      -6.463  -4.102  -0.751  1.00  0.00    -0.316 OA  
ATOM     31  C17 UNL     1      -6.660  -4.795   0.501  1.00  0.00     0.337 C   
ENDBRANCH  22  23
ENDBRANCH  19  22
ENDBRANCH  18  19
BRANCH  18  32
ATOM     32  C18 UNL     1       1.018  -0.734   1.687  1.00  0.00     0.037 C   
ATOM     33  C19 UNL     1       1.453  -1.496   0.429  1.00  0.00     0.014 C   
ATOM     34  C20 UNL     1       0.962  -1.695   2.881  1.00  0.00     0.014 C   
ENDBRANCH  18  32
ENDBRANCH   3  18
TORSDOF 9
