REMARK SMILES COc1cc(C)cc(F)c1Cn1cc([C@@H]([NH2+]Cc2ccc3c(c2)OCO3)C(C)C)nn1
REMARK SMILES IDX 12 1 13 2 14 3 30 4 31 5 11 7 10 8 3 9 4 10 5 11 8 12 7 13
REMARK SMILES IDX 6 14 9 15 2 16 1 17 15 18 16 19 17 22 18 23 19 24 23 25
REMARK SMILES IDX 20 26 22 27 21 28 24 29 26 30 25 31 27 32 28 33 29 34
REMARK H PARENT 13 6 16 20 16 21
ROOT
ATOM     1   N1  UNL     1       1.184   1.887   0.063  1.00  0.00    -0.208 N   
ATOM     2   C10 UNL     1       0.437   1.223  -0.875  1.00  0.00     0.046 A   
ATOM     3   C11 UNL     1      -0.557   0.615  -0.142  1.00  0.00     0.127 A   
ATOM     4   N3  UNL     1      -0.403   0.940   1.181  1.00  0.00    -0.132 NA  
ATOM     5   N4  UNL     1       0.659   1.719   1.293  1.00  0.00    -0.076 NA  
ATOM     6   H11 UNL     1       0.683   1.244  -1.928  1.00  0.00     0.083 HD  
ENDROOT
BRANCH   1   7
ATOM     7   C9  UNL     1       2.353   2.729  -0.134  1.00  0.00     0.175 C   
BRANCH   7   8
ATOM     8   C8  UNL     1       3.466   1.986  -0.824  1.00  0.00     0.037 A   
ATOM     9   C2  UNL     1       3.709   2.114  -2.201  1.00  0.00     0.083 A   
ATOM     10  C3  UNL     1       4.756   1.394  -2.792  1.00  0.00     0.037 A   
ATOM     11  C4  UNL     1       5.563   0.536  -2.028  1.00  0.00    -0.046 A   
ATOM     12  C7  UNL     1       4.280   1.130  -0.076  1.00  0.00     0.130 A   
ATOM     13  C6  UNL     1       5.321   0.417  -0.658  1.00  0.00     0.043 A   
ATOM     14  C5  UNL     1       6.708  -0.197  -2.665  1.00  0.00     0.044 C   
ATOM     15  F1  UNL     1       4.056   0.983   1.237  1.00  0.00    -0.207 F   
BRANCH   9  16
ATOM     16  O1  UNL     1       2.852   2.939  -2.883  1.00  0.00    -0.349 OA  
ATOM     17  C1  UNL     1       3.234   3.322  -4.202  1.00  0.00     0.203 C   
ENDBRANCH   9  16
ENDBRANCH   7   8
ENDBRANCH   1   7
BRANCH   3  18
ATOM     18  C12 UNL     1      -1.673  -0.294  -0.548  1.00  0.00     0.117 C   
BRANCH  18  19
ATOM     19  N2  UNL     1      -2.141  -1.100   0.634  1.00  0.00     0.249 N   
ATOM     20  H13 UNL     1      -2.175  -0.450   1.434  1.00  0.00     0.199 HD  
ATOM     21  H14 UNL     1      -3.092  -1.458   0.514  1.00  0.00     0.199 HD  
BRANCH  19  22
ATOM     22  C13 UNL     1      -1.245  -2.222   1.030  1.00  0.00     0.164 C   
BRANCH  22  23
ATOM     23  C14 UNL     1      -1.729  -2.849   2.307  1.00  0.00    -0.002 A   
ATOM     24  C15 UNL     1      -1.320  -2.319   3.554  1.00  0.00     0.012 A   
ATOM     25  C19 UNL     1      -2.633  -3.924   2.273  1.00  0.00     0.045 A   
ATOM     26  C16 UNL     1      -1.796  -2.858   4.754  1.00  0.00     0.037 A   
ATOM     27  C18 UNL     1      -3.083  -4.431   3.474  1.00  0.00     0.109 A   
ATOM     28  C17 UNL     1      -2.677  -3.914   4.680  1.00  0.00     0.108 A   
ATOM     29  O2  UNL     1      -3.957  -5.462   3.619  1.00  0.00    -0.316 OA  
ATOM     30  O3  UNL     1      -3.241  -4.556   5.736  1.00  0.00    -0.316 OA  
ATOM     31  C20 UNL     1      -4.038  -5.552   5.060  1.00  0.00     0.337 C   
ENDBRANCH  22  23
ENDBRANCH  19  22
ENDBRANCH  18  19
BRANCH  18  32
ATOM     32  C21 UNL     1      -2.861   0.481  -1.176  1.00  0.00     0.037 C   
ATOM     33  C22 UNL     1      -3.614   1.375  -0.183  1.00  0.00     0.014 C   
ATOM     34  C23 UNL     1      -3.848  -0.464  -1.872  1.00  0.00     0.014 C   
ENDBRANCH  18  32
ENDBRANCH   3  18
TORSDOF 8
