REMARK SMILES COc1c(C)cnc(Cn2cc([C@@H]([NH2+]Cc3ccc4c(c3)OCO4)C(C)C)nn2)c1C
REMARK SMILES IDX 10 1 11 2 12 3 28 4 29 5 9 7 8 8 3 9 4 10 30 11 6 12 7 13
REMARK SMILES IDX 5 14 31 15 2 16 1 17 13 18 14 19 15 22 16 23 17 24 21 25
REMARK SMILES IDX 18 26 20 27 19 28 22 29 24 30 23 31 25 32 26 33 27 34
REMARK H PARENT 11 6 14 20 14 21
ROOT
ATOM     1   N2  UNL     1       0.779  -0.835  -0.184  1.00  0.00    -0.206 N   
ATOM     2   C8  UNL     1       0.028   0.177   0.350  1.00  0.00     0.046 A   
ATOM     3   C9  UNL     1       0.921   1.213   0.499  1.00  0.00     0.127 A   
ATOM     4   N4  UNL     1       2.162   0.801   0.082  1.00  0.00    -0.132 NA  
ATOM     5   N5  UNL     1       2.065  -0.454  -0.324  1.00  0.00    -0.076 NA  
ATOM     6   H10 UNL     1      -1.023   0.055   0.575  1.00  0.00     0.083 HD  
ENDROOT
BRANCH   1   7
ATOM     7   C7  UNL     1       0.372  -2.195  -0.486  1.00  0.00     0.190 C   
BRANCH   7   8
ATOM     8   C6  UNL     1      -0.710  -2.213  -1.537  1.00  0.00     0.065 A   
ATOM     9   C2  UNL     1      -1.529  -2.280  -3.783  1.00  0.00     0.084 A   
ATOM     10  C3  UNL     1      -2.840  -2.191  -3.308  1.00  0.00    -0.002 A   
ATOM     11  C22 UNL     1      -0.430  -2.243  -2.910  1.00  0.00     0.003 A   
ATOM     12  C5  UNL     1      -3.001  -2.160  -1.933  1.00  0.00     0.117 A   
ATOM     13  N1  UNL     1      -1.980  -2.169  -1.048  1.00  0.00    -0.259 NA  
ATOM     14  C4  UNL     1      -4.033  -2.176  -4.212  1.00  0.00     0.049 C   
ATOM     15  C23 UNL     1       0.979  -2.271  -3.431  1.00  0.00     0.049 C   
BRANCH   9  16
ATOM     16  O1  UNL     1      -1.317  -2.321  -5.140  1.00  0.00    -0.349 OA  
ATOM     17  C1  UNL     1      -1.274  -3.674  -5.599  1.00  0.00     0.203 C   
ENDBRANCH   9  16
ENDBRANCH   7   8
ENDBRANCH   1   7
BRANCH   3  18
ATOM     18  C10 UNL     1       0.763   2.571   1.101  1.00  0.00     0.117 C   
BRANCH  18  19
ATOM     19  N3  UNL     1       1.979   2.884   1.954  1.00  0.00     0.249 N   
ATOM     20  H12 UNL     1       2.220   3.877   1.886  1.00  0.00     0.199 HD  
ATOM     21  H13 UNL     1       2.762   2.367   1.524  1.00  0.00     0.199 HD  
BRANCH  19  22
ATOM     22  C11 UNL     1       1.897   2.504   3.396  1.00  0.00     0.164 C   
BRANCH  22  23
ATOM     23  C12 UNL     1       1.673   1.037   3.636  1.00  0.00    -0.002 A   
ATOM     24  C13 UNL     1       2.709   0.103   3.391  1.00  0.00     0.012 A   
ATOM     25  C17 UNL     1       0.413   0.574   4.054  1.00  0.00     0.045 A   
ATOM     26  C14 UNL     1       2.488  -1.272   3.535  1.00  0.00     0.037 A   
ATOM     27  C16 UNL     1       0.229  -0.787   4.183  1.00  0.00     0.109 A   
ATOM     28  C15 UNL     1       1.235  -1.685   3.926  1.00  0.00     0.108 A   
ATOM     29  O2  UNL     1      -0.930  -1.395   4.548  1.00  0.00    -0.316 OA  
ATOM     30  O3  UNL     1       0.836  -2.972   4.094  1.00  0.00    -0.316 OA  
ATOM     31  C18 UNL     1      -0.529  -2.784   4.527  1.00  0.00     0.337 C   
ENDBRANCH  22  23
ENDBRANCH  19  22
ENDBRANCH  18  19
BRANCH  18  32
ATOM     32  C19 UNL     1       0.578   3.706   0.060  1.00  0.00     0.037 C   
ATOM     33  C20 UNL     1      -0.741   3.552  -0.706  1.00  0.00     0.014 C   
ATOM     34  C21 UNL     1       1.738   3.852  -0.932  1.00  0.00     0.014 C   
ENDBRANCH  18  32
ENDBRANCH   3  18
TORSDOF 8
