REMARK SMILES Fc1cc(Cn2cc([C@@H]([NH2+]Cc3ccc4c(c3)OCO4)C3CCCC3)nn2)cc(F)c1F
REMARK SMILES IDX 6 1 7 2 8 3 26 4 27 5 5 7 4 8 2 9 3 10 31 11 29 12 28 13
REMARK SMILES IDX 1 14 32 15 30 16 9 17 10 18 11 21 12 22 13 23 17 24 14 25
REMARK SMILES IDX 16 26 15 27 18 28 20 29 19 30 21 31 22 32 25 33 23 34 24 35
REMARK H PARENT 7 6 10 19 10 20
ROOT
ATOM     1   N1  UNL     1       1.914   0.271   2.147  1.00  0.00    -0.208 N   
ATOM     2   C5  UNL     1       1.442   0.505   0.885  1.00  0.00     0.046 A   
ATOM     3   C6  UNL     1       0.084   0.296   0.993  1.00  0.00     0.127 A   
ATOM     4   N3  UNL     1      -0.221  -0.013   2.292  1.00  0.00    -0.132 NA  
ATOM     5   N4  UNL     1       0.907  -0.042   2.984  1.00  0.00    -0.076 NA  
ATOM     6   H4  UNL     1       2.092   0.747   0.056  1.00  0.00     0.083 HD  
ENDROOT
BRANCH   1   7
ATOM     7   C4  UNL     1       3.295   0.254   2.600  1.00  0.00     0.169 C   
BRANCH   7   8
ATOM     8   C3  UNL     1       4.004  -0.982   2.097  1.00  0.00    -0.023 A   
ATOM     9   C1  UNL     1       5.482  -2.071   0.508  1.00  0.00     0.162 A   
ATOM     10  C2  UNL     1       4.870  -0.914   0.994  1.00  0.00     0.048 A   
ATOM     11  C23 UNL     1       5.247  -3.302   1.104  1.00  0.00     0.194 A   
ATOM     12  C22 UNL     1       4.396  -3.377   2.196  1.00  0.00     0.162 A   
ATOM     13  C21 UNL     1       3.775  -2.231   2.697  1.00  0.00     0.048 A   
ATOM     14  F1  UNL     1       6.285  -1.981  -0.560  1.00  0.00    -0.204 F   
ATOM     15  F3  UNL     1       5.825  -4.409   0.618  1.00  0.00    -0.201 F   
ATOM     16  F2  UNL     1       4.143  -4.558   2.776  1.00  0.00    -0.204 F   
ENDBRANCH   7   8
ENDBRANCH   1   7
BRANCH   3  17
ATOM     17  C7  UNL     1      -0.983   0.288  -0.052  1.00  0.00     0.117 C   
BRANCH  17  18
ATOM     18  N2  UNL     1      -1.978  -0.835   0.175  1.00  0.00     0.249 N   
ATOM     19  H6  UNL     1      -2.686  -0.823  -0.563  1.00  0.00     0.199 HD  
ATOM     20  H7  UNL     1      -2.456  -0.633   1.063  1.00  0.00     0.199 HD  
BRANCH  18  21
ATOM     21  C8  UNL     1      -1.435  -2.227   0.287  1.00  0.00     0.164 C   
BRANCH  21  22
ATOM     22  C9  UNL     1      -0.502  -2.617  -0.825  1.00  0.00    -0.002 A   
ATOM     23  C10 UNL     1      -0.973  -2.781  -2.148  1.00  0.00     0.012 A   
ATOM     24  C14 UNL     1       0.866  -2.796  -0.550  1.00  0.00     0.045 A   
ATOM     25  C11 UNL     1      -0.091  -3.102  -3.188  1.00  0.00     0.037 A   
ATOM     26  C13 UNL     1       1.707  -3.107  -1.596  1.00  0.00     0.109 A   
ATOM     27  C12 UNL     1       1.243  -3.255  -2.879  1.00  0.00     0.108 A   
ATOM     28  O1  UNL     1       3.048  -3.292  -1.502  1.00  0.00    -0.316 OA  
ATOM     29  O2  UNL     1       2.236  -3.558  -3.755  1.00  0.00    -0.316 OA  
ATOM     30  C15 UNL     1       3.375  -3.634  -2.868  1.00  0.00     0.337 C   
ENDBRANCH  21  22
ENDBRANCH  18  21
ENDBRANCH  17  18
BRANCH  17  31
ATOM     31  C16 UNL     1      -1.764   1.618  -0.086  1.00  0.00     0.043 C   
ATOM     32  C17 UNL     1      -0.896   2.828  -0.448  1.00  0.00     0.010 C   
ATOM     33  C20 UNL     1      -2.852   1.685  -1.163  1.00  0.00     0.010 C   
ATOM     34  C18 UNL     1      -1.905   3.909  -0.809  1.00  0.00     0.001 C   
ATOM     35  C19 UNL     1      -3.123   3.174  -1.362  1.00  0.00     0.001 C   
ENDBRANCH  17  31
ENDBRANCH   3  17
TORSDOF 7
