REMARK SMILES Cc1cc(Cn2cc([C@H](CC(C)C)[NH2+]Cc3ccc4c(c3)OCO4)nn2)ccn1
REMARK SMILES IDX 6 1 7 2 8 3 25 4 26 5 5 7 4 8 2 9 3 10 29 11 28 12 27 13
REMARK SMILES IDX 1 14 9 15 10 16 11 17 12 18 13 19 14 20 15 23 16 24 17 25
REMARK SMILES IDX 21 26 18 27 20 28 19 29 22 30 24 31 23 32
REMARK H PARENT 7 6 14 21 14 22
ROOT
ATOM     1   N1  UNL     1       0.906  -2.275  -1.251  1.00  0.00    -0.208 N   
ATOM     2   C6  UNL     1       0.402  -1.441  -0.292  1.00  0.00     0.046 A   
ATOM     3   C7  UNL     1      -0.955  -1.442  -0.533  1.00  0.00     0.127 A   
ATOM     4   N3  UNL     1      -1.228  -2.290  -1.574  1.00  0.00    -0.132 NA  
ATOM     5   N4  UNL     1      -0.083  -2.791  -2.007  1.00  0.00    -0.076 NA  
ATOM     6   H7  UNL     1       1.033  -0.904   0.402  1.00  0.00     0.083 HD  
ENDROOT
BRANCH   1   7
ATOM     7   C5  UNL     1       2.301  -2.517  -1.581  1.00  0.00     0.169 C   
BRANCH   7   8
ATOM     8   C4  UNL     1       2.838  -1.375  -2.405  1.00  0.00    -0.025 A   
ATOM     9   C2  UNL     1       3.980   0.737  -2.597  1.00  0.00     0.038 A   
ATOM     10  C3  UNL     1       3.566  -0.336  -1.812  1.00  0.00     0.029 A   
ATOM     11  N5  UNL     1       3.705   0.818  -3.918  1.00  0.00    -0.262 NA  
ATOM     12  C22 UNL     1       3.025  -0.202  -4.481  1.00  0.00     0.111 A   
ATOM     13  C21 UNL     1       2.572  -1.302  -3.776  1.00  0.00     0.025 A   
ATOM     14  C1  UNL     1       4.772   1.857  -1.991  1.00  0.00     0.067 C   
ENDBRANCH   7   8
ENDBRANCH   1   7
BRANCH   3  15
ATOM     15  C8  UNL     1      -2.050  -0.628   0.064  1.00  0.00     0.114 C   
BRANCH  15  16
ATOM     16  C9  UNL     1      -2.977  -1.455   0.976  1.00  0.00     0.064 C   
BRANCH  16  17
ATOM     17  C10 UNL     1      -2.295  -2.065   2.220  1.00  0.00    -0.012 C   
ATOM     18  C11 UNL     1      -1.706  -0.999   3.144  1.00  0.00     0.007 C   
ATOM     19  C12 UNL     1      -3.305  -2.918   2.994  1.00  0.00     0.007 C   
ENDBRANCH  16  17
ENDBRANCH  15  16
BRANCH  15  20
ATOM     20  N2  UNL     1      -2.923  -0.039  -1.030  1.00  0.00     0.249 N   
ATOM     21  H18 UNL     1      -3.724   0.442  -0.612  1.00  0.00     0.199 HD  
ATOM     22  H19 UNL     1      -3.289  -0.835  -1.571  1.00  0.00     0.199 HD  
BRANCH  20  23
ATOM     23  C13 UNL     1      -2.251   0.878  -2.005  1.00  0.00     0.164 C   
BRANCH  23  24
ATOM     24  C14 UNL     1      -1.608   2.072  -1.358  1.00  0.00    -0.002 A   
ATOM     25  C15 UNL     1      -2.401   3.100  -0.793  1.00  0.00     0.012 A   
ATOM     26  C19 UNL     1      -0.205   2.161  -1.286  1.00  0.00     0.045 A   
ATOM     27  C16 UNL     1      -1.807   4.196  -0.157  1.00  0.00     0.037 A   
ATOM     28  C18 UNL     1       0.346   3.250  -0.645  1.00  0.00     0.109 A   
ATOM     29  C17 UNL     1      -0.432   4.239  -0.097  1.00  0.00     0.108 A   
ATOM     30  O1  UNL     1       1.674   3.478  -0.471  1.00  0.00    -0.316 OA  
ATOM     31  O2  UNL     1       0.308   5.219   0.483  1.00  0.00    -0.316 OA  
ATOM     32  C20 UNL     1       1.646   4.760   0.196  1.00  0.00     0.337 C   
ENDBRANCH  23  24
ENDBRANCH  20  23
ENDBRANCH  15  20
ENDBRANCH   3  15
TORSDOF 8
