REMARK SMILES CCOc1ccccc1Cn1cc([C@@H]([NH2+]Cc2ccc3c(c2)OCO3)C2CCCCC2)nn1
REMARK SMILES IDX 11 1 12 2 13 3 32 4 33 5 10 7 9 8 4 9 5 10 6 11 8 12 7 13
REMARK SMILES IDX 3 14 2 15 1 16 14 17 15 18 16 21 17 22 18 23 22 24 19 25
REMARK SMILES IDX 21 26 20 27 23 28 25 29 24 30 26 31 27 32 31 33 28 34 30 35
REMARK SMILES IDX 29 36
REMARK H PARENT 12 6 15 19 15 20
ROOT
ATOM     1   N1  UNL     1       1.641  -0.936   1.689  1.00  0.00    -0.208 N   
ATOM     2   C10 UNL     1       0.676  -0.695   0.750  1.00  0.00     0.046 A   
ATOM     3   C11 UNL     1      -0.099   0.293   1.312  1.00  0.00     0.127 A   
ATOM     4   N3  UNL     1       0.365   0.564   2.574  1.00  0.00    -0.132 NA  
ATOM     5   N4  UNL     1       1.415  -0.207   2.802  1.00  0.00    -0.076 NA  
ATOM     6   H12 UNL     1       0.661  -1.205  -0.204  1.00  0.00     0.083 HD  
ENDROOT
BRANCH   1   7
ATOM     7   C9  UNL     1       2.752  -1.869   1.623  1.00  0.00     0.172 C   
BRANCH   7   8
ATOM     8   C8  UNL     1       3.917  -1.275   0.869  1.00  0.00     0.002 A   
ATOM     9   C3  UNL     1       4.058  -1.448  -0.522  1.00  0.00     0.080 A   
ATOM     10  C4  UNL     1       5.166  -0.894  -1.171  1.00  0.00     0.034 A   
ATOM     11  C5  UNL     1       6.113  -0.155  -0.457  1.00  0.00     0.003 A   
ATOM     12  C7  UNL     1       4.872  -0.520   1.573  1.00  0.00     0.008 A   
ATOM     13  C6  UNL     1       5.963   0.037   0.912  1.00  0.00     0.001 A   
BRANCH   9  14
ATOM     14  O1  UNL     1       3.062  -2.165  -1.131  1.00  0.00    -0.346 OA  
BRANCH  14  15
ATOM     15  C2  UNL     1       3.120  -2.384  -2.542  1.00  0.00     0.164 C   
ATOM     16  C1  UNL     1       3.934  -3.625  -2.866  1.00  0.00     0.035 C   
ENDBRANCH  14  15
ENDBRANCH   9  14
ENDBRANCH   7   8
ENDBRANCH   1   7
BRANCH   3  17
ATOM     17  C12 UNL     1      -1.304   1.012   0.802  1.00  0.00     0.117 C   
BRANCH  17  18
ATOM     18  N2  UNL     1      -2.218   1.380   1.953  1.00  0.00     0.249 N   
ATOM     19  H14 UNL     1      -1.618   1.826   2.661  1.00  0.00     0.199 HD  
ATOM     20  H15 UNL     1      -2.909   2.073   1.653  1.00  0.00     0.199 HD  
BRANCH  18  21
ATOM     21  C13 UNL     1      -2.915   0.249   2.635  1.00  0.00     0.164 C   
BRANCH  21  22
ATOM     22  C14 UNL     1      -3.946  -0.417   1.768  1.00  0.00    -0.002 A   
ATOM     23  C15 UNL     1      -3.695  -1.698   1.218  1.00  0.00     0.012 A   
ATOM     24  C19 UNL     1      -5.158   0.234   1.479  1.00  0.00     0.045 A   
ATOM     25  C16 UNL     1      -4.633  -2.322   0.387  1.00  0.00     0.037 A   
ATOM     26  C18 UNL     1      -6.061  -0.412   0.659  1.00  0.00     0.109 A   
ATOM     27  C17 UNL     1      -5.806  -1.652   0.128  1.00  0.00     0.108 A   
ATOM     28  O2  UNL     1      -7.271   0.076   0.281  1.00  0.00    -0.316 OA  
ATOM     29  O3  UNL     1      -6.825  -2.102  -0.651  1.00  0.00    -0.316 OA  
ATOM     30  C20 UNL     1      -7.769  -1.017  -0.524  1.00  0.00     0.337 C   
ENDBRANCH  21  22
ENDBRANCH  18  21
ENDBRANCH  17  18
BRANCH  17  31
ATOM     31  C21 UNL     1      -0.983   2.308   0.005  1.00  0.00     0.043 C   
ATOM     32  C22 UNL     1      -0.229   1.999  -1.305  1.00  0.00     0.010 C   
ATOM     33  C26 UNL     1      -0.223   3.379   0.813  1.00  0.00     0.010 C   
ATOM     34  C23 UNL     1       0.015   3.262  -2.129  1.00  0.00     0.001 C   
ATOM     35  C25 UNL     1       0.028   4.638  -0.017  1.00  0.00     0.001 C   
ATOM     36  C24 UNL     1       0.754   4.322  -1.320  1.00  0.00     0.000 C   
ENDBRANCH  17  31
ENDBRANCH   3  17
TORSDOF 9
