REMARK SMILES CC(C)[C@H]([NH2+]Cc1ccc2c(c1)OCO2)c1cn(Cc2cc(F)c(F)cc2F)nn1
REMARK SMILES IDX 16 1 17 2 18 3 29 4 30 5 4 7 2 8 1 9 3 10 5 11 6 14 7 15
REMARK SMILES IDX 8 16 12 17 9 18 11 19 10 20 13 21 15 22 14 23 19 24 20 25
REMARK SMILES IDX 21 26 27 27 22 28 26 29 24 30 28 31 23 32 25 33
REMARK H PARENT 17 6 5 12 5 13
ROOT
ATOM     1   C13 UNL     1      -0.308  -0.837   0.721  1.00  0.00     0.127 A   
ATOM     2   C14 UNL     1      -1.107  -1.958   0.683  1.00  0.00     0.046 A   
ATOM     3   N2  UNL     1      -2.055  -1.656  -0.256  1.00  0.00    -0.208 N   
ATOM     4   N3  UNL     1      -1.820  -0.448  -0.804  1.00  0.00    -0.076 NA  
ATOM     5   N4  UNL     1      -0.765   0.071  -0.201  1.00  0.00    -0.132 NA  
ATOM     6   H18 UNL     1      -1.109  -2.892   1.228  1.00  0.00     0.083 HD  
ENDROOT
BRANCH   1   7
ATOM     7   C4  UNL     1       0.900  -0.508   1.543  1.00  0.00     0.117 C   
BRANCH   7   8
ATOM     8   C2  UNL     1       0.526  -0.081   2.986  1.00  0.00     0.037 C   
ATOM     9   C1  UNL     1       1.754  -0.048   3.905  1.00  0.00     0.014 C   
ATOM     10  C3  UNL     1      -0.215   1.259   3.066  1.00  0.00     0.014 C   
ENDBRANCH   7   8
BRANCH   7  11
ATOM     11  N1  UNL     1       1.709   0.570   0.872  1.00  0.00     0.249 N   
ATOM     12  H9  UNL     1       1.036   1.271   0.525  1.00  0.00     0.199 HD  
ATOM     13  H10 UNL     1       2.322   1.065   1.527  1.00  0.00     0.199 HD  
BRANCH  11  14
ATOM     14  C5  UNL     1       2.512   0.123  -0.300  1.00  0.00     0.164 C   
BRANCH  14  15
ATOM     15  C6  UNL     1       3.166   1.298  -0.968  1.00  0.00    -0.002 A   
ATOM     16  C7  UNL     1       2.471   2.021  -1.969  1.00  0.00     0.012 A   
ATOM     17  C11 UNL     1       4.446   1.720  -0.570  1.00  0.00     0.045 A   
ATOM     18  C8  UNL     1       3.048   3.141  -2.576  1.00  0.00     0.037 A   
ATOM     19  C10 UNL     1       4.985   2.829  -1.190  1.00  0.00     0.109 A   
ATOM     20  C9  UNL     1       4.307   3.518  -2.166  1.00  0.00     0.108 A   
ATOM     21  O1  UNL     1       6.204   3.366  -0.926  1.00  0.00    -0.316 OA  
ATOM     22  O2  UNL     1       5.016   4.574  -2.641  1.00  0.00    -0.316 OA  
ATOM     23  C12 UNL     1       6.233   4.458  -1.873  1.00  0.00     0.337 C   
ENDBRANCH  14  15
ENDBRANCH  11  14
ENDBRANCH   7  11
ENDBRANCH   1   7
BRANCH   3  24
ATOM     24  C15 UNL     1      -3.183  -2.461  -0.691  1.00  0.00     0.172 C   
BRANCH  24  25
ATOM     25  C16 UNL     1      -4.394  -2.191   0.159  1.00  0.00     0.010 A   
ATOM     26  C17 UNL     1      -5.339  -1.220  -0.207  1.00  0.00     0.051 A   
ATOM     27  C21 UNL     1      -4.582  -2.890   1.359  1.00  0.00     0.131 A   
ATOM     28  C18 UNL     1      -6.439  -0.979   0.614  1.00  0.00     0.159 A   
ATOM     29  C20 UNL     1      -5.680  -2.654   2.178  1.00  0.00     0.082 A   
ATOM     30  C19 UNL     1      -6.608  -1.693   1.796  1.00  0.00     0.161 A   
ATOM     31  F3  UNL     1      -3.676  -3.804   1.735  1.00  0.00    -0.207 F   
ATOM     32  F1  UNL     1      -7.331  -0.047   0.255  1.00  0.00    -0.204 F   
ATOM     33  F2  UNL     1      -7.665  -1.455   2.583  1.00  0.00    -0.204 F   
ENDBRANCH  24  25
ENDBRANCH   3  24
TORSDOF 7
