REMARK SMILES CC(C)[C@H]([NH2+]Cc1ccc2c(c1)OCO2)c1cn(CC(=O)c2ccc(O)cc2)nn1
REMARK SMILES IDX 16 1 17 2 18 3 29 4 30 5 4 7 2 8 1 9 3 10 5 11 6 14 7 15
REMARK SMILES IDX 8 16 12 17 9 18 11 19 10 20 13 21 15 22 14 23 19 24 20 25
REMARK SMILES IDX 21 26 22 27 23 28 28 29 24 30 27 31 25 32 26 33
REMARK H PARENT 17 6 5 12 5 13 26 34
ROOT
ATOM     1   C13 UNL     1       2.359   0.157  -0.466  1.00  0.00     0.127 A   
ATOM     2   C14 UNL     1       2.585  -0.615  -1.583  1.00  0.00     0.046 A   
ATOM     3   N2  UNL     1       1.701  -1.649  -1.453  1.00  0.00    -0.204 N   
ATOM     4   N3  UNL     1       0.983  -1.533  -0.321  1.00  0.00    -0.076 NA  
ATOM     5   N4  UNL     1       1.376  -0.429   0.293  1.00  0.00    -0.132 NA  
ATOM     6   H18 UNL     1       3.232  -0.512  -2.444  1.00  0.00     0.083 HD  
ENDROOT
BRANCH   1   7
ATOM     7   C4  UNL     1       2.921   1.480  -0.055  1.00  0.00     0.117 C   
BRANCH   7   8
ATOM     8   C2  UNL     1       4.142   1.385   0.895  1.00  0.00     0.037 C   
ATOM     9   C1  UNL     1       3.858   0.668   2.220  1.00  0.00     0.014 C   
ATOM     10  C3  UNL     1       5.346   0.736   0.203  1.00  0.00     0.014 C   
ENDBRANCH   7   8
BRANCH   7  11
ATOM     11  N1  UNL     1       1.851   2.303   0.619  1.00  0.00     0.249 N   
ATOM     12  H9  UNL     1       1.373   1.681   1.289  1.00  0.00     0.199 HD  
ATOM     13  H10 UNL     1       2.255   3.067   1.169  1.00  0.00     0.199 HD  
BRANCH  11  14
ATOM     14  C5  UNL     1       0.806   2.853  -0.289  1.00  0.00     0.164 C   
BRANCH  14  15
ATOM     15  C6  UNL     1      -0.237   3.591   0.501  1.00  0.00    -0.002 A   
ATOM     16  C7  UNL     1      -0.141   4.991   0.687  1.00  0.00     0.012 A   
ATOM     17  C11 UNL     1      -1.288   2.882   1.108  1.00  0.00     0.045 A   
ATOM     18  C8  UNL     1      -1.084   5.679   1.458  1.00  0.00     0.037 A   
ATOM     19  C10 UNL     1      -2.200   3.591   1.862  1.00  0.00     0.109 A   
ATOM     20  C9  UNL     1      -2.101   4.950   2.032  1.00  0.00     0.108 A   
ATOM     21  O1  UNL     1      -3.269   3.062   2.513  1.00  0.00    -0.316 OA  
ATOM     22  O2  UNL     1      -3.097   5.448   2.810  1.00  0.00    -0.316 OA  
ATOM     23  C12 UNL     1      -3.851   4.251   3.095  1.00  0.00     0.337 C   
ENDBRANCH  14  15
ENDBRANCH  11  14
ENDBRANCH   7  11
ENDBRANCH   1   7
BRANCH   3  24
ATOM     24  C15 UNL     1       1.439  -2.725  -2.381  1.00  0.00     0.214 C   
BRANCH  24  25
ATOM     25  C16 UNL     1       0.433  -2.277  -3.410  1.00  0.00     0.182 C   
ATOM     26  O3  UNL     1       0.701  -1.374  -4.205  1.00  0.00    -0.292 OA  
BRANCH  25  27
ATOM     27  C17 UNL     1      -0.902  -2.932  -3.470  1.00  0.00     0.019 A   
ATOM     28  C18 UNL     1      -1.570  -2.952  -4.702  1.00  0.00     0.014 A   
ATOM     29  C22 UNL     1      -1.512  -3.494  -2.341  1.00  0.00     0.014 A   
ATOM     30  C19 UNL     1      -2.825  -3.552  -4.808  1.00  0.00     0.034 A   
ATOM     31  C21 UNL     1      -2.771  -4.094  -2.452  1.00  0.00     0.034 A   
ATOM     32  C20 UNL     1      -3.414  -4.120  -3.685  1.00  0.00     0.071 A   
BRANCH  32  33
ATOM     33  O4  UNL     1      -4.641  -4.692  -3.838  1.00  0.00    -0.361 OA  
ATOM     34  H23 UNL     1      -4.935  -5.062  -2.989  1.00  0.00     0.218 HD  
ENDBRANCH  32  33
ENDBRANCH  25  27
ENDBRANCH  24  25
ENDBRANCH   3  24
TORSDOF 9
