REMARK SMILES Cc1nc[nH]c1[C@H](CO)n1cc([C@@H]([NH2+]Cc2ccc3c(c2)OCO3)C2CCCC2)nn1
REMARK SMILES IDX 10 1 11 2 12 3 30 4 31 5 7 7 6 8 2 9 3 10 4 11 5 12 1 13
REMARK SMILES IDX 8 15 9 16 13 18 14 19 15 22 16 23 17 24 21 25 18 26 20 27
REMARK SMILES IDX 19 28 22 29 24 30 23 31 25 32 26 33 29 34 27 35 28 36
REMARK H PARENT 11 6 5 14 9 17 14 20 14 21
ROOT
ATOM     1   N3  UNL     1       1.506   1.766  -2.016  1.00  0.00    -0.201 N   
ATOM     2   C7  UNL     1       1.112   0.455  -1.949  1.00  0.00     0.046 A   
ATOM     3   C8  UNL     1       1.222   0.132  -0.615  1.00  0.00     0.127 A   
ATOM     4   N5  UNL     1       1.689   1.225   0.069  1.00  0.00    -0.132 NA  
ATOM     5   N6  UNL     1       1.858   2.215  -0.794  1.00  0.00    -0.075 NA  
ATOM     6   H10 UNL     1       0.758  -0.079  -2.821  1.00  0.00     0.083 HD  
ENDROOT
BRANCH   1   7
ATOM     7   C5  UNL     1       1.437   2.687  -3.152  1.00  0.00     0.171 C   
BRANCH   7   8
ATOM     8   C4  UNL     1       0.021   2.746  -3.655  1.00  0.00     0.055 A   
ATOM     9   C2  UNL     1      -1.100   3.386  -3.157  1.00  0.00     0.058 A   
ATOM     10  N1  UNL     1      -2.201   3.072  -3.916  1.00  0.00    -0.245 NA  
ATOM     11  C3  UNL     1      -1.766   2.304  -4.885  1.00  0.00     0.186 A   
ATOM     12  N2  UNL     1      -0.428   2.075  -4.770  1.00  0.00    -0.306 N   
ATOM     13  C1  UNL     1      -1.228   4.274  -1.978  1.00  0.00     0.068 C   
ATOM     14  H5  UNL     1       0.138   1.497  -5.383  1.00  0.00     0.154 HD  
ENDBRANCH   7   8
BRANCH   7  15
ATOM     15  C6  UNL     1       2.490   2.351  -4.226  1.00  0.00     0.187 C   
BRANCH  15  16
ATOM     16  O1  UNL     1       2.199   1.131  -4.921  1.00  0.00    -0.394 OA  
ATOM     17  H9  UNL     1       2.948   0.969  -5.527  1.00  0.00     0.210 HD  
ENDBRANCH  15  16
ENDBRANCH   7  15
ENDBRANCH   1   7
BRANCH   3  18
ATOM     18  C9  UNL     1       0.815  -1.077   0.165  1.00  0.00     0.117 C   
BRANCH  18  19
ATOM     19  N4  UNL     1      -0.237  -0.688   1.174  1.00  0.00     0.249 N   
ATOM     20  H12 UNL     1      -0.426  -1.460   1.822  1.00  0.00     0.199 HD  
ATOM     21  H13 UNL     1       0.182   0.057   1.751  1.00  0.00     0.199 HD  
BRANCH  19  22
ATOM     22  C10 UNL     1      -1.525  -0.141   0.655  1.00  0.00     0.164 C   
BRANCH  22  23
ATOM     23  C11 UNL     1      -2.474   0.115   1.793  1.00  0.00    -0.002 A   
ATOM     24  C12 UNL     1      -2.387   1.316   2.541  1.00  0.00     0.012 A   
ATOM     25  C16 UNL     1      -3.416  -0.864   2.156  1.00  0.00     0.045 A   
ATOM     26  C13 UNL     1      -3.228   1.540   3.636  1.00  0.00     0.037 A   
ATOM     27  C15 UNL     1      -4.234  -0.605   3.237  1.00  0.00     0.109 A   
ATOM     28  C14 UNL     1      -4.139   0.561   3.961  1.00  0.00     0.108 A   
ATOM     29  O2  UNL     1      -5.199  -1.435   3.716  1.00  0.00    -0.316 OA  
ATOM     30  O3  UNL     1      -5.027   0.607   4.989  1.00  0.00    -0.316 OA  
ATOM     31  C17 UNL     1      -5.722  -0.649   4.812  1.00  0.00     0.337 C   
ENDBRANCH  22  23
ENDBRANCH  19  22
ENDBRANCH  18  19
BRANCH  18  32
ATOM     32  C18 UNL     1       0.359  -2.288  -0.670  1.00  0.00     0.043 C   
ATOM     33  C19 UNL     1      -0.153  -3.475   0.154  1.00  0.00     0.010 C   
ATOM     34  C22 UNL     1       1.500  -2.923  -1.485  1.00  0.00     0.010 C   
ATOM     35  C20 UNL     1      -0.138  -4.621  -0.845  1.00  0.00     0.001 C   
ATOM     36  C21 UNL     1       1.119  -4.393  -1.675  1.00  0.00     0.001 C   
ENDBRANCH  18  32
ENDBRANCH   3  18
TORSDOF 9
