REMARK SMILES Cc1nc[nH]c1[C@@H](CO)n1cc([C@@H]([NH2+]Cc2ccc3c(c2)OCO3)C2CCCC2)nn1
REMARK SMILES IDX 10 1 11 2 12 3 30 4 31 5 7 7 6 8 2 9 3 10 4 11 5 12 1 13
REMARK SMILES IDX 8 15 9 16 13 18 14 19 15 22 16 23 17 24 21 25 18 26 20 27
REMARK SMILES IDX 19 28 22 29 24 30 23 31 25 32 26 33 29 34 27 35 28 36
REMARK H PARENT 11 6 5 14 9 17 14 20 14 21
ROOT
ATOM     1   N3  UNL     1      -2.249  -1.511  -1.090  1.00  0.00    -0.201 N   
ATOM     2   C7  UNL     1      -1.565  -0.590  -0.341  1.00  0.00     0.046 A   
ATOM     3   C8  UNL     1      -0.572  -0.138  -1.180  1.00  0.00     0.127 A   
ATOM     4   N5  UNL     1      -0.679  -0.780  -2.386  1.00  0.00    -0.132 NA  
ATOM     5   N6  UNL     1      -1.708  -1.610  -2.323  1.00  0.00    -0.075 NA  
ATOM     6   H10 UNL     1      -1.831  -0.366   0.684  1.00  0.00     0.083 HD  
ENDROOT
BRANCH   1   7
ATOM     7   C5  UNL     1      -3.394  -2.345  -0.722  1.00  0.00     0.171 C   
BRANCH   7   8
ATOM     8   C4  UNL     1      -3.178  -2.978   0.624  1.00  0.00     0.055 A   
ATOM     9   C2  UNL     1      -2.450  -4.088   1.012  1.00  0.00     0.058 A   
ATOM     10  N1  UNL     1      -2.515  -4.245   2.375  1.00  0.00    -0.245 NA  
ATOM     11  C3  UNL     1      -3.288  -3.280   2.814  1.00  0.00     0.186 A   
ATOM     12  N2  UNL     1      -3.714  -2.485   1.793  1.00  0.00    -0.306 N   
ATOM     13  C1  UNL     1      -1.659  -5.030   0.186  1.00  0.00     0.068 C   
ATOM     14  H5  UNL     1      -4.313  -1.670   1.875  1.00  0.00     0.154 HD  
ENDBRANCH   7   8
BRANCH   7  15
ATOM     15  C6  UNL     1      -4.716  -1.566  -0.854  1.00  0.00     0.187 C   
BRANCH  15  16
ATOM     16  O1  UNL     1      -4.844  -0.534   0.135  1.00  0.00    -0.394 OA  
ATOM     17  H9  UNL     1      -5.675  -0.060  -0.068  1.00  0.00     0.210 HD  
ENDBRANCH  15  16
ENDBRANCH   7  15
ENDBRANCH   1   7
BRANCH   3  18
ATOM     18  C9  UNL     1       0.560   0.814  -0.944  1.00  0.00     0.117 C   
BRANCH  18  19
ATOM     19  N4  UNL     1       1.729   0.349  -1.785  1.00  0.00     0.249 N   
ATOM     20  H12 UNL     1       1.457   0.443  -2.773  1.00  0.00     0.199 HD  
ATOM     21  H13 UNL     1       1.791  -0.670  -1.650  1.00  0.00     0.199 HD  
BRANCH  19  22
ATOM     22  C10 UNL     1       3.070   0.938  -1.549  1.00  0.00     0.164 C   
BRANCH  22  23
ATOM     23  C11 UNL     1       3.600   0.666  -0.170  1.00  0.00    -0.002 A   
ATOM     24  C12 UNL     1       4.051  -0.631   0.180  1.00  0.00     0.012 A   
ATOM     25  C16 UNL     1       3.624   1.688   0.794  1.00  0.00     0.045 A   
ATOM     26  C13 UNL     1       4.515  -0.907   1.470  1.00  0.00     0.037 A   
ATOM     27  C15 UNL     1       4.086   1.381   2.057  1.00  0.00     0.109 A   
ATOM     28  C14 UNL     1       4.519   0.121   2.386  1.00  0.00     0.108 A   
ATOM     29  O2  UNL     1       4.168   2.248   3.101  1.00  0.00    -0.316 OA  
ATOM     30  O3  UNL     1       4.932   0.035   3.677  1.00  0.00    -0.316 OA  
ATOM     31  C17 UNL     1       4.736   1.395   4.122  1.00  0.00     0.337 C   
ENDBRANCH  22  23
ENDBRANCH  19  22
ENDBRANCH  18  19
BRANCH  18  32
ATOM     32  C18 UNL     1       0.236   2.287  -1.255  1.00  0.00     0.043 C   
ATOM     33  C19 UNL     1      -0.938   2.871  -0.465  1.00  0.00     0.010 C   
ATOM     34  C22 UNL     1      -0.140   2.615  -2.704  1.00  0.00     0.010 C   
ATOM     35  C20 UNL     1      -1.180   4.205  -1.156  1.00  0.00     0.001 C   
ATOM     36  C21 UNL     1      -0.889   3.950  -2.634  1.00  0.00     0.001 C   
ENDBRANCH  18  32
ENDBRANCH   3  18
TORSDOF 9
