REMARK SMILES COc1ccc([C@@H](CO)n2cc([C@@H]([NH2+]Cc3ccc4c(c3)OCO4)C3CCCC3)nn2)cc1
REMARK SMILES IDX 10 1 11 2 12 3 30 4 31 5 7 7 6 8 3 9 4 10 33 11 5 12 32 13
REMARK SMILES IDX 2 14 1 15 8 16 9 17 13 19 14 20 15 23 16 24 17 25 21 26
REMARK SMILES IDX 18 27 20 28 19 29 22 30 24 31 23 32 25 33 26 34 29 35 27 36
REMARK SMILES IDX 28 37
REMARK H PARENT 11 6 9 18 14 21 14 22
ROOT
ATOM     1   N1  UNL     1      -1.587   2.559  -0.105  1.00  0.00    -0.202 N   
ATOM     2   C8  UNL     1      -1.136   1.375   0.414  1.00  0.00     0.046 A   
ATOM     3   C9  UNL     1       0.058   1.702   1.013  1.00  0.00     0.127 A   
ATOM     4   N3  UNL     1       0.298   3.041   0.837  1.00  0.00    -0.132 NA  
ATOM     5   N4  UNL     1      -0.707   3.552   0.146  1.00  0.00    -0.075 NA  
ATOM     6   H10 UNL     1      -1.692   0.452   0.311  1.00  0.00     0.083 HD  
ENDROOT
BRANCH   1   7
ATOM     7   C6  UNL     1      -2.791   2.817  -0.898  1.00  0.00     0.155 C   
BRANCH   7   8
ATOM     8   C5  UNL     1      -2.837   1.879  -2.100  1.00  0.00    -0.023 A   
ATOM     9   C2  UNL     1      -2.788   0.159  -4.346  1.00  0.00     0.075 A   
ATOM     10  C3  UNL     1      -1.946   1.269  -4.286  1.00  0.00     0.034 A   
ATOM     11  C25 UNL     1      -3.654  -0.093  -3.285  1.00  0.00     0.034 A   
ATOM     12  C4  UNL     1      -1.969   2.122  -3.180  1.00  0.00     0.008 A   
ATOM     13  C24 UNL     1      -3.678   0.759  -2.171  1.00  0.00     0.008 A   
BRANCH   9  14
ATOM     14  O1  UNL     1      -2.657  -0.596  -5.478  1.00  0.00    -0.349 OA  
ATOM     15  C1  UNL     1      -3.583  -1.663  -5.654  1.00  0.00     0.203 C   
ENDBRANCH   9  14
ENDBRANCH   7   8
BRANCH   7  16
ATOM     16  C7  UNL     1      -4.041   2.897   0.001  1.00  0.00     0.185 C   
BRANCH  16  17
ATOM     17  O2  UNL     1      -4.260   1.710   0.766  1.00  0.00    -0.394 OA  
ATOM     18  H9  UNL     1      -5.059   1.863   1.306  1.00  0.00     0.210 HD  
ENDBRANCH  16  17
ENDBRANCH   7  16
ENDBRANCH   1   7
BRANCH   3  19
ATOM     19  C10 UNL     1       1.065   0.857   1.718  1.00  0.00     0.117 C   
BRANCH  19  20
ATOM     20  N2  UNL     1       2.457   1.364   1.398  1.00  0.00     0.249 N   
ATOM     21  H12 UNL     1       2.425   2.384   1.541  1.00  0.00     0.199 HD  
ATOM     22  H13 UNL     1       3.144   0.986   2.054  1.00  0.00     0.199 HD  
BRANCH  20  23
ATOM     23  C11 UNL     1       2.935   1.122   0.004  1.00  0.00     0.164 C   
BRANCH  23  24
ATOM     24  C12 UNL     1       3.231  -0.329  -0.261  1.00  0.00    -0.002 A   
ATOM     25  C13 UNL     1       2.372  -1.096  -1.083  1.00  0.00     0.012 A   
ATOM     26  C17 UNL     1       4.349  -0.941   0.334  1.00  0.00     0.045 A   
ATOM     27  C14 UNL     1       2.619  -2.455  -1.311  1.00  0.00     0.037 A   
ATOM     28  C16 UNL     1       4.561  -2.282   0.090  1.00  0.00     0.109 A   
ATOM     29  C15 UNL     1       3.722  -3.018  -0.709  1.00  0.00     0.108 A   
ATOM     30  O3  UNL     1       5.586  -3.021   0.590  1.00  0.00    -0.316 OA  
ATOM     31  O4  UNL     1       4.115  -4.314  -0.819  1.00  0.00    -0.316 OA  
ATOM     32  C18 UNL     1       5.323  -4.303  -0.028  1.00  0.00     0.337 C   
ENDBRANCH  23  24
ENDBRANCH  20  23
ENDBRANCH  19  20
BRANCH  19  33
ATOM     33  C19 UNL     1       0.877   0.888   3.248  1.00  0.00     0.043 C   
ATOM     34  C20 UNL     1       1.879   0.018   4.023  1.00  0.00     0.010 C   
ATOM     35  C23 UNL     1      -0.473   0.327   3.709  1.00  0.00     0.010 C   
ATOM     36  C21 UNL     1       1.170  -0.408   5.309  1.00  0.00     0.001 C   
ATOM     37  C22 UNL     1      -0.262   0.099   5.196  1.00  0.00     0.001 C   
ENDBRANCH  19  33
ENDBRANCH   3  19
TORSDOF 10
