REMARK SMILES COc1ccc([C@H](CO)n2cc([C@@H]([NH2+]Cc3ccc4c(c3)OCO4)C3CCCC3)nn2)cc1
REMARK SMILES IDX 10 1 11 2 12 3 30 4 31 5 7 7 6 8 3 9 4 10 33 11 5 12 32 13
REMARK SMILES IDX 2 14 1 15 8 16 9 17 13 19 14 20 15 23 16 24 17 25 21 26
REMARK SMILES IDX 18 27 20 28 19 29 22 30 24 31 23 32 25 33 26 34 29 35 27 36
REMARK SMILES IDX 28 37
REMARK H PARENT 11 6 9 18 14 21 14 22
ROOT
ATOM     1   N1  UNL     1       1.018  -2.564  -0.911  1.00  0.00    -0.202 N   
ATOM     2   C8  UNL     1       1.552  -1.491  -1.578  1.00  0.00     0.046 A   
ATOM     3   C9  UNL     1       1.651  -0.513  -0.614  1.00  0.00     0.127 A   
ATOM     4   N3  UNL     1       1.175  -1.001   0.576  1.00  0.00    -0.132 NA  
ATOM     5   N4  UNL     1       0.791  -2.251   0.384  1.00  0.00    -0.075 NA  
ATOM     6   H10 UNL     1       1.806  -1.533  -2.629  1.00  0.00     0.083 HD  
ENDROOT
BRANCH   1   7
ATOM     7   C6  UNL     1       0.694  -3.887  -1.452  1.00  0.00     0.155 C   
BRANCH   7   8
ATOM     8   C5  UNL     1      -0.814  -4.074  -1.526  1.00  0.00    -0.023 A   
ATOM     9   C2  UNL     1      -3.613  -4.420  -1.710  1.00  0.00     0.075 A   
ATOM     10  C3  UNL     1      -2.969  -4.478  -0.473  1.00  0.00     0.034 A   
ATOM     11  C25 UNL     1      -2.859  -4.180  -2.857  1.00  0.00     0.034 A   
ATOM     12  C4  UNL     1      -1.586  -4.309  -0.378  1.00  0.00     0.008 A   
ATOM     13  C24 UNL     1      -1.471  -4.008  -2.767  1.00  0.00     0.008 A   
BRANCH   9  14
ATOM     14  O1  UNL     1      -4.966  -4.606  -1.657  1.00  0.00    -0.349 OA  
ATOM     15  C1  UNL     1      -5.658  -4.684  -2.898  1.00  0.00     0.203 C   
ENDBRANCH   9  14
ENDBRANCH   7   8
BRANCH   7  16
ATOM     16  C7  UNL     1       1.418  -5.007  -0.687  1.00  0.00     0.185 C   
BRANCH  16  17
ATOM     17  O2  UNL     1       2.817  -4.977  -0.980  1.00  0.00    -0.394 OA  
ATOM     18  H9  UNL     1       3.237  -5.652  -0.413  1.00  0.00     0.210 HD  
ENDBRANCH  16  17
ENDBRANCH   7  16
ENDBRANCH   1   7
BRANCH   3  19
ATOM     19  C10 UNL     1       2.130   0.900  -0.679  1.00  0.00     0.117 C   
BRANCH  19  20
ATOM     20  N2  UNL     1       1.417   1.720   0.363  1.00  0.00     0.249 N   
ATOM     21  H12 UNL     1       1.969   2.523   0.678  1.00  0.00     0.199 HD  
ATOM     22  H13 UNL     1       1.310   1.110   1.191  1.00  0.00     0.199 HD  
BRANCH  20  23
ATOM     23  C11 UNL     1       0.052   2.174  -0.015  1.00  0.00     0.164 C   
BRANCH  23  24
ATOM     24  C12 UNL     1      -0.583   2.924   1.121  1.00  0.00    -0.002 A   
ATOM     25  C13 UNL     1      -1.413   2.248   2.046  1.00  0.00     0.012 A   
ATOM     26  C17 UNL     1      -0.308   4.291   1.306  1.00  0.00     0.045 A   
ATOM     27  C14 UNL     1      -1.977   2.926   3.133  1.00  0.00     0.037 A   
ATOM     28  C16 UNL     1      -0.876   4.926   2.390  1.00  0.00     0.109 A   
ATOM     29  C15 UNL     1      -1.689   4.265   3.277  1.00  0.00     0.108 A   
ATOM     30  O3  UNL     1      -0.706   6.235   2.714  1.00  0.00    -0.316 OA  
ATOM     31  O4  UNL     1      -2.139   5.075   4.269  1.00  0.00    -0.316 OA  
ATOM     32  C18 UNL     1      -1.526   6.330   3.902  1.00  0.00     0.337 C   
ENDBRANCH  23  24
ENDBRANCH  20  23
ENDBRANCH  19  20
BRANCH  19  33
ATOM     33  C19 UNL     1       3.657   0.997  -0.503  1.00  0.00     0.043 C   
ATOM     34  C20 UNL     1       4.241   2.387  -0.769  1.00  0.00     0.010 C   
ATOM     35  C23 UNL     1       4.209   0.643   0.885  1.00  0.00     0.010 C   
ATOM     36  C21 UNL     1       5.662   2.258  -0.245  1.00  0.00     0.001 C   
ATOM     37  C22 UNL     1       5.536   1.397   1.008  1.00  0.00     0.001 C   
ENDBRANCH  19  33
ENDBRANCH   3  19
TORSDOF 10
