REMARK SMILES Cc1cc(CCn2cc([C@@H]([NH2+]Cc3ccc4c(c3)OCO4)C3CCCC3)nn2)c(C)[nH]1
REMARK SMILES IDX 7 1 8 2 9 3 27 4 28 5 6 7 5 8 4 9 2 10 3 11 31 12 29 13 1 14
REMARK SMILES IDX 30 16 10 17 11 18 12 21 13 22 14 23 18 24 15 25 17 26 16 27
REMARK SMILES IDX 19 28 21 29 20 30 22 31 23 32 26 33 24 34 25 35
REMARK H PARENT 8 6 31 15 11 19 11 20
ROOT
ATOM     1   N1  UNL     1       0.011  -2.430   1.902  1.00  0.00    -0.212 N   
ATOM     2   C7  UNL     1      -1.203  -1.876   1.611  1.00  0.00     0.045 A   
ATOM     3   C8  UNL     1      -1.020  -1.315   0.368  1.00  0.00     0.127 A   
ATOM     4   N3  UNL     1       0.259  -1.570  -0.059  1.00  0.00    -0.132 NA  
ATOM     5   N4  UNL     1       0.879  -2.253   0.889  1.00  0.00    -0.076 NA  
ATOM     6   H9  UNL     1      -2.027  -1.888   2.312  1.00  0.00     0.083 HD  
ENDROOT
BRANCH   1   7
ATOM     7   C6  UNL     1       0.429  -3.069   3.132  1.00  0.00     0.139 C   
BRANCH   7   8
ATOM     8   C5  UNL     1       1.236  -2.136   4.032  1.00  0.00     0.058 C   
BRANCH   8   9
ATOM     9   C4  UNL     1       0.458  -0.934   4.483  1.00  0.00    -0.028 A   
ATOM     10  C2  UNL     1      -0.289   1.202   4.639  1.00  0.00     0.004 A   
ATOM     11  C3  UNL     1       0.591   0.385   3.962  1.00  0.00     0.024 A   
ATOM     12  N5  UNL     1      -0.947   0.424   5.559  1.00  0.00    -0.322 N   
ATOM     13  C23 UNL     1      -0.510  -0.876   5.474  1.00  0.00     0.007 A   
ATOM     14  C1  UNL     1      -0.541   2.661   4.534  1.00  0.00     0.061 C   
ATOM     15  H32 UNL     1      -1.628   0.764   6.227  1.00  0.00     0.152 HD  
ATOM     16  C24 UNL     1      -1.053  -1.931   6.373  1.00  0.00     0.062 C   
ENDBRANCH   8   9
ENDBRANCH   7   8
ENDBRANCH   1   7
BRANCH   3  17
ATOM     17  C9  UNL     1      -1.915  -0.464  -0.469  1.00  0.00     0.117 C   
BRANCH  17  18
ATOM     18  N2  UNL     1      -1.094   0.581  -1.174  1.00  0.00     0.249 N   
ATOM     19  H11 UNL     1      -0.259   0.098  -1.540  1.00  0.00     0.199 HD  
ATOM     20  H12 UNL     1      -1.575   0.977  -1.986  1.00  0.00     0.199 HD  
BRANCH  18  21
ATOM     21  C10 UNL     1      -0.608   1.688  -0.303  1.00  0.00     0.164 C   
BRANCH  21  22
ATOM     22  C11 UNL     1       0.269   2.625  -1.083  1.00  0.00    -0.002 A   
ATOM     23  C12 UNL     1      -0.276   3.776  -1.699  1.00  0.00     0.012 A   
ATOM     24  C16 UNL     1       1.633   2.329  -1.250  1.00  0.00     0.045 A   
ATOM     25  C13 UNL     1       0.528   4.630  -2.463  1.00  0.00     0.037 A   
ATOM     26  C15 UNL     1       2.397   3.191  -2.009  1.00  0.00     0.109 A   
ATOM     27  C14 UNL     1       1.860   4.309  -2.599  1.00  0.00     0.108 A   
ATOM     28  O1  UNL     1       3.722   3.051  -2.272  1.00  0.00    -0.316 OA  
ATOM     29  O2  UNL     1       2.781   5.015  -3.305  1.00  0.00    -0.316 OA  
ATOM     30  C17 UNL     1       3.968   4.225  -3.078  1.00  0.00     0.337 C   
ENDBRANCH  21  22
ENDBRANCH  18  21
ENDBRANCH  17  18
BRANCH  17  31
ATOM     31  C18 UNL     1      -2.725  -1.305  -1.474  1.00  0.00     0.043 C   
ATOM     32  C19 UNL     1      -1.945  -1.924  -2.636  1.00  0.00     0.010 C   
ATOM     33  C22 UNL     1      -3.843  -0.541  -2.193  1.00  0.00     0.010 C   
ATOM     34  C20 UNL     1      -3.050  -2.408  -3.565  1.00  0.00     0.001 C   
ATOM     35  C21 UNL     1      -4.169  -1.377  -3.434  1.00  0.00     0.001 C   
ENDBRANCH  17  31
ENDBRANCH   3  17
TORSDOF 8
