REMARK SMILES Cc1cc(F)ccc1[C@H](CO)n1cc([C@@H]([NH2+]Cc2ccc3c(c2)OCO3)C(C)C)nn1
REMARK SMILES IDX 12 1 13 2 14 3 30 4 31 5 9 7 8 8 2 9 3 10 4 11 7 12 6 13
REMARK SMILES IDX 1 14 5 15 10 16 11 17 15 19 16 20 17 23 18 24 19 25 23 26
REMARK SMILES IDX 20 27 22 28 21 29 24 30 26 31 25 32 27 33 28 34 29 35
REMARK H PARENT 13 6 11 18 16 21 16 22
ROOT
ATOM     1   N1  UNL     1       0.703   1.935  -2.028  1.00  0.00    -0.202 N   
ATOM     2   C10 UNL     1       0.742   1.445  -0.750  1.00  0.00     0.046 A   
ATOM     3   C11 UNL     1      -0.248   0.491  -0.720  1.00  0.00     0.127 A   
ATOM     4   N3  UNL     1      -0.869   0.450  -1.943  1.00  0.00    -0.132 NA  
ATOM     5   N4  UNL     1      -0.294   1.348  -2.727  1.00  0.00    -0.075 NA  
ATOM     6   H11 UNL     1       1.448   1.810  -0.016  1.00  0.00     0.083 HD  
ENDROOT
BRANCH   1   7
ATOM     7   C8  UNL     1       1.537   2.960  -2.653  1.00  0.00     0.155 C   
BRANCH   7   8
ATOM     8   C7  UNL     1       3.024   2.691  -2.392  1.00  0.00    -0.020 A   
ATOM     9   C2  UNL     1       3.728   1.702  -3.131  1.00  0.00    -0.043 A   
ATOM     10  C3  UNL     1       5.086   1.465  -2.855  1.00  0.00     0.043 A   
ATOM     11  C4  UNL     1       5.740   2.186  -1.866  1.00  0.00     0.123 A   
ATOM     12  C6  UNL     1       3.722   3.400  -1.392  1.00  0.00     0.009 A   
ATOM     13  C5  UNL     1       5.071   3.149  -1.133  1.00  0.00     0.039 A   
ATOM     14  C1  UNL     1       3.078   0.886  -4.219  1.00  0.00     0.045 C   
ATOM     15  F1  UNL     1       7.032   1.946  -1.617  1.00  0.00    -0.207 F   
ENDBRANCH   7   8
BRANCH   7  16
ATOM     16  C9  UNL     1       1.003   4.372  -2.330  1.00  0.00     0.185 C   
BRANCH  16  17
ATOM     17  O1  UNL     1       0.863   4.616  -0.928  1.00  0.00    -0.394 OA  
ATOM     18  H10 UNL     1       0.577   5.542  -0.831  1.00  0.00     0.210 HD  
ENDBRANCH  16  17
ENDBRANCH   7  16
ENDBRANCH   1   7
BRANCH   3  19
ATOM     19  C12 UNL     1      -0.738  -0.383   0.388  1.00  0.00     0.117 C   
BRANCH  19  20
ATOM     20  N2  UNL     1      -2.215  -0.672   0.203  1.00  0.00     0.249 N   
ATOM     21  H13 UNL     1      -2.333  -0.935  -0.786  1.00  0.00     0.199 HD  
ATOM     22  H14 UNL     1      -2.495  -1.478   0.770  1.00  0.00     0.199 HD  
BRANCH  20  23
ATOM     23  C13 UNL     1      -3.145   0.467   0.463  1.00  0.00     0.164 C   
BRANCH  23  24
ATOM     24  C14 UNL     1      -3.240   0.822   1.921  1.00  0.00    -0.002 A   
ATOM     25  C15 UNL     1      -2.634   2.004   2.409  1.00  0.00     0.012 A   
ATOM     26  C19 UNL     1      -3.909  -0.032   2.815  1.00  0.00     0.045 A   
ATOM     27  C16 UNL     1      -2.688   2.332   3.768  1.00  0.00     0.037 A   
ATOM     28  C18 UNL     1      -3.946   0.322   4.148  1.00  0.00     0.109 A   
ATOM     29  C17 UNL     1      -3.352   1.470   4.612  1.00  0.00     0.108 A   
ATOM     30  O2  UNL     1      -4.547  -0.389   5.138  1.00  0.00    -0.316 OA  
ATOM     31  O3  UNL     1      -3.507   1.627   5.951  1.00  0.00    -0.316 OA  
ATOM     32  C20 UNL     1      -4.300   0.465   6.278  1.00  0.00     0.337 C   
ENDBRANCH  23  24
ENDBRANCH  20  23
ENDBRANCH  19  20
BRANCH  19  33
ATOM     33  C21 UNL     1       0.012  -1.736   0.510  1.00  0.00     0.037 C   
ATOM     34  C22 UNL     1      -0.066  -2.616  -0.744  1.00  0.00     0.014 C   
ATOM     35  C23 UNL     1       1.480  -1.537   0.909  1.00  0.00     0.014 C   
ENDBRANCH  19  33
ENDBRANCH   3  19
TORSDOF 9
