REMARK SMILES COc1cc(O)ccc1CCn1cc([C@@H]([NH2+]Cc2ccc3c(c2)OCO3)C2CCCC2)nn1
REMARK SMILES IDX 12 1 13 2 14 3 32 4 33 5 11 7 10 8 9 9 3 10 4 11 5 12 8 13
REMARK SMILES IDX 7 14 2 15 1 16 6 17 15 19 16 20 17 23 18 24 19 25 23 26
REMARK SMILES IDX 20 27 22 28 21 29 24 30 26 31 25 32 27 33 28 34 31 35 29 36
REMARK SMILES IDX 30 37
REMARK H PARENT 13 6 6 18 16 21 16 22
ROOT
ATOM     1   N1  UNL     1       1.804  -1.095   2.557  1.00  0.00    -0.212 N   
ATOM     2   C10 UNL     1       1.176   0.118   2.611  1.00  0.00     0.045 A   
ATOM     3   C11 UNL     1      -0.037  -0.111   2.002  1.00  0.00     0.127 A   
ATOM     4   N3  UNL     1      -0.129  -1.437   1.665  1.00  0.00    -0.132 NA  
ATOM     5   N4  UNL     1       0.998  -2.032   2.022  1.00  0.00    -0.076 NA  
ATOM     6   H12 UNL     1       1.671   1.010   2.975  1.00  0.00     0.083 HD  
ENDROOT
BRANCH   1   7
ATOM     7   C9  UNL     1       3.195  -1.378   2.839  1.00  0.00     0.139 C   
BRANCH   7   8
ATOM     8   C8  UNL     1       4.035  -1.639   1.579  1.00  0.00     0.059 C   
BRANCH   8   9
ATOM     9   C7  UNL     1       3.795  -0.691   0.417  1.00  0.00    -0.016 A   
ATOM     10  C2  UNL     1       3.954   0.702   0.536  1.00  0.00     0.080 A   
ATOM     11  C3  UNL     1       3.628   1.532  -0.541  1.00  0.00     0.066 A   
ATOM     12  C4  UNL     1       3.203   0.976  -1.744  1.00  0.00     0.074 A   
ATOM     13  C6  UNL     1       3.392  -1.228  -0.821  1.00  0.00     0.009 A   
ATOM     14  C5  UNL     1       3.104  -0.399  -1.905  1.00  0.00     0.033 A   
BRANCH  10  15
ATOM     15  O1  UNL     1       4.372   1.169   1.754  1.00  0.00    -0.349 OA  
ATOM     16  C1  UNL     1       5.059   2.418   1.742  1.00  0.00     0.203 C   
ENDBRANCH  10  15
BRANCH  12  17
ATOM     17  O2  UNL     1       2.854   1.827  -2.749  1.00  0.00    -0.361 OA  
ATOM     18  H5  UNL     1       2.959   1.365  -3.600  1.00  0.00     0.218 HD  
ENDBRANCH  12  17
ENDBRANCH   8   9
ENDBRANCH   7   8
ENDBRANCH   1   7
BRANCH   3  19
ATOM     19  C12 UNL     1      -1.076   0.855   1.541  1.00  0.00     0.117 C   
BRANCH  19  20
ATOM     20  N2  UNL     1      -1.464   0.555   0.114  1.00  0.00     0.249 N   
ATOM     21  H14 UNL     1      -2.266   1.123  -0.179  1.00  0.00     0.199 HD  
ATOM     22  H15 UNL     1      -1.765  -0.429   0.085  1.00  0.00     0.199 HD  
BRANCH  20  23
ATOM     23  C13 UNL     1      -0.362   0.709  -0.885  1.00  0.00     0.164 C   
BRANCH  23  24
ATOM     24  C14 UNL     1      -0.870   0.480  -2.281  1.00  0.00    -0.002 A   
ATOM     25  C15 UNL     1      -1.246  -0.820  -2.701  1.00  0.00     0.012 A   
ATOM     26  C19 UNL     1      -0.997   1.560  -3.171  1.00  0.00     0.045 A   
ATOM     27  C16 UNL     1      -1.756  -1.040  -3.985  1.00  0.00     0.037 A   
ATOM     28  C18 UNL     1      -1.503   1.308  -4.429  1.00  0.00     0.109 A   
ATOM     29  C17 UNL     1      -1.876   0.046  -4.824  1.00  0.00     0.108 A   
ATOM     30  O3  UNL     1      -1.698   2.235  -5.402  1.00  0.00    -0.316 OA  
ATOM     31  O4  UNL     1      -2.355   0.020  -6.095  1.00  0.00    -0.316 OA  
ATOM     32  C20 UNL     1      -2.243   1.413  -6.460  1.00  0.00     0.337 C   
ENDBRANCH  23  24
ENDBRANCH  20  23
ENDBRANCH  19  20
BRANCH  19  33
ATOM     33  C21 UNL     1      -2.357   0.899   2.391  1.00  0.00     0.043 C   
ATOM     34  C22 UNL     1      -3.219  -0.372   2.418  1.00  0.00     0.010 C   
ATOM     35  C25 UNL     1      -2.133   1.221   3.871  1.00  0.00     0.010 C   
ATOM     36  C23 UNL     1      -3.913  -0.384   3.785  1.00  0.00     0.001 C   
ATOM     37  C24 UNL     1      -3.486   0.899   4.487  1.00  0.00     0.001 C   
ENDBRANCH  19  33
ENDBRANCH   3  19
TORSDOF 10
