REMARK SMILES Cc1ccc(CCn2cc([C@@H]([NH2+]Cc3ccc4c(c3)OCO4)C(C)C)nn2)cc1F
REMARK SMILES IDX 8 1 9 2 10 3 26 4 27 5 7 7 6 8 5 9 2 10 3 11 29 12 4 13
REMARK SMILES IDX 28 14 1 15 30 16 11 17 12 18 13 21 14 22 15 23 19 24 16 25
REMARK SMILES IDX 18 26 17 27 20 28 22 29 21 30 23 31 24 32 25 33
REMARK H PARENT 9 6 12 19 12 20
ROOT
ATOM     1   N1  UNL     1       2.031  -1.502  -2.073  1.00  0.00    -0.212 N   
ATOM     2   C8  UNL     1       1.413  -0.301  -1.861  1.00  0.00     0.045 A   
ATOM     3   C9  UNL     1       1.808   0.054  -0.590  1.00  0.00     0.127 A   
ATOM     4   N3  UNL     1       2.635  -0.917  -0.087  1.00  0.00    -0.132 NA  
ATOM     5   N4  UNL     1       2.771  -1.858  -1.008  1.00  0.00    -0.076 NA  
ATOM     6   H10 UNL     1       0.756   0.152  -2.591  1.00  0.00     0.083 HD  
ENDROOT
BRANCH   1   7
ATOM     7   C7  UNL     1       1.894  -2.389  -3.211  1.00  0.00     0.139 C   
BRANCH   7   8
ATOM     8   C6  UNL     1       1.177  -3.701  -2.875  1.00  0.00     0.057 C   
BRANCH   8   9
ATOM     9   C5  UNL     1      -0.216  -3.491  -2.330  1.00  0.00    -0.043 A   
ATOM     10  C2  UNL     1      -2.792  -3.001  -1.285  1.00  0.00    -0.015 A   
ATOM     11  C3  UNL     1      -2.580  -3.038  -2.668  1.00  0.00     0.007 A   
ATOM     12  C23 UNL     1      -1.707  -3.234  -0.440  1.00  0.00     0.126 A   
ATOM     13  C4  UNL     1      -1.301  -3.270  -3.187  1.00  0.00     0.004 A   
ATOM     14  C22 UNL     1      -0.434  -3.480  -0.947  1.00  0.00     0.043 A   
ATOM     15  C1  UNL     1      -4.163  -2.779  -0.722  1.00  0.00     0.047 C   
ATOM     16  F1  UNL     1      -1.865  -3.175   0.890  1.00  0.00    -0.207 F   
ENDBRANCH   8   9
ENDBRANCH   7   8
ENDBRANCH   1   7
BRANCH   3  17
ATOM     17  C10 UNL     1       1.415   1.207   0.278  1.00  0.00     0.117 C   
BRANCH  17  18
ATOM     18  N2  UNL     1       0.971   0.677   1.626  1.00  0.00     0.249 N   
ATOM     19  H12 UNL     1       1.745   0.096   1.978  1.00  0.00     0.199 HD  
ATOM     20  H13 UNL     1       0.833   1.439   2.293  1.00  0.00     0.199 HD  
BRANCH  18  21
ATOM     21  C11 UNL     1      -0.264  -0.168   1.634  1.00  0.00     0.164 C   
BRANCH  21  22
ATOM     22  C12 UNL     1      -1.504   0.616   1.307  1.00  0.00    -0.002 A   
ATOM     23  C13 UNL     1      -2.087   0.531   0.020  1.00  0.00     0.012 A   
ATOM     24  C17 UNL     1      -2.077   1.465   2.269  1.00  0.00     0.045 A   
ATOM     25  C14 UNL     1      -3.224   1.277  -0.307  1.00  0.00     0.037 A   
ATOM     26  C16 UNL     1      -3.197   2.188   1.913  1.00  0.00     0.109 A   
ATOM     27  C15 UNL     1      -3.754   2.097   0.662  1.00  0.00     0.108 A   
ATOM     28  O1  UNL     1      -3.870   3.050   2.720  1.00  0.00    -0.316 OA  
ATOM     29  O2  UNL     1      -4.849   2.889   0.523  1.00  0.00    -0.316 OA  
ATOM     30  C18 UNL     1      -4.938   3.471   1.841  1.00  0.00     0.337 C   
ENDBRANCH  21  22
ENDBRANCH  18  21
ENDBRANCH  17  18
BRANCH  17  31
ATOM     31  C19 UNL     1       2.582   2.214   0.484  1.00  0.00     0.037 C   
ATOM     32  C20 UNL     1       3.068   2.785  -0.858  1.00  0.00     0.014 C   
ATOM     33  C21 UNL     1       2.197   3.390   1.393  1.00  0.00     0.014 C   
ENDBRANCH  17  31
ENDBRANCH   3  17
TORSDOF 8
