REMARK SMILES FC(F)c1ocnc1Cn1cc([C@@H]([NH2+]Cc2ccc3c(c2)OCO3)C2CCCCC2)nn1
REMARK SMILES IDX 10 1 11 2 12 3 31 4 32 5 9 7 8 8 4 9 5 10 6 11 7 12 2 13
REMARK SMILES IDX 1 14 3 15 13 16 14 17 15 20 16 21 17 22 21 23 18 24 20 25
REMARK SMILES IDX 19 26 22 27 24 28 23 29 25 30 26 31 30 32 27 33 29 34 28 35
REMARK H PARENT 11 6 14 18 14 19
ROOT
ATOM     1   N2  UNL     1       2.187   1.800   0.448  1.00  0.00    -0.206 N   
ATOM     2   C6  UNL     1       1.107   1.522  -0.344  1.00  0.00     0.046 A   
ATOM     3   C7  UNL     1       0.222   0.891   0.499  1.00  0.00     0.127 A   
ATOM     4   N4  UNL     1       0.783   0.796   1.746  1.00  0.00    -0.132 NA  
ATOM     5   N5  UNL     1       1.977   1.361   1.707  1.00  0.00    -0.076 NA  
ATOM     6   H5  UNL     1       1.078   1.784  -1.392  1.00  0.00     0.083 HD  
ENDROOT
BRANCH   1   7
ATOM     7   C5  UNL     1       3.435   2.465   0.102  1.00  0.00     0.192 C   
BRANCH   7   8
ATOM     8   C4  UNL     1       4.010   1.915  -1.155  1.00  0.00     0.095 A   
ATOM     9   C2  UNL     1       4.576   0.678  -1.400  1.00  0.00     0.150 A   
ATOM     10  O1  UNL     1       4.963   0.645  -2.715  1.00  0.00    -0.295 OA  
ATOM     11  C3  UNL     1       4.612   1.872  -3.193  1.00  0.00     0.247 A   
ATOM     12  N1  UNL     1       4.023   2.658  -2.318  1.00  0.00    -0.232 NA  
BRANCH   9  13
ATOM     13  C1  UNL     1       4.796  -0.528  -0.585  1.00  0.00     0.398 C   
ATOM     14  F1  UNL     1       3.647  -1.259  -0.510  1.00  0.00    -0.203 F   
ATOM     15  F2  UNL     1       5.103  -0.186   0.693  1.00  0.00    -0.203 F   
ENDBRANCH   9  13
ENDBRANCH   7   8
ENDBRANCH   1   7
BRANCH   3  16
ATOM     16  C8  UNL     1      -1.114   0.269   0.249  1.00  0.00     0.117 C   
BRANCH  16  17
ATOM     17  N3  UNL     1      -1.275  -0.957   1.124  1.00  0.00     0.249 N   
ATOM     18  H7  UNL     1      -1.008  -0.659   2.073  1.00  0.00     0.199 HD  
ATOM     19  H8  UNL     1      -2.257  -1.254   1.157  1.00  0.00     0.199 HD  
BRANCH  17  20
ATOM     20  C9  UNL     1      -0.414  -2.131   0.777  1.00  0.00     0.164 C   
BRANCH  20  21
ATOM     21  C10 UNL     1      -0.919  -2.885  -0.425  1.00  0.00    -0.002 A   
ATOM     22  C11 UNL     1      -1.986  -3.812  -0.292  1.00  0.00     0.012 A   
ATOM     23  C15 UNL     1      -0.354  -2.660  -1.692  1.00  0.00     0.045 A   
ATOM     24  C12 UNL     1      -2.483  -4.503  -1.406  1.00  0.00     0.037 A   
ATOM     25  C14 UNL     1      -0.872  -3.350  -2.771  1.00  0.00     0.109 A   
ATOM     26  C13 UNL     1      -1.904  -4.247  -2.632  1.00  0.00     0.108 A   
ATOM     27  O2  UNL     1      -0.451  -3.242  -4.059  1.00  0.00    -0.316 OA  
ATOM     28  O3  UNL     1      -2.257  -4.829  -3.809  1.00  0.00    -0.316 OA  
ATOM     29  C16 UNL     1      -1.317  -4.199  -4.716  1.00  0.00     0.337 C   
ENDBRANCH  20  21
ENDBRANCH  17  20
ENDBRANCH  16  17
BRANCH  16  30
ATOM     30  C17 UNL     1      -2.315   1.219   0.506  1.00  0.00     0.043 C   
ATOM     31  C18 UNL     1      -2.330   2.389  -0.497  1.00  0.00     0.010 C   
ATOM     32  C22 UNL     1      -2.407   1.749   1.952  1.00  0.00     0.010 C   
ATOM     33  C19 UNL     1      -3.543   3.294  -0.294  1.00  0.00     0.001 C   
ATOM     34  C21 UNL     1      -3.610   2.673   2.147  1.00  0.00     0.001 C   
ATOM     35  C20 UNL     1      -3.614   3.815   1.138  1.00  0.00     0.000 C   
ENDBRANCH  16  30
ENDBRANCH   3  16
TORSDOF 8
