REMARK SMILES COc1ccc(-n2cc([C@H](CC(C)C)[NH2+]Cc3ccc4c(c3)OCO4)nn2)cc1OC
REMARK SMILES IDX 7 1 8 2 9 3 26 4 27 5 6 6 3 7 4 8 29 9 5 10 28 11 2 12 1 13
REMARK SMILES IDX 30 14 31 15 10 16 11 17 12 18 13 19 14 20 15 21 16 24 17 25
REMARK SMILES IDX 18 26 22 27 19 28 21 29 20 30 23 31 25 32 24 33
REMARK H PARENT 15 22 15 23
ROOT
ATOM     1   N1  UNL     1       2.369  -0.330   0.666  1.00  0.00    -0.181 N   
ATOM     2   C6  UNL     1       1.048  -0.223   0.276  1.00  0.00     0.135 A   
ATOM     3   C7  UNL     1       1.043  -0.551  -1.061  1.00  0.00     0.127 A   
ATOM     4   N3  UNL     1       2.318  -0.825  -1.461  1.00  0.00    -0.131 NA  
ATOM     5   N4  UNL     1       3.113  -0.687  -0.412  1.00  0.00    -0.071 NA  
ENDROOT
BRANCH   1   6
ATOM     6   C5  UNL     1       2.945  -0.102   1.939  1.00  0.00     0.060 A   
ATOM     7   C2  UNL     1       4.132   0.374   4.455  1.00  0.00     0.105 A   
ATOM     8   C3  UNL     1       4.903  -0.074   3.381  1.00  0.00     0.038 A   
ATOM     9   C22 UNL     1       2.752   0.548   4.266  1.00  0.00     0.107 A   
ATOM     10  C4  UNL     1       4.317  -0.312   2.130  1.00  0.00     0.029 A   
ATOM     11  C21 UNL     1       2.165   0.336   3.012  1.00  0.00     0.062 A   
BRANCH   7  12
ATOM     12  O1  UNL     1       4.633   0.657   5.696  1.00  0.00    -0.347 OA  
ATOM     13  C1  UNL     1       6.035   0.878   5.796  1.00  0.00     0.203 C   
ENDBRANCH   7  12
BRANCH   9  14
ATOM     14  O4  UNL     1       1.897   1.011   5.236  1.00  0.00    -0.347 OA  
ATOM     15  C23 UNL     1       1.857   0.156   6.381  1.00  0.00     0.203 C   
ENDBRANCH   9  14
ENDBRANCH   1   6
BRANCH   3  16
ATOM     16  C8  UNL     1      -0.073  -0.601  -2.053  1.00  0.00     0.114 C   
BRANCH  16  17
ATOM     17  C9  UNL     1      -0.574  -2.049  -2.237  1.00  0.00     0.064 C   
BRANCH  17  18
ATOM     18  C10 UNL     1      -1.824  -2.230  -3.123  1.00  0.00    -0.012 C   
ATOM     19  C11 UNL     1      -3.027  -1.444  -2.604  1.00  0.00     0.007 C   
ATOM     20  C12 UNL     1      -2.178  -3.718  -3.211  1.00  0.00     0.007 C   
ENDBRANCH  17  18
ENDBRANCH  16  17
BRANCH  16  21
ATOM     21  N2  UNL     1       0.384  -0.068  -3.389  1.00  0.00     0.249 N   
ATOM     22  H17 UNL     1       1.246  -0.579  -3.631  1.00  0.00     0.199 HD  
ATOM     23  H18 UNL     1      -0.305  -0.278  -4.117  1.00  0.00     0.199 HD  
BRANCH  21  24
ATOM     24  C13 UNL     1       0.698   1.394  -3.445  1.00  0.00     0.164 C   
BRANCH  24  25
ATOM     25  C14 UNL     1      -0.510   2.254  -3.193  1.00  0.00    -0.002 A   
ATOM     26  C15 UNL     1      -0.643   2.956  -1.969  1.00  0.00     0.012 A   
ATOM     27  C19 UNL     1      -1.539   2.327  -4.147  1.00  0.00     0.045 A   
ATOM     28  C16 UNL     1      -1.791   3.704  -1.691  1.00  0.00     0.037 A   
ATOM     29  C18 UNL     1      -2.656   3.076  -3.841  1.00  0.00     0.109 A   
ATOM     30  C17 UNL     1      -2.782   3.740  -2.645  1.00  0.00     0.108 A   
ATOM     31  O2  UNL     1      -3.741   3.240  -4.642  1.00  0.00    -0.316 OA  
ATOM     32  O3  UNL     1      -3.963   4.404  -2.544  1.00  0.00    -0.316 OA  
ATOM     33  C20 UNL     1      -4.556   4.113  -3.828  1.00  0.00     0.337 C   
ENDBRANCH  24  25
ENDBRANCH  21  24
ENDBRANCH  16  21
ENDBRANCH   3  16
TORSDOF 9
