REMARK SMILES CC(C)(C)[C@H]([NH2+]Cc1ccc2c(c1)OCO2)c1cn(Cc2cnc(Cl)cn2)nn1
REMARK SMILES IDX 17 1 18 2 19 3 28 4 29 5 5 7 2 8 1 9 3 10 4 11 6 12 7 15
REMARK SMILES IDX 8 16 9 17 13 18 10 19 12 20 11 21 14 22 16 23 15 24 20 25
REMARK SMILES IDX 21 26 22 27 27 28 23 29 26 30 24 31 25 32
REMARK H PARENT 18 6 6 13 6 14
ROOT
ATOM     1   C14 UNL     1       0.255   1.531  -0.529  1.00  0.00     0.127 A   
ATOM     2   C15 UNL     1      -0.521   0.582  -1.156  1.00  0.00     0.046 A   
ATOM     3   N2  UNL     1       0.314   0.042  -2.094  1.00  0.00    -0.206 N   
ATOM     4   N5  UNL     1       1.532   0.612  -2.042  1.00  0.00    -0.076 NA  
ATOM     5   N6  UNL     1       1.511   1.522  -1.082  1.00  0.00    -0.132 NA  
ATOM     6   H20 UNL     1      -1.540   0.243  -1.026  1.00  0.00     0.083 HD  
ENDROOT
BRANCH   1   7
ATOM     7   C5  UNL     1      -0.032   2.443   0.626  1.00  0.00     0.120 C   
BRANCH   7   8
ATOM     8   C2  UNL     1      -0.541   3.868   0.210  1.00  0.00     0.010 C   
ATOM     9   C1  UNL     1       0.503   4.665  -0.596  1.00  0.00     0.017 C   
ATOM     10  C3  UNL     1      -1.822   3.745  -0.647  1.00  0.00     0.017 C   
ATOM     11  C4  UNL     1      -0.921   4.684   1.468  1.00  0.00     0.017 C   
ENDBRANCH   7   8
BRANCH   7  12
ATOM     12  N1  UNL     1       1.223   2.553   1.473  1.00  0.00     0.250 N   
ATOM     13  H11 UNL     1       1.409   3.520   1.748  1.00  0.00     0.199 HD  
ATOM     14  H12 UNL     1       2.007   2.296   0.850  1.00  0.00     0.199 HD  
BRANCH  12  15
ATOM     15  C6  UNL     1       1.282   1.683   2.680  1.00  0.00     0.164 C   
BRANCH  15  16
ATOM     16  C7  UNL     1       1.383   0.218   2.367  1.00  0.00    -0.002 A   
ATOM     17  C8  UNL     1       0.258  -0.630   2.508  1.00  0.00     0.012 A   
ATOM     18  C12 UNL     1       2.600  -0.321   1.914  1.00  0.00     0.045 A   
ATOM     19  C9  UNL     1       0.342  -1.993   2.205  1.00  0.00     0.037 A   
ATOM     20  C11 UNL     1       2.652  -1.671   1.635  1.00  0.00     0.109 A   
ATOM     21  C10 UNL     1       1.555  -2.484   1.776  1.00  0.00     0.108 A   
ATOM     22  O1  UNL     1       3.751  -2.348   1.213  1.00  0.00    -0.316 OA  
ATOM     23  O2  UNL     1       1.825  -3.777   1.462  1.00  0.00    -0.316 OA  
ATOM     24  C13 UNL     1       3.234  -3.697   1.147  1.00  0.00     0.337 C   
ENDBRANCH  15  16
ENDBRANCH  12  15
ENDBRANCH   7  12
ENDBRANCH   1   7
BRANCH   3  25
ATOM     25  C16 UNL     1       0.016  -0.977  -3.080  1.00  0.00     0.191 C   
BRANCH  25  26
ATOM     26  C17 UNL     1       0.233  -2.343  -2.502  1.00  0.00     0.078 A   
ATOM     27  C18 UNL     1       1.493  -2.940  -2.529  1.00  0.00     0.138 A   
ATOM     28  N4  UNL     1      -0.836  -2.974  -1.943  1.00  0.00    -0.255 NA  
ATOM     29  N3  UNL     1       1.732  -4.177  -2.035  1.00  0.00    -0.241 NA  
ATOM     30  C20 UNL     1      -0.593  -4.218  -1.452  1.00  0.00     0.152 A   
ATOM     31  C19 UNL     1       0.661  -4.803  -1.503  1.00  0.00     0.147 A   
ATOM     32  CL1 UNL     1       0.958  -6.369  -0.884  1.00  0.00    -0.061 Cl  
ENDBRANCH  25  26
ENDBRANCH   3  25
TORSDOF 7
