REMARK SMILES Cc1c(F)cccc1CCn1cc([C@@H]([NH2+]Cc2ccc3c(c2)OCO3)C(C)C)nn1
REMARK SMILES IDX 11 1 12 2 13 3 29 4 30 5 10 7 9 8 8 9 2 10 3 11 5 12 7 13
REMARK SMILES IDX 6 14 1 15 4 16 14 17 15 18 16 21 17 22 18 23 22 24 19 25
REMARK SMILES IDX 21 26 20 27 23 28 25 29 24 30 26 31 27 32 28 33
REMARK H PARENT 12 6 15 19 15 20
ROOT
ATOM     1   N1  UNL     1      -1.403   1.196  -2.867  1.00  0.00    -0.212 N   
ATOM     2   C10 UNL     1      -0.162   0.628  -2.957  1.00  0.00     0.045 A   
ATOM     3   C11 UNL     1      -0.236  -0.462  -2.119  1.00  0.00     0.127 A   
ATOM     4   N3  UNL     1      -1.495  -0.527  -1.576  1.00  0.00    -0.132 NA  
ATOM     5   N4  UNL     1      -2.205   0.480  -2.059  1.00  0.00    -0.076 NA  
ATOM     6   H11 UNL     1       0.632   1.060  -3.551  1.00  0.00     0.083 HD  
ENDROOT
BRANCH   1   7
ATOM     7   C9  UNL     1      -1.858   2.444  -3.446  1.00  0.00     0.139 C   
BRANCH   7   8
ATOM     8   C8  UNL     1      -1.945   3.583  -2.421  1.00  0.00     0.057 C   
BRANCH   8   9
ATOM     9   C7  UNL     1      -0.615   3.884  -1.755  1.00  0.00    -0.041 A   
ATOM     10  C2  UNL     1      -0.325   3.518  -0.422  1.00  0.00    -0.012 A   
ATOM     11  C3  UNL     1       0.973   3.732   0.067  1.00  0.00     0.126 A   
ATOM     12  C4  UNL     1       1.954   4.348  -0.701  1.00  0.00     0.039 A   
ATOM     13  C6  UNL     1       0.384   4.519  -2.519  1.00  0.00     0.004 A   
ATOM     14  C5  UNL     1       1.655   4.756  -1.994  1.00  0.00     0.003 A   
ATOM     15  C1  UNL     1      -1.342   2.889   0.490  1.00  0.00     0.048 C   
ATOM     16  F1  UNL     1       1.297   3.312   1.298  1.00  0.00    -0.207 F   
ENDBRANCH   8   9
ENDBRANCH   7   8
ENDBRANCH   1   7
BRANCH   3  17
ATOM     17  C12 UNL     1       0.802  -1.447  -1.693  1.00  0.00     0.117 C   
BRANCH  17  18
ATOM     18  N2  UNL     1       0.651  -1.748  -0.226  1.00  0.00     0.249 N   
ATOM     19  H13 UNL     1       1.054  -2.657   0.020  1.00  0.00     0.199 HD  
ATOM     20  H14 UNL     1      -0.363  -1.825  -0.039  1.00  0.00     0.199 HD  
BRANCH  18  21
ATOM     21  C13 UNL     1       1.195  -0.706   0.691  1.00  0.00     0.164 C   
BRANCH  21  22
ATOM     22  C14 UNL     1       0.952  -1.077   2.126  1.00  0.00    -0.002 A   
ATOM     23  C15 UNL     1      -0.044  -0.412   2.876  1.00  0.00     0.012 A   
ATOM     24  C19 UNL     1       1.689  -2.117   2.724  1.00  0.00     0.045 A   
ATOM     25  C16 UNL     1      -0.295  -0.757   4.208  1.00  0.00     0.037 A   
ATOM     26  C18 UNL     1       1.408  -2.443   4.034  1.00  0.00     0.109 A   
ATOM     27  C17 UNL     1       0.451  -1.775   4.759  1.00  0.00     0.108 A   
ATOM     28  O1  UNL     1       2.010  -3.433   4.748  1.00  0.00    -0.316 OA  
ATOM     29  O2  UNL     1       0.344  -2.244   6.028  1.00  0.00    -0.316 OA  
ATOM     30  C20 UNL     1       1.330  -3.302   6.018  1.00  0.00     0.337 C   
ENDBRANCH  21  22
ENDBRANCH  18  21
ENDBRANCH  17  18
BRANCH  17  31
ATOM     31  C21 UNL     1       0.756  -2.756  -2.524  1.00  0.00     0.037 C   
ATOM     32  C22 UNL     1       2.017  -3.603  -2.309  1.00  0.00     0.014 C   
ATOM     33  C23 UNL     1      -0.488  -3.617  -2.274  1.00  0.00     0.014 C   
ENDBRANCH  17  31
ENDBRANCH   3  17
TORSDOF 8
