REMARK SMILES Brc1n[nH]c(-n2cc([C@@H]([NH2+]Cc3ccc4c(c3)OCO4)C3CCCCC3)nn2)n1
REMARK SMILES IDX 9 1 8 2 6 3 7 4 28 5 27 6 5 7 2 8 3 9 29 10 4 11 1 12 10 14
REMARK SMILES IDX 11 17 12 18 13 19 17 20 14 21 16 22 15 23 18 24 20 25 19 26
REMARK SMILES IDX 21 27 22 28 26 29 23 30 25 31 24 32
REMARK H PARENT 4 13 10 15 10 16
ROOT
ATOM     1   C5  UNL     1      -0.029   0.568  -0.805  1.00  0.00     0.117 C   
ENDROOT
BRANCH   1   2
ATOM     2   C4  UNL     1       1.242   1.317  -1.062  1.00  0.00     0.128 A   
ATOM     3   N3  UNL     1       2.951   2.421  -1.837  1.00  0.00    -0.148 N   
ATOM     4   C3  UNL     1       1.738   1.894  -2.209  1.00  0.00     0.138 A   
ATOM     5   N6  UNL     1       3.200   2.140  -0.538  1.00  0.00    -0.068 NA  
ATOM     6   N5  UNL     1       2.163   1.469  -0.055  1.00  0.00    -0.131 NA  
BRANCH   3   7
ATOM     7   C2  UNL     1       3.872   3.125  -2.576  1.00  0.00     0.230 A   
ATOM     8   C1  UNL     1       4.920   4.122  -4.092  1.00  0.00     0.216 A   
ATOM     9   N1  UNL     1       5.735   4.241  -3.036  1.00  0.00    -0.153 NA  
ATOM     10  N7  UNL     1       3.756   3.435  -3.848  1.00  0.00    -0.188 NA  
ATOM     11  N2  UNL     1       5.044   3.602  -2.080  1.00  0.00    -0.205 N   
ATOM     12  BR1 UNL     1       5.339   4.835  -5.784  1.00  0.00    -0.004 Br  
ATOM     13  H1  UNL     1       5.423   3.533  -1.139  1.00  0.00     0.179 HD  
ENDBRANCH   3   7
ENDBRANCH   1   2
BRANCH   1  14
ATOM     14  N4  UNL     1       0.187  -0.480   0.259  1.00  0.00     0.249 N   
ATOM     15  H4  UNL     1      -0.704  -0.786   0.666  1.00  0.00     0.199 HD  
ATOM     16  H5  UNL     1       0.715  -0.037   1.026  1.00  0.00     0.199 HD  
BRANCH  14  17
ATOM     17  C6  UNL     1       0.952  -1.683  -0.172  1.00  0.00     0.164 C   
BRANCH  17  18
ATOM     18  C7  UNL     1       1.158  -2.613   0.990  1.00  0.00    -0.002 A   
ATOM     19  C8  UNL     1       2.270  -2.442   1.849  1.00  0.00     0.012 A   
ATOM     20  C12 UNL     1       0.219  -3.622   1.265  1.00  0.00     0.045 A   
ATOM     21  C9  UNL     1       2.453  -3.271   2.961  1.00  0.00     0.037 A   
ATOM     22  C11 UNL     1       0.429  -4.420   2.370  1.00  0.00     0.109 A   
ATOM     23  C10 UNL     1       1.514  -4.251   3.194  1.00  0.00     0.108 A   
ATOM     24  O1  UNL     1      -0.379  -5.434   2.776  1.00  0.00    -0.316 OA  
ATOM     25  O2  UNL     1       1.527  -5.139   4.221  1.00  0.00    -0.316 OA  
ATOM     26  C13 UNL     1       0.337  -5.906   3.941  1.00  0.00     0.337 C   
ENDBRANCH  17  18
ENDBRANCH  14  17
ENDBRANCH   1  14
BRANCH   1  27
ATOM     27  C14 UNL     1      -1.221   1.464  -0.368  1.00  0.00     0.043 C   
ATOM     28  C15 UNL     1      -1.667   2.412  -1.499  1.00  0.00     0.010 C   
ATOM     29  C19 UNL     1      -0.970   2.261   0.927  1.00  0.00     0.010 C   
ATOM     30  C16 UNL     1      -2.892   3.231  -1.095  1.00  0.00     0.001 C   
ATOM     31  C18 UNL     1      -2.193   3.089   1.323  1.00  0.00     0.001 C   
ATOM     32  C17 UNL     1      -2.645   4.008   0.193  1.00  0.00     0.000 C   
ENDBRANCH   1  27
TORSDOF 6
