REMARK SMILES COc1ccccc1[C@H](CO)n1cc([C@@H]([NH2+]Cc2ccc3c(c2)OCO3)C(C)C)nn1
REMARK SMILES IDX 12 1 13 2 14 3 30 4 31 5 9 7 8 8 3 9 4 10 5 11 7 12 6 13
REMARK SMILES IDX 2 14 1 15 10 16 11 17 15 19 16 20 17 23 18 24 19 25 23 26
REMARK SMILES IDX 20 27 22 28 21 29 24 30 26 31 25 32 27 33 28 34 29 35
REMARK H PARENT 13 6 11 18 16 21 16 22
ROOT
ATOM     1   N1  UNL     1      -2.313   0.237   1.654  1.00  0.00    -0.202 N   
ATOM     2   C10 UNL     1      -1.070   0.331   1.087  1.00  0.00     0.046 A   
ATOM     3   C11 UNL     1      -0.757  -0.964   0.746  1.00  0.00     0.127 A   
ATOM     4   N3  UNL     1      -1.776  -1.794   1.135  1.00  0.00    -0.132 NA  
ATOM     5   N4  UNL     1      -2.712  -1.054   1.707  1.00  0.00    -0.075 NA  
ATOM     6   H12 UNL     1      -0.548   1.273   0.992  1.00  0.00     0.083 HD  
ENDROOT
BRANCH   1   7
ATOM     7   C8  UNL     1      -3.140   1.289   2.252  1.00  0.00     0.158 C   
BRANCH   7   8
ATOM     8   C7  UNL     1      -3.054   2.590   1.452  1.00  0.00     0.007 A   
ATOM     9   C2  UNL     1      -3.715   2.687   0.205  1.00  0.00     0.080 A   
ATOM     10  C3  UNL     1      -3.636   3.868  -0.541  1.00  0.00     0.034 A   
ATOM     11  C4  UNL     1      -2.909   4.958  -0.063  1.00  0.00     0.003 A   
ATOM     12  C6  UNL     1      -2.322   3.701   1.910  1.00  0.00     0.008 A   
ATOM     13  C5  UNL     1      -2.253   4.875   1.159  1.00  0.00     0.001 A   
BRANCH   9  14
ATOM     14  O1  UNL     1      -4.394   1.566  -0.195  1.00  0.00    -0.349 OA  
ATOM     15  C1  UNL     1      -5.226   1.677  -1.345  1.00  0.00     0.203 C   
ENDBRANCH   9  14
ENDBRANCH   7   8
BRANCH   7  16
ATOM     16  C9  UNL     1      -2.875   1.376   3.770  1.00  0.00     0.186 C   
BRANCH  16  17
ATOM     17  O2  UNL     1      -1.494   1.579   4.093  1.00  0.00    -0.394 OA  
ATOM     18  H11 UNL     1      -1.453   1.699   5.061  1.00  0.00     0.210 HD  
ENDBRANCH  16  17
ENDBRANCH   7  16
ENDBRANCH   1   7
BRANCH   3  19
ATOM     19  C12 UNL     1       0.483  -1.541   0.149  1.00  0.00     0.117 C   
BRANCH  19  20
ATOM     20  N2  UNL     1       0.888  -2.772   0.938  1.00  0.00     0.249 N   
ATOM     21  H14 UNL     1       0.089  -3.418   0.893  1.00  0.00     0.199 HD  
ATOM     22  H15 UNL     1       1.688  -3.232   0.500  1.00  0.00     0.199 HD  
BRANCH  20  23
ATOM     23  C13 UNL     1       1.205  -2.560   2.385  1.00  0.00     0.164 C   
BRANCH  23  24
ATOM     24  C14 UNL     1       2.385  -1.655   2.605  1.00  0.00    -0.002 A   
ATOM     25  C15 UNL     1       2.194  -0.345   3.108  1.00  0.00     0.012 A   
ATOM     26  C19 UNL     1       3.683  -2.091   2.287  1.00  0.00     0.045 A   
ATOM     27  C16 UNL     1       3.276   0.522   3.287  1.00  0.00     0.037 A   
ATOM     28  C18 UNL     1       4.728  -1.210   2.476  1.00  0.00     0.109 A   
ATOM     29  C17 UNL     1       4.531   0.059   2.960  1.00  0.00     0.108 A   
ATOM     30  O3  UNL     1       6.036  -1.470   2.214  1.00  0.00    -0.316 OA  
ATOM     31  O4  UNL     1       5.691   0.758   3.067  1.00  0.00    -0.316 OA  
ATOM     32  C20 UNL     1       6.649  -0.225   2.619  1.00  0.00     0.337 C   
ENDBRANCH  23  24
ENDBRANCH  20  23
ENDBRANCH  19  20
BRANCH  19  33
ATOM     33  C21 UNL     1       0.287  -1.934  -1.344  1.00  0.00     0.037 C   
ATOM     34  C22 UNL     1      -0.086  -0.711  -2.196  1.00  0.00     0.014 C   
ATOM     35  C23 UNL     1       1.536  -2.584  -1.955  1.00  0.00     0.014 C   
ENDBRANCH  19  33
ENDBRANCH   3  19
TORSDOF 10
