REMARK SMILES COc1ccccc1[C@@H](CO)n1cc([C@@H]([NH2+]Cc2ccc3c(c2)OCO3)C(C)C)nn1
REMARK SMILES IDX 12 1 13 2 14 3 30 4 31 5 9 7 8 8 3 9 4 10 5 11 7 12 6 13
REMARK SMILES IDX 2 14 1 15 10 16 11 17 15 19 16 20 17 23 18 24 19 25 23 26
REMARK SMILES IDX 20 27 22 28 21 29 24 30 26 31 25 32 27 33 28 34 29 35
REMARK H PARENT 13 6 11 18 16 21 16 22
ROOT
ATOM     1   N1  UNL     1       0.623  -1.133   2.993  1.00  0.00    -0.202 N   
ATOM     2   C10 UNL     1       0.235  -1.312   1.692  1.00  0.00     0.046 A   
ATOM     3   C11 UNL     1       1.323  -0.902   0.958  1.00  0.00     0.127 A   
ATOM     4   N3  UNL     1       2.332  -0.537   1.810  1.00  0.00    -0.132 NA  
ATOM     5   N4  UNL     1       1.897  -0.684   3.050  1.00  0.00    -0.075 NA  
ATOM     6   H12 UNL     1      -0.753  -1.665   1.428  1.00  0.00     0.083 HD  
ENDROOT
BRANCH   1   7
ATOM     7   C8  UNL     1      -0.152  -1.320   4.221  1.00  0.00     0.158 C   
BRANCH   7   8
ATOM     8   C7  UNL     1      -1.584  -0.806   4.049  1.00  0.00     0.007 A   
ATOM     9   C2  UNL     1      -1.825   0.585   3.979  1.00  0.00     0.080 A   
ATOM     10  C3  UNL     1      -3.125   1.068   3.797  1.00  0.00     0.034 A   
ATOM     11  C4  UNL     1      -4.197   0.183   3.698  1.00  0.00     0.003 A   
ATOM     12  C6  UNL     1      -2.682  -1.679   3.942  1.00  0.00     0.008 A   
ATOM     13  C5  UNL     1      -3.976  -1.187   3.770  1.00  0.00     0.001 A   
BRANCH   9  14
ATOM     14  O1  UNL     1      -0.721   1.399   4.046  1.00  0.00    -0.349 OA  
ATOM     15  C1  UNL     1      -0.946   2.726   4.516  1.00  0.00     0.203 C   
ENDBRANCH   9  14
ENDBRANCH   7   8
BRANCH   7  16
ATOM     16  C9  UNL     1       0.035  -2.754   4.755  1.00  0.00     0.186 C   
BRANCH  16  17
ATOM     17  O2  UNL     1      -0.350  -3.757   3.813  1.00  0.00    -0.394 OA  
ATOM     18  H11 UNL     1      -0.133  -4.620   4.216  1.00  0.00     0.210 HD  
ENDBRANCH  16  17
ENDBRANCH   7  16
ENDBRANCH   1   7
BRANCH   3  19
ATOM     19  C12 UNL     1       1.484  -0.710  -0.511  1.00  0.00     0.117 C   
BRANCH  19  20
ATOM     20  N2  UNL     1       2.254   0.564  -0.791  1.00  0.00     0.249 N   
ATOM     21  H14 UNL     1       2.467   0.630  -1.790  1.00  0.00     0.199 HD  
ATOM     22  H15 UNL     1       3.144   0.483  -0.283  1.00  0.00     0.199 HD  
BRANCH  20  23
ATOM     23  C13 UNL     1       1.620   1.837  -0.330  1.00  0.00     0.164 C   
BRANCH  23  24
ATOM     24  C14 UNL     1       0.294   2.116  -0.978  1.00  0.00    -0.002 A   
ATOM     25  C15 UNL     1      -0.905   1.956  -0.241  1.00  0.00     0.012 A   
ATOM     26  C19 UNL     1       0.231   2.507  -2.326  1.00  0.00     0.045 A   
ATOM     27  C16 UNL     1      -2.152   2.176  -0.837  1.00  0.00     0.037 A   
ATOM     28  C18 UNL     1      -1.014   2.716  -2.883  1.00  0.00     0.109 A   
ATOM     29  C17 UNL     1      -2.171   2.555  -2.160  1.00  0.00     0.108 A   
ATOM     30  O3  UNL     1      -1.251   3.091  -4.167  1.00  0.00    -0.316 OA  
ATOM     31  O4  UNL     1      -3.282   2.807  -2.900  1.00  0.00    -0.316 OA  
ATOM     32  C20 UNL     1      -2.695   3.173  -4.166  1.00  0.00     0.337 C   
ENDBRANCH  23  24
ENDBRANCH  20  23
ENDBRANCH  19  20
BRANCH  19  33
ATOM     33  C21 UNL     1       2.187  -1.886  -1.239  1.00  0.00     0.037 C   
ATOM     34  C22 UNL     1       3.607  -2.186  -0.741  1.00  0.00     0.014 C   
ATOM     35  C23 UNL     1       1.340  -3.164  -1.184  1.00  0.00     0.014 C   
ENDBRANCH  19  33
ENDBRANCH   3  19
TORSDOF 10
