REMARK SMILES Cc1cccc(CCn2cc([C@@H]([NH2+]Cc3ccc4c(c3)OCO4)C(C)(C)C)nn2)n1
REMARK SMILES IDX 9 1 10 2 11 3 28 4 29 5 8 7 7 8 6 9 2 10 3 11 30 12 4 13
REMARK SMILES IDX 5 14 1 15 12 16 13 17 14 20 15 21 16 22 20 23 17 24 19 25
REMARK SMILES IDX 18 26 21 27 23 28 22 29 24 30 25 31 26 32 27 33
REMARK H PARENT 10 6 13 18 13 19
ROOT
ATOM     1   N1  UNL     1       0.049   3.338  -1.346  1.00  0.00    -0.212 N   
ATOM     2   C9  UNL     1       0.208   2.486  -0.291  1.00  0.00     0.045 A   
ATOM     3   C10 UNL     1       1.440   1.915  -0.506  1.00  0.00     0.127 A   
ATOM     4   N3  UNL     1       1.989   2.446  -1.647  1.00  0.00    -0.132 NA  
ATOM     5   N4  UNL     1       1.127   3.312  -2.154  1.00  0.00    -0.076 NA  
ATOM     6   H11 UNL     1      -0.565   2.341   0.452  1.00  0.00     0.083 HD  
ENDROOT
BRANCH   1   7
ATOM     7   C8  UNL     1      -1.102   4.152  -1.677  1.00  0.00     0.140 C   
BRANCH   7   8
ATOM     8   C7  UNL     1      -1.934   3.560  -2.814  1.00  0.00     0.077 C   
BRANCH   8   9
ATOM     9   C6  UNL     1      -2.575   2.233  -2.482  1.00  0.00     0.042 A   
ATOM     10  C2  UNL     1      -3.496   0.819  -0.878  1.00  0.00     0.038 A   
ATOM     11  C3  UNL     1      -3.847  -0.115  -1.845  1.00  0.00     0.023 A   
ATOM     12  N5  UNL     1      -2.853   1.974  -1.181  1.00  0.00    -0.258 NA  
ATOM     13  C4  UNL     1      -3.549   0.158  -3.175  1.00  0.00     0.004 A   
ATOM     14  C5  UNL     1      -2.915   1.351  -3.503  1.00  0.00     0.024 A   
ATOM     15  C1  UNL     1      -3.822   0.571   0.564  1.00  0.00     0.067 C   
ENDBRANCH   8   9
ENDBRANCH   7   8
ENDBRANCH   1   7
BRANCH   3  16
ATOM     16  C11 UNL     1       2.144   0.805   0.209  1.00  0.00     0.120 C   
BRANCH  16  17
ATOM     17  N2  UNL     1       2.836  -0.075  -0.816  1.00  0.00     0.250 N   
ATOM     18  H13 UNL     1       3.389   0.562  -1.407  1.00  0.00     0.199 HD  
ATOM     19  H14 UNL     1       3.486  -0.724  -0.370  1.00  0.00     0.199 HD  
BRANCH  17  20
ATOM     20  C12 UNL     1       1.943  -0.843  -1.737  1.00  0.00     0.164 C   
BRANCH  20  21
ATOM     21  C13 UNL     1       1.151  -1.912  -1.038  1.00  0.00    -0.002 A   
ATOM     22  C14 UNL     1       1.790  -3.079  -0.554  1.00  0.00     0.012 A   
ATOM     23  C18 UNL     1      -0.233  -1.749  -0.844  1.00  0.00     0.045 A   
ATOM     24  C15 UNL     1       1.065  -4.069   0.118  1.00  0.00     0.037 A   
ATOM     25  C17 UNL     1      -0.919  -2.746  -0.180  1.00  0.00     0.109 A   
ATOM     26  C16 UNL     1      -0.288  -3.871   0.288  1.00  0.00     0.108 A   
ATOM     27  O1  UNL     1      -2.251  -2.749   0.087  1.00  0.00    -0.316 OA  
ATOM     28  O2  UNL     1      -1.142  -4.724   0.911  1.00  0.00    -0.316 OA  
ATOM     29  C19 UNL     1      -2.393  -4.021   0.760  1.00  0.00     0.337 C   
ENDBRANCH  20  21
ENDBRANCH  17  20
ENDBRANCH  16  17
BRANCH  16  30
ATOM     30  C20 UNL     1       3.169   1.287   1.295  1.00  0.00     0.010 C   
ATOM     31  C21 UNL     1       4.351   2.074   0.696  1.00  0.00     0.017 C   
ATOM     32  C22 UNL     1       3.738   0.076   2.071  1.00  0.00     0.017 C   
ATOM     33  C23 UNL     1       2.460   2.190   2.330  1.00  0.00     0.017 C   
ENDBRANCH  16  30
ENDBRANCH   3  16
TORSDOF 8
