REMARK SMILES CN(CCn1cc([C@@H]([NH2+]Cc2ccc3c(c2)OCO3)C2CCCC2)nn1)c1ccccc1
REMARK SMILES IDX 5 1 6 2 7 3 25 4 26 5 4 7 3 8 2 9 1 10 27 11 28 12 32 13
REMARK SMILES IDX 29 14 31 15 30 16 8 17 9 18 10 21 11 22 12 23 16 24 13 25
REMARK SMILES IDX 15 26 14 27 17 28 19 29 18 30 20 31 21 32 24 33 22 34 23 35
REMARK H PARENT 6 6 9 19 9 20
ROOT
ATOM     1   N2  UNL     1       0.850  -2.749  -2.349  1.00  0.00    -0.211 N   
ATOM     2   C4  UNL     1       0.094  -2.900  -1.219  1.00  0.00     0.045 A   
ATOM     3   C5  UNL     1      -0.715  -1.785  -1.213  1.00  0.00     0.127 A   
ATOM     4   N4  UNL     1      -0.429  -1.016  -2.310  1.00  0.00    -0.132 NA  
ATOM     5   N5  UNL     1       0.500  -1.637  -3.020  1.00  0.00    -0.076 NA  
ATOM     6   H8  UNL     1       0.233  -3.725  -0.535  1.00  0.00     0.083 HD  
ENDROOT
BRANCH   1   7
ATOM     7   C3  UNL     1       1.946  -3.580  -2.795  1.00  0.00     0.153 C   
BRANCH   7   8
ATOM     8   C2  UNL     1       3.319  -2.987  -2.459  1.00  0.00     0.126 C   
BRANCH   8   9
ATOM     9   N1  UNL     1       3.476  -2.763  -1.001  1.00  0.00    -0.332 N   
ATOM     10  C1  UNL     1       4.052  -3.897  -0.268  1.00  0.00     0.130 C   
BRANCH   9  11
ATOM     11  C20 UNL     1       3.698  -1.464  -0.521  1.00  0.00     0.028 A   
ATOM     12  C21 UNL     1       4.338  -1.209   0.710  1.00  0.00     0.023 A   
ATOM     13  C25 UNL     1       3.264  -0.322  -1.222  1.00  0.00     0.023 A   
ATOM     14  C22 UNL     1       4.562   0.093   1.187  1.00  0.00     0.002 A   
ATOM     15  C24 UNL     1       3.489   0.981  -0.758  1.00  0.00     0.002 A   
ATOM     16  C23 UNL     1       4.147   1.192   0.448  1.00  0.00     0.000 A   
ENDBRANCH   9  11
ENDBRANCH   8   9
ENDBRANCH   7   8
ENDBRANCH   1   7
BRANCH   3  17
ATOM     17  C6  UNL     1      -1.683  -1.312  -0.182  1.00  0.00     0.117 C   
BRANCH  17  18
ATOM     18  N3  UNL     1      -1.346   0.090   0.258  1.00  0.00     0.249 N   
ATOM     19  H10 UNL     1      -2.086   0.472   0.853  1.00  0.00     0.199 HD  
ATOM     20  H11 UNL     1      -1.313   0.677  -0.586  1.00  0.00     0.199 HD  
BRANCH  18  21
ATOM     21  C7  UNL     1      -0.036   0.232   0.959  1.00  0.00     0.164 C   
BRANCH  21  22
ATOM     22  C8  UNL     1       0.141   1.626   1.495  1.00  0.00    -0.002 A   
ATOM     23  C9  UNL     1      -0.102   1.905   2.860  1.00  0.00     0.012 A   
ATOM     24  C13 UNL     1       0.530   2.668   0.636  1.00  0.00     0.045 A   
ATOM     25  C10 UNL     1       0.064   3.200   3.370  1.00  0.00     0.037 A   
ATOM     26  C12 UNL     1       0.692   3.930   1.170  1.00  0.00     0.109 A   
ATOM     27  C11 UNL     1       0.469   4.188   2.500  1.00  0.00     0.108 A   
ATOM     28  O1  UNL     1       1.083   5.037   0.482  1.00  0.00    -0.316 OA  
ATOM     29  O2  UNL     1       0.688   5.490   2.820  1.00  0.00    -0.316 OA  
ATOM     30  C14 UNL     1       1.109   6.022   1.541  1.00  0.00     0.337 C   
ENDBRANCH  21  22
ENDBRANCH  18  21
ENDBRANCH  17  18
BRANCH  17  31
ATOM     31  C15 UNL     1      -3.163  -1.346  -0.616  1.00  0.00     0.043 C   
ATOM     32  C16 UNL     1      -3.581  -0.360  -1.714  1.00  0.00     0.010 C   
ATOM     33  C19 UNL     1      -3.658  -2.716  -1.121  1.00  0.00     0.010 C   
ATOM     34  C17 UNL     1      -4.912  -0.922  -2.194  1.00  0.00     0.001 C   
ATOM     35  C18 UNL     1      -4.673  -2.424  -2.229  1.00  0.00     0.001 C   
ENDBRANCH  17  31
ENDBRANCH   3  17
TORSDOF 9
