REMARK SMILES c1cc2c(cc1C[NH2+][C@H](c1cn(CCc3[nH]nc4c3COCC4)nn1)C1CCCC1)OCO2
REMARK SMILES IDX 10 1 11 2 12 3 24 4 25 5 9 7 8 8 7 11 6 12 1 13 2 14 3 15
REMARK SMILES IDX 5 16 4 17 33 18 31 19 32 20 26 21 27 22 30 23 28 24 29 25
REMARK SMILES IDX 13 26 14 27 15 28 16 29 19 30 17 31 18 32 20 33 23 34 21 35
REMARK SMILES IDX 22 36
REMARK H PARENT 11 6 8 9 8 10 16 37
ROOT
ATOM     1   C9  UNL     1       0.073   1.611   1.459  1.00  0.00     0.127 A   
ATOM     2   C10 UNL     1      -0.948   2.452   1.845  1.00  0.00     0.045 A   
ATOM     3   N2  UNL     1      -0.710   3.602   1.144  1.00  0.00    -0.212 N   
ATOM     4   N5  UNL     1       0.439   3.513   0.453  1.00  0.00    -0.076 NA  
ATOM     5   N6  UNL     1       0.934   2.300   0.648  1.00  0.00    -0.132 NA  
ATOM     6   H9  UNL     1      -1.836   2.313   2.444  1.00  0.00     0.083 HD  
ENDROOT
BRANCH   1   7
ATOM     7   C8  UNL     1       0.269   0.157   1.733  1.00  0.00     0.117 C   
BRANCH   7   8
ATOM     8   N1  UNL     1       0.238  -0.672   0.474  1.00  0.00     0.249 N   
ATOM     9   H6  UNL     1      -0.667  -0.491  -0.001  1.00  0.00     0.199 HD  
ATOM     10  H7  UNL     1       0.219  -1.668   0.712  1.00  0.00     0.199 HD  
BRANCH   8  11
ATOM     11  C7  UNL     1       1.291  -0.440  -0.557  1.00  0.00     0.164 C   
BRANCH  11  12
ATOM     12  C6  UNL     1       1.364  -1.609  -1.504  1.00  0.00    -0.002 A   
ATOM     13  C1  UNL     1       0.506  -1.677  -2.628  1.00  0.00     0.012 A   
ATOM     14  C2  UNL     1       0.536  -2.777  -3.492  1.00  0.00     0.037 A   
ATOM     15  C3  UNL     1       1.425  -3.791  -3.209  1.00  0.00     0.108 A   
ATOM     16  C5  UNL     1       2.252  -2.669  -1.247  1.00  0.00     0.045 A   
ATOM     17  C4  UNL     1       2.258  -3.738  -2.119  1.00  0.00     0.109 A   
ATOM     18  O3  UNL     1       1.591  -4.928  -3.933  1.00  0.00    -0.316 OA  
ATOM     19  O2  UNL     1       3.054  -4.836  -2.018  1.00  0.00    -0.316 OA  
ATOM     20  C24 UNL     1       2.656  -5.570  -3.198  1.00  0.00     0.337 C   
ENDBRANCH  11  12
ENDBRANCH   8  11
ENDBRANCH   7   8
BRANCH   7  21
ATOM     21  C19 UNL     1       1.530  -0.141   2.566  1.00  0.00     0.043 C   
ATOM     22  C20 UNL     1       1.751  -1.627   2.876  1.00  0.00     0.010 C   
ATOM     23  C23 UNL     1       1.485   0.479   3.968  1.00  0.00     0.010 C   
ATOM     24  C21 UNL     1       2.573  -1.667   4.165  1.00  0.00     0.001 C   
ATOM     25  C22 UNL     1       2.612  -0.237   4.695  1.00  0.00     0.001 C   
ENDBRANCH   7  21
ENDBRANCH   1   7
BRANCH   3  26
ATOM     26  C11 UNL     1      -1.603   4.728   0.961  1.00  0.00     0.140 C   
BRANCH  26  27
ATOM     27  C12 UNL     1      -2.498   4.579  -0.280  1.00  0.00     0.075 C   
BRANCH  27  28
ATOM     28  C13 UNL     1      -3.376   3.369  -0.201  1.00  0.00     0.034 A   
ATOM     29  N3  UNL     1      -4.583   3.364   0.458  1.00  0.00    -0.242 N   
ATOM     30  C15 UNL     1      -3.202   2.077  -0.652  1.00  0.00     0.020 A   
ATOM     31  N4  UNL     1      -5.103   2.131   0.603  1.00  0.00    -0.189 NA  
ATOM     32  C14 UNL     1      -4.275   1.356  -0.093  1.00  0.00     0.068 A   
ATOM     33  C16 UNL     1      -2.151   1.394  -1.440  1.00  0.00     0.199 C   
ATOM     34  C18 UNL     1      -4.374  -0.124  -0.176  1.00  0.00     0.087 C   
ATOM     35  O1  UNL     1      -2.031   0.005  -1.010  1.00  0.00    -0.376 OA  
ATOM     36  C17 UNL     1      -3.318  -0.662  -1.163  1.00  0.00     0.167 C   
ATOM     37  H14 UNL     1      -5.078   4.143   0.884  1.00  0.00     0.175 HD  
ENDBRANCH  27  28
ENDBRANCH  26  27
ENDBRANCH   3  26
TORSDOF 8
