REMARK SMILES CC(C)C[C@H]([NH2+]Cc1ccc2c(c1)OCO2)c1cn(CCc2ccc(N([O-])[O-])cc2)nn1
REMARK SMILES IDX 17 1 18 2 19 3 31 4 32 5 5 7 4 8 2 9 1 10 3 11 6 12 7 15
REMARK SMILES IDX 8 16 9 17 13 18 10 19 12 20 11 21 14 22 16 23 15 24 20 25
REMARK SMILES IDX 21 26 22 27 23 28 30 29 24 30 29 31 25 32 26 33 27 34 28 35
REMARK H PARENT 18 6 6 13 6 14
ROOT
ATOM     1   C14 UNL     1       0.842  -1.380   0.642  1.00  0.00     0.127 A   
ATOM     2   C15 UNL     1       0.879  -1.295   2.016  1.00  0.00     0.045 A   
ATOM     3   N2  UNL     1       2.103  -0.742   2.279  1.00  0.00    -0.212 N   
ATOM     4   N4  UNL     1       2.787  -0.519   1.142  1.00  0.00    -0.076 NA  
ATOM     5   N5  UNL     1       2.024  -0.906   0.131  1.00  0.00    -0.132 NA  
ATOM     6   H20 UNL     1       0.168  -1.532   2.796  1.00  0.00     0.083 HD  
ENDROOT
BRANCH   1   7
ATOM     7   C5  UNL     1      -0.246  -1.800  -0.292  1.00  0.00     0.114 C   
BRANCH   7   8
ATOM     8   C4  UNL     1      -0.054  -3.236  -0.814  1.00  0.00     0.064 C   
BRANCH   8   9
ATOM     9   C2  UNL     1      -0.162  -4.342   0.258  1.00  0.00    -0.012 C   
ATOM     10  C1  UNL     1       0.164  -5.701  -0.370  1.00  0.00     0.007 C   
ATOM     11  C3  UNL     1      -1.548  -4.392   0.903  1.00  0.00     0.007 C   
ENDBRANCH   8   9
ENDBRANCH   7   8
BRANCH   7  12
ATOM     12  N1  UNL     1      -0.253  -0.890  -1.498  1.00  0.00     0.249 N   
ATOM     13  H11 UNL     1       0.723  -0.836  -1.828  1.00  0.00     0.199 HD  
ATOM     14  H12 UNL     1      -0.795  -1.291  -2.271  1.00  0.00     0.199 HD  
BRANCH  12  15
ATOM     15  C6  UNL     1      -0.722   0.504  -1.250  1.00  0.00     0.164 C   
BRANCH  15  16
ATOM     16  C7  UNL     1      -0.581   1.331  -2.498  1.00  0.00    -0.002 A   
ATOM     17  C8  UNL     1      -1.709   1.624  -3.298  1.00  0.00     0.012 A   
ATOM     18  C12 UNL     1       0.692   1.772  -2.904  1.00  0.00     0.045 A   
ATOM     19  C9  UNL     1      -1.574   2.342  -4.493  1.00  0.00     0.037 A   
ATOM     20  C11 UNL     1       0.790   2.474  -4.088  1.00  0.00     0.109 A   
ATOM     21  C10 UNL     1      -0.311   2.747  -4.862  1.00  0.00     0.108 A   
ATOM     22  O1  UNL     1       1.938   2.955  -4.631  1.00  0.00    -0.316 OA  
ATOM     23  O2  UNL     1       0.006   3.436  -5.990  1.00  0.00    -0.316 OA  
ATOM     24  C13 UNL     1       1.436   3.576  -5.835  1.00  0.00     0.337 C   
ENDBRANCH  15  16
ENDBRANCH  12  15
ENDBRANCH   7  12
ENDBRANCH   1   7
BRANCH   3  25
ATOM     25  C16 UNL     1       2.625  -0.304   3.559  1.00  0.00     0.139 C   
BRANCH  25  26
ATOM     26  C17 UNL     1       2.678   1.223   3.704  1.00  0.00     0.057 C   
BRANCH  26  27
ATOM     27  C18 UNL     1       1.349   1.881   3.403  1.00  0.00    -0.046 A   
ATOM     28  C19 UNL     1       0.281   1.787   4.310  1.00  0.00     0.006 A   
ATOM     29  C23 UNL     1       1.155   2.519   2.167  1.00  0.00     0.006 A   
ATOM     30  C20 UNL     1      -0.983   2.272   3.966  1.00  0.00     0.031 A   
ATOM     31  C22 UNL     1      -0.102   3.007   1.814  1.00  0.00     0.031 A   
ATOM     32  C21 UNL     1      -1.166   2.856   2.709  1.00  0.00     0.118 A   
BRANCH  32  33
ATOM     33  N3  UNL     1      -2.507   3.233   2.279  1.00  0.00     0.092 N   
ATOM     34  O3  UNL     1      -2.772   3.060   1.076  1.00  0.00    -0.138 OA  
ATOM     35  O4  UNL     1      -3.296   3.647   3.138  1.00  0.00    -0.138 OA  
ENDBRANCH  32  33
ENDBRANCH  26  27
ENDBRANCH  25  26
ENDBRANCH   3  25
TORSDOF 10
