REMARK SMILES COc1c(C)ccnc1Cn1cc([C@@H]([NH2+]Cc2ccc3c(c2)OCO3)C(C)(C)C)nn1
REMARK SMILES IDX 11 1 12 2 13 3 30 4 31 5 10 7 9 8 3 9 4 10 6 11 8 12 7 13
REMARK SMILES IDX 5 14 2 15 1 16 14 17 15 18 16 21 17 22 18 23 22 24 19 25
REMARK SMILES IDX 21 26 20 27 23 28 25 29 24 30 26 31 27 32 28 33 29 34
REMARK H PARENT 12 6 15 19 15 20
ROOT
ATOM     1   N2  UNL     1       1.204  -0.174  -2.538  1.00  0.00    -0.206 N   
ATOM     2   C9  UNL     1      -0.047  -0.102  -1.990  1.00  0.00     0.046 A   
ATOM     3   C10 UNL     1       0.025   0.971  -1.132  1.00  0.00     0.127 A   
ATOM     4   N4  UNL     1       1.278   1.526  -1.210  1.00  0.00    -0.132 NA  
ATOM     5   N5  UNL     1       1.987   0.822  -2.077  1.00  0.00    -0.076 NA  
ATOM     6   H11 UNL     1      -0.815  -0.832  -2.211  1.00  0.00     0.083 HD  
ENDROOT
BRANCH   1   7
ATOM     7   C8  UNL     1       1.718  -1.168  -3.461  1.00  0.00     0.192 C   
BRANCH   7   8
ATOM     8   C7  UNL     1       2.313  -2.326  -2.701  1.00  0.00     0.090 A   
ATOM     9   C2  UNL     1       3.662  -2.671  -2.850  1.00  0.00     0.101 A   
ATOM     10  C3  UNL     1       4.147  -3.826  -2.224  1.00  0.00    -0.017 A   
ATOM     11  C5  UNL     1       3.274  -4.549  -1.405  1.00  0.00     0.026 A   
ATOM     12  N1  UNL     1       1.461  -3.034  -1.903  1.00  0.00    -0.257 NA  
ATOM     13  C6  UNL     1       1.962  -4.123  -1.280  1.00  0.00     0.112 A   
ATOM     14  C4  UNL     1       5.563  -4.296  -2.389  1.00  0.00     0.047 C   
BRANCH   9  15
ATOM     15  O1  UNL     1       4.466  -1.933  -3.677  1.00  0.00    -0.347 OA  
ATOM     16  C1  UNL     1       5.254  -1.004  -2.927  1.00  0.00     0.203 C   
ENDBRANCH   9  15
ENDBRANCH   7   8
ENDBRANCH   1   7
BRANCH   3  17
ATOM     17  C11 UNL     1      -0.956   1.475  -0.121  1.00  0.00     0.120 C   
BRANCH  17  18
ATOM     18  N3  UNL     1      -0.231   1.760   1.182  1.00  0.00     0.250 N   
ATOM     19  H13 UNL     1      -0.861   2.196   1.859  1.00  0.00     0.199 HD  
ATOM     20  H14 UNL     1       0.511   2.437   0.962  1.00  0.00     0.199 HD  
BRANCH  18  21
ATOM     21  C12 UNL     1       0.438   0.593   1.841  1.00  0.00     0.164 C   
BRANCH  21  22
ATOM     22  C13 UNL     1      -0.512  -0.510   2.213  1.00  0.00    -0.002 A   
ATOM     23  C14 UNL     1      -0.501  -1.729   1.492  1.00  0.00     0.012 A   
ATOM     24  C18 UNL     1      -1.439  -0.330   3.254  1.00  0.00     0.045 A   
ATOM     25  C15 UNL     1      -1.405  -2.753   1.796  1.00  0.00     0.037 A   
ATOM     26  C17 UNL     1      -2.315  -1.360   3.527  1.00  0.00     0.109 A   
ATOM     27  C16 UNL     1      -2.300  -2.536   2.819  1.00  0.00     0.108 A   
ATOM     28  O2  UNL     1      -3.274  -1.346   4.490  1.00  0.00    -0.316 OA  
ATOM     29  O3  UNL     1      -3.246  -3.412   3.248  1.00  0.00    -0.316 OA  
ATOM     30  C19 UNL     1      -3.845  -2.665   4.328  1.00  0.00     0.337 C   
ENDBRANCH  21  22
ENDBRANCH  18  21
ENDBRANCH  17  18
BRANCH  17  31
ATOM     31  C20 UNL     1      -1.769   2.736  -0.584  1.00  0.00     0.010 C   
ATOM     32  C21 UNL     1      -0.883   3.977  -0.811  1.00  0.00     0.017 C   
ATOM     33  C22 UNL     1      -2.844   3.098   0.467  1.00  0.00     0.017 C   
ATOM     34  C23 UNL     1      -2.514   2.425  -1.903  1.00  0.00     0.017 C   
ENDBRANCH  17  31
ENDBRANCH   3  17
TORSDOF 8
