REMARK SMILES Cc1cccc(F)c1[C@@H](CO)n1cc([C@@H]([NH2+]Cc2ccc3c(c2)OCO3)C2CCCC2)nn1
REMARK SMILES IDX 12 1 13 2 14 3 32 4 33 5 9 7 8 8 2 9 3 10 4 11 6 12 5 13
REMARK SMILES IDX 1 14 7 15 10 16 11 17 15 19 16 20 17 23 18 24 19 25 23 26
REMARK SMILES IDX 20 27 22 28 21 29 24 30 26 31 25 32 27 33 28 34 31 35 29 36
REMARK SMILES IDX 30 37
REMARK H PARENT 13 6 11 18 16 21 16 22
ROOT
ATOM     1   N1  UNL     1       0.627   1.508   1.849  1.00  0.00    -0.202 N   
ATOM     2   C10 UNL     1       0.738   1.015   0.576  1.00  0.00     0.046 A   
ATOM     3   C11 UNL     1      -0.370   1.505  -0.077  1.00  0.00     0.127 A   
ATOM     4   N3  UNL     1      -1.114   2.253   0.796  1.00  0.00    -0.132 NA  
ATOM     5   N4  UNL     1      -0.502   2.245   1.968  1.00  0.00    -0.075 NA  
ATOM     6   H11 UNL     1       1.553   0.378   0.266  1.00  0.00     0.083 HD  
ENDROOT
BRANCH   1   7
ATOM     7   C8  UNL     1       1.491   1.310   3.016  1.00  0.00     0.158 C   
BRANCH   7   8
ATOM     8   C7  UNL     1       0.877   0.282   3.960  1.00  0.00     0.016 A   
ATOM     9   C2  UNL     1       0.459   0.612   5.269  1.00  0.00    -0.043 A   
ATOM     10  C3  UNL     1      -0.088  -0.391   6.091  1.00  0.00     0.004 A   
ATOM     11  C4  UNL     1      -0.226  -1.702   5.635  1.00  0.00     0.003 A   
ATOM     12  C6  UNL     1       0.722  -1.048   3.530  1.00  0.00     0.128 A   
ATOM     13  C5  UNL     1       0.180  -2.032   4.349  1.00  0.00     0.039 A   
ATOM     14  C1  UNL     1       0.574   2.008   5.825  1.00  0.00     0.045 C   
ATOM     15  F1  UNL     1       1.101  -1.397   2.291  1.00  0.00    -0.207 F   
ENDBRANCH   7   8
BRANCH   7  16
ATOM     16  C9  UNL     1       2.955   0.964   2.674  1.00  0.00     0.186 C   
BRANCH  16  17
ATOM     17  O1  UNL     1       3.574   2.031   1.955  1.00  0.00    -0.394 OA  
ATOM     18  H10 UNL     1       4.531   1.846   1.924  1.00  0.00     0.210 HD  
ENDBRANCH  16  17
ENDBRANCH   7  16
ENDBRANCH   1   7
BRANCH   3  19
ATOM     19  C12 UNL     1      -0.872   1.265  -1.460  1.00  0.00     0.117 C   
BRANCH  19  20
ATOM     20  N2  UNL     1      -2.385   1.155  -1.456  1.00  0.00     0.249 N   
ATOM     21  H13 UNL     1      -2.732   2.010  -1.001  1.00  0.00     0.199 HD  
ATOM     22  H14 UNL     1      -2.739   1.147  -2.416  1.00  0.00     0.199 HD  
BRANCH  20  23
ATOM     23  C13 UNL     1      -2.966   0.000  -0.705  1.00  0.00     0.164 C   
BRANCH  23  24
ATOM     24  C14 UNL     1      -2.578  -1.335  -1.276  1.00  0.00    -0.002 A   
ATOM     25  C15 UNL     1      -3.149  -1.792  -2.489  1.00  0.00     0.012 A   
ATOM     26  C19 UNL     1      -1.617  -2.127  -0.622  1.00  0.00     0.045 A   
ATOM     27  C16 UNL     1      -2.765  -3.016  -3.046  1.00  0.00     0.037 A   
ATOM     28  C18 UNL     1      -1.261  -3.328  -1.199  1.00  0.00     0.109 A   
ATOM     29  C17 UNL     1      -1.817  -3.759  -2.377  1.00  0.00     0.108 A   
ATOM     30  O2  UNL     1      -0.348  -4.204  -0.703  1.00  0.00    -0.316 OA  
ATOM     31  O3  UNL     1      -1.326  -4.963  -2.772  1.00  0.00    -0.316 OA  
ATOM     32  C20 UNL     1      -0.414  -5.257  -1.692  1.00  0.00     0.337 C   
ENDBRANCH  23  24
ENDBRANCH  20  23
ENDBRANCH  19  20
BRANCH  19  33
ATOM     33  C21 UNL     1      -0.484   2.345  -2.487  1.00  0.00     0.043 C   
ATOM     34  C22 UNL     1      -0.965   3.771  -2.205  1.00  0.00     0.010 C   
ATOM     35  C25 UNL     1       1.021   2.545  -2.673  1.00  0.00     0.010 C   
ATOM     36  C23 UNL     1      -0.125   4.645  -3.136  1.00  0.00     0.001 C   
ATOM     37  C24 UNL     1       1.112   3.822  -3.500  1.00  0.00     0.001 C   
ENDBRANCH  19  33
ENDBRANCH   3  19
TORSDOF 9
