REMARK SMILES Cc1cccc(F)c1[C@H](CO)n1cc([C@@H]([NH2+]Cc2ccc3c(c2)OCO3)C2CCCC2)nn1
REMARK SMILES IDX 12 1 13 2 14 3 32 4 33 5 9 7 8 8 2 9 3 10 4 11 6 12 5 13
REMARK SMILES IDX 1 14 7 15 10 16 11 17 15 19 16 20 17 23 18 24 19 25 23 26
REMARK SMILES IDX 20 27 22 28 21 29 24 30 26 31 25 32 27 33 28 34 31 35 29 36
REMARK SMILES IDX 30 37
REMARK H PARENT 13 6 11 18 16 21 16 22
ROOT
ATOM     1   N1  UNL     1      -1.017  -1.221  -1.691  1.00  0.00    -0.202 N   
ATOM     2   C10 UNL     1      -0.677   0.029  -1.249  1.00  0.00     0.046 A   
ATOM     3   C11 UNL     1       0.563  -0.136  -0.678  1.00  0.00     0.127 A   
ATOM     4   N3  UNL     1       0.937  -1.446  -0.797  1.00  0.00    -0.132 NA  
ATOM     5   N4  UNL     1      -0.040  -2.102  -1.400  1.00  0.00    -0.075 NA  
ATOM     6   H11 UNL     1      -1.341   0.874  -1.354  1.00  0.00     0.083 HD  
ENDROOT
BRANCH   1   7
ATOM     7   C8  UNL     1      -2.289  -1.641  -2.284  1.00  0.00     0.158 C   
BRANCH   7   8
ATOM     8   C7  UNL     1      -3.183  -2.247  -1.206  1.00  0.00     0.016 A   
ATOM     9   C2  UNL     1      -3.236  -3.610  -0.834  1.00  0.00    -0.043 A   
ATOM     10  C3  UNL     1      -4.139  -4.012   0.173  1.00  0.00     0.004 A   
ATOM     11  C4  UNL     1      -4.947  -3.093   0.840  1.00  0.00     0.003 A   
ATOM     12  C6  UNL     1      -3.997  -1.342  -0.490  1.00  0.00     0.128 A   
ATOM     13  C5  UNL     1      -4.866  -1.748   0.516  1.00  0.00     0.039 A   
ATOM     14  C1  UNL     1      -2.386  -4.691  -1.453  1.00  0.00     0.045 C   
ATOM     15  F1  UNL     1      -3.916  -0.030  -0.753  1.00  0.00    -0.207 F   
ENDBRANCH   7   8
BRANCH   7  16
ATOM     16  C9  UNL     1      -2.093  -2.448  -3.578  1.00  0.00     0.186 C   
BRANCH  16  17
ATOM     17  O1  UNL     1      -1.730  -1.571  -4.652  1.00  0.00    -0.394 OA  
ATOM     18  H10 UNL     1      -1.532  -2.126  -5.429  1.00  0.00     0.210 HD  
ENDBRANCH  16  17
ENDBRANCH   7  16
ENDBRANCH   1   7
BRANCH   3  19
ATOM     19  C12 UNL     1       1.429   0.819   0.072  1.00  0.00     0.117 C   
BRANCH  19  20
ATOM     20  N2  UNL     1       2.167   0.112   1.192  1.00  0.00     0.249 N   
ATOM     21  H13 UNL     1       2.701  -0.649   0.752  1.00  0.00     0.199 HD  
ATOM     22  H14 UNL     1       2.839   0.752   1.625  1.00  0.00     0.199 HD  
BRANCH  20  23
ATOM     23  C13 UNL     1       1.331  -0.516   2.260  1.00  0.00     0.164 C   
BRANCH  23  24
ATOM     24  C14 UNL     1       0.462   0.459   3.005  1.00  0.00    -0.002 A   
ATOM     25  C15 UNL     1      -0.938   0.455   2.798  1.00  0.00     0.012 A   
ATOM     26  C19 UNL     1       1.027   1.383   3.902  1.00  0.00     0.045 A   
ATOM     27  C16 UNL     1      -1.768   1.353   3.476  1.00  0.00     0.037 A   
ATOM     28  C18 UNL     1       0.179   2.255   4.557  1.00  0.00     0.109 A   
ATOM     29  C17 UNL     1      -1.177   2.240   4.350  1.00  0.00     0.108 A   
ATOM     30  O2  UNL     1       0.556   3.200   5.458  1.00  0.00    -0.316 OA  
ATOM     31  O3  UNL     1      -1.824   3.174   5.096  1.00  0.00    -0.316 OA  
ATOM     32  C20 UNL     1      -0.724   3.762   5.822  1.00  0.00     0.337 C   
ENDBRANCH  23  24
ENDBRANCH  20  23
ENDBRANCH  19  20
BRANCH  19  33
ATOM     33  C21 UNL     1       2.480   1.549  -0.786  1.00  0.00     0.043 C   
ATOM     34  C22 UNL     1       3.502   0.673  -1.515  1.00  0.00     0.010 C   
ATOM     35  C25 UNL     1       1.909   2.394  -1.925  1.00  0.00     0.010 C   
ATOM     36  C23 UNL     1       4.124   1.604  -2.559  1.00  0.00     0.001 C   
ATOM     37  C24 UNL     1       3.145   2.766  -2.735  1.00  0.00     0.001 C   
ENDBRANCH  19  33
ENDBRANCH   3  19
TORSDOF 9
