REMARK SMILES COc1cncc(Cn2cc([C@@H]([NH2+]Cc3ccc4c(c3)OCO4)C(C)(C)C)nn2)c1
REMARK SMILES IDX 9 1 10 2 11 3 28 4 29 5 8 7 7 8 3 9 4 10 30 11 5 12 6 13
REMARK SMILES IDX 2 14 1 15 12 16 13 17 14 20 15 21 16 22 20 23 17 24 19 25
REMARK SMILES IDX 18 26 21 27 23 28 22 29 24 30 25 31 26 32 27 33
REMARK H PARENT 10 6 13 18 13 19
ROOT
ATOM     1   N2  UNL     1       3.205   0.325   0.606  1.00  0.00    -0.208 N   
ATOM     2   C7  UNL     1       1.967   0.217   1.178  1.00  0.00     0.046 A   
ATOM     3   C8  UNL     1       1.567  -1.064   0.865  1.00  0.00     0.127 A   
ATOM     4   N4  UNL     1       2.571  -1.692   0.174  1.00  0.00    -0.132 NA  
ATOM     5   N5  UNL     1       3.564  -0.832   0.017  1.00  0.00    -0.076 NA  
ATOM     6   H8  UNL     1       1.479   1.049   1.667  1.00  0.00     0.083 HD  
ENDROOT
BRANCH   1   7
ATOM     7   C6  UNL     1       3.999   1.530   0.420  1.00  0.00     0.171 C   
BRANCH   7   8
ATOM     8   C5  UNL     1       3.346   2.411  -0.608  1.00  0.00    -0.008 A   
ATOM     9   C2  UNL     1       2.006   4.337  -1.218  1.00  0.00     0.093 A   
ATOM     10  C3  UNL     1       2.054   3.881  -2.527  1.00  0.00     0.144 A   
ATOM     11  C22 UNL     1       2.661   3.577  -0.249  1.00  0.00     0.042 A   
ATOM     12  N1  UNL     1       2.695   2.749  -2.911  1.00  0.00    -0.262 NA  
ATOM     13  C4  UNL     1       3.342   2.054  -1.953  1.00  0.00     0.116 A   
BRANCH   9  14
ATOM     14  O1  UNL     1       1.365   5.447  -0.754  1.00  0.00    -0.348 OA  
ATOM     15  C1  UNL     1       0.817   6.322  -1.736  1.00  0.00     0.203 C   
ENDBRANCH   9  14
ENDBRANCH   7   8
ENDBRANCH   1   7
BRANCH   3  16
ATOM     16  C9  UNL     1       0.243  -1.738   1.040  1.00  0.00     0.120 C   
BRANCH  16  17
ATOM     17  N3  UNL     1      -0.135  -2.463  -0.240  1.00  0.00     0.250 N   
ATOM     18  H10 UNL     1      -1.002  -2.988  -0.114  1.00  0.00     0.199 HD  
ATOM     19  H11 UNL     1       0.615  -3.142  -0.427  1.00  0.00     0.199 HD  
BRANCH  17  20
ATOM     20  C10 UNL     1      -0.263  -1.626  -1.478  1.00  0.00     0.164 C   
BRANCH  20  21
ATOM     21  C11 UNL     1      -1.248  -0.498  -1.348  1.00  0.00    -0.002 A   
ATOM     22  C12 UNL     1      -0.796   0.845  -1.393  1.00  0.00     0.012 A   
ATOM     23  C16 UNL     1      -2.616  -0.760  -1.162  1.00  0.00     0.045 A   
ATOM     24  C13 UNL     1      -1.688   1.911  -1.238  1.00  0.00     0.037 A   
ATOM     25  C15 UNL     1      -3.468   0.315  -1.015  1.00  0.00     0.109 A   
ATOM     26  C14 UNL     1      -3.018   1.612  -1.048  1.00  0.00     0.108 A   
ATOM     27  O2  UNL     1      -4.811   0.235  -0.822  1.00  0.00    -0.316 OA  
ATOM     28  O3  UNL     1      -4.021   2.512  -0.881  1.00  0.00    -0.316 OA  
ATOM     29  C17 UNL     1      -5.165   1.637  -0.776  1.00  0.00     0.337 C   
ENDBRANCH  20  21
ENDBRANCH  17  20
ENDBRANCH  16  17
BRANCH  16  30
ATOM     30  C18 UNL     1       0.175  -2.717   2.266  1.00  0.00     0.010 C   
ATOM     31  C19 UNL     1       1.119  -3.928   2.126  1.00  0.00     0.017 C   
ATOM     32  C20 UNL     1      -1.265  -3.249   2.449  1.00  0.00     0.017 C   
ATOM     33  C21 UNL     1       0.546  -1.962   3.563  1.00  0.00     0.017 C   
ENDBRANCH  16  30
ENDBRANCH   3  16
TORSDOF 8
