REMARK SMILES Clc1cncc(-n2cc([C@@H]([NH2+]Cc3ccc4c(c3)OCO4)C3CCCCC3)nn2)c1
REMARK SMILES IDX 10 1 9 2 7 3 8 4 29 5 28 6 6 7 2 8 3 9 30 10 4 11 5 12 1 13
REMARK SMILES IDX 11 14 12 17 13 18 14 19 18 20 15 21 17 22 16 23 19 24 21 25
REMARK SMILES IDX 20 26 22 27 23 28 27 29 24 30 26 31 25 32
REMARK H PARENT 11 15 11 16
ROOT
ATOM     1   C7  UNL     1       0.411   0.646   1.230  1.00  0.00     0.117 C   
ENDROOT
BRANCH   1   2
ATOM     2   C6  UNL     1       0.375  -0.039  -0.102  1.00  0.00     0.127 A   
ATOM     3   N2  UNL     1       0.392  -1.434  -1.786  1.00  0.00    -0.179 N   
ATOM     4   C5  UNL     1       0.053  -1.332  -0.451  1.00  0.00     0.135 A   
ATOM     5   N5  UNL     1       0.825  -0.224  -2.221  1.00  0.00    -0.071 NA  
ATOM     6   N4  UNL     1       0.838   0.621  -1.204  1.00  0.00    -0.131 NA  
BRANCH   3   7
ATOM     7   C4  UNL     1       0.383  -2.570  -2.619  1.00  0.00     0.077 A   
ATOM     8   C1  UNL     1       0.080  -4.924  -3.007  1.00  0.00     0.061 A   
ATOM     9   C2  UNL     1       0.464  -4.713  -4.321  1.00  0.00     0.131 A   
ATOM     10  C22 UNL     1       0.033  -3.836  -2.138  1.00  0.00     0.049 A   
ATOM     11  N1  UNL     1       0.803  -3.498  -4.813  1.00  0.00    -0.261 NA  
ATOM     12  C3  UNL     1       0.759  -2.452  -3.954  1.00  0.00     0.137 A   
ATOM     13  CL1 UNL     1      -0.318  -6.495  -2.443  1.00  0.00    -0.083 Cl  
ENDBRANCH   3   7
ENDBRANCH   1   2
BRANCH   1  14
ATOM     14  N3  UNL     1       1.789   1.274   1.385  1.00  0.00     0.249 N   
ATOM     15  H5  UNL     1       1.736   2.182   1.855  1.00  0.00     0.199 HD  
ATOM     16  H6  UNL     1       2.112   1.491   0.428  1.00  0.00     0.199 HD  
BRANCH  14  17
ATOM     17  C8  UNL     1       2.831   0.442   2.058  1.00  0.00     0.164 C   
BRANCH  17  18
ATOM     18  C9  UNL     1       3.134  -0.849   1.347  1.00  0.00    -0.002 A   
ATOM     19  C10 UNL     1       3.838  -0.843   0.118  1.00  0.00     0.012 A   
ATOM     20  C14 UNL     1       2.665  -2.069   1.866  1.00  0.00     0.045 A   
ATOM     21  C11 UNL     1       4.053  -2.028  -0.595  1.00  0.00     0.037 A   
ATOM     22  C13 UNL     1       2.889  -3.217   1.135  1.00  0.00     0.109 A   
ATOM     23  C12 UNL     1       3.560  -3.198  -0.062  1.00  0.00     0.108 A   
ATOM     24  O1  UNL     1       2.468  -4.464   1.473  1.00  0.00    -0.316 OA  
ATOM     25  O2  UNL     1       3.651  -4.431  -0.625  1.00  0.00    -0.316 OA  
ATOM     26  C15 UNL     1       3.021  -5.245   0.387  1.00  0.00     0.337 C   
ENDBRANCH  17  18
ENDBRANCH  14  17
ENDBRANCH   1  14
BRANCH   1  27
ATOM     27  C16 UNL     1      -0.677   1.746   1.383  1.00  0.00     0.043 C   
ATOM     28  C17 UNL     1      -0.684   2.344   2.810  1.00  0.00     0.010 C   
ATOM     29  C21 UNL     1      -2.086   1.197   1.059  1.00  0.00     0.010 C   
ATOM     30  C18 UNL     1      -1.781   3.390   2.997  1.00  0.00     0.001 C   
ATOM     31  C20 UNL     1      -3.179   2.245   1.253  1.00  0.00     0.001 C   
ATOM     32  C19 UNL     1      -3.156   2.830   2.658  1.00  0.00     0.000 C   
ENDBRANCH   1  27
TORSDOF 6
