REMARK SMILES Cc1nccc(-n2cc([C@@H]([NH2+]Cc3ccc4c(c3)OCO4)C3CCCC3)nn2)c1Cl
REMARK SMILES IDX 10 1 9 2 7 3 8 4 28 5 27 6 6 7 2 8 3 9 29 10 4 11 5 12 1 13
REMARK SMILES IDX 30 14 11 15 12 18 13 19 14 20 18 21 15 22 17 23 16 24 19 25
REMARK SMILES IDX 21 26 20 27 22 28 23 29 26 30 24 31 25 32
REMARK H PARENT 11 16 11 17
ROOT
ATOM     1   C8  UNL     1       0.822  -1.765  -0.327  1.00  0.00     0.117 C   
ENDROOT
BRANCH   1   2
ATOM     2   C7  UNL     1       0.099  -0.521   0.080  1.00  0.00     0.127 A   
ATOM     3   N2  UNL     1      -0.923   1.417   0.235  1.00  0.00    -0.179 N   
ATOM     4   C6  UNL     1      -0.570   0.426  -0.661  1.00  0.00     0.135 A   
ATOM     5   N5  UNL     1      -0.553   1.000   1.482  1.00  0.00    -0.071 NA  
ATOM     6   N4  UNL     1       0.094  -0.149   1.390  1.00  0.00    -0.131 NA  
BRANCH   3   7
ATOM     7   C5  UNL     1      -1.575   2.670   0.061  1.00  0.00     0.080 A   
ATOM     8   C2  UNL     1      -2.447   4.546  -1.176  1.00  0.00     0.058 A   
ATOM     9   N1  UNL     1      -2.950   5.114  -0.050  1.00  0.00    -0.260 NA  
ATOM     10  C22 UNL     1      -1.744   3.327  -1.171  1.00  0.00     0.085 A   
ATOM     11  C3  UNL     1      -2.752   4.484   1.119  1.00  0.00     0.113 A   
ATOM     12  C4  UNL     1      -2.079   3.284   1.224  1.00  0.00     0.047 A   
ATOM     13  C1  UNL     1      -2.683   5.335  -2.435  1.00  0.00     0.068 C   
ATOM     14  CL1 UNL     1      -1.055   2.787  -2.664  1.00  0.00    -0.080 Cl  
ENDBRANCH   3   7
ENDBRANCH   1   2
BRANCH   1  15
ATOM     15  N3  UNL     1       2.130  -1.840   0.440  1.00  0.00     0.249 N   
ATOM     16  H8  UNL     1       2.355  -2.807   0.692  1.00  0.00     0.199 HD  
ATOM     17  H9  UNL     1       1.964  -1.354   1.335  1.00  0.00     0.199 HD  
BRANCH  15  18
ATOM     18  C9  UNL     1       3.323  -1.229  -0.218  1.00  0.00     0.164 C   
BRANCH  18  19
ATOM     19  C10 UNL     1       3.182   0.238  -0.513  1.00  0.00    -0.002 A   
ATOM     20  C11 UNL     1       3.164   1.185   0.540  1.00  0.00     0.012 A   
ATOM     21  C15 UNL     1       3.030   0.680  -1.839  1.00  0.00     0.045 A   
ATOM     22  C12 UNL     1       2.976   2.547   0.281  1.00  0.00     0.037 A   
ATOM     23  C14 UNL     1       2.853   2.030  -2.059  1.00  0.00     0.109 A   
ATOM     24  C13 UNL     1       2.822   2.938  -1.030  1.00  0.00     0.108 A   
ATOM     25  O1  UNL     1       2.683   2.616  -3.273  1.00  0.00    -0.316 OA  
ATOM     26  O2  UNL     1       2.626   4.209  -1.466  1.00  0.00    -0.316 OA  
ATOM     27  C16 UNL     1       2.600   4.010  -2.895  1.00  0.00     0.337 C   
ENDBRANCH  18  19
ENDBRANCH  15  18
ENDBRANCH   1  15
BRANCH   1  28
ATOM     28  C17 UNL     1       0.000  -3.035  -0.032  1.00  0.00     0.043 C   
ATOM     29  C18 UNL     1       0.670  -4.337  -0.489  1.00  0.00     0.010 C   
ATOM     30  C21 UNL     1      -1.329  -3.087  -0.793  1.00  0.00     0.010 C   
ATOM     31  C19 UNL     1      -0.465  -5.350  -0.624  1.00  0.00     0.001 C   
ATOM     32  C20 UNL     1      -1.758  -4.542  -0.673  1.00  0.00     0.001 C   
ENDBRANCH   1  28
TORSDOF 6
