REMARK SMILES Cc1ccc(C(=O)Cn2cc([C@@H]([NH2+]Cc3ccc4c(c3)OCO4)C(C)C)nn2)c(C)c1
REMARK SMILES IDX 9 1 10 2 11 3 27 4 28 5 8 7 6 8 7 9 5 10 2 11 3 12 31 13
REMARK SMILES IDX 4 14 29 15 1 16 30 17 12 18 13 19 14 22 15 23 16 24 20 25
REMARK SMILES IDX 17 26 19 27 18 28 21 29 23 30 22 31 24 32 25 33 26 34
REMARK H PARENT 10 6 13 20 13 21
ROOT
ATOM     1   N1  UNL     1      -1.585   0.695   0.354  1.00  0.00    -0.204 N   
ATOM     2   C8  UNL     1      -0.822   1.584   1.062  1.00  0.00     0.046 A   
ATOM     3   C9  UNL     1      -0.273   2.391   0.092  1.00  0.00     0.127 A   
ATOM     4   N3  UNL     1      -0.754   2.013  -1.138  1.00  0.00    -0.132 NA  
ATOM     5   N4  UNL     1      -1.577   0.993  -0.960  1.00  0.00    -0.076 NA  
ATOM     6   H8  UNL     1      -0.697   1.512   2.135  1.00  0.00     0.083 HD  
ENDROOT
BRANCH   1   7
ATOM     7   C7  UNL     1      -2.335  -0.439   0.846  1.00  0.00     0.214 C   
BRANCH   7   8
ATOM     8   C6  UNL     1      -1.408  -1.539   1.303  1.00  0.00     0.182 C   
ATOM     9   O1  UNL     1      -0.473  -1.341   2.078  1.00  0.00    -0.292 OA  
BRANCH   8  10
ATOM     10  C5  UNL     1      -1.695  -2.926   0.871  1.00  0.00     0.022 A   
ATOM     11  C2  UNL     1      -2.265  -5.599   0.246  1.00  0.00    -0.051 A   
ATOM     12  C3  UNL     1      -2.204  -5.187   1.581  1.00  0.00     0.004 A   
ATOM     13  C24 UNL     1      -2.003  -4.671  -0.770  1.00  0.00     0.007 A   
ATOM     14  C4  UNL     1      -1.922  -3.857   1.893  1.00  0.00     0.012 A   
ATOM     15  C22 UNL     1      -1.700  -3.329  -0.475  1.00  0.00    -0.040 A   
ATOM     16  C1  UNL     1      -2.538  -7.037  -0.087  1.00  0.00     0.044 C   
ATOM     17  C23 UNL     1      -1.402  -2.405  -1.618  1.00  0.00     0.045 C   
ENDBRANCH   8  10
ENDBRANCH   7   8
ENDBRANCH   1   7
BRANCH   3  18
ATOM     18  C10 UNL     1       0.756   3.471   0.172  1.00  0.00     0.117 C   
BRANCH  18  19
ATOM     19  N2  UNL     1       1.668   3.378  -1.033  1.00  0.00     0.249 N   
ATOM     20  H10 UNL     1       1.168   2.787  -1.719  1.00  0.00     0.199 HD  
ATOM     21  H11 UNL     1       1.774   4.287  -1.492  1.00  0.00     0.199 HD  
BRANCH  19  22
ATOM     22  C11 UNL     1       3.013   2.785  -0.793  1.00  0.00     0.164 C   
BRANCH  22  23
ATOM     23  C12 UNL     1       2.985   1.380  -0.258  1.00  0.00    -0.002 A   
ATOM     24  C13 UNL     1       3.409   1.116   1.067  1.00  0.00     0.012 A   
ATOM     25  C17 UNL     1       2.528   0.318  -1.058  1.00  0.00     0.045 A   
ATOM     26  C14 UNL     1       3.382  -0.180   1.590  1.00  0.00     0.037 A   
ATOM     27  C16 UNL     1       2.515  -0.949  -0.510  1.00  0.00     0.109 A   
ATOM     28  C15 UNL     1       2.933  -1.192   0.774  1.00  0.00     0.108 A   
ATOM     29  O2  UNL     1       2.111  -2.081  -1.144  1.00  0.00    -0.316 OA  
ATOM     30  O3  UNL     1       2.861  -2.505   1.107  1.00  0.00    -0.316 OA  
ATOM     31  C18 UNL     1       2.325  -3.067  -0.107  1.00  0.00     0.337 C   
ENDBRANCH  22  23
ENDBRANCH  19  22
ENDBRANCH  18  19
BRANCH  18  32
ATOM     32  C19 UNL     1       0.141   4.888   0.290  1.00  0.00     0.037 C   
ATOM     33  C20 UNL     1      -0.731   5.304  -0.900  1.00  0.00     0.014 C   
ATOM     34  C21 UNL     1       1.218   5.950   0.541  1.00  0.00     0.014 C   
ENDBRANCH  18  32
ENDBRANCH   3  18
TORSDOF 8
