REMARK SMILES COc1cccc(Cn2cc([C@H](CC(C)C)[NH2+]Cc3ccc4c(c3)OCO4)nn2)c1
REMARK SMILES IDX 9 1 10 2 11 3 28 4 29 5 8 7 7 8 3 9 4 10 30 11 5 12 6 13
REMARK SMILES IDX 2 14 1 15 12 16 13 17 14 18 15 19 16 20 17 21 18 24 19 25
REMARK SMILES IDX 20 26 24 27 21 28 23 29 22 30 25 31 27 32 26 33
REMARK H PARENT 10 6 17 22 17 23
ROOT
ATOM     1   N1  UNL     1      -1.653  -0.977  -1.952  1.00  0.00    -0.208 N   
ATOM     2   C8  UNL     1      -2.063  -0.041  -1.041  1.00  0.00     0.046 A   
ATOM     3   C9  UNL     1      -0.998   0.828  -0.956  1.00  0.00     0.127 A   
ATOM     4   N3  UNL     1      -0.005   0.408  -1.805  1.00  0.00    -0.132 NA  
ATOM     5   N4  UNL     1      -0.415  -0.697  -2.405  1.00  0.00    -0.076 NA  
ATOM     6   H9  UNL     1      -3.022  -0.099  -0.545  1.00  0.00     0.083 HD  
ENDROOT
BRANCH   1   7
ATOM     7   C7  UNL     1      -2.356  -2.171  -2.394  1.00  0.00     0.169 C   
BRANCH   7   8
ATOM     8   C6  UNL     1      -2.283  -3.248  -1.341  1.00  0.00    -0.026 A   
ATOM     9   C2  UNL     1      -0.999  -4.939  -0.147  1.00  0.00     0.075 A   
ATOM     10  C3  UNL     1      -2.107  -5.190   0.663  1.00  0.00     0.033 A   
ATOM     11  C23 UNL     1      -1.088  -3.966  -1.144  1.00  0.00     0.038 A   
ATOM     12  C4  UNL     1      -3.300  -4.494   0.472  1.00  0.00     0.003 A   
ATOM     13  C5  UNL     1      -3.390  -3.526  -0.526  1.00  0.00     0.005 A   
BRANCH   9  14
ATOM     14  O1  UNL     1       0.107  -5.686   0.146  1.00  0.00    -0.349 OA  
ATOM     15  C1  UNL     1       1.168  -5.667  -0.801  1.00  0.00     0.203 C   
ENDBRANCH   9  14
ENDBRANCH   7   8
ENDBRANCH   1   7
BRANCH   3  16
ATOM     16  C10 UNL     1      -0.759   2.015  -0.085  1.00  0.00     0.114 C   
BRANCH  16  17
ATOM     17  C11 UNL     1      -1.001   3.348  -0.818  1.00  0.00     0.064 C   
BRANCH  17  18
ATOM     18  C12 UNL     1      -2.450   3.584  -1.295  1.00  0.00    -0.012 C   
ATOM     19  C13 UNL     1      -3.450   3.602  -0.138  1.00  0.00     0.007 C   
ATOM     20  C14 UNL     1      -2.530   4.906  -2.066  1.00  0.00     0.007 C   
ENDBRANCH  17  18
ENDBRANCH  16  17
BRANCH  16  21
ATOM     21  N2  UNL     1       0.679   2.021   0.376  1.00  0.00     0.249 N   
ATOM     22  H20 UNL     1       1.260   1.865  -0.463  1.00  0.00     0.199 HD  
ATOM     23  H21 UNL     1       0.950   2.937   0.748  1.00  0.00     0.199 HD  
BRANCH  21  24
ATOM     24  C15 UNL     1       1.037   0.967   1.366  1.00  0.00     0.164 C   
BRANCH  24  25
ATOM     25  C16 UNL     1       2.503   1.030   1.689  1.00  0.00    -0.002 A   
ATOM     26  C17 UNL     1       3.439   0.358   0.867  1.00  0.00     0.012 A   
ATOM     27  C21 UNL     1       2.959   1.800   2.773  1.00  0.00     0.045 A   
ATOM     28  C18 UNL     1       4.812   0.442   1.125  1.00  0.00     0.037 A   
ATOM     29  C20 UNL     1       4.318   1.859   3.000  1.00  0.00     0.109 A   
ATOM     30  C19 UNL     1       5.219   1.200   2.199  1.00  0.00     0.108 A   
ATOM     31  O2  UNL     1       4.922   2.554   3.999  1.00  0.00    -0.316 OA  
ATOM     32  O3  UNL     1       6.503   1.396   2.596  1.00  0.00    -0.316 OA  
ATOM     33  C22 UNL     1       6.310   2.231   3.757  1.00  0.00     0.337 C   
ENDBRANCH  24  25
ENDBRANCH  21  24
ENDBRANCH  16  21
ENDBRANCH   3  16
TORSDOF 9
