REMARK SMILES COc1cccc(Cn2cc([C@H](CC(C)C)[NH2+]Cc3ccc4c(c3)OCO4)nn2)c1OC
REMARK SMILES IDX 9 1 10 2 11 3 28 4 29 5 8 7 7 8 3 9 4 10 30 11 5 12 6 13
REMARK SMILES IDX 2 14 1 15 31 16 32 17 12 18 13 19 14 20 15 21 16 22 17 23
REMARK SMILES IDX 18 26 19 27 20 28 24 29 21 30 23 31 22 32 25 33 27 34 26 35
REMARK H PARENT 10 6 17 24 17 25
ROOT
ATOM     1   N1  UNL     1      -0.391  -2.289   1.542  1.00  0.00    -0.208 N   
ATOM     2   C8  UNL     1       0.425  -1.193   1.574  1.00  0.00     0.046 A   
ATOM     3   C9  UNL     1      -0.101  -0.417   2.581  1.00  0.00     0.127 A   
ATOM     4   N3  UNL     1      -1.146  -1.082   3.166  1.00  0.00    -0.132 NA  
ATOM     5   N4  UNL     1      -1.313  -2.228   2.525  1.00  0.00    -0.076 NA  
ATOM     6   H9  UNL     1       1.220  -1.042   0.857  1.00  0.00     0.083 HD  
ENDROOT
BRANCH   1   7
ATOM     7   C7  UNL     1      -0.401  -3.371   0.571  1.00  0.00     0.172 C   
BRANCH   7   8
ATOM     8   C6  UNL     1      -1.353  -3.059  -0.559  1.00  0.00     0.004 A   
ATOM     9   C2  UNL     1      -1.918  -1.837  -2.607  1.00  0.00     0.105 A   
ATOM     10  C3  UNL     1      -3.197  -2.398  -2.572  1.00  0.00     0.036 A   
ATOM     11  C23 UNL     1      -0.987  -2.199  -1.613  1.00  0.00     0.110 A   
ATOM     12  C4  UNL     1      -3.555  -3.281  -1.551  1.00  0.00     0.003 A   
ATOM     13  C5  UNL     1      -2.646  -3.599  -0.545  1.00  0.00     0.008 A   
BRANCH   9  14
ATOM     14  O1  UNL     1      -1.509  -0.907  -3.527  1.00  0.00    -0.347 OA  
ATOM     15  C1  UNL     1      -2.393  -0.607  -4.601  1.00  0.00     0.203 C   
ENDBRANCH   9  14
BRANCH  11  16
ATOM     16  O4  UNL     1       0.288  -1.683  -1.563  1.00  0.00    -0.346 OA  
ATOM     17  C24 UNL     1       1.029  -1.901  -2.767  1.00  0.00     0.203 C   
ENDBRANCH  11  16
ENDBRANCH   7   8
ENDBRANCH   1   7
BRANCH   3  18
ATOM     18  C10 UNL     1       0.220   0.977   2.993  1.00  0.00     0.114 C   
BRANCH  18  19
ATOM     19  C11 UNL     1       0.961   1.045   4.342  1.00  0.00     0.064 C   
BRANCH  19  20
ATOM     20  C12 UNL     1       2.347   0.365   4.362  1.00  0.00    -0.012 C   
ATOM     21  C13 UNL     1       2.936   0.439   5.774  1.00  0.00     0.007 C   
ATOM     22  C14 UNL     1       3.320   0.994   3.364  1.00  0.00     0.007 C   
ENDBRANCH  19  20
ENDBRANCH  18  19
BRANCH  18  23
ATOM     23  N2  UNL     1      -1.054   1.788   3.151  1.00  0.00     0.249 N   
ATOM     24  H20 UNL     1      -0.826   2.723   3.498  1.00  0.00     0.199 HD  
ATOM     25  H21 UNL     1      -1.613   1.314   3.873  1.00  0.00     0.199 HD  
BRANCH  23  26
ATOM     26  C15 UNL     1      -1.926   1.909   1.940  1.00  0.00     0.164 C   
BRANCH  26  27
ATOM     27  C16 UNL     1      -1.230   2.498   0.745  1.00  0.00    -0.002 A   
ATOM     28  C17 UNL     1      -0.983   1.695  -0.395  1.00  0.00     0.012 A   
ATOM     29  C21 UNL     1      -0.801   3.836   0.752  1.00  0.00     0.045 A   
ATOM     30  C18 UNL     1      -0.309   2.208  -1.508  1.00  0.00     0.037 A   
ATOM     31  C20 UNL     1      -0.138   4.310  -0.362  1.00  0.00     0.109 A   
ATOM     32  C19 UNL     1       0.102   3.520  -1.459  1.00  0.00     0.108 A   
ATOM     33  O2  UNL     1       0.347   5.570  -0.512  1.00  0.00    -0.316 OA  
ATOM     34  O3  UNL     1       0.768   4.184  -2.439  1.00  0.00    -0.316 OA  
ATOM     35  C22 UNL     1       0.898   5.494  -1.847  1.00  0.00     0.337 C   
ENDBRANCH  26  27
ENDBRANCH  23  26
ENDBRANCH  18  23
ENDBRANCH   3  18
TORSDOF 10
