REMARK SMILES CC(C)[C@H]([NH2+]Cc1ccc2c(c1)OCO2)c1cn(Cc2ccc(N)cn2)nn1
REMARK SMILES IDX 16 1 17 2 18 3 27 4 28 5 4 7 2 8 1 9 3 10 5 11 6 14 7 15
REMARK SMILES IDX 8 16 12 17 9 18 11 19 10 20 13 21 15 22 14 23 19 24 20 25
REMARK SMILES IDX 21 26 26 27 22 28 25 29 23 30 24 31
REMARK H PARENT 17 6 5 12 5 13 24 32 24 33
ROOT
ATOM     1   C13 UNL     1      -0.834  -1.868   0.583  1.00  0.00     0.127 A   
ATOM     2   C14 UNL     1      -0.236  -1.944   1.819  1.00  0.00     0.046 A   
ATOM     3   N2  UNL     1       1.057  -2.295   1.542  1.00  0.00    -0.206 N   
ATOM     4   N5  UNL     1       1.241  -2.438   0.214  1.00  0.00    -0.076 NA  
ATOM     5   N6  UNL     1       0.090  -2.178  -0.384  1.00  0.00    -0.132 NA  
ATOM     6   H18 UNL     1      -0.575  -1.758   2.830  1.00  0.00     0.083 HD  
ENDROOT
BRANCH   1   7
ATOM     7   C4  UNL     1      -2.209  -1.446   0.178  1.00  0.00     0.117 C   
BRANCH   7   8
ATOM     8   C2  UNL     1      -3.222  -2.613   0.048  1.00  0.00     0.037 C   
ATOM     9   C1  UNL     1      -2.830  -3.676  -0.985  1.00  0.00     0.014 C   
ATOM     10  C3  UNL     1      -3.490  -3.280   1.401  1.00  0.00     0.014 C   
ENDBRANCH   7   8
BRANCH   7  11
ATOM     11  N1  UNL     1      -2.149  -0.715  -1.140  1.00  0.00     0.249 N   
ATOM     12  H9  UNL     1      -3.067  -0.680  -1.595  1.00  0.00     0.199 HD  
ATOM     13  H10 UNL     1      -1.537  -1.268  -1.759  1.00  0.00     0.199 HD  
BRANCH  11  14
ATOM     14  C5  UNL     1      -1.578   0.660  -1.078  1.00  0.00     0.164 C   
BRANCH  14  15
ATOM     15  C6  UNL     1      -1.507   1.260  -2.454  1.00  0.00    -0.002 A   
ATOM     16  C7  UNL     1      -2.554   2.080  -2.936  1.00  0.00     0.012 A   
ATOM     17  C11 UNL     1      -0.418   0.961  -3.292  1.00  0.00     0.045 A   
ATOM     18  C8  UNL     1      -2.515   2.606  -4.232  1.00  0.00     0.037 A   
ATOM     19  C10 UNL     1      -0.411   1.496  -4.563  1.00  0.00     0.109 A   
ATOM     20  C9  UNL     1      -1.429   2.295  -5.020  1.00  0.00     0.108 A   
ATOM     21  O1  UNL     1       0.560   1.307  -5.495  1.00  0.00    -0.316 OA  
ATOM     22  O2  UNL     1      -1.228   2.712  -6.297  1.00  0.00    -0.316 OA  
ATOM     23  C12 UNL     1       0.047   2.100  -6.589  1.00  0.00     0.337 C   
ENDBRANCH  14  15
ENDBRANCH  11  14
ENDBRANCH   7  11
ENDBRANCH   1   7
BRANCH   3  24
ATOM     24  C15 UNL     1       2.154  -2.485   2.471  1.00  0.00     0.190 C   
BRANCH  24  25
ATOM     25  C16 UNL     1       2.718  -1.150   2.874  1.00  0.00     0.060 A   
ATOM     26  C17 UNL     1       3.782  -0.586   2.174  1.00  0.00     0.027 A   
ATOM     27  N4  UNL     1       2.107  -0.508   3.900  1.00  0.00    -0.258 NA  
ATOM     28  C18 UNL     1       4.258   0.667   2.563  1.00  0.00     0.026 A   
ATOM     29  C20 UNL     1       2.604   0.705   4.254  1.00  0.00     0.134 A   
ATOM     30  C19 UNL     1       3.702   1.320   3.660  1.00  0.00     0.042 A   
BRANCH  30  31
ATOM     31  N3  UNL     1       4.083   2.627   3.978  1.00  0.00    -0.357 N   
ATOM     32  H23 UNL     1       5.040   2.855   3.718  1.00  0.00     0.143 HD  
ATOM     33  H24 UNL     1       3.882   2.902   4.935  1.00  0.00     0.143 HD  
ENDBRANCH  30  31
ENDBRANCH  24  25
ENDBRANCH   3  24
TORSDOF 8
