REMARK SMILES c1nc2cc(Cn3cc([C@@H]([NH2+]Cc4ccc5c(c4)OCO5)C4CCCC4)nn3)ccc2[nH]1
REMARK SMILES IDX 7 1 8 2 9 3 27 4 28 5 6 7 5 8 1 9 2 10 32 11 3 12 31 13 4 14
REMARK SMILES IDX 30 15 29 16 10 18 11 19 12 22 13 23 14 24 18 25 15 26 17 27
REMARK SMILES IDX 16 28 19 29 21 30 20 31 22 32 23 33 26 34 24 35 25 36
REMARK H PARENT 8 6 32 17 11 20 11 21
ROOT
ATOM     1   N2  UNL     1       2.677  -0.079   2.181  1.00  0.00    -0.208 N   
ATOM     2   C6  UNL     1       1.492   0.596   2.063  1.00  0.00     0.046 A   
ATOM     3   C7  UNL     1       0.552  -0.403   1.941  1.00  0.00     0.127 A   
ATOM     4   N4  UNL     1       1.171  -1.621   2.041  1.00  0.00    -0.132 NA  
ATOM     5   N5  UNL     1       2.469  -1.411   2.185  1.00  0.00    -0.076 NA  
ATOM     6   H5  UNL     1       1.442   1.675   2.019  1.00  0.00     0.083 HD  
ENDROOT
BRANCH   1   7
ATOM     7   C5  UNL     1       4.027   0.460   2.215  1.00  0.00     0.169 C   
BRANCH   7   8
ATOM     8   C4  UNL     1       4.353   1.255   0.970  1.00  0.00    -0.026 A   
ATOM     9   C1  UNL     1       4.532   2.319  -3.414  1.00  0.00     0.186 A   
ATOM     10  N1  UNL     1       4.024   1.295  -2.765  1.00  0.00    -0.239 NA  
ATOM     11  N6  UNL     1       5.122   3.216  -2.568  1.00  0.00    -0.304 N   
ATOM     12  C2  UNL     1       4.303   1.540  -1.441  1.00  0.00     0.086 A   
ATOM     13  C24 UNL     1       4.973   2.747  -1.286  1.00  0.00     0.057 A   
ATOM     14  C3  UNL     1       4.011   0.768  -0.308  1.00  0.00     0.035 A   
ATOM     15  C23 UNL     1       5.371   3.247  -0.044  1.00  0.00     0.026 A   
ATOM     16  C22 UNL     1       5.046   2.474   1.081  1.00  0.00     0.007 A   
ATOM     17  H27 UNL     1       5.578   4.078  -2.838  1.00  0.00     0.154 HD  
ENDBRANCH   7   8
ENDBRANCH   1   7
BRANCH   3  18
ATOM     18  C8  UNL     1      -0.912  -0.346   1.658  1.00  0.00     0.117 C   
BRANCH  18  19
ATOM     19  N3  UNL     1      -1.321  -1.536   0.824  1.00  0.00     0.249 N   
ATOM     20  H7  UNL     1      -0.918  -2.362   1.290  1.00  0.00     0.199 HD  
ATOM     21  H8  UNL     1      -2.337  -1.656   0.822  1.00  0.00     0.199 HD  
BRANCH  19  22
ATOM     22  C9  UNL     1      -0.825  -1.552  -0.588  1.00  0.00     0.164 C   
BRANCH  22  23
ATOM     23  C10 UNL     1      -1.431  -0.471  -1.437  1.00  0.00    -0.002 A   
ATOM     24  C11 UNL     1      -0.626   0.585  -1.927  1.00  0.00     0.012 A   
ATOM     25  C15 UNL     1      -2.802  -0.491  -1.738  1.00  0.00     0.045 A   
ATOM     26  C12 UNL     1      -1.178   1.612  -2.699  1.00  0.00     0.037 A   
ATOM     27  C14 UNL     1      -3.314   0.539  -2.498  1.00  0.00     0.109 A   
ATOM     28  C13 UNL     1      -2.525   1.561  -2.964  1.00  0.00     0.108 A   
ATOM     29  O1  UNL     1      -4.611   0.670  -2.872  1.00  0.00    -0.316 OA  
ATOM     30  O2  UNL     1      -3.227   2.465  -3.694  1.00  0.00    -0.316 OA  
ATOM     31  C16 UNL     1      -4.548   1.884  -3.654  1.00  0.00     0.337 C   
ENDBRANCH  22  23
ENDBRANCH  19  22
ENDBRANCH  18  19
BRANCH  18  32
ATOM     32  C17 UNL     1      -1.736  -0.273   2.958  1.00  0.00     0.043 C   
ATOM     33  C18 UNL     1      -3.224   0.028   2.760  1.00  0.00     0.010 C   
ATOM     34  C21 UNL     1      -1.781  -1.539   3.818  1.00  0.00     0.010 C   
ATOM     35  C19 UNL     1      -3.849  -0.277   4.122  1.00  0.00     0.001 C   
ATOM     36  C20 UNL     1      -2.910  -1.267   4.811  1.00  0.00     0.001 C   
ENDBRANCH  18  32
ENDBRANCH   3  18
TORSDOF 7
