REMARK SMILES Cc1ccc(CCn2cc([C@@H]([NH2+]Cc3ccc4c(c3)OCO4)C3CCCCC3)nn2)nc1
REMARK SMILES IDX 8 1 9 2 10 3 29 4 30 5 7 7 6 8 5 9 2 10 3 11 32 12 4 13
REMARK SMILES IDX 31 14 1 15 11 16 12 17 13 20 14 21 15 22 19 23 16 24 18 25
REMARK SMILES IDX 17 26 20 27 22 28 21 29 23 30 24 31 28 32 25 33 27 34 26 35
REMARK H PARENT 9 6 12 18 12 19
ROOT
ATOM     1   N1  UNL     1      -0.844  -2.279   1.341  1.00  0.00    -0.212 N   
ATOM     2   C8  UNL     1      -0.138  -1.110   1.373  1.00  0.00     0.045 A   
ATOM     3   C9  UNL     1      -0.925  -0.233   0.661  1.00  0.00     0.127 A   
ATOM     4   N3  UNL     1      -2.078  -0.868   0.276  1.00  0.00    -0.132 NA  
ATOM     5   N4  UNL     1      -2.018  -2.118   0.705  1.00  0.00    -0.076 NA  
ATOM     6   H10 UNL     1       0.839  -1.030   1.828  1.00  0.00     0.083 HD  
ENDROOT
BRANCH   1   7
ATOM     7   C7  UNL     1      -0.465  -3.570   1.873  1.00  0.00     0.140 C   
BRANCH   7   8
ATOM     8   C6  UNL     1       0.816  -4.130   1.260  1.00  0.00     0.077 C   
BRANCH   8   9
ATOM     9   C5  UNL     1       0.696  -4.386  -0.221  1.00  0.00     0.042 A   
ATOM     10  C2  UNL     1       0.550  -4.830  -2.937  1.00  0.00    -0.033 A   
ATOM     11  C3  UNL     1       0.042  -5.782  -2.057  1.00  0.00     0.007 A   
ATOM     12  C25 UNL     1       1.121  -3.691  -2.383  1.00  0.00     0.114 A   
ATOM     13  C4  UNL     1       0.113  -5.562  -0.685  1.00  0.00     0.024 A   
ATOM     14  N5  UNL     1       1.182  -3.431  -1.054  1.00  0.00    -0.261 NA  
ATOM     15  C1  UNL     1       0.551  -5.061  -4.415  1.00  0.00     0.046 C   
ENDBRANCH   8   9
ENDBRANCH   7   8
ENDBRANCH   1   7
BRANCH   3  16
ATOM     16  C10 UNL     1      -0.661   1.158   0.186  1.00  0.00     0.117 C   
BRANCH  16  17
ATOM     17  N2  UNL     1      -0.971   1.215  -1.298  1.00  0.00     0.249 N   
ATOM     18  H12 UNL     1      -0.948   2.175  -1.643  1.00  0.00     0.199 HD  
ATOM     19  H13 UNL     1      -1.935   0.868  -1.401  1.00  0.00     0.199 HD  
BRANCH  17  20
ATOM     20  C11 UNL     1      -0.099   0.379  -2.182  1.00  0.00     0.164 C   
BRANCH  20  21
ATOM     21  C12 UNL     1       1.330   0.847  -2.198  1.00  0.00    -0.002 A   
ATOM     22  C13 UNL     1       2.336   0.086  -1.557  1.00  0.00     0.012 A   
ATOM     23  C17 UNL     1       1.672   2.062  -2.817  1.00  0.00     0.045 A   
ATOM     24  C14 UNL     1       3.663   0.527  -1.524  1.00  0.00     0.037 A   
ATOM     25  C16 UNL     1       2.989   2.470  -2.763  1.00  0.00     0.109 A   
ATOM     26  C15 UNL     1       3.956   1.725  -2.134  1.00  0.00     0.108 A   
ATOM     27  O1  UNL     1       3.482   3.617  -3.298  1.00  0.00    -0.316 OA  
ATOM     28  O2  UNL     1       5.181   2.309  -2.196  1.00  0.00    -0.316 OA  
ATOM     29  C18 UNL     1       4.883   3.498  -2.958  1.00  0.00     0.337 C   
ENDBRANCH  20  21
ENDBRANCH  17  20
ENDBRANCH  16  17
BRANCH  16  30
ATOM     30  C19 UNL     1      -1.527   2.217   0.936  1.00  0.00     0.043 C   
ATOM     31  C20 UNL     1      -1.281   2.198   2.463  1.00  0.00     0.010 C   
ATOM     32  C24 UNL     1      -1.317   3.667   0.447  1.00  0.00     0.010 C   
ATOM     33  C21 UNL     1       0.104   2.723   2.844  1.00  0.00     0.001 C   
ATOM     34  C23 UNL     1       0.070   4.209   0.789  1.00  0.00     0.001 C   
ATOM     35  C22 UNL     1       0.350   4.122   2.287  1.00  0.00     0.000 C   
ENDBRANCH  16  30
ENDBRANCH   3  16
TORSDOF 8
