REMARK SMILES CC(C)(C)[C@H]([NH2+]Cc1ccc2c(c1)OCO2)c1cn([C@H](CO)c2cc(F)ccc2F)nn1
REMARK SMILES IDX 17 1 18 2 19 3 31 4 32 5 5 7 2 8 1 9 3 10 4 11 6 12 7 15
REMARK SMILES IDX 8 16 9 17 13 18 10 19 12 20 11 21 14 22 16 23 15 24 20 25
REMARK SMILES IDX 21 26 22 27 23 29 24 30 29 31 25 32 28 33 27 34 30 35 26 36
REMARK H PARENT 18 6 6 13 6 14 22 28
ROOT
ATOM     1   C14 UNL     1       0.721  -0.724   0.469  1.00  0.00     0.127 A   
ATOM     2   C15 UNL     1       0.556  -0.057   1.661  1.00  0.00     0.046 A   
ATOM     3   N2  UNL     1       1.167   1.153   1.456  1.00  0.00    -0.202 N   
ATOM     4   N3  UNL     1       1.657   1.229   0.201  1.00  0.00    -0.075 NA  
ATOM     5   N4  UNL     1       1.390   0.088  -0.411  1.00  0.00    -0.132 NA  
ATOM     6   H20 UNL     1       0.097  -0.318   2.605  1.00  0.00     0.083 HD  
ENDROOT
BRANCH   1   7
ATOM     7   C5  UNL     1       0.244  -2.069   0.012  1.00  0.00     0.120 C   
BRANCH   7   8
ATOM     8   C2  UNL     1       1.268  -3.232   0.256  1.00  0.00     0.010 C   
ATOM     9   C1  UNL     1       2.564  -3.066  -0.564  1.00  0.00     0.017 C   
ATOM     10  C3  UNL     1       1.647  -3.306   1.753  1.00  0.00     0.017 C   
ATOM     11  C4  UNL     1       0.633  -4.593  -0.113  1.00  0.00     0.017 C   
ENDBRANCH   7   8
BRANCH   7  12
ATOM     12  N1  UNL     1      -0.108  -1.977  -1.455  1.00  0.00     0.250 N   
ATOM     13  H11 UNL     1      -0.143  -2.891  -1.912  1.00  0.00     0.199 HD  
ATOM     14  H12 UNL     1       0.661  -1.458  -1.907  1.00  0.00     0.199 HD  
BRANCH  12  15
ATOM     15  C6  UNL     1      -1.366  -1.239  -1.762  1.00  0.00     0.164 C   
BRANCH  15  16
ATOM     16  C7  UNL     1      -1.549  -1.117  -3.248  1.00  0.00    -0.002 A   
ATOM     17  C8  UNL     1      -0.955  -0.040  -3.948  1.00  0.00     0.012 A   
ATOM     18  C12 UNL     1      -2.260  -2.098  -3.958  1.00  0.00     0.045 A   
ATOM     19  C9  UNL     1      -1.077   0.067  -5.338  1.00  0.00     0.037 A   
ATOM     20  C11 UNL     1      -2.360  -1.962  -5.328  1.00  0.00     0.109 A   
ATOM     21  C10 UNL     1      -1.786  -0.911  -5.998  1.00  0.00     0.108 A   
ATOM     22  O1  UNL     1      -3.008  -2.818  -6.160  1.00  0.00    -0.316 OA  
ATOM     23  O2  UNL     1      -2.002  -0.971  -7.338  1.00  0.00    -0.316 OA  
ATOM     24  C13 UNL     1      -2.798  -2.171  -7.436  1.00  0.00     0.337 C   
ENDBRANCH  15  16
ENDBRANCH  12  15
ENDBRANCH   7  12
ENDBRANCH   1   7
BRANCH   3  25
ATOM     25  C16 UNL     1       1.333   2.275   2.383  1.00  0.00     0.158 C   
BRANCH  25  26
ATOM     26  C17 UNL     1       2.550   2.037   3.300  1.00  0.00     0.186 C   
BRANCH  26  27
ATOM     27  O3  UNL     1       2.427   0.846   4.080  1.00  0.00    -0.394 OA  
ATOM     28  H24 UNL     1       3.234   0.779   4.626  1.00  0.00     0.210 HD  
ENDBRANCH  26  27
ENDBRANCH  25  26
BRANCH  25  29
ATOM     29  C18 UNL     1       0.014   2.633   3.052  1.00  0.00     0.016 A   
ATOM     30  C19 UNL     1      -0.274   2.376   4.401  1.00  0.00     0.048 A   
ATOM     31  C23 UNL     1      -0.986   3.249   2.281  1.00  0.00     0.128 A   
ATOM     32  C20 UNL     1      -1.511   2.734   4.938  1.00  0.00     0.123 A   
ATOM     33  C22 UNL     1      -2.220   3.609   2.820  1.00  0.00     0.042 A   
ATOM     34  C21 UNL     1      -2.485   3.350   4.161  1.00  0.00     0.042 A   
ATOM     35  F2  UNL     1      -0.760   3.495   0.983  1.00  0.00    -0.207 F   
ATOM     36  F1  UNL     1      -1.764   2.474   6.226  1.00  0.00    -0.207 F   
ENDBRANCH  25  29
ENDBRANCH   3  25
TORSDOF 9
