REMARK SMILES CC(C)(C)[C@H]([NH2+]Cc1ccc2c(c1)OCO2)c1cn([C@@H](CO)c2cc(F)ccc2F)nn1
REMARK SMILES IDX 17 1 18 2 19 3 31 4 32 5 5 7 2 8 1 9 3 10 4 11 6 12 7 15
REMARK SMILES IDX 8 16 9 17 13 18 10 19 12 20 11 21 14 22 16 23 15 24 20 25
REMARK SMILES IDX 21 26 22 27 23 29 24 30 29 31 25 32 28 33 27 34 30 35 26 36
REMARK H PARENT 18 6 6 13 6 14 22 28
ROOT
ATOM     1   C14 UNL     1      -1.515  -0.564   0.919  1.00  0.00     0.127 A   
ATOM     2   C15 UNL     1      -0.234  -1.045   1.062  1.00  0.00     0.046 A   
ATOM     3   N2  UNL     1      -0.049  -1.838  -0.039  1.00  0.00    -0.202 N   
ATOM     4   N3  UNL     1      -1.145  -1.817  -0.830  1.00  0.00    -0.075 NA  
ATOM     5   N4  UNL     1      -2.050  -1.048  -0.250  1.00  0.00    -0.132 NA  
ATOM     6   H20 UNL     1       0.538  -0.905   1.807  1.00  0.00     0.083 HD  
ENDROOT
BRANCH   1   7
ATOM     7   C5  UNL     1      -2.313   0.408   1.734  1.00  0.00     0.120 C   
BRANCH   7   8
ATOM     8   C2  UNL     1      -3.203  -0.254   2.841  1.00  0.00     0.010 C   
ATOM     9   C1  UNL     1      -2.316  -1.060   3.818  1.00  0.00     0.017 C   
ATOM     10  C3  UNL     1      -4.273  -1.202   2.262  1.00  0.00     0.017 C   
ATOM     11  C4  UNL     1      -3.911   0.838   3.678  1.00  0.00     0.017 C   
ENDBRANCH   7   8
BRANCH   7  12
ATOM     12  N1  UNL     1      -3.167   1.224   0.775  1.00  0.00     0.250 N   
ATOM     13  H11 UNL     1      -3.229   0.656  -0.086  1.00  0.00     0.199 HD  
ATOM     14  H12 UNL     1      -4.131   1.308   1.105  1.00  0.00     0.199 HD  
BRANCH  12  15
ATOM     15  C6  UNL     1      -2.650   2.572   0.404  1.00  0.00     0.164 C   
BRANCH  15  16
ATOM     16  C7  UNL     1      -1.289   2.556  -0.234  1.00  0.00    -0.002 A   
ATOM     17  C8  UNL     1      -1.106   2.019  -1.532  1.00  0.00     0.012 A   
ATOM     18  C12 UNL     1      -0.176   3.050   0.469  1.00  0.00     0.045 A   
ATOM     19  C9  UNL     1       0.164   1.962  -2.115  1.00  0.00     0.037 A   
ATOM     20  C11 UNL     1       1.061   2.979  -0.135  1.00  0.00     0.109 A   
ATOM     21  C10 UNL     1       1.227   2.451  -1.391  1.00  0.00     0.108 A   
ATOM     22  O1  UNL     1       2.231   3.401   0.412  1.00  0.00    -0.316 OA  
ATOM     23  O2  UNL     1       2.523   2.480  -1.796  1.00  0.00    -0.316 OA  
ATOM     24  C13 UNL     1       3.157   3.087  -0.651  1.00  0.00     0.337 C   
ENDBRANCH  15  16
ENDBRANCH  12  15
ENDBRANCH   7  12
ENDBRANCH   1   7
BRANCH   3  25
ATOM     25  C16 UNL     1       1.144  -2.606  -0.399  1.00  0.00     0.158 C   
BRANCH  25  26
ATOM     26  C17 UNL     1       0.819  -4.090  -0.654  1.00  0.00     0.186 C   
BRANCH  26  27
ATOM     27  O3  UNL     1       0.482  -4.739   0.575  1.00  0.00    -0.394 OA  
ATOM     28  H24 UNL     1       0.341  -5.682   0.373  1.00  0.00     0.210 HD  
ENDBRANCH  26  27
ENDBRANCH  25  26
BRANCH  25  29
ATOM     29  C18 UNL     1       1.873  -1.934  -1.547  1.00  0.00     0.016 A   
ATOM     30  C19 UNL     1       1.425  -2.015  -2.876  1.00  0.00     0.048 A   
ATOM     31  C23 UNL     1       3.028  -1.184  -1.286  1.00  0.00     0.128 A   
ATOM     32  C20 UNL     1       2.133  -1.373  -3.892  1.00  0.00     0.123 A   
ATOM     33  C22 UNL     1       3.741  -0.558  -2.306  1.00  0.00     0.042 A   
ATOM     34  C21 UNL     1       3.288  -0.650  -3.620  1.00  0.00     0.042 A   
ATOM     35  F2  UNL     1       3.462  -1.053  -0.024  1.00  0.00    -0.207 F   
ATOM     36  F1  UNL     1       1.685  -1.451  -5.152  1.00  0.00    -0.207 F   
ENDBRANCH  25  29
ENDBRANCH   3  25
TORSDOF 9
