REMARK SMILES COc1ncc(CCn2cc([C@@H]([NH2+]Cc3ccc4c(c3)OCO4)C3CCCCC3)nn2)cc1C
REMARK SMILES IDX 9 1 10 2 11 3 30 4 31 5 8 7 7 8 6 9 3 10 4 11 33 12 5 13
REMARK SMILES IDX 32 14 34 15 2 16 1 17 12 18 13 19 14 22 15 23 16 24 20 25
REMARK SMILES IDX 17 26 19 27 18 28 21 29 23 30 22 31 24 32 25 33 29 34 26 35
REMARK SMILES IDX 28 36 27 37
REMARK H PARENT 10 6 13 20 13 21
ROOT
ATOM     1   N2  UNL     1      -3.019   2.296   0.542  1.00  0.00    -0.212 N   
ATOM     2   C7  UNL     1      -2.643   1.683  -0.624  1.00  0.00     0.045 A   
ATOM     3   C8  UNL     1      -2.173   0.454  -0.210  1.00  0.00     0.127 A   
ATOM     4   N4  UNL     1      -2.454   0.300   1.122  1.00  0.00    -0.132 NA  
ATOM     5   N5  UNL     1      -2.970   1.433   1.571  1.00  0.00    -0.076 NA  
ATOM     6   H9  UNL     1      -2.589   2.213  -1.563  1.00  0.00     0.083 HD  
ENDROOT
BRANCH   1   7
ATOM     7   C6  UNL     1      -3.058   3.729   0.787  1.00  0.00     0.139 C   
BRANCH   7   8
ATOM     8   C5  UNL     1      -1.738   4.268   1.377  1.00  0.00     0.058 C   
BRANCH   8   9
ATOM     9   C4  UNL     1      -0.527   3.810   0.597  1.00  0.00    -0.028 A   
ATOM     10  C2  UNL     1       1.427   2.652  -0.927  1.00  0.00     0.169 A   
ATOM     11  N1  UNL     1       1.071   2.013   0.214  1.00  0.00    -0.232 NA  
ATOM     12  C25 UNL     1       0.839   3.824  -1.400  1.00  0.00    -0.001 A   
ATOM     13  C3  UNL     1       0.156   2.656   0.980  1.00  0.00     0.117 A   
ATOM     14  C24 UNL     1      -0.157   4.409  -0.608  1.00  0.00     0.013 A   
ATOM     15  C26 UNL     1       1.280   4.473  -2.677  1.00  0.00     0.049 C   
BRANCH  10  16
ATOM     16  O1  UNL     1       2.333   1.993  -1.720  1.00  0.00    -0.332 OA  
ATOM     17  C1  UNL     1       3.610   1.988  -1.081  1.00  0.00     0.205 C   
ENDBRANCH  10  16
ENDBRANCH   8   9
ENDBRANCH   7   8
ENDBRANCH   1   7
BRANCH   3  18
ATOM     18  C9  UNL     1      -1.320  -0.539  -0.938  1.00  0.00     0.117 C   
BRANCH  18  19
ATOM     19  N3  UNL     1       0.032  -0.666  -0.272  1.00  0.00     0.249 N   
ATOM     20  H11 UNL     1       0.679  -1.186  -0.872  1.00  0.00     0.199 HD  
ATOM     21  H12 UNL     1       0.449   0.285  -0.222  1.00  0.00     0.199 HD  
BRANCH  19  22
ATOM     22  C10 UNL     1       0.082  -1.203   1.121  1.00  0.00     0.164 C   
BRANCH  22  23
ATOM     23  C11 UNL     1       1.332  -2.007   1.356  1.00  0.00    -0.002 A   
ATOM     24  C12 UNL     1       1.257  -3.417   1.472  1.00  0.00     0.012 A   
ATOM     25  C16 UNL     1       2.583  -1.371   1.436  1.00  0.00     0.045 A   
ATOM     26  C13 UNL     1       2.409  -4.186   1.662  1.00  0.00     0.037 A   
ATOM     27  C15 UNL     1       3.700  -2.160   1.626  1.00  0.00     0.109 A   
ATOM     28  C14 UNL     1       3.617  -3.527   1.733  1.00  0.00     0.108 A   
ATOM     29  O2  UNL     1       4.979  -1.710   1.728  1.00  0.00    -0.316 OA  
ATOM     30  O3  UNL     1       4.831  -4.109   1.913  1.00  0.00    -0.316 OA  
ATOM     31  C17 UNL     1       5.691  -2.950   1.943  1.00  0.00     0.337 C   
ENDBRANCH  22  23
ENDBRANCH  19  22
ENDBRANCH  18  19
BRANCH  18  32
ATOM     32  C18 UNL     1      -1.988  -1.926  -1.154  1.00  0.00     0.043 C   
ATOM     33  C19 UNL     1      -1.054  -2.919  -1.873  1.00  0.00     0.010 C   
ATOM     34  C23 UNL     1      -3.304  -1.790  -1.955  1.00  0.00     0.010 C   
ATOM     35  C20 UNL     1      -1.723  -4.271  -2.111  1.00  0.00     0.001 C   
ATOM     36  C22 UNL     1      -3.970  -3.142  -2.204  1.00  0.00     0.001 C   
ATOM     37  C21 UNL     1      -3.027  -4.125  -2.883  1.00  0.00     0.000 C   
ENDBRANCH  18  32
ENDBRANCH   3  18
TORSDOF 9
