REMARK SMILES Cc1ccncc1[C@@H](CO)n1cc([C@@H]([NH2+]Cc2ccc3c(c2)OCO3)C2CCCC2)nn1
REMARK SMILES IDX 11 1 12 2 13 3 31 4 32 5 8 7 7 8 2 9 3 10 4 11 6 12 5 13
REMARK SMILES IDX 1 14 9 15 10 16 14 18 15 19 16 22 17 23 18 24 22 25 19 26
REMARK SMILES IDX 21 27 20 28 23 29 25 30 24 31 26 32 27 33 30 34 28 35 29 36
REMARK H PARENT 12 6 10 17 15 20 15 21
ROOT
ATOM     1   N2  UNL     1      -0.177  -1.501   1.721  1.00  0.00    -0.202 N   
ATOM     2   C9  UNL     1      -0.772  -0.605   0.872  1.00  0.00     0.046 A   
ATOM     3   C10 UNL     1       0.108  -0.506  -0.183  1.00  0.00     0.127 A   
ATOM     4   N4  UNL     1       1.188  -1.317   0.054  1.00  0.00    -0.132 NA  
ATOM     5   N5  UNL     1       1.010  -1.909   1.222  1.00  0.00    -0.075 NA  
ATOM     6   H11 UNL     1      -1.726  -0.145   1.091  1.00  0.00     0.083 HD  
ENDROOT
BRANCH   1   7
ATOM     7   C7  UNL     1      -0.687  -1.994   3.004  1.00  0.00     0.157 C   
BRANCH   7   8
ATOM     8   C6  UNL     1      -1.335  -3.357   2.832  1.00  0.00    -0.002 A   
ATOM     9   C2  UNL     1      -2.707  -3.588   3.062  1.00  0.00    -0.043 A   
ATOM     10  C3  UNL     1      -3.210  -4.885   2.889  1.00  0.00     0.024 A   
ATOM     11  C4  UNL     1      -2.349  -5.897   2.499  1.00  0.00     0.111 A   
ATOM     12  C5  UNL     1      -0.562  -4.457   2.443  1.00  0.00     0.117 A   
ATOM     13  N1  UNL     1      -1.037  -5.708   2.271  1.00  0.00    -0.264 NA  
ATOM     14  C1  UNL     1      -3.653  -2.502   3.496  1.00  0.00     0.045 C   
ENDBRANCH   7   8
BRANCH   7  15
ATOM     15  C8  UNL     1       0.384  -1.975   4.110  1.00  0.00     0.186 C   
BRANCH  15  16
ATOM     16  O1  UNL     1       0.702  -0.625   4.461  1.00  0.00    -0.394 OA  
ATOM     17  H10 UNL     1       1.357  -0.668   5.184  1.00  0.00     0.210 HD  
ENDBRANCH  15  16
ENDBRANCH   7  15
ENDBRANCH   1   7
BRANCH   3  18
ATOM     18  C11 UNL     1       0.070   0.321  -1.427  1.00  0.00     0.117 C   
BRANCH  18  19
ATOM     19  N3  UNL     1       1.476   0.635  -1.880  1.00  0.00     0.249 N   
ATOM     20  H13 UNL     1       1.494   0.925  -2.860  1.00  0.00     0.199 HD  
ATOM     21  H14 UNL     1       1.998  -0.252  -1.816  1.00  0.00     0.199 HD  
BRANCH  19  22
ATOM     22  C12 UNL     1       2.222   1.635  -1.059  1.00  0.00     0.164 C   
BRANCH  22  23
ATOM     23  C13 UNL     1       1.654   3.022  -1.173  1.00  0.00    -0.002 A   
ATOM     24  C14 UNL     1       0.976   3.608  -0.076  1.00  0.00     0.012 A   
ATOM     25  C18 UNL     1       1.765   3.737  -2.379  1.00  0.00     0.045 A   
ATOM     26  C15 UNL     1       0.408   4.882  -0.179  1.00  0.00     0.037 A   
ATOM     27  C17 UNL     1       1.192   4.991  -2.446  1.00  0.00     0.109 A   
ATOM     28  C16 UNL     1       0.531   5.547  -1.379  1.00  0.00     0.108 A   
ATOM     29  O2  UNL     1       1.202   5.805  -3.534  1.00  0.00    -0.316 OA  
ATOM     30  O3  UNL     1       0.042   6.782  -1.659  1.00  0.00    -0.316 OA  
ATOM     31  C19 UNL     1       0.497   6.959  -3.018  1.00  0.00     0.337 C   
ENDBRANCH  22  23
ENDBRANCH  19  22
ENDBRANCH  18  19
BRANCH  18  32
ATOM     32  C20 UNL     1      -0.721  -0.381  -2.549  1.00  0.00     0.043 C   
ATOM     33  C21 UNL     1      -0.055  -1.595  -3.200  1.00  0.00     0.010 C   
ATOM     34  C24 UNL     1      -1.040   0.509  -3.756  1.00  0.00     0.010 C   
ATOM     35  C22 UNL     1      -0.924  -1.843  -4.426  1.00  0.00     0.001 C   
ATOM     36  C23 UNL     1      -1.381  -0.460  -4.888  1.00  0.00     0.001 C   
ENDBRANCH  18  32
ENDBRANCH   3  18
TORSDOF 9
