REMARK SMILES Cc1ccncc1[C@H](CO)n1cc([C@@H]([NH2+]Cc2ccc3c(c2)OCO3)C2CCCC2)nn1
REMARK SMILES IDX 11 1 12 2 13 3 31 4 32 5 8 7 7 8 2 9 3 10 4 11 6 12 5 13
REMARK SMILES IDX 1 14 9 15 10 16 14 18 15 19 16 22 17 23 18 24 22 25 19 26
REMARK SMILES IDX 21 27 20 28 23 29 25 30 24 31 26 32 27 33 30 34 28 35 29 36
REMARK H PARENT 12 6 10 17 15 20 15 21
ROOT
ATOM     1   N2  UNL     1       2.696   0.422   1.079  1.00  0.00    -0.202 N   
ATOM     2   C9  UNL     1       1.933   0.462  -0.058  1.00  0.00     0.046 A   
ATOM     3   C10 UNL     1       0.822  -0.286   0.252  1.00  0.00     0.127 A   
ATOM     4   N4  UNL     1       0.949  -0.771   1.529  1.00  0.00    -0.132 NA  
ATOM     5   N5  UNL     1       2.103  -0.349   2.017  1.00  0.00    -0.075 NA  
ATOM     6   H11 UNL     1       2.238   1.008  -0.941  1.00  0.00     0.083 HD  
ENDROOT
BRANCH   1   7
ATOM     7   C7  UNL     1       3.972   1.078   1.365  1.00  0.00     0.157 C   
BRANCH   7   8
ATOM     8   C6  UNL     1       3.888   2.572   1.081  1.00  0.00    -0.002 A   
ATOM     9   C2  UNL     1       3.361   3.488   2.019  1.00  0.00    -0.043 A   
ATOM     10  C3  UNL     1       3.291   4.846   1.677  1.00  0.00     0.024 A   
ATOM     11  C4  UNL     1       3.730   5.250   0.429  1.00  0.00     0.111 A   
ATOM     12  C5  UNL     1       4.294   3.098  -0.149  1.00  0.00     0.117 A   
ATOM     13  N1  UNL     1       4.223   4.403  -0.492  1.00  0.00    -0.264 NA  
ATOM     14  C1  UNL     1       2.863   3.066   3.376  1.00  0.00     0.045 C   
ENDBRANCH   7   8
BRANCH   7  15
ATOM     15  C8  UNL     1       5.152   0.310   0.729  1.00  0.00     0.186 C   
BRANCH  15  16
ATOM     16  O1  UNL     1       5.010   0.132  -0.680  1.00  0.00    -0.394 OA  
ATOM     17  H10 UNL     1       5.835  -0.282  -0.998  1.00  0.00     0.210 HD  
ENDBRANCH  15  16
ENDBRANCH   7  15
ENDBRANCH   1   7
BRANCH   3  18
ATOM     18  C11 UNL     1      -0.391  -0.625  -0.554  1.00  0.00     0.117 C   
BRANCH  18  19
ATOM     19  N3  UNL     1      -1.054  -1.859   0.009  1.00  0.00     0.249 N   
ATOM     20  H13 UNL     1      -1.012  -1.757   1.035  1.00  0.00     0.199 HD  
ATOM     21  H14 UNL     1      -2.042  -1.903  -0.246  1.00  0.00     0.199 HD  
BRANCH  19  22
ATOM     22  C12 UNL     1      -0.401  -3.158  -0.327  1.00  0.00     0.164 C   
BRANCH  22  23
ATOM     23  C13 UNL     1      -0.625  -3.565  -1.758  1.00  0.00    -0.002 A   
ATOM     24  C14 UNL     1       0.445  -3.537  -2.685  1.00  0.00     0.012 A   
ATOM     25  C18 UNL     1      -1.904  -3.959  -2.190  1.00  0.00     0.045 A   
ATOM     26  C15 UNL     1       0.245  -3.889  -4.024  1.00  0.00     0.037 A   
ATOM     27  C17 UNL     1      -2.067  -4.299  -3.517  1.00  0.00     0.109 A   
ATOM     28  C16 UNL     1      -1.023  -4.265  -4.409  1.00  0.00     0.108 A   
ATOM     29  O2  UNL     1      -3.232  -4.694  -4.094  1.00  0.00    -0.316 OA  
ATOM     30  O3  UNL     1      -1.399  -4.637  -5.660  1.00  0.00    -0.316 OA  
ATOM     31  C19 UNL     1      -2.794  -4.946  -5.449  1.00  0.00     0.337 C   
ENDBRANCH  22  23
ENDBRANCH  19  22
ENDBRANCH  18  19
BRANCH  18  32
ATOM     32  C20 UNL     1      -1.383   0.554  -0.606  1.00  0.00     0.043 C   
ATOM     33  C21 UNL     1      -2.550   0.372  -1.580  1.00  0.00     0.010 C   
ATOM     34  C24 UNL     1      -2.099   0.902   0.703  1.00  0.00     0.010 C   
ATOM     35  C22 UNL     1      -3.487   1.520  -1.219  1.00  0.00     0.001 C   
ATOM     36  C23 UNL     1      -3.292   1.759   0.278  1.00  0.00     0.001 C   
ENDBRANCH  18  32
ENDBRANCH   3  18
TORSDOF 9
