REMARK SMILES CC(C)[C@H]([NH2+]Cc1ccc2c(c1)OCO2)c1cn(Cc2ccc(Cl)nc2)nn1
REMARK SMILES IDX 16 1 17 2 18 3 27 4 28 5 4 7 2 8 1 9 3 10 5 11 6 14 7 15
REMARK SMILES IDX 8 16 12 17 9 18 11 19 10 20 13 21 15 22 14 23 19 24 20 25
REMARK SMILES IDX 21 26 26 27 22 28 25 29 23 30 24 31
REMARK H PARENT 17 6 5 12 5 13
ROOT
ATOM     1   C13 UNL     1       2.104  -0.939   1.072  1.00  0.00     0.127 A   
ATOM     2   C14 UNL     1       3.429  -0.763   0.737  1.00  0.00     0.046 A   
ATOM     3   N2  UNL     1       3.595  -1.544  -0.374  1.00  0.00    -0.208 N   
ATOM     4   N4  UNL     1       2.447  -2.169  -0.698  1.00  0.00    -0.076 NA  
ATOM     5   N5  UNL     1       1.528  -1.812   0.184  1.00  0.00    -0.132 NA  
ATOM     6   H18 UNL     1       4.229  -0.164   1.150  1.00  0.00     0.083 HD  
ENDROOT
BRANCH   1   7
ATOM     7   C4  UNL     1       1.264  -0.328   2.150  1.00  0.00     0.117 C   
BRANCH   7   8
ATOM     8   C2  UNL     1       1.446  -1.046   3.513  1.00  0.00     0.037 C   
ATOM     9   C1  UNL     1       0.849  -0.231   4.667  1.00  0.00     0.014 C   
ATOM     10  C3  UNL     1       0.886  -2.473   3.545  1.00  0.00     0.014 C   
ENDBRANCH   7   8
BRANCH   7  11
ATOM     11  N1  UNL     1      -0.186  -0.331   1.747  1.00  0.00     0.249 N   
ATOM     12  H9  UNL     1      -0.378  -1.256   1.334  1.00  0.00     0.199 HD  
ATOM     13  H10 UNL     1      -0.814  -0.241   2.551  1.00  0.00     0.199 HD  
BRANCH  11  14
ATOM     14  C5  UNL     1      -0.566   0.686   0.725  1.00  0.00     0.164 C   
BRANCH  14  15
ATOM     15  C6  UNL     1      -2.003   0.511   0.325  1.00  0.00    -0.002 A   
ATOM     16  C7  UNL     1      -2.344  -0.384  -0.719  1.00  0.00     0.012 A   
ATOM     17  C11 UNL     1      -3.020   1.186   1.020  1.00  0.00     0.045 A   
ATOM     18  C8  UNL     1      -3.680  -0.594  -1.075  1.00  0.00     0.037 A   
ATOM     19  C10 UNL     1      -4.327   0.955   0.643  1.00  0.00     0.109 A   
ATOM     20  C9  UNL     1      -4.648   0.090  -0.375  1.00  0.00     0.108 A   
ATOM     21  O1  UNL     1      -5.424   1.523   1.208  1.00  0.00    -0.316 OA  
ATOM     22  O2  UNL     1      -5.988   0.007  -0.580  1.00  0.00    -0.316 OA  
ATOM     23  C12 UNL     1      -6.478   0.939   0.407  1.00  0.00     0.337 C   
ENDBRANCH  14  15
ENDBRANCH  11  14
ENDBRANCH   7  11
ENDBRANCH   1   7
BRANCH   3  24
ATOM     24  C15 UNL     1       4.779  -1.695  -1.206  1.00  0.00     0.171 C   
BRANCH  24  25
ATOM     25  C16 UNL     1       4.991  -0.479  -2.065  1.00  0.00    -0.010 A   
ATOM     26  C17 UNL     1       6.143   0.307  -1.954  1.00  0.00     0.010 A   
ATOM     27  C20 UNL     1       4.039  -0.094  -3.010  1.00  0.00     0.118 A   
ATOM     28  C18 UNL     1       6.288   1.434  -2.761  1.00  0.00     0.041 A   
ATOM     29  N3  UNL     1       4.146   1.004  -3.786  1.00  0.00    -0.244 NA  
ATOM     30  C19 UNL     1       5.270   1.735  -3.647  1.00  0.00     0.129 A   
ATOM     31  CL1 UNL     1       5.356   3.117  -4.655  1.00  0.00    -0.062 Cl  
ENDBRANCH  24  25
ENDBRANCH   3  24
TORSDOF 7
