REMARK SMILES CC(C)(C)[C@H]([NH2+]Cc1ccc2c(c1)OCO2)c1cn(CCc2cccc(F)c2)nn1
REMARK SMILES IDX 17 1 18 2 19 3 29 4 30 5 5 7 2 8 1 9 3 10 4 11 6 12 7 15
REMARK SMILES IDX 8 16 9 17 13 18 10 19 12 20 11 21 14 22 16 23 15 24 20 25
REMARK SMILES IDX 21 26 22 27 23 28 28 29 24 30 26 31 25 32 27 33
REMARK H PARENT 18 6 6 13 6 14
ROOT
ATOM     1   C14 UNL     1       1.980  -0.176  -1.027  1.00  0.00     0.127 A   
ATOM     2   C15 UNL     1       1.677   0.722  -2.026  1.00  0.00     0.045 A   
ATOM     3   N2  UNL     1       1.878   0.014  -3.177  1.00  0.00    -0.212 N   
ATOM     4   N3  UNL     1       2.289  -1.239  -2.907  1.00  0.00    -0.076 NA  
ATOM     5   N4  UNL     1       2.344  -1.372  -1.593  1.00  0.00    -0.132 NA  
ATOM     6   H20 UNL     1       1.321   1.743  -2.027  1.00  0.00     0.083 HD  
ENDROOT
BRANCH   1   7
ATOM     7   C5  UNL     1       1.871  -0.069   0.464  1.00  0.00     0.120 C   
BRANCH   7   8
ATOM     8   C2  UNL     1       3.225   0.249   1.190  1.00  0.00     0.010 C   
ATOM     9   C1  UNL     1       3.847   1.540   0.611  1.00  0.00     0.017 C   
ATOM     10  C3  UNL     1       4.258  -0.887   1.060  1.00  0.00     0.017 C   
ATOM     11  C4  UNL     1       2.974   0.508   2.695  1.00  0.00     0.017 C   
ENDBRANCH   7   8
BRANCH   7  12
ATOM     12  N1  UNL     1       1.276  -1.359   0.993  1.00  0.00     0.250 N   
ATOM     13  H11 UNL     1       1.764  -2.120   0.498  1.00  0.00     0.199 HD  
ATOM     14  H12 UNL     1       1.470  -1.482   1.989  1.00  0.00     0.199 HD  
BRANCH  12  15
ATOM     15  C6  UNL     1      -0.189  -1.546   0.764  1.00  0.00     0.164 C   
BRANCH  15  16
ATOM     16  C7  UNL     1      -1.024  -0.633   1.619  1.00  0.00    -0.002 A   
ATOM     17  C8  UNL     1      -1.702   0.467   1.040  1.00  0.00     0.012 A   
ATOM     18  C12 UNL     1      -1.112  -0.845   3.006  1.00  0.00     0.045 A   
ATOM     19  C9  UNL     1      -2.451   1.347   1.827  1.00  0.00     0.037 A   
ATOM     20  C11 UNL     1      -1.858   0.042   3.753  1.00  0.00     0.109 A   
ATOM     21  C10 UNL     1      -2.508   1.108   3.182  1.00  0.00     0.108 A   
ATOM     22  O1  UNL     1      -2.038  -0.016   5.099  1.00  0.00    -0.316 OA  
ATOM     23  O2  UNL     1      -3.181   1.854   4.095  1.00  0.00    -0.316 OA  
ATOM     24  C13 UNL     1      -2.907   1.121   5.308  1.00  0.00     0.337 C   
ENDBRANCH  15  16
ENDBRANCH  12  15
ENDBRANCH   7  12
ENDBRANCH   1   7
BRANCH   3  25
ATOM     25  C16 UNL     1       1.605   0.426  -4.540  1.00  0.00     0.139 C   
BRANCH  25  26
ATOM     26  C17 UNL     1       0.416  -0.311  -5.166  1.00  0.00     0.057 C   
BRANCH  26  27
ATOM     27  C18 UNL     1      -0.872  -0.103  -4.404  1.00  0.00    -0.043 A   
ATOM     28  C19 UNL     1      -1.667   1.030  -4.626  1.00  0.00     0.004 A   
ATOM     29  C23 UNL     1      -1.266  -1.026  -3.425  1.00  0.00     0.043 A   
ATOM     30  C20 UNL     1      -2.833   1.235  -3.883  1.00  0.00     0.003 A   
ATOM     31  C22 UNL     1      -2.419  -0.803  -2.681  1.00  0.00     0.123 A   
ATOM     32  C21 UNL     1      -3.208   0.318  -2.902  1.00  0.00     0.039 A   
ATOM     33  F1  UNL     1      -2.744  -1.663  -1.706  1.00  0.00    -0.207 F   
ENDBRANCH  26  27
ENDBRANCH  25  26
ENDBRANCH   3  25
TORSDOF 8
