REMARK SMILES CN(C)c1ccc(CCn2cc([C@@H]([NH2+]Cc3ccc4c(c3)OCO4)C(C)(C)C)nn2)cc1
REMARK SMILES IDX 10 1 11 2 12 3 29 4 30 5 9 7 8 8 7 9 4 10 5 11 32 12 6 13
REMARK SMILES IDX 31 14 2 15 1 16 3 17 13 18 14 19 15 22 16 23 17 24 21 25
REMARK SMILES IDX 18 26 20 27 19 28 22 29 24 30 23 31 25 32 26 33 27 34 28 35
REMARK H PARENT 11 6 14 20 14 21
ROOT
ATOM     1   N2  UNL     1       1.373   1.045  -2.778  1.00  0.00    -0.212 N   
ATOM     2   C9  UNL     1       1.421  -0.039  -1.947  1.00  0.00     0.045 A   
ATOM     3   C10 UNL     1       0.157  -0.576  -2.032  1.00  0.00     0.127 A   
ATOM     4   N4  UNL     1      -0.588   0.162  -2.917  1.00  0.00    -0.132 NA  
ATOM     5   N5  UNL     1       0.173   1.141  -3.380  1.00  0.00    -0.076 NA  
ATOM     6   H13 UNL     1       2.291  -0.275  -1.350  1.00  0.00     0.083 HD  
ENDROOT
BRANCH   1   7
ATOM     7   C8  UNL     1       2.370   2.085  -2.932  1.00  0.00     0.139 C   
BRANCH   7   8
ATOM     8   C7  UNL     1       1.962   3.412  -2.280  1.00  0.00     0.057 C   
BRANCH   8   9
ATOM     9   C6  UNL     1       1.497   3.261  -0.850  1.00  0.00    -0.046 A   
ATOM     10  C3  UNL     1       0.551   2.823   1.812  1.00  0.00     0.028 A   
ATOM     11  C4  UNL     1       1.896   2.622   1.459  1.00  0.00     0.024 A   
ATOM     12  C25 UNL     1      -0.300   3.265   0.785  1.00  0.00     0.024 A   
ATOM     13  C5  UNL     1       2.368   2.848   0.158  1.00  0.00     0.006 A   
ATOM     14  C24 UNL     1       0.158   3.481  -0.521  1.00  0.00     0.006 A   
BRANCH  10  15
ATOM     15  N1  UNL     1       0.045   2.546   3.094  1.00  0.00    -0.337 N   
ATOM     16  C1  UNL     1       0.970   2.046   4.117  1.00  0.00     0.129 C   
ATOM     17  C2  UNL     1      -0.918   3.530   3.614  1.00  0.00     0.129 C   
ENDBRANCH  10  15
ENDBRANCH   8   9
ENDBRANCH   7   8
ENDBRANCH   1   7
BRANCH   3  18
ATOM     18  C11 UNL     1      -0.494  -1.677  -1.253  1.00  0.00     0.120 C   
BRANCH  18  19
ATOM     19  N3  UNL     1      -1.866  -1.196  -0.826  1.00  0.00     0.250 N   
ATOM     20  H15 UNL     1      -2.509  -1.972  -0.663  1.00  0.00     0.199 HD  
ATOM     21  H16 UNL     1      -2.237  -0.665  -1.629  1.00  0.00     0.199 HD  
BRANCH  19  22
ATOM     22  C12 UNL     1      -1.887  -0.288   0.361  1.00  0.00     0.164 C   
BRANCH  22  23
ATOM     23  C13 UNL     1      -1.717  -1.042   1.651  1.00  0.00    -0.002 A   
ATOM     24  C14 UNL     1      -2.764  -1.851   2.155  1.00  0.00     0.012 A   
ATOM     25  C18 UNL     1      -0.503  -0.968   2.354  1.00  0.00     0.045 A   
ATOM     26  C15 UNL     1      -2.603  -2.579   3.339  1.00  0.00     0.037 A   
ATOM     27  C17 UNL     1      -0.377  -1.696   3.519  1.00  0.00     0.109 A   
ATOM     28  C16 UNL     1      -1.397  -2.480   3.997  1.00  0.00     0.108 A   
ATOM     29  O1  UNL     1       0.724  -1.732   4.315  1.00  0.00    -0.316 OA  
ATOM     30  O2  UNL     1      -1.068  -3.111   5.154  1.00  0.00    -0.316 OA  
ATOM     31  C19 UNL     1       0.270  -2.614   5.368  1.00  0.00     0.337 C   
ENDBRANCH  22  23
ENDBRANCH  19  22
ENDBRANCH  18  19
BRANCH  18  32
ATOM     32  C20 UNL     1      -0.599  -3.041  -2.016  1.00  0.00     0.010 C   
ATOM     33  C21 UNL     1      -1.528  -2.975  -3.244  1.00  0.00     0.017 C   
ATOM     34  C22 UNL     1       0.803  -3.490  -2.490  1.00  0.00     0.017 C   
ATOM     35  C23 UNL     1      -1.126  -4.142  -1.065  1.00  0.00     0.017 C   
ENDBRANCH  18  32
ENDBRANCH   3  18
TORSDOF 9
