REMARK SMILES O[C@@H](Cn1cc([C@@H]([NH2+]Cc2ccc3c(c2)OCO3)C2CCCCC2)nn1)c1ccccn1
REMARK SMILES IDX 4 1 5 2 6 3 25 4 26 5 3 7 2 8 1 9 27 11 28 12 32 13 29 14
REMARK SMILES IDX 31 15 30 16 7 17 8 18 9 21 10 22 11 23 15 24 12 25 14 26
REMARK SMILES IDX 13 27 16 28 18 29 17 30 19 31 20 32 24 33 21 34 23 35 22 36
REMARK H PARENT 5 6 1 10 8 19 8 20
ROOT
ATOM     1   N1  UNL     1      -1.384  -2.608  -1.716  1.00  0.00    -0.209 N   
ATOM     2   C3  UNL     1      -0.711  -2.035  -0.673  1.00  0.00     0.045 A   
ATOM     3   C4  UNL     1      -0.821  -0.684  -0.911  1.00  0.00     0.127 A   
ATOM     4   N3  UNL     1      -1.546  -0.487  -2.061  1.00  0.00    -0.132 NA  
ATOM     5   N4  UNL     1      -1.871  -1.670  -2.551  1.00  0.00    -0.076 NA  
ATOM     6   H5  UNL     1      -0.227  -2.624   0.095  1.00  0.00     0.083 HD  
ENDROOT
BRANCH   1   7
ATOM     7   C2  UNL     1      -1.581  -4.015  -1.988  1.00  0.00     0.172 C   
BRANCH   7   8
ATOM     8   C1  UNL     1      -0.753  -4.514  -3.178  1.00  0.00     0.182 C   
BRANCH   8   9
ATOM     9   O1  UNL     1      -1.030  -5.913  -3.362  1.00  0.00    -0.385 OA  
ATOM     10  H1  UNL     1      -0.269  -6.406  -2.990  1.00  0.00     0.211 HD  
ENDBRANCH   8   9
BRANCH   8  11
ATOM     11  C20 UNL     1       0.737  -4.324  -2.954  1.00  0.00     0.071 A   
ATOM     12  C21 UNL     1       1.528  -3.687  -3.909  1.00  0.00     0.026 A   
ATOM     13  N5  UNL     1       1.254  -4.851  -1.813  1.00  0.00    -0.258 NA  
ATOM     14  C22 UNL     1       2.899  -3.583  -3.682  1.00  0.00     0.004 A   
ATOM     15  C24 UNL     1       2.591  -4.745  -1.627  1.00  0.00     0.111 A   
ATOM     16  C23 UNL     1       3.443  -4.122  -2.521  1.00  0.00     0.020 A   
ENDBRANCH   8  11
ENDBRANCH   7   8
ENDBRANCH   1   7
BRANCH   3  17
ATOM     17  C5  UNL     1      -0.259   0.495  -0.182  1.00  0.00     0.117 C   
BRANCH  17  18
ATOM     18  N2  UNL     1      -0.231   1.700  -1.093  1.00  0.00     0.249 N   
ATOM     19  H7  UNL     1      -0.195   2.575  -0.564  1.00  0.00     0.199 HD  
ATOM     20  H8  UNL     1      -1.128   1.688  -1.598  1.00  0.00     0.199 HD  
BRANCH  18  21
ATOM     21  C6  UNL     1       0.848   1.712  -2.126  1.00  0.00     0.164 C   
BRANCH  21  22
ATOM     22  C7  UNL     1       2.195   2.042  -1.547  1.00  0.00    -0.002 A   
ATOM     23  C8  UNL     1       2.505   3.375  -1.178  1.00  0.00     0.012 A   
ATOM     24  C12 UNL     1       3.147   1.026  -1.340  1.00  0.00     0.045 A   
ATOM     25  C9  UNL     1       3.744   3.693  -0.613  1.00  0.00     0.037 A   
ATOM     26  C11 UNL     1       4.358   1.374  -0.777  1.00  0.00     0.109 A   
ATOM     27  C10 UNL     1       4.649   2.670  -0.425  1.00  0.00     0.108 A   
ATOM     28  O2  UNL     1       5.378   0.517  -0.504  1.00  0.00    -0.316 OA  
ATOM     29  O3  UNL     1       5.893   2.795   0.105  1.00  0.00    -0.316 OA  
ATOM     30  C13 UNL     1       6.360   1.432   0.040  1.00  0.00     0.337 C   
ENDBRANCH  21  22
ENDBRANCH  18  21
ENDBRANCH  17  18
BRANCH  17  31
ATOM     31  C14 UNL     1      -1.037   0.816   1.122  1.00  0.00     0.043 C   
ATOM     32  C15 UNL     1      -2.462   1.356   0.887  1.00  0.00     0.010 C   
ATOM     33  C19 UNL     1      -0.243   1.779   2.030  1.00  0.00     0.010 C   
ATOM     34  C16 UNL     1      -3.184   1.627   2.209  1.00  0.00     0.001 C   
ATOM     35  C18 UNL     1      -0.973   2.047   3.347  1.00  0.00     0.001 C   
ATOM     36  C17 UNL     1      -2.388   2.568   3.110  1.00  0.00     0.000 C   
ENDBRANCH  17  31
ENDBRANCH   3  17
TORSDOF 9
