REMARK SMILES O[C@H](Cn1cc([C@@H]([NH2+]Cc2ccc3c(c2)OCO3)C2CCCCC2)nn1)c1ccccn1
REMARK SMILES IDX 4 1 5 2 6 3 25 4 26 5 3 7 2 8 1 9 27 11 28 12 32 13 29 14
REMARK SMILES IDX 31 15 30 16 7 17 8 18 9 21 10 22 11 23 15 24 12 25 14 26
REMARK SMILES IDX 13 27 16 28 18 29 17 30 19 31 20 32 24 33 21 34 23 35 22 36
REMARK H PARENT 5 6 1 10 8 19 8 20
ROOT
ATOM     1   N1  UNL     1       2.704   0.079  -0.535  1.00  0.00    -0.209 N   
ATOM     2   C3  UNL     1       1.608   0.252   0.262  1.00  0.00     0.045 A   
ATOM     3   C4  UNL     1       0.771   1.039  -0.496  1.00  0.00     0.127 A   
ATOM     4   N3  UNL     1       1.409   1.377  -1.664  1.00  0.00    -0.132 NA  
ATOM     5   N4  UNL     1       2.597   0.799  -1.666  1.00  0.00    -0.076 NA  
ATOM     6   H5  UNL     1       1.510  -0.226   1.226  1.00  0.00     0.083 HD  
ENDROOT
BRANCH   1   7
ATOM     7   C2  UNL     1       3.885  -0.716  -0.281  1.00  0.00     0.172 C   
BRANCH   7   8
ATOM     8   C1  UNL     1       3.807  -2.100  -0.923  1.00  0.00     0.182 C   
BRANCH   8   9
ATOM     9   O1  UNL     1       5.127  -2.657  -0.991  1.00  0.00    -0.385 OA  
ATOM     10  H1  UNL     1       5.042  -3.519  -1.442  1.00  0.00     0.211 HD  
ENDBRANCH   8   9
BRANCH   8  11
ATOM     11  C20 UNL     1       2.874  -3.019  -0.154  1.00  0.00     0.071 A   
ATOM     12  C21 UNL     1       3.332  -3.761   0.935  1.00  0.00     0.026 A   
ATOM     13  N5  UNL     1       1.580  -3.064  -0.564  1.00  0.00    -0.258 NA  
ATOM     14  C22 UNL     1       2.444  -4.596   1.607  1.00  0.00     0.004 A   
ATOM     15  C24 UNL     1       0.747  -3.901   0.096  1.00  0.00     0.111 A   
ATOM     16  C23 UNL     1       1.127  -4.675   1.178  1.00  0.00     0.020 A   
ENDBRANCH   8  11
ENDBRANCH   7   8
ENDBRANCH   1   7
BRANCH   3  17
ATOM     17  C5  UNL     1      -0.603   1.563  -0.238  1.00  0.00     0.117 C   
BRANCH  17  18
ATOM     18  N2  UNL     1      -0.805   2.864  -0.992  1.00  0.00     0.249 N   
ATOM     19  H7  UNL     1      -0.429   2.700  -1.938  1.00  0.00     0.199 HD  
ATOM     20  H8  UNL     1      -1.802   3.071  -1.091  1.00  0.00     0.199 HD  
BRANCH  18  21
ATOM     21  C6  UNL     1      -0.102   4.059  -0.444  1.00  0.00     0.164 C   
BRANCH  21  22
ATOM     22  C7  UNL     1      -0.698   4.540   0.850  1.00  0.00    -0.002 A   
ATOM     23  C8  UNL     1      -1.945   5.211   0.859  1.00  0.00     0.012 A   
ATOM     24  C12 UNL     1      -0.035   4.296   2.065  1.00  0.00     0.045 A   
ATOM     25  C9  UNL     1      -2.527   5.628   2.062  1.00  0.00     0.037 A   
ATOM     26  C11 UNL     1      -0.638   4.718   3.232  1.00  0.00     0.109 A   
ATOM     27  C10 UNL     1      -1.849   5.364   3.231  1.00  0.00     0.108 A   
ATOM     28  O2  UNL     1      -0.138   4.551   4.483  1.00  0.00    -0.316 OA  
ATOM     29  O3  UNL     1      -2.263   5.689   4.482  1.00  0.00    -0.316 OA  
ATOM     30  C13 UNL     1      -1.160   5.199   5.275  1.00  0.00     0.337 C   
ENDBRANCH  21  22
ENDBRANCH  18  21
ENDBRANCH  17  18
BRANCH  17  31
ATOM     31  C14 UNL     1      -1.744   0.590  -0.645  1.00  0.00     0.043 C   
ATOM     32  C15 UNL     1      -1.718   0.172  -2.128  1.00  0.00     0.010 C   
ATOM     33  C19 UNL     1      -1.776  -0.657   0.260  1.00  0.00     0.010 C   
ATOM     34  C16 UNL     1      -2.881  -0.759  -2.472  1.00  0.00     0.001 C   
ATOM     35  C18 UNL     1      -2.938  -1.583  -0.090  1.00  0.00     0.001 C   
ATOM     36  C17 UNL     1      -2.915  -1.982  -1.562  1.00  0.00     0.000 C   
ENDBRANCH  17  31
ENDBRANCH   3  17
TORSDOF 9
