REMARK SMILES CC(C)(C)[C@H]([NH2+]Cc1ccc2c(c1)OCO2)c1cn(Cc2nc[nH]n2)nn1
REMARK SMILES IDX 17 1 18 2 19 3 26 4 27 5 5 7 2 8 1 9 3 10 4 11 6 12 7 15
REMARK SMILES IDX 8 16 9 17 13 18 10 19 12 20 11 21 14 22 16 23 15 24 20 25
REMARK SMILES IDX 21 26 22 27 25 28 23 29 24 30
REMARK H PARENT 18 6 6 13 6 14 24 31
ROOT
ATOM     1   C14 UNL     1      -1.661  -0.180  -0.000  1.00  0.00     0.127 A   
ATOM     2   C15 UNL     1      -1.923  -1.020   1.058  1.00  0.00     0.046 A   
ATOM     3   N2  UNL     1      -2.275  -2.202   0.463  1.00  0.00    -0.204 N   
ATOM     4   N6  UNL     1      -2.297  -2.073  -0.879  1.00  0.00    -0.076 NA  
ATOM     5   N7  UNL     1      -1.913  -0.842  -1.174  1.00  0.00    -0.132 NA  
ATOM     6   H20 UNL     1      -1.825  -0.922   2.131  1.00  0.00     0.083 HD  
ENDROOT
BRANCH   1   7
ATOM     7   C5  UNL     1      -1.057   1.188  -0.033  1.00  0.00     0.120 C   
BRANCH   7   8
ATOM     8   C2  UNL     1      -2.097   2.349  -0.213  1.00  0.00     0.010 C   
ATOM     9   C1  UNL     1      -2.827   2.301  -1.570  1.00  0.00     0.017 C   
ATOM     10  C3  UNL     1      -1.395   3.722  -0.093  1.00  0.00     0.017 C   
ATOM     11  C4  UNL     1      -3.157   2.285   0.910  1.00  0.00     0.017 C   
ENDBRANCH   7   8
BRANCH   7  12
ATOM     12  N1  UNL     1      -0.009   1.238  -1.130  1.00  0.00     0.250 N   
ATOM     13  H11 UNL     1       0.327   2.191  -1.273  1.00  0.00     0.199 HD  
ATOM     14  H12 UNL     1      -0.484   0.940  -1.993  1.00  0.00     0.199 HD  
BRANCH  12  15
ATOM     15  C6  UNL     1       1.172   0.333  -0.962  1.00  0.00     0.164 C   
BRANCH  15  16
ATOM     16  C7  UNL     1       2.002   0.657   0.249  1.00  0.00    -0.002 A   
ATOM     17  C8  UNL     1       2.796   1.827   0.284  1.00  0.00     0.012 A   
ATOM     18  C12 UNL     1       1.969  -0.193   1.370  1.00  0.00     0.045 A   
ATOM     19  C9  UNL     1       3.545   2.153   1.421  1.00  0.00     0.037 A   
ATOM     20  C11 UNL     1       2.719   0.157   2.474  1.00  0.00     0.109 A   
ATOM     21  C10 UNL     1       3.482   1.298   2.499  1.00  0.00     0.108 A   
ATOM     22  O1  UNL     1       2.796  -0.545   3.634  1.00  0.00    -0.316 OA  
ATOM     23  O2  UNL     1       4.137   1.457   3.679  1.00  0.00    -0.316 OA  
ATOM     24  C13 UNL     1       3.715   0.275   4.391  1.00  0.00     0.337 C   
ENDBRANCH  15  16
ENDBRANCH  12  15
ENDBRANCH   7  12
ENDBRANCH   1   7
BRANCH   3  25
ATOM     25  C16 UNL     1      -2.582  -3.469   1.101  1.00  0.00     0.213 C   
BRANCH  25  26
ATOM     26  C17 UNL     1      -1.334  -4.166   1.513  1.00  0.00     0.167 A   
ATOM     27  N3  UNL     1      -0.204  -3.510   1.956  1.00  0.00    -0.221 NA  
ATOM     28  N5  UNL     1      -1.238  -5.503   1.546  1.00  0.00    -0.166 NA  
ATOM     29  C18 UNL     1       0.614  -4.491   2.260  1.00  0.00     0.205 A   
ATOM     30  N4  UNL     1       0.007  -5.683   2.016  1.00  0.00    -0.226 N   
ATOM     31  H24 UNL     1       0.362  -6.625   2.147  1.00  0.00     0.177 HD  
ENDBRANCH  25  26
ENDBRANCH   3  25
TORSDOF 7
