REMARK SMILES CC(C)C[C@H]([NH2+]Cc1ccc2c(c1)OCO2)c1cn(Cc2c(F)cc(F)cc2F)nn1
REMARK SMILES IDX 17 1 18 2 19 3 30 4 31 5 5 7 4 8 2 9 1 10 3 11 6 12 7 15
REMARK SMILES IDX 8 16 9 17 13 18 10 19 12 20 11 21 14 22 16 23 15 24 20 25
REMARK SMILES IDX 21 26 22 27 28 28 24 29 27 30 25 31 23 32 29 33 26 34
REMARK H PARENT 18 6 6 13 6 14
ROOT
ATOM     1   C14 UNL     1       1.256   0.291   1.416  1.00  0.00     0.127 A   
ATOM     2   C15 UNL     1       1.449  -1.032   1.087  1.00  0.00     0.046 A   
ATOM     3   N2  UNL     1       1.807  -1.620   2.268  1.00  0.00    -0.208 N   
ATOM     4   N3  UNL     1       1.842  -0.712   3.261  1.00  0.00    -0.076 NA  
ATOM     5   N4  UNL     1       1.521   0.465   2.749  1.00  0.00    -0.132 NA  
ATOM     6   H20 UNL     1       1.339  -1.594   0.168  1.00  0.00     0.083 HD  
ENDROOT
BRANCH   1   7
ATOM     7   C5  UNL     1       0.763   1.435   0.598  1.00  0.00     0.114 C   
BRANCH   7   8
ATOM     8   C4  UNL     1       1.907   2.341   0.097  1.00  0.00     0.064 C   
BRANCH   8   9
ATOM     9   C2  UNL     1       2.919   1.662  -0.851  1.00  0.00    -0.012 C   
ATOM     10  C1  UNL     1       2.262   1.142  -2.131  1.00  0.00     0.007 C   
ATOM     11  C3  UNL     1       4.033   2.650  -1.209  1.00  0.00     0.007 C   
ENDBRANCH   8   9
ENDBRANCH   7   8
BRANCH   7  12
ATOM     12  N1  UNL     1      -0.170   2.322   1.403  1.00  0.00     0.249 N   
ATOM     13  H11 UNL     1      -0.452   3.126   0.835  1.00  0.00     0.199 HD  
ATOM     14  H12 UNL     1       0.379   2.682   2.195  1.00  0.00     0.199 HD  
BRANCH  12  15
ATOM     15  C6  UNL     1      -1.391   1.680   1.983  1.00  0.00     0.164 C   
BRANCH  15  16
ATOM     16  C7  UNL     1      -2.242   0.962   0.973  1.00  0.00    -0.002 A   
ATOM     17  C8  UNL     1      -2.990   1.684   0.014  1.00  0.00     0.012 A   
ATOM     18  C12 UNL     1      -2.274  -0.444   0.962  1.00  0.00     0.045 A   
ATOM     19  C9  UNL     1      -3.754   1.015  -0.950  1.00  0.00     0.037 A   
ATOM     20  C11 UNL     1      -3.034  -1.072  -0.002  1.00  0.00     0.109 A   
ATOM     21  C10 UNL     1      -3.752  -0.363  -0.932  1.00  0.00     0.108 A   
ATOM     22  O1  UNL     1      -3.163  -2.415  -0.158  1.00  0.00    -0.316 OA  
ATOM     23  O2  UNL     1      -4.426  -1.170  -1.791  1.00  0.00    -0.316 OA  
ATOM     24  C13 UNL     1      -4.075  -2.473  -1.278  1.00  0.00     0.337 C   
ENDBRANCH  15  16
ENDBRANCH  12  15
ENDBRANCH   7  12
ENDBRANCH   1   7
BRANCH   3  25
ATOM     25  C16 UNL     1       2.085  -3.024   2.525  1.00  0.00     0.175 C   
BRANCH  25  26
ATOM     26  C17 UNL     1       0.837  -3.752   2.930  1.00  0.00     0.043 A   
ATOM     27  C18 UNL     1      -0.125  -4.116   1.984  1.00  0.00     0.133 A   
ATOM     28  C22 UNL     1       0.586  -4.060   4.269  1.00  0.00     0.133 A   
ATOM     29  C19 UNL     1      -1.298  -4.765   2.350  1.00  0.00     0.079 A   
ATOM     30  C21 UNL     1      -0.579  -4.712   4.659  1.00  0.00     0.079 A   
ATOM     31  C20 UNL     1      -1.512  -5.058   3.691  1.00  0.00     0.129 A   
ATOM     32  F1  UNL     1       0.078  -3.823   0.691  1.00  0.00    -0.206 F   
ATOM     33  F3  UNL     1       1.481  -3.721   5.206  1.00  0.00    -0.206 F   
ATOM     34  F2  UNL     1      -2.641  -5.679   4.056  1.00  0.00    -0.207 F   
ENDBRANCH  25  26
ENDBRANCH   3  25
TORSDOF 8
