REMARK SMILES Cc1cnn(CCn2cc([C@@H]([NH2+]Cc3ccc4c(c3)OCO4)C(C)C)nn2)c1
REMARK SMILES IDX 8 1 9 2 10 3 26 4 27 5 7 7 6 8 5 9 2 10 3 11 28 12 4 13 1 14
REMARK SMILES IDX 11 15 12 16 13 19 14 20 15 21 19 22 16 23 18 24 17 25 20 26
REMARK SMILES IDX 22 27 21 28 23 29 24 30 25 31
REMARK H PARENT 9 6 12 17 12 18
ROOT
ATOM     1   N3  UNL     1      -1.619   2.130  -1.987  1.00  0.00    -0.210 N   
ATOM     2   C6  UNL     1      -1.327   0.797  -1.927  1.00  0.00     0.045 A   
ATOM     3   C7  UNL     1      -2.007   0.361  -0.812  1.00  0.00     0.127 A   
ATOM     4   N5  UNL     1      -2.671   1.421  -0.245  1.00  0.00    -0.132 NA  
ATOM     5   N6  UNL     1      -2.422   2.498  -0.973  1.00  0.00    -0.076 NA  
ATOM     6   H9  UNL     1      -0.662   0.317  -2.632  1.00  0.00     0.083 HD  
ENDROOT
BRANCH   1   7
ATOM     7   C5  UNL     1      -1.132   3.110  -2.935  1.00  0.00     0.155 C   
BRANCH   7   8
ATOM     8   C4  UNL     1      -0.253   4.168  -2.284  1.00  0.00     0.153 C   
BRANCH   8   9
ATOM     9   N2  UNL     1       0.909   3.623  -1.601  1.00  0.00    -0.231 N   
ATOM     10  C2  UNL     1       2.556   3.291  -0.181  1.00  0.00    -0.015 A   
ATOM     11  C3  UNL     1       2.685   2.508  -1.354  1.00  0.00     0.136 A   
ATOM     12  C20 UNL     1       1.379   3.990  -0.371  1.00  0.00     0.100 A   
ATOM     13  N1  UNL     1       1.652   2.662  -2.189  1.00  0.00    -0.190 NA  
ATOM     14  C1  UNL     1       3.490   3.373   0.967  1.00  0.00     0.047 C   
ENDBRANCH   8   9
ENDBRANCH   7   8
ENDBRANCH   1   7
BRANCH   3  15
ATOM     15  C8  UNL     1      -2.030  -0.976  -0.146  1.00  0.00     0.117 C   
BRANCH  15  16
ATOM     16  N4  UNL     1      -1.986  -0.820   1.356  1.00  0.00     0.249 N   
ATOM     17  H11 UNL     1      -2.758  -0.187   1.606  1.00  0.00     0.199 HD  
ATOM     18  H12 UNL     1      -2.163  -1.714   1.817  1.00  0.00     0.199 HD  
BRANCH  16  19
ATOM     19  C9  UNL     1      -0.732  -0.225   1.917  1.00  0.00     0.164 C   
BRANCH  19  20
ATOM     20  C10 UNL     1       0.485  -1.072   1.665  1.00  0.00    -0.002 A   
ATOM     21  C11 UNL     1       1.449  -0.666   0.708  1.00  0.00     0.012 A   
ATOM     22  C15 UNL     1       0.657  -2.291   2.343  1.00  0.00     0.045 A   
ATOM     23  C12 UNL     1       2.565  -1.462   0.425  1.00  0.00     0.037 A   
ATOM     24  C14 UNL     1       1.768  -3.050   2.042  1.00  0.00     0.109 A   
ATOM     25  C13 UNL     1       2.695  -2.649   1.111  1.00  0.00     0.108 A   
ATOM     26  O1  UNL     1       2.079  -4.250   2.598  1.00  0.00    -0.316 OA  
ATOM     27  O2  UNL     1       3.708  -3.541   0.969  1.00  0.00    -0.316 OA  
ATOM     28  C16 UNL     1       3.341  -4.533   1.952  1.00  0.00     0.337 C   
ENDBRANCH  19  20
ENDBRANCH  16  19
ENDBRANCH  15  16
BRANCH  15  29
ATOM     29  C17 UNL     1      -3.257  -1.829  -0.565  1.00  0.00     0.037 C   
ATOM     30  C18 UNL     1      -4.604  -1.302  -0.046  1.00  0.00     0.014 C   
ATOM     31  C19 UNL     1      -3.091  -3.297  -0.151  1.00  0.00     0.014 C   
ENDBRANCH  15  29
ENDBRANCH   3  15
TORSDOF 8
