REMARK SMILES Cc1cnc(-n2cc([C@@H]([NH2+]Cc3ccc4c(c3)OCO4)C(C)C)nn2)s1
REMARK SMILES IDX 9 1 8 2 6 3 7 4 25 5 24 6 5 7 2 8 3 9 26 10 4 11 1 12 10 13
REMARK SMILES IDX 11 16 12 17 13 18 17 19 14 20 16 21 15 22 18 23 20 24 19 25
REMARK SMILES IDX 21 26 22 27 23 28
REMARK H PARENT 10 14 10 15
ROOT
ATOM     1   C7  UNL     1      -0.577   1.059  -2.122  1.00  0.00     0.117 C   
ENDROOT
BRANCH   1   2
ATOM     2   C6  UNL     1      -0.109  -0.107  -1.311  1.00  0.00     0.128 A   
ATOM     3   N2  UNL     1       0.274  -1.634   0.207  1.00  0.00    -0.156 N   
ATOM     4   C5  UNL     1      -0.706  -0.787  -0.276  1.00  0.00     0.137 A   
ATOM     5   N5  UNL     1       1.385  -1.512  -0.564  1.00  0.00    -0.069 NA  
ATOM     6   N4  UNL     1       1.167  -0.577  -1.476  1.00  0.00    -0.131 NA  
BRANCH   3   7
ATOM     7   C4  UNL     1       0.223  -2.467   1.319  1.00  0.00     0.185 A   
ATOM     8   C2  UNL     1       0.683  -4.019   3.093  1.00  0.00     0.008 A   
ATOM     9   C3  UNL     1      -0.579  -3.457   3.104  1.00  0.00     0.124 A   
ATOM     10  S1  UNL     1       1.572  -3.406   1.758  1.00  0.00    -0.055 S   
ATOM     11  N1  UNL     1      -0.844  -2.557   2.086  1.00  0.00    -0.232 NA  
ATOM     12  C1  UNL     1       1.289  -5.005   4.026  1.00  0.00     0.054 C   
ENDBRANCH   3   7
ENDBRANCH   1   2
BRANCH   1  13
ATOM     13  N3  UNL     1       0.541   2.080  -2.240  1.00  0.00     0.249 N   
ATOM     14  H7  UNL     1       0.484   2.568  -3.139  1.00  0.00     0.199 HD  
ATOM     15  H8  UNL     1       1.421   1.542  -2.258  1.00  0.00     0.199 HD  
BRANCH  13  16
ATOM     16  C8  UNL     1       0.637   3.100  -1.149  1.00  0.00     0.164 C   
BRANCH  16  17
ATOM     17  C9  UNL     1       0.892   2.517   0.212  1.00  0.00    -0.002 A   
ATOM     18  C10 UNL     1       2.167   1.995   0.540  1.00  0.00     0.012 A   
ATOM     19  C14 UNL     1      -0.155   2.416   1.145  1.00  0.00     0.045 A   
ATOM     20  C11 UNL     1       2.387   1.350   1.763  1.00  0.00     0.037 A   
ATOM     21  C13 UNL     1       0.094   1.765   2.335  1.00  0.00     0.109 A   
ATOM     22  C12 UNL     1       1.327   1.242   2.634  1.00  0.00     0.108 A   
ATOM     23  O1  UNL     1      -0.819   1.536   3.314  1.00  0.00    -0.316 OA  
ATOM     24  O2  UNL     1       1.347   0.617   3.839  1.00  0.00    -0.316 OA  
ATOM     25  C15 UNL     1      -0.017   0.807   4.272  1.00  0.00     0.337 C   
ENDBRANCH  16  17
ENDBRANCH  13  16
ENDBRANCH   1  13
BRANCH   1  26
ATOM     26  C16 UNL     1      -1.062   0.686  -3.546  1.00  0.00     0.037 C   
ATOM     27  C17 UNL     1      -2.315  -0.197  -3.497  1.00  0.00     0.014 C   
ATOM     28  C18 UNL     1       0.003   0.025  -4.428  1.00  0.00     0.014 C   
ENDBRANCH   1  26
TORSDOF 6
