REMARK SMILES CC(C)(C)[C@H]([NH2+]Cc1ccc2c(c1)OCO2)c1cn(CC(=O)c2ccccc2O)nn1
REMARK SMILES IDX 17 1 18 2 19 3 30 4 31 5 5 7 2 8 1 9 3 10 4 11 6 12 7 15
REMARK SMILES IDX 8 16 9 17 13 18 10 19 12 20 11 21 14 22 16 23 15 24 20 25
REMARK SMILES IDX 21 26 22 27 23 28 24 29 28 30 25 31 27 32 26 33 29 34
REMARK H PARENT 18 6 6 13 6 14 29 35
ROOT
ATOM     1   C14 UNL     1      -0.557   1.741  -1.395  1.00  0.00     0.127 A   
ATOM     2   C15 UNL     1      -1.654   0.924  -1.232  1.00  0.00     0.046 A   
ATOM     3   N2  UNL     1      -1.950   0.517  -2.504  1.00  0.00    -0.204 N   
ATOM     4   N3  UNL     1      -1.135   1.105  -3.402  1.00  0.00    -0.076 NA  
ATOM     5   N4  UNL     1      -0.282   1.864  -2.736  1.00  0.00    -0.132 NA  
ATOM     6   H20 UNL     1      -2.172   0.535  -0.367  1.00  0.00     0.083 HD  
ENDROOT
BRANCH   1   7
ATOM     7   C5  UNL     1       0.384   2.338  -0.395  1.00  0.00     0.120 C   
BRANCH   7   8
ATOM     8   C2  UNL     1       0.046   3.813   0.013  1.00  0.00     0.010 C   
ATOM     9   C1  UNL     1       1.004   4.295   1.130  1.00  0.00     0.017 C   
ATOM     10  C3  UNL     1      -1.387   3.886   0.589  1.00  0.00     0.017 C   
ATOM     11  C4  UNL     1       0.144   4.799  -1.169  1.00  0.00     0.017 C   
ENDBRANCH   7   8
BRANCH   7  12
ATOM     12  N1  UNL     1       1.789   2.249  -0.957  1.00  0.00     0.250 N   
ATOM     13  H11 UNL     1       2.442   2.845  -0.444  1.00  0.00     0.199 HD  
ATOM     14  H12 UNL     1       1.730   2.612  -1.919  1.00  0.00     0.199 HD  
BRANCH  12  15
ATOM     15  C6  UNL     1       2.368   0.873  -1.048  1.00  0.00     0.164 C   
BRANCH  15  16
ATOM     16  C7  UNL     1       2.780   0.331   0.292  1.00  0.00    -0.002 A   
ATOM     17  C8  UNL     1       1.982  -0.636   0.949  1.00  0.00     0.012 A   
ATOM     18  C12 UNL     1       3.948   0.803   0.915  1.00  0.00     0.045 A   
ATOM     19  C9  UNL     1       2.342  -1.131   2.208  1.00  0.00     0.037 A   
ATOM     20  C11 UNL     1       4.278   0.289   2.151  1.00  0.00     0.109 A   
ATOM     21  C10 UNL     1       3.498  -0.651   2.780  1.00  0.00     0.108 A   
ATOM     22  O1  UNL     1       5.375   0.626   2.878  1.00  0.00    -0.316 OA  
ATOM     23  O2  UNL     1       4.007  -1.023   3.984  1.00  0.00    -0.316 OA  
ATOM     24  C13 UNL     1       5.224  -0.247   4.021  1.00  0.00     0.337 C   
ENDBRANCH  15  16
ENDBRANCH  12  15
ENDBRANCH   7  12
ENDBRANCH   1   7
BRANCH   3  25
ATOM     25  C16 UNL     1      -2.914  -0.483  -2.927  1.00  0.00     0.215 C   
BRANCH  25  26
ATOM     26  C17 UNL     1      -2.382  -1.875  -2.669  1.00  0.00     0.184 C   
ATOM     27  O3  UNL     1      -1.546  -2.108  -1.791  1.00  0.00    -0.292 OA  
BRANCH  26  28
ATOM     28  C18 UNL     1      -2.865  -3.000  -3.520  1.00  0.00     0.049 A   
ATOM     29  C19 UNL     1      -2.006  -4.100  -3.683  1.00  0.00     0.014 A   
ATOM     30  C23 UNL     1      -4.113  -3.009  -4.156  1.00  0.00     0.082 A   
ATOM     31  C20 UNL     1      -2.385  -5.185  -4.478  1.00  0.00     0.001 A   
ATOM     32  C22 UNL     1      -4.487  -4.091  -4.958  1.00  0.00     0.034 A   
ATOM     33  C21 UNL     1      -3.620  -5.175  -5.120  1.00  0.00     0.003 A   
BRANCH  30  34
ATOM     34  O4  UNL     1      -4.986  -1.972  -3.988  1.00  0.00    -0.360 OA  
ATOM     35  H27 UNL     1      -5.801  -2.163  -4.488  1.00  0.00     0.218 HD  
ENDBRANCH  30  34
ENDBRANCH  26  28
ENDBRANCH  25  26
ENDBRANCH   3  25
TORSDOF 9
