REMARK SMILES O=C(Cn1cc([C@@H]([NH2+]Cc2ccc3c(c2)OCO3)C2CCCC2)nn1)c1ccc(O)cc1
REMARK SMILES IDX 4 1 5 2 6 3 24 4 25 5 3 7 2 8 1 9 26 10 27 11 32 12 28 13
REMARK SMILES IDX 31 14 29 15 30 16 7 18 8 19 9 22 10 23 11 24 15 25 12 26
REMARK SMILES IDX 14 27 13 28 16 29 18 30 17 31 19 32 20 33 23 34 21 35 22 36
REMARK H PARENT 5 6 30 17 8 20 8 21
ROOT
ATOM     1   N1  UNL     1      -0.747  -0.748  -2.096  1.00  0.00    -0.204 N   
ATOM     2   C3  UNL     1      -1.150   0.514  -1.764  1.00  0.00     0.046 A   
ATOM     3   C4  UNL     1      -0.061   1.299  -2.064  1.00  0.00     0.127 A   
ATOM     4   N3  UNL     1       0.936   0.509  -2.579  1.00  0.00    -0.132 NA  
ATOM     5   N4  UNL     1       0.503  -0.742  -2.595  1.00  0.00    -0.076 NA  
ATOM     6   H3  UNL     1      -2.120   0.713  -1.329  1.00  0.00     0.083 HD  
ENDROOT
BRANCH   1   7
ATOM     7   C2  UNL     1      -1.488  -1.982  -1.985  1.00  0.00     0.214 C   
BRANCH   7   8
ATOM     8   C1  UNL     1      -1.621  -2.394  -0.540  1.00  0.00     0.182 C   
ATOM     9   O1  UNL     1      -2.372  -1.789   0.229  1.00  0.00    -0.292 OA  
BRANCH   8  10
ATOM     10  C19 UNL     1      -0.847  -3.568  -0.042  1.00  0.00     0.019 A   
ATOM     11  C20 UNL     1      -1.372  -4.294   1.038  1.00  0.00     0.014 A   
ATOM     12  C24 UNL     1       0.373  -3.956  -0.611  1.00  0.00     0.014 A   
ATOM     13  C21 UNL     1      -0.705  -5.423   1.520  1.00  0.00     0.034 A   
ATOM     14  C23 UNL     1       1.044  -5.080  -0.117  1.00  0.00     0.034 A   
ATOM     15  C22 UNL     1       0.499  -5.806   0.935  1.00  0.00     0.071 A   
BRANCH  15  16
ATOM     16  O4  UNL     1       1.183  -6.894   1.369  1.00  0.00    -0.361 OA  
ATOM     17  H25 UNL     1       0.645  -7.361   2.031  1.00  0.00     0.218 HD  
ENDBRANCH  15  16
ENDBRANCH   8  10
ENDBRANCH   7   8
ENDBRANCH   1   7
BRANCH   3  18
ATOM     18  C5  UNL     1       0.197   2.755  -1.855  1.00  0.00     0.117 C   
BRANCH  18  19
ATOM     19  N2  UNL     1       1.663   2.942  -1.517  1.00  0.00     0.249 N   
ATOM     20  H5  UNL     1       2.145   2.108  -1.891  1.00  0.00     0.199 HD  
ATOM     21  H6  UNL     1       2.066   3.735  -2.020  1.00  0.00     0.199 HD  
BRANCH  19  22
ATOM     22  C6  UNL     1       1.991   3.050  -0.068  1.00  0.00     0.164 C   
BRANCH  22  23
ATOM     23  C7  UNL     1       1.734   1.790   0.710  1.00  0.00    -0.002 A   
ATOM     24  C8  UNL     1       0.561   1.653   1.496  1.00  0.00     0.012 A   
ATOM     25  C12 UNL     1       2.646   0.722   0.643  1.00  0.00     0.045 A   
ATOM     26  C9  UNL     1       0.301   0.476   2.209  1.00  0.00     0.037 A   
ATOM     27  C11 UNL     1       2.371  -0.416   1.375  1.00  0.00     0.109 A   
ATOM     28  C10 UNL     1       1.233  -0.535   2.137  1.00  0.00     0.108 A   
ATOM     29  O2  UNL     1       3.161  -1.521   1.445  1.00  0.00    -0.316 OA  
ATOM     30  O3  UNL     1       1.168  -1.726   2.787  1.00  0.00    -0.316 OA  
ATOM     31  C13 UNL     1       2.439  -2.306   2.424  1.00  0.00     0.337 C   
ENDBRANCH  22  23
ENDBRANCH  19  22
ENDBRANCH  18  19
BRANCH  18  32
ATOM     32  C14 UNL     1      -0.152   3.593  -3.101  1.00  0.00     0.043 C   
ATOM     33  C15 UNL     1       0.106   5.096  -2.947  1.00  0.00     0.010 C   
ATOM     34  C18 UNL     1      -1.653   3.573  -3.426  1.00  0.00     0.010 C   
ATOM     35  C16 UNL     1      -0.742   5.748  -4.037  1.00  0.00     0.001 C   
ATOM     36  C17 UNL     1      -1.871   4.768  -4.347  1.00  0.00     0.001 C   
ENDBRANCH  18  32
ENDBRANCH   3  18
TORSDOF 9
