REMARK SMILES CC(C)[C@H]([NH2+]Cc1ccc2c(c1)OCO2)c1cn(Cc2cn(C)c3ccccc23)nn1
REMARK SMILES IDX 16 1 17 2 18 3 30 4 31 5 4 7 2 8 1 9 3 10 5 11 6 14 7 15
REMARK SMILES IDX 8 16 12 17 9 18 11 19 10 20 13 21 15 22 14 23 19 24 20 25
REMARK SMILES IDX 21 26 29 27 22 28 24 29 28 30 25 31 27 32 26 33 23 34
REMARK H PARENT 17 6 5 12 5 13
ROOT
ATOM     1   C13 UNL     1       1.439  -0.750  -0.407  1.00  0.00     0.127 A   
ATOM     2   C14 UNL     1       1.177  -2.047  -0.788  1.00  0.00     0.046 A   
ATOM     3   N2  UNL     1       0.876  -2.687   0.385  1.00  0.00    -0.208 N   
ATOM     4   N4  UNL     1       0.987  -1.839   1.429  1.00  0.00    -0.076 NA  
ATOM     5   N5  UNL     1       1.332  -0.653   0.958  1.00  0.00    -0.132 NA  
ATOM     6   H18 UNL     1       1.148  -2.552  -1.745  1.00  0.00     0.083 HD  
ENDROOT
BRANCH   1   7
ATOM     7   C4  UNL     1       1.780   0.465  -1.208  1.00  0.00     0.117 C   
BRANCH   7   8
ATOM     8   C2  UNL     1       3.260   0.463  -1.675  1.00  0.00     0.037 C   
ATOM     9   C1  UNL     1       4.273   0.635  -0.536  1.00  0.00     0.014 C   
ATOM     10  C3  UNL     1       3.514   1.522  -2.756  1.00  0.00     0.014 C   
ENDBRANCH   7   8
BRANCH   7  11
ATOM     11  N1  UNL     1       1.487   1.710  -0.414  1.00  0.00     0.249 N   
ATOM     12  H9  UNL     1       1.811   1.526   0.547  1.00  0.00     0.199 HD  
ATOM     13  H10 UNL     1       2.016   2.521  -0.745  1.00  0.00     0.199 HD  
BRANCH  11  14
ATOM     14  C5  UNL     1       0.047   2.080  -0.318  1.00  0.00     0.164 C   
BRANCH  14  15
ATOM     15  C6  UNL     1      -0.124   3.274   0.578  1.00  0.00    -0.002 A   
ATOM     16  C7  UNL     1      -0.296   3.095   1.972  1.00  0.00     0.012 A   
ATOM     17  C11 UNL     1      -0.045   4.574   0.049  1.00  0.00     0.045 A   
ATOM     18  C8  UNL     1      -0.409   4.196   2.828  1.00  0.00     0.037 A   
ATOM     19  C10 UNL     1      -0.161   5.637   0.921  1.00  0.00     0.109 A   
ATOM     20  C9  UNL     1      -0.340   5.455   2.271  1.00  0.00     0.108 A   
ATOM     21  O1  UNL     1      -0.103   6.950   0.577  1.00  0.00    -0.316 OA  
ATOM     22  O2  UNL     1      -0.427   6.631   2.946  1.00  0.00    -0.316 OA  
ATOM     23  C12 UNL     1      -0.317   7.579   1.862  1.00  0.00     0.337 C   
ENDBRANCH  14  15
ENDBRANCH  11  14
ENDBRANCH   7  11
ENDBRANCH   1   7
BRANCH   3  24
ATOM     24  C15 UNL     1       0.534  -4.086   0.607  1.00  0.00     0.171 C   
BRANCH  24  25
ATOM     25  C16 UNL     1      -0.448  -4.585  -0.402  1.00  0.00    -0.005 A   
ATOM     26  C17 UNL     1      -0.218  -5.554  -1.362  1.00  0.00     0.081 A   
ATOM     27  C24 UNL     1      -1.812  -4.168  -0.551  1.00  0.00     0.002 A   
ATOM     28  N3  UNL     1      -1.375  -5.741  -2.074  1.00  0.00    -0.309 N   
ATOM     29  C19 UNL     1      -2.361  -4.898  -1.610  1.00  0.00     0.040 A   
ATOM     30  C23 UNL     1      -2.629  -3.236   0.125  1.00  0.00     0.010 A   
ATOM     31  C20 UNL     1      -3.693  -4.729  -2.022  1.00  0.00     0.024 A   
ATOM     32  C22 UNL     1      -3.959  -3.063  -0.277  1.00  0.00     0.001 A   
ATOM     33  C21 UNL     1      -4.480  -3.800  -1.337  1.00  0.00     0.002 A   
ATOM     34  C18 UNL     1      -1.541  -6.704  -3.142  1.00  0.00     0.136 C   
ENDBRANCH  24  25
ENDBRANCH   3  24
TORSDOF 7
