REMARK SMILES CC(C)C[C@H]([NH2+]Cc1ccc2c(c1)OCO2)c1cn([C@H](CO)c2ccc(Cl)cn2)nn1
REMARK SMILES IDX 17 1 18 2 19 3 30 4 31 5 5 7 4 8 2 9 1 10 3 11 6 12 7 15
REMARK SMILES IDX 8 16 9 17 13 18 10 19 12 20 11 21 14 22 16 23 15 24 20 25
REMARK SMILES IDX 21 26 22 27 23 29 24 30 29 31 25 32 28 33 26 34 27 35
REMARK H PARENT 18 6 6 13 6 14 22 28
ROOT
ATOM     1   C14 UNL     1      -1.634  -0.047   0.526  1.00  0.00     0.127 A   
ATOM     2   C15 UNL     1      -2.689   0.583  -0.093  1.00  0.00     0.046 A   
ATOM     3   N2  UNL     1      -2.589   1.887   0.318  1.00  0.00    -0.201 N   
ATOM     4   N4  UNL     1      -1.494   2.053   1.093  1.00  0.00    -0.075 NA  
ATOM     5   N5  UNL     1      -0.918   0.872   1.248  1.00  0.00    -0.132 NA  
ATOM     6   H20 UNL     1      -3.469   0.244  -0.760  1.00  0.00     0.083 HD  
ENDROOT
BRANCH   1   7
ATOM     7   C5  UNL     1      -1.175  -1.468   0.480  1.00  0.00     0.114 C   
BRANCH   7   8
ATOM     8   C4  UNL     1      -1.775  -2.269   1.653  1.00  0.00     0.064 C   
BRANCH   8   9
ATOM     9   C2  UNL     1      -1.429  -3.772   1.713  1.00  0.00    -0.012 C   
ATOM     10  C1  UNL     1      -2.133  -4.413   2.913  1.00  0.00     0.007 C   
ATOM     11  C3  UNL     1      -1.813  -4.514   0.432  1.00  0.00     0.007 C   
ENDBRANCH   8   9
ENDBRANCH   7   8
BRANCH   7  12
ATOM     12  N1  UNL     1       0.325  -1.539   0.547  1.00  0.00     0.249 N   
ATOM     13  H11 UNL     1       0.654  -2.495   0.711  1.00  0.00     0.199 HD  
ATOM     14  H12 UNL     1       0.616  -0.983   1.364  1.00  0.00     0.199 HD  
BRANCH  12  15
ATOM     15  C6  UNL     1       1.042  -0.992  -0.641  1.00  0.00     0.164 C   
BRANCH  15  16
ATOM     16  C7  UNL     1       2.524  -1.198  -0.497  1.00  0.00    -0.002 A   
ATOM     17  C8  UNL     1       3.155  -2.312  -1.100  1.00  0.00     0.012 A   
ATOM     18  C12 UNL     1       3.283  -0.309   0.284  1.00  0.00     0.045 A   
ATOM     19  C9  UNL     1       4.526  -2.536  -0.935  1.00  0.00     0.037 A   
ATOM     20  C11 UNL     1       4.632  -0.560   0.427  1.00  0.00     0.109 A   
ATOM     21  C10 UNL     1       5.237  -1.641  -0.165  1.00  0.00     0.108 A   
ATOM     22  O1  UNL     1       5.504   0.194   1.146  1.00  0.00    -0.316 OA  
ATOM     23  O2  UNL     1       6.567  -1.703   0.104  1.00  0.00    -0.316 OA  
ATOM     24  C13 UNL     1       6.738  -0.527   0.924  1.00  0.00     0.337 C   
ENDBRANCH  15  16
ENDBRANCH  12  15
ENDBRANCH   7  12
ENDBRANCH   1   7
BRANCH   3  25
ATOM     25  C16 UNL     1      -3.422   3.035  -0.026  1.00  0.00     0.174 C   
BRANCH  25  26
ATOM     26  C17 UNL     1      -4.928   2.732   0.037  1.00  0.00     0.187 C   
BRANCH  26  27
ATOM     27  O3  UNL     1      -5.329   2.437   1.375  1.00  0.00    -0.394 OA  
ATOM     28  H24 UNL     1      -6.298   2.327   1.371  1.00  0.00     0.210 HD  
ENDBRANCH  26  27
ENDBRANCH  25  26
BRANCH  25  29
ATOM     29  C18 UNL     1      -3.015   3.545  -1.395  1.00  0.00     0.065 A   
ATOM     30  C19 UNL     1      -2.171   4.652  -1.513  1.00  0.00     0.027 A   
ATOM     31  N3  UNL     1      -3.477   2.870  -2.484  1.00  0.00    -0.258 NA  
ATOM     32  C20 UNL     1      -1.805   5.096  -2.784  1.00  0.00     0.024 A   
ATOM     33  C22 UNL     1      -3.110   3.333  -3.707  1.00  0.00     0.131 A   
ATOM     34  C21 UNL     1      -2.285   4.428  -3.902  1.00  0.00     0.059 A   
ATOM     35  CL1 UNL     1      -1.861   4.942  -5.480  1.00  0.00    -0.083 Cl  
ENDBRANCH  25  29
ENDBRANCH   3  25
TORSDOF 10
