REMARK SMILES CC(C)C[C@H]([NH2+]Cc1ccc2c(c1)OCO2)c1cn([C@@H](CO)c2ccc(Cl)cn2)nn1
REMARK SMILES IDX 17 1 18 2 19 3 30 4 31 5 5 7 4 8 2 9 1 10 3 11 6 12 7 15
REMARK SMILES IDX 8 16 9 17 13 18 10 19 12 20 11 21 14 22 16 23 15 24 20 25
REMARK SMILES IDX 21 26 22 27 23 29 24 30 29 31 25 32 28 33 26 34 27 35
REMARK H PARENT 18 6 6 13 6 14 22 28
ROOT
ATOM     1   C14 UNL     1      -0.671   0.687  -0.945  1.00  0.00     0.127 A   
ATOM     2   C15 UNL     1      -1.155   1.814  -1.568  1.00  0.00     0.046 A   
ATOM     3   N2  UNL     1      -2.206   2.208  -0.781  1.00  0.00    -0.201 N   
ATOM     4   N4  UNL     1      -2.362   1.357   0.256  1.00  0.00    -0.075 NA  
ATOM     5   N5  UNL     1      -1.439   0.416   0.156  1.00  0.00    -0.132 NA  
ATOM     6   H20 UNL     1      -0.864   2.359  -2.454  1.00  0.00     0.083 HD  
ENDROOT
BRANCH   1   7
ATOM     7   C5  UNL     1       0.494  -0.196  -1.258  1.00  0.00     0.114 C   
BRANCH   7   8
ATOM     8   C4  UNL     1       0.080  -1.328  -2.219  1.00  0.00     0.064 C   
BRANCH   8   9
ATOM     9   C2  UNL     1       1.208  -2.268  -2.697  1.00  0.00    -0.012 C   
ATOM     10  C1  UNL     1       0.630  -3.325  -3.645  1.00  0.00     0.007 C   
ATOM     11  C3  UNL     1       2.341  -1.517  -3.395  1.00  0.00     0.007 C   
ENDBRANCH   8   9
ENDBRANCH   7   8
BRANCH   7  12
ATOM     12  N1  UNL     1       1.028  -0.796   0.015  1.00  0.00     0.249 N   
ATOM     13  H11 UNL     1       1.575  -1.643  -0.148  1.00  0.00     0.199 HD  
ATOM     14  H12 UNL     1       0.206  -1.085   0.569  1.00  0.00     0.199 HD  
BRANCH  12  15
ATOM     15  C6  UNL     1       1.822   0.135   0.863  1.00  0.00     0.164 C   
BRANCH  15  16
ATOM     16  C7  UNL     1       2.165  -0.507   2.176  1.00  0.00    -0.002 A   
ATOM     17  C8  UNL     1       3.312  -1.328   2.303  1.00  0.00     0.012 A   
ATOM     18  C12 UNL     1       1.313  -0.330   3.283  1.00  0.00     0.045 A   
ATOM     19  C9  UNL     1       3.616  -1.953   3.518  1.00  0.00     0.037 A   
ATOM     20  C11 UNL     1       1.650  -0.950   4.468  1.00  0.00     0.109 A   
ATOM     21  C10 UNL     1       2.767  -1.742   4.582  1.00  0.00     0.108 A   
ATOM     22  O1  UNL     1       0.951  -0.868   5.630  1.00  0.00    -0.316 OA  
ATOM     23  O2  UNL     1       2.907  -2.264   5.828  1.00  0.00    -0.316 OA  
ATOM     24  C13 UNL     1       1.786  -1.656   6.508  1.00  0.00     0.337 C   
ENDBRANCH  15  16
ENDBRANCH  12  15
ENDBRANCH   7  12
ENDBRANCH   1   7
BRANCH   3  25
ATOM     25  C16 UNL     1      -3.118   3.336  -0.946  1.00  0.00     0.174 C   
BRANCH  25  26
ATOM     26  C17 UNL     1      -2.379   4.683  -1.017  1.00  0.00     0.187 C   
BRANCH  26  27
ATOM     27  O3  UNL     1      -1.758   4.984   0.234  1.00  0.00    -0.394 OA  
ATOM     28  H24 UNL     1      -1.507   5.926   0.212  1.00  0.00     0.210 HD  
ENDBRANCH  26  27
ENDBRANCH  25  26
BRANCH  25  29
ATOM     29  C18 UNL     1      -3.990   3.095  -2.165  1.00  0.00     0.065 A   
ATOM     30  C19 UNL     1      -5.203   2.414  -2.035  1.00  0.00     0.027 A   
ATOM     31  N3  UNL     1      -3.522   3.516  -3.371  1.00  0.00    -0.258 NA  
ATOM     32  C20 UNL     1      -5.974   2.178  -3.174  1.00  0.00     0.024 A   
ATOM     33  C22 UNL     1      -4.300   3.279  -4.459  1.00  0.00     0.131 A   
ATOM     34  C21 UNL     1      -5.518   2.623  -4.408  1.00  0.00     0.059 A   
ATOM     35  CL1 UNL     1      -6.439   2.357  -5.830  1.00  0.00    -0.083 Cl  
ENDBRANCH  25  29
ENDBRANCH   3  25
TORSDOF 10
