REMARK SMILES CCc1ccc([C@@H](O)Cn2cc([C@H](CC(C)C)[NH2+]Cc3ccc4c(c3)OCO4)nn2)s1
REMARK SMILES IDX 10 1 11 2 12 3 29 4 30 5 9 7 7 8 6 9 3 10 4 11 31 12 5 13
REMARK SMILES IDX 2 14 1 15 8 16 13 18 14 19 15 20 16 21 17 22 18 23 19 26
REMARK SMILES IDX 20 27 21 28 25 29 22 30 24 31 23 32 26 33 28 34 27 35
REMARK H PARENT 11 6 8 17 18 24 18 25
ROOT
ATOM     1   N1  UNL     1      -2.349   1.408   0.238  1.00  0.00    -0.209 N   
ATOM     2   C9  UNL     1      -1.637   0.744  -0.721  1.00  0.00     0.045 A   
ATOM     3   C10 UNL     1      -1.783  -0.583  -0.388  1.00  0.00     0.127 A   
ATOM     4   N3  UNL     1      -2.566  -0.681   0.734  1.00  0.00    -0.132 NA  
ATOM     5   N4  UNL     1      -2.902   0.541   1.108  1.00  0.00    -0.076 NA  
ATOM     6   H12 UNL     1      -1.117   1.262  -1.515  1.00  0.00     0.083 HD  
ENDROOT
BRANCH   1   7
ATOM     7   C8  UNL     1      -2.623   2.826   0.340  1.00  0.00     0.171 C   
BRANCH   7   8
ATOM     8   C7  UNL     1      -1.396   3.700   0.616  1.00  0.00     0.170 C   
BRANCH   8   9
ATOM     9   C6  UNL     1      -0.593   3.272   1.812  1.00  0.00     0.020 A   
ATOM     10  C3  UNL     1       0.177   2.905   4.137  1.00  0.00    -0.011 A   
ATOM     11  C4  UNL     1       1.043   2.366   3.207  1.00  0.00     0.012 A   
ATOM     12  S1  UNL     1      -1.157   3.664   3.385  1.00  0.00    -0.096 S   
ATOM     13  C5  UNL     1       0.603   2.580   1.869  1.00  0.00     0.014 A   
BRANCH  10  14
ATOM     14  C2  UNL     1       0.299   2.901   5.633  1.00  0.00     0.039 C   
ATOM     15  C1  UNL     1      -0.407   1.704   6.256  1.00  0.00     0.009 C   
ENDBRANCH  10  14
ENDBRANCH   8   9
BRANCH   8  16
ATOM     16  O1  UNL     1      -0.526   3.706  -0.520  1.00  0.00    -0.386 OA  
ATOM     17  H9  UNL     1       0.136   4.403  -0.352  1.00  0.00     0.211 HD  
ENDBRANCH   8  16
ENDBRANCH   7   8
ENDBRANCH   1   7
BRANCH   3  18
ATOM     18  C11 UNL     1      -1.225  -1.822  -1.001  1.00  0.00     0.114 C   
BRANCH  18  19
ATOM     19  C12 UNL     1      -2.195  -2.472  -2.008  1.00  0.00     0.064 C   
BRANCH  19  20
ATOM     20  C13 UNL     1      -2.518  -1.625  -3.258  1.00  0.00    -0.012 C   
ATOM     21  C14 UNL     1      -1.271  -1.297  -4.078  1.00  0.00     0.007 C   
ATOM     22  C15 UNL     1      -3.534  -2.366  -4.132  1.00  0.00     0.007 C   
ENDBRANCH  19  20
ENDBRANCH  18  19
BRANCH  18  23
ATOM     23  N2  UNL     1      -0.961  -2.861   0.074  1.00  0.00     0.249 N   
ATOM     24  H23 UNL     1      -0.768  -3.771  -0.354  1.00  0.00     0.199 HD  
ATOM     25  H24 UNL     1      -1.839  -2.948   0.605  1.00  0.00     0.199 HD  
BRANCH  23  26
ATOM     26  C16 UNL     1       0.116  -2.541   1.058  1.00  0.00     0.164 C   
BRANCH  26  27
ATOM     27  C17 UNL     1       1.482  -2.483   0.435  1.00  0.00    -0.002 A   
ATOM     28  C18 UNL     1       2.122  -1.237   0.237  1.00  0.00     0.012 A   
ATOM     29  C22 UNL     1       2.121  -3.662   0.015  1.00  0.00     0.045 A   
ATOM     30  C19 UNL     1       3.379  -1.161  -0.369  1.00  0.00     0.037 A   
ATOM     31  C21 UNL     1       3.361  -3.552  -0.578  1.00  0.00     0.109 A   
ATOM     32  C20 UNL     1       3.973  -2.337  -0.763  1.00  0.00     0.108 A   
ATOM     33  O2  UNL     1       4.109  -4.586  -1.040  1.00  0.00    -0.316 OA  
ATOM     34  O3  UNL     1       5.184  -2.453  -1.367  1.00  0.00    -0.316 OA  
ATOM     35  C23 UNL     1       5.286  -3.886  -1.507  1.00  0.00     0.337 C   
ENDBRANCH  26  27
ENDBRANCH  23  26
ENDBRANCH  18  23
ENDBRANCH   3  18
TORSDOF 11
