REMARK SMILES CCc1ccc([C@H](O)Cn2cc([C@H](CC(C)C)[NH2+]Cc3ccc4c(c3)OCO4)nn2)s1
REMARK SMILES IDX 10 1 11 2 12 3 29 4 30 5 9 7 7 8 6 9 3 10 4 11 31 12 5 13
REMARK SMILES IDX 2 14 1 15 8 16 13 18 14 19 15 20 16 21 17 22 18 23 19 26
REMARK SMILES IDX 20 27 21 28 25 29 22 30 24 31 23 32 26 33 28 34 27 35
REMARK H PARENT 11 6 8 17 18 24 18 25
ROOT
ATOM     1   N1  UNL     1      -0.065   1.947  -1.406  1.00  0.00    -0.209 N   
ATOM     2   C9  UNL     1      -1.389   1.712  -1.647  1.00  0.00     0.045 A   
ATOM     3   C10 UNL     1      -1.701   0.669  -0.805  1.00  0.00     0.127 A   
ATOM     4   N3  UNL     1      -0.579   0.312  -0.099  1.00  0.00    -0.132 NA  
ATOM     5   N4  UNL     1       0.417   1.091  -0.486  1.00  0.00    -0.076 NA  
ATOM     6   H12 UNL     1      -1.954   2.290  -2.366  1.00  0.00     0.083 HD  
ENDROOT
BRANCH   1   7
ATOM     7   C8  UNL     1       0.784   2.978  -1.967  1.00  0.00     0.171 C   
BRANCH   7   8
ATOM     8   C7  UNL     1       1.473   2.501  -3.243  1.00  0.00     0.170 C   
BRANCH   8   9
ATOM     9   C6  UNL     1       2.535   3.473  -3.673  1.00  0.00     0.020 A   
ATOM     10  C3  UNL     1       4.709   4.574  -4.090  1.00  0.00    -0.011 A   
ATOM     11  C4  UNL     1       3.645   5.344  -4.512  1.00  0.00     0.012 A   
ATOM     12  S1  UNL     1       4.185   3.096  -3.406  1.00  0.00    -0.096 S   
ATOM     13  C5  UNL     1       2.393   4.709  -4.275  1.00  0.00     0.014 A   
BRANCH  10  14
ATOM     14  C2  UNL     1       6.171   4.894  -4.177  1.00  0.00     0.039 C   
ATOM     15  C1  UNL     1       6.679   5.572  -2.912  1.00  0.00     0.009 C   
ENDBRANCH  10  14
ENDBRANCH   8   9
BRANCH   8  16
ATOM     16  O1  UNL     1       0.514   2.433  -4.306  1.00  0.00    -0.386 OA  
ATOM     17  H9  UNL     1       1.021   2.288  -5.129  1.00  0.00     0.211 HD  
ENDBRANCH   8  16
ENDBRANCH   7   8
ENDBRANCH   1   7
BRANCH   3  18
ATOM     18  C11 UNL     1      -2.982  -0.071  -0.575  1.00  0.00     0.114 C   
BRANCH  18  19
ATOM     19  C12 UNL     1      -3.945   0.766   0.290  1.00  0.00     0.064 C   
BRANCH  19  20
ATOM     20  C13 UNL     1      -5.347   0.169   0.537  1.00  0.00    -0.012 C   
ATOM     21  C14 UNL     1      -6.174   1.141   1.386  1.00  0.00     0.007 C   
ATOM     22  C15 UNL     1      -6.093  -0.141  -0.761  1.00  0.00     0.007 C   
ENDBRANCH  19  20
ENDBRANCH  18  19
BRANCH  18  23
ATOM     23  N2  UNL     1      -2.702  -1.375   0.121  1.00  0.00     0.249 N   
ATOM     24  H23 UNL     1      -1.990  -1.170   0.840  1.00  0.00     0.199 HD  
ATOM     25  H24 UNL     1      -3.515  -1.740   0.622  1.00  0.00     0.199 HD  
BRANCH  23  26
ATOM     26  C16 UNL     1      -2.148  -2.452  -0.746  1.00  0.00     0.164 C   
BRANCH  26  27
ATOM     27  C17 UNL     1      -1.677  -3.607   0.091  1.00  0.00    -0.002 A   
ATOM     28  C18 UNL     1      -2.551  -4.673   0.410  1.00  0.00     0.012 A   
ATOM     29  C22 UNL     1      -0.372  -3.598   0.616  1.00  0.00     0.045 A   
ATOM     30  C19 UNL     1      -2.131  -5.723   1.234  1.00  0.00     0.037 A   
ATOM     31  C21 UNL     1       0.010  -4.650   1.422  1.00  0.00     0.109 A   
ATOM     32  C20 UNL     1      -0.844  -5.683   1.723  1.00  0.00     0.108 A   
ATOM     33  O2  UNL     1       1.227  -4.795   2.006  1.00  0.00    -0.316 OA  
ATOM     34  O3  UNL     1      -0.272  -6.609   2.535  1.00  0.00    -0.316 OA  
ATOM     35  C23 UNL     1       1.053  -6.056   2.692  1.00  0.00     0.337 C   
ENDBRANCH  26  27
ENDBRANCH  23  26
ENDBRANCH  18  23
ENDBRANCH   3  18
TORSDOF 11
