REMARK SMILES CC(C)C[C@H]([NH2+]Cc1ccc2c(c1)OCO2)c1cn(CCc2c(O)cccc2Cl)nn1
REMARK SMILES IDX 17 1 18 2 19 3 30 4 31 5 5 7 4 8 2 9 1 10 3 11 6 12 7 15
REMARK SMILES IDX 8 16 9 17 13 18 10 19 12 20 11 21 14 22 16 23 15 24 20 25
REMARK SMILES IDX 21 26 22 27 23 28 28 29 25 30 27 31 26 32 29 33 24 34
REMARK H PARENT 18 6 6 13 6 14 24 35
ROOT
ATOM     1   C14 UNL     1       0.448  -1.889  -1.890  1.00  0.00     0.127 A   
ATOM     2   C15 UNL     1       1.522  -1.782  -1.035  1.00  0.00     0.045 A   
ATOM     3   N2  UNL     1       2.607  -1.808  -1.865  1.00  0.00    -0.212 N   
ATOM     4   N3  UNL     1       2.227  -1.920  -3.151  1.00  0.00    -0.076 NA  
ATOM     5   N4  UNL     1       0.906  -1.977  -3.180  1.00  0.00    -0.132 NA  
ATOM     6   H20 UNL     1       1.616  -1.683   0.038  1.00  0.00     0.083 HD  
ENDROOT
BRANCH   1   7
ATOM     7   C5  UNL     1      -1.021  -1.861  -1.640  1.00  0.00     0.114 C   
BRANCH   7   8
ATOM     8   C4  UNL     1      -1.648  -3.269  -1.636  1.00  0.00     0.064 C   
BRANCH   8   9
ATOM     9   C2  UNL     1      -1.158  -4.204  -0.509  1.00  0.00    -0.012 C   
ATOM     10  C1  UNL     1      -1.450  -3.643   0.884  1.00  0.00     0.007 C   
ATOM     11  C3  UNL     1      -1.814  -5.579  -0.658  1.00  0.00     0.007 C   
ENDBRANCH   8   9
ENDBRANCH   7   8
BRANCH   7  12
ATOM     12  N1  UNL     1      -1.714  -1.078  -2.740  1.00  0.00     0.249 N   
ATOM     13  H11 UNL     1      -2.726  -1.228  -2.700  1.00  0.00     0.199 HD  
ATOM     14  H12 UNL     1      -1.375  -1.478  -3.627  1.00  0.00     0.199 HD  
BRANCH  12  15
ATOM     15  C6  UNL     1      -1.434   0.388  -2.785  1.00  0.00     0.164 C   
BRANCH  15  16
ATOM     16  C7  UNL     1      -2.015   1.129  -1.613  1.00  0.00    -0.002 A   
ATOM     17  C8  UNL     1      -3.398   1.429  -1.566  1.00  0.00     0.012 A   
ATOM     18  C12 UNL     1      -1.192   1.498  -0.535  1.00  0.00     0.045 A   
ATOM     19  C9  UNL     1      -3.952   2.087  -0.462  1.00  0.00     0.037 A   
ATOM     20  C11 UNL     1      -1.769   2.145   0.537  1.00  0.00     0.109 A   
ATOM     21  C10 UNL     1      -3.111   2.430   0.573  1.00  0.00     0.108 A   
ATOM     22  O1  UNL     1      -1.116   2.564   1.653  1.00  0.00    -0.316 OA  
ATOM     23  O2  UNL     1      -3.474   3.066   1.717  1.00  0.00    -0.316 OA  
ATOM     24  C13 UNL     1      -2.201   3.174   2.390  1.00  0.00     0.337 C   
ENDBRANCH  15  16
ENDBRANCH  12  15
ENDBRANCH   7  12
ENDBRANCH   1   7
BRANCH   3  25
ATOM     25  C16 UNL     1       4.009  -1.734  -1.513  1.00  0.00     0.139 C   
BRANCH  25  26
ATOM     26  C17 UNL     1       4.573  -0.315  -1.601  1.00  0.00     0.061 C   
BRANCH  26  27
ATOM     27  C18 UNL     1       4.062   0.608  -0.511  1.00  0.00     0.002 A   
ATOM     28  C19 UNL     1       4.550   0.463   0.798  1.00  0.00     0.076 A   
ATOM     29  C23 UNL     1       3.112   1.617  -0.744  1.00  0.00     0.046 A   
ATOM     30  C20 UNL     1       4.124   1.288   1.839  1.00  0.00     0.033 A   
ATOM     31  C22 UNL     1       2.682   2.449   0.297  1.00  0.00     0.021 A   
ATOM     32  C21 UNL     1       3.187   2.285   1.585  1.00  0.00     0.004 A   
ATOM     33  CL1 UNL     1       2.397   1.871  -2.297  1.00  0.00    -0.084 Cl  
BRANCH  28  34
ATOM     34  O3  UNL     1       5.462  -0.525   1.049  1.00  0.00    -0.361 OA  
ATOM     35  H25 UNL     1       5.839  -0.394   1.938  1.00  0.00     0.218 HD  
ENDBRANCH  28  34
ENDBRANCH  26  27
ENDBRANCH  25  26
ENDBRANCH   3  25
TORSDOF 10
