REMARK SMILES CC(C)(C)[C@H]([NH2+]Cc1ccc2c(c1)OCO2)c1cn(CCc2ccccc2)nn1
REMARK SMILES IDX 17 1 18 2 19 3 28 4 29 5 5 7 2 8 1 9 3 10 4 11 6 12 7 15
REMARK SMILES IDX 8 16 9 17 13 18 10 19 12 20 11 21 14 22 16 23 15 24 20 25
REMARK SMILES IDX 21 26 22 27 23 28 27 29 24 30 26 31 25 32
REMARK H PARENT 18 6 6 13 6 14
ROOT
ATOM     1   C14 UNL     1      -1.280   0.789  -1.289  1.00  0.00     0.127 A   
ATOM     2   C15 UNL     1      -0.499   1.887  -1.003  1.00  0.00     0.045 A   
ATOM     3   N2  UNL     1      -1.382   2.790  -0.481  1.00  0.00    -0.212 N   
ATOM     4   N3  UNL     1      -2.629   2.287  -0.452  1.00  0.00    -0.076 NA  
ATOM     5   N4  UNL     1      -2.579   1.058  -0.940  1.00  0.00    -0.132 NA  
ATOM     6   H20 UNL     1       0.560   2.089  -1.084  1.00  0.00     0.083 HD  
ENDROOT
BRANCH   1   7
ATOM     7   C5  UNL     1      -0.910  -0.578  -1.772  1.00  0.00     0.120 C   
BRANCH   7   8
ATOM     8   C2  UNL     1      -1.137  -0.802  -3.309  1.00  0.00     0.010 C   
ATOM     9   C1  UNL     1      -2.620  -0.714  -3.719  1.00  0.00     0.017 C   
ATOM     10  C3  UNL     1      -0.600  -2.189  -3.734  1.00  0.00     0.017 C   
ATOM     11  C4  UNL     1      -0.345   0.252  -4.117  1.00  0.00     0.017 C   
ENDBRANCH   7   8
BRANCH   7  12
ATOM     12  N1  UNL     1      -1.686  -1.602  -0.966  1.00  0.00     0.250 N   
ATOM     13  H11 UNL     1      -1.627  -2.530  -1.389  1.00  0.00     0.199 HD  
ATOM     14  H12 UNL     1      -2.671  -1.306  -1.004  1.00  0.00     0.199 HD  
BRANCH  12  15
ATOM     15  C6  UNL     1      -1.322  -1.713   0.480  1.00  0.00     0.164 C   
BRANCH  15  16
ATOM     16  C7  UNL     1       0.043  -2.304   0.694  1.00  0.00    -0.002 A   
ATOM     17  C8  UNL     1       0.254  -3.696   0.549  1.00  0.00     0.012 A   
ATOM     18  C12 UNL     1       1.130  -1.470   1.008  1.00  0.00     0.045 A   
ATOM     19  C9  UNL     1       1.528  -4.250   0.714  1.00  0.00     0.037 A   
ATOM     20  C11 UNL     1       2.373  -2.047   1.164  1.00  0.00     0.109 A   
ATOM     21  C10 UNL     1       2.566  -3.398   1.021  1.00  0.00     0.108 A   
ATOM     22  O1  UNL     1       3.522  -1.386   1.460  1.00  0.00    -0.316 OA  
ATOM     23  O2  UNL     1       3.861  -3.760   1.213  1.00  0.00    -0.316 OA  
ATOM     24  C13 UNL     1       4.463  -2.482   1.514  1.00  0.00     0.337 C   
ENDBRANCH  15  16
ENDBRANCH  12  15
ENDBRANCH   7  12
ENDBRANCH   1   7
BRANCH   3  25
ATOM     25  C16 UNL     1      -1.099   4.103   0.059  1.00  0.00     0.139 C   
BRANCH  25  26
ATOM     26  C17 UNL     1      -1.174   4.150   1.586  1.00  0.00     0.057 C   
BRANCH  26  27
ATOM     27  C18 UNL     1      -0.220   3.196   2.269  1.00  0.00    -0.046 A   
ATOM     28  C19 UNL     1      -0.715   2.114   3.011  1.00  0.00     0.004 A   
ATOM     29  C23 UNL     1       1.167   3.377   2.176  1.00  0.00     0.004 A   
ATOM     30  C20 UNL     1       0.160   1.231   3.646  1.00  0.00     0.000 A   
ATOM     31  C22 UNL     1       2.040   2.487   2.804  1.00  0.00     0.000 A   
ATOM     32  C21 UNL     1       1.536   1.416   3.539  1.00  0.00     0.000 A   
ENDBRANCH  26  27
ENDBRANCH  25  26
ENDBRANCH   3  25
TORSDOF 8
