REMARK SMILES CC(C)[C@H]([NH2+]Cc1ccc2c(c1)OCO2)c1cn(CCc2c(F)cncc2F)nn1
REMARK SMILES IDX 16 1 17 2 18 3 29 4 30 5 4 7 2 8 1 9 3 10 5 11 6 14 7 15
REMARK SMILES IDX 8 16 12 17 9 18 11 19 10 20 13 21 15 22 14 23 19 24 20 25
REMARK SMILES IDX 21 26 22 27 27 28 24 29 26 30 25 31 23 32 28 33
REMARK H PARENT 17 6 5 12 5 13
ROOT
ATOM     1   C13 UNL     1      -1.705  -0.771  -0.576  1.00  0.00     0.127 A   
ATOM     2   C14 UNL     1      -0.915  -1.705   0.058  1.00  0.00     0.045 A   
ATOM     3   N2  UNL     1      -0.441  -2.480  -0.961  1.00  0.00    -0.212 N   
ATOM     4   N4  UNL     1      -0.910  -2.057  -2.148  1.00  0.00    -0.076 NA  
ATOM     5   N5  UNL     1      -1.696  -1.017  -1.925  1.00  0.00    -0.132 NA  
ATOM     6   H18 UNL     1      -0.649  -1.875   1.093  1.00  0.00     0.083 HD  
ENDROOT
BRANCH   1   7
ATOM     7   C4  UNL     1      -2.476   0.392  -0.040  1.00  0.00     0.117 C   
BRANCH   7   8
ATOM     8   C2  UNL     1      -3.852  -0.037   0.540  1.00  0.00     0.037 C   
ATOM     9   C1  UNL     1      -4.852  -0.522  -0.516  1.00  0.00     0.014 C   
ATOM     10  C3  UNL     1      -4.487   1.078   1.379  1.00  0.00     0.014 C   
ENDBRANCH   7   8
BRANCH   7  11
ATOM     11  N1  UNL     1      -2.669   1.453  -1.101  1.00  0.00     0.249 N   
ATOM     12  H9  UNL     1      -3.369   2.137  -0.806  1.00  0.00     0.199 HD  
ATOM     13  H10 UNL     1      -3.040   0.969  -1.930  1.00  0.00     0.199 HD  
BRANCH  11  14
ATOM     14  C5  UNL     1      -1.442   2.181  -1.548  1.00  0.00     0.164 C   
BRANCH  14  15
ATOM     15  C6  UNL     1      -0.780   2.959  -0.446  1.00  0.00    -0.002 A   
ATOM     16  C7  UNL     1      -1.388   4.120   0.088  1.00  0.00     0.012 A   
ATOM     17  C11 UNL     1       0.443   2.512   0.085  1.00  0.00     0.045 A   
ATOM     18  C8  UNL     1      -0.793   4.819   1.144  1.00  0.00     0.037 A   
ATOM     19  C10 UNL     1       1.001   3.223   1.125  1.00  0.00     0.109 A   
ATOM     20  C9  UNL     1       0.400   4.343   1.642  1.00  0.00     0.108 A   
ATOM     21  O1  UNL     1       2.167   2.921   1.754  1.00  0.00    -0.316 OA  
ATOM     22  O2  UNL     1       1.111   4.889   2.662  1.00  0.00    -0.316 OA  
ATOM     23  C12 UNL     1       2.245   3.997   2.718  1.00  0.00     0.337 C   
ENDBRANCH  14  15
ENDBRANCH  11  14
ENDBRANCH   7  11
ENDBRANCH   1   7
BRANCH   3  24
ATOM     24  C15 UNL     1       0.451  -3.619  -0.887  1.00  0.00     0.139 C   
BRANCH  24  25
ATOM     25  C16 UNL     1       1.915  -3.240  -1.117  1.00  0.00     0.063 C   
BRANCH  25  26
ATOM     26  C17 UNL     1       2.532  -2.511   0.046  1.00  0.00     0.028 A   
ATOM     27  C18 UNL     1       2.920  -3.196   1.197  1.00  0.00     0.147 A   
ATOM     28  C21 UNL     1       2.727  -1.131   0.028  1.00  0.00     0.147 A   
ATOM     29  C19 UNL     1       3.476  -2.500   2.260  1.00  0.00     0.150 A   
ATOM     30  C20 UNL     1       3.294  -0.504   1.129  1.00  0.00     0.150 A   
ATOM     31  N3  UNL     1       3.665  -1.159   2.255  1.00  0.00    -0.259 NA  
ATOM     32  F1  UNL     1       2.735  -4.520   1.285  1.00  0.00    -0.205 F   
ATOM     33  F2  UNL     1       2.341  -0.403  -1.029  1.00  0.00    -0.205 F   
ENDBRANCH  25  26
ENDBRANCH  24  25
ENDBRANCH   3  24
TORSDOF 8
