REMARK SMILES CC(C)C[C@H]([NH2+]Cc1ccc2c(c1)OCO2)c1cn(Cc2ccccc2N)nn1
REMARK SMILES IDX 17 1 18 2 19 3 28 4 29 5 5 7 4 8 2 9 1 10 3 11 6 12 7 15
REMARK SMILES IDX 8 16 9 17 13 18 10 19 12 20 11 21 14 22 16 23 15 24 20 25
REMARK SMILES IDX 21 26 22 27 26 28 23 29 25 30 24 31 27 32
REMARK H PARENT 18 6 6 13 6 14 27 33 27 34
ROOT
ATOM     1   C14 UNL     1      -1.088   0.025   0.845  1.00  0.00     0.127 A   
ATOM     2   C15 UNL     1      -1.171   0.579   2.102  1.00  0.00     0.046 A   
ATOM     3   N2  UNL     1      -1.669  -0.435   2.879  1.00  0.00    -0.208 N   
ATOM     4   N4  UNL     1      -1.911  -1.535   2.133  1.00  0.00    -0.076 NA  
ATOM     5   N5  UNL     1      -1.557  -1.266   0.887  1.00  0.00    -0.132 NA  
ATOM     6   H20 UNL     1      -0.910   1.547   2.508  1.00  0.00     0.083 HD  
ENDROOT
BRANCH   1   7
ATOM     7   C5  UNL     1      -0.581   0.588  -0.443  1.00  0.00     0.114 C   
BRANCH   7   8
ATOM     8   C4  UNL     1      -1.683   1.403  -1.150  1.00  0.00     0.064 C   
BRANCH   8   9
ATOM     9   C2  UNL     1      -1.287   2.104  -2.466  1.00  0.00    -0.012 C   
ATOM     10  C1  UNL     1      -0.083   3.030  -2.302  1.00  0.00     0.007 C   
ATOM     11  C3  UNL     1      -2.482   2.902  -3.000  1.00  0.00     0.007 C   
ENDBRANCH   8   9
ENDBRANCH   7   8
BRANCH   7  12
ATOM     12  N1  UNL     1      -0.126  -0.521  -1.350  1.00  0.00     0.249 N   
ATOM     13  H11 UNL     1      -0.848  -1.255  -1.303  1.00  0.00     0.199 HD  
ATOM     14  H12 UNL     1      -0.080  -0.226  -2.328  1.00  0.00     0.199 HD  
BRANCH  12  15
ATOM     15  C6  UNL     1       1.171  -1.151  -0.981  1.00  0.00     0.164 C   
BRANCH  15  16
ATOM     16  C7  UNL     1       1.483  -2.278  -1.925  1.00  0.00    -0.002 A   
ATOM     17  C8  UNL     1       1.167  -3.612  -1.569  1.00  0.00     0.012 A   
ATOM     18  C12 UNL     1       2.027  -2.010  -3.192  1.00  0.00     0.045 A   
ATOM     19  C9  UNL     1       1.398  -4.667  -2.460  1.00  0.00     0.037 A   
ATOM     20  C11 UNL     1       2.235  -3.071  -4.048  1.00  0.00     0.109 A   
ATOM     21  C10 UNL     1       1.931  -4.362  -3.693  1.00  0.00     0.108 A   
ATOM     22  O1  UNL     1       2.736  -2.980  -5.308  1.00  0.00    -0.316 OA  
ATOM     23  O2  UNL     1       2.209  -5.250  -4.683  1.00  0.00    -0.316 OA  
ATOM     24  C13 UNL     1       2.705  -4.368  -5.714  1.00  0.00     0.337 C   
ENDBRANCH  15  16
ENDBRANCH  12  15
ENDBRANCH   7  12
ENDBRANCH   1   7
BRANCH   3  25
ATOM     25  C16 UNL     1      -1.989  -0.437   4.300  1.00  0.00     0.171 C   
BRANCH  25  26
ATOM     26  C17 UNL     1      -1.009   0.358   5.130  1.00  0.00    -0.008 A   
ATOM     27  C18 UNL     1      -1.483   1.492   5.820  1.00  0.00     0.007 A   
ATOM     28  C22 UNL     1       0.351   0.005   5.235  1.00  0.00     0.028 A   
ATOM     29  C19 UNL     1      -0.613   2.301   6.546  1.00  0.00     0.000 A   
ATOM     30  C21 UNL     1       1.220   0.870   5.914  1.00  0.00     0.023 A   
ATOM     31  C20 UNL     1       0.742   1.998   6.582  1.00  0.00     0.002 A   
BRANCH  28  32
ATOM     32  N3  UNL     1       0.902  -1.061   4.502  1.00  0.00    -0.358 N   
ATOM     33  H27 UNL     1       0.287  -1.867   4.409  1.00  0.00     0.143 HD  
ATOM     34  H28 UNL     1       1.808  -1.353   4.867  1.00  0.00     0.143 HD  
ENDBRANCH  28  32
ENDBRANCH  25  26
ENDBRANCH   3  25
TORSDOF 9
