REMARK SMILES Cc1cc(Cn2cc([C@@H]([NH2+]Cc3ccc4c(c3)OCO4)C3CCCCC3)nn2)ccc1F
REMARK SMILES IDX 6 1 7 2 8 3 27 4 28 5 5 7 4 8 2 9 3 10 31 11 30 12 29 13
REMARK SMILES IDX 1 14 32 15 9 16 10 17 11 20 12 21 13 22 17 23 14 24 16 25
REMARK SMILES IDX 15 26 18 27 20 28 19 29 21 30 22 31 26 32 23 33 25 34 24 35
REMARK H PARENT 7 6 10 18 10 19
ROOT
ATOM     1   N1  UNL     1       0.807  -3.313  -1.346  1.00  0.00    -0.208 N   
ATOM     2   C6  UNL     1      -0.172  -2.378  -1.152  1.00  0.00     0.046 A   
ATOM     3   C7  UNL     1      -0.059  -1.548  -2.246  1.00  0.00     0.127 A   
ATOM     4   N3  UNL     1       0.930  -2.018  -3.069  1.00  0.00    -0.132 NA  
ATOM     5   N4  UNL     1       1.456  -3.094  -2.506  1.00  0.00    -0.076 NA  
ATOM     6   H7  UNL     1      -0.792  -2.361  -0.266  1.00  0.00     0.083 HD  
ENDROOT
BRANCH   1   7
ATOM     7   C5  UNL     1       1.243  -4.354  -0.431  1.00  0.00     0.169 C   
BRANCH   7   8
ATOM     8   C4  UNL     1       2.105  -3.759   0.658  1.00  0.00    -0.028 A   
ATOM     9   C2  UNL     1       2.335  -2.808   2.894  1.00  0.00    -0.015 A   
ATOM     10  C3  UNL     1       1.551  -3.418   1.904  1.00  0.00     0.011 A   
ATOM     11  C25 UNL     1       3.685  -2.569   2.630  1.00  0.00     0.126 A   
ATOM     12  C24 UNL     1       4.251  -2.905   1.405  1.00  0.00     0.040 A   
ATOM     13  C23 UNL     1       3.463  -3.495   0.418  1.00  0.00     0.008 A   
ATOM     14  C1  UNL     1       1.759  -2.467   4.236  1.00  0.00     0.047 C   
ATOM     15  F1  UNL     1       4.458  -2.001   3.565  1.00  0.00    -0.207 F   
ENDBRANCH   7   8
ENDBRANCH   1   7
BRANCH   3  16
ATOM     16  C8  UNL     1      -0.740  -0.256  -2.566  1.00  0.00     0.117 C   
BRANCH  16  17
ATOM     17  N2  UNL     1       0.301   0.782  -2.946  1.00  0.00     0.249 N   
ATOM     18  H9  UNL     1      -0.151   1.668  -3.181  1.00  0.00     0.199 HD  
ATOM     19  H10 UNL     1       0.767   0.433  -3.793  1.00  0.00     0.199 HD  
BRANCH  17  20
ATOM     20  C9  UNL     1       1.374   1.067  -1.940  1.00  0.00     0.164 C   
BRANCH  20  21
ATOM     21  C10 UNL     1       0.845   1.536  -0.613  1.00  0.00    -0.002 A   
ATOM     22  C11 UNL     1       0.221   2.801  -0.492  1.00  0.00     0.012 A   
ATOM     23  C15 UNL     1       0.947   0.705   0.516  1.00  0.00     0.045 A   
ATOM     24  C12 UNL     1      -0.306   3.226   0.733  1.00  0.00     0.037 A   
ATOM     25  C14 UNL     1       0.413   1.152   1.706  1.00  0.00     0.109 A   
ATOM     26  C13 UNL     1      -0.197   2.377   1.812  1.00  0.00     0.108 A   
ATOM     27  O1  UNL     1       0.411   0.468   2.880  1.00  0.00    -0.316 OA  
ATOM     28  O2  UNL     1      -0.652   2.623   3.067  1.00  0.00    -0.316 OA  
ATOM     29  C16 UNL     1      -0.222   1.429   3.756  1.00  0.00     0.337 C   
ENDBRANCH  20  21
ENDBRANCH  17  20
ENDBRANCH  16  17
BRANCH  16  30
ATOM     30  C17 UNL     1      -1.769  -0.403  -3.729  1.00  0.00     0.043 C   
ATOM     31  C18 UNL     1      -2.430   0.940  -4.109  1.00  0.00     0.010 C   
ATOM     32  C22 UNL     1      -2.864  -1.433  -3.363  1.00  0.00     0.010 C   
ATOM     33  C19 UNL     1      -3.503   0.785  -5.186  1.00  0.00     0.001 C   
ATOM     34  C21 UNL     1      -3.926  -1.575  -4.450  1.00  0.00     0.001 C   
ATOM     35  C20 UNL     1      -4.561  -0.234  -4.791  1.00  0.00     0.000 C   
ENDBRANCH  16  30
ENDBRANCH   3  16
TORSDOF 7
