REMARK SMILES Cc1c(F)cccc1CCn1cc([C@H](CC(C)C)[NH2+]Cc2ccc3c(c2)OCO3)nn1
REMARK SMILES IDX 11 1 12 2 13 3 30 4 31 5 10 7 9 8 8 9 2 10 3 11 5 12 7 13
REMARK SMILES IDX 6 14 1 15 4 16 14 17 15 18 16 19 17 20 18 21 19 22 20 25
REMARK SMILES IDX 21 26 22 27 26 28 23 29 25 30 24 31 27 32 29 33 28 34
REMARK H PARENT 12 6 19 23 19 24
ROOT
ATOM     1   N1  UNL     1      -1.424  -1.168   0.799  1.00  0.00    -0.212 N   
ATOM     2   C10 UNL     1      -1.954  -0.109   0.117  1.00  0.00     0.045 A   
ATOM     3   C11 UNL     1      -1.317  -0.150  -1.103  1.00  0.00     0.127 A   
ATOM     4   N3  UNL     1      -0.463  -1.222  -1.129  1.00  0.00    -0.132 NA  
ATOM     5   N4  UNL     1      -0.542  -1.840   0.038  1.00  0.00    -0.076 NA  
ATOM     6   H11 UNL     1      -2.668   0.569   0.562  1.00  0.00     0.083 HD  
ENDROOT
BRANCH   1   7
ATOM     7   C9  UNL     1      -1.639  -1.535   2.184  1.00  0.00     0.139 C   
BRANCH   7   8
ATOM     8   C8  UNL     1      -0.534  -1.024   3.117  1.00  0.00     0.057 C   
BRANCH   8   9
ATOM     9   C7  UNL     1      -0.390   0.486   3.088  1.00  0.00    -0.041 A   
ATOM     10  C2  UNL     1       0.690   1.135   2.451  1.00  0.00    -0.012 A   
ATOM     11  C3  UNL     1       0.680   2.535   2.372  1.00  0.00     0.126 A   
ATOM     12  C4  UNL     1      -0.334   3.295   2.943  1.00  0.00     0.039 A   
ATOM     13  C6  UNL     1      -1.405   1.266   3.677  1.00  0.00     0.004 A   
ATOM     14  C5  UNL     1      -1.374   2.659   3.610  1.00  0.00     0.003 A   
ATOM     15  C1  UNL     1       1.851   0.381   1.866  1.00  0.00     0.048 C   
ATOM     16  F1  UNL     1       1.654   3.171   1.704  1.00  0.00    -0.207 F   
ENDBRANCH   8   9
ENDBRANCH   7   8
ENDBRANCH   1   7
BRANCH   3  17
ATOM     17  C12 UNL     1      -1.359   0.784  -2.265  1.00  0.00     0.114 C   
BRANCH  17  18
ATOM     18  C13 UNL     1      -2.192   0.237  -3.439  1.00  0.00     0.064 C   
BRANCH  18  19
ATOM     19  C14 UNL     1      -3.690   0.024  -3.136  1.00  0.00    -0.012 C   
ATOM     20  C15 UNL     1      -4.395   1.321  -2.737  1.00  0.00     0.007 C   
ATOM     21  C16 UNL     1      -4.382  -0.582  -4.361  1.00  0.00     0.007 C   
ENDBRANCH  18  19
ENDBRANCH  17  18
BRANCH  17  22
ATOM     22  N2  UNL     1       0.044   1.003  -2.780  1.00  0.00     0.249 N   
ATOM     23  H22 UNL     1       0.488   0.073  -2.836  1.00  0.00     0.199 HD  
ATOM     24  H23 UNL     1       0.039   1.377  -3.735  1.00  0.00     0.199 HD  
BRANCH  22  25
ATOM     25  C17 UNL     1       0.909   1.863  -1.925  1.00  0.00     0.164 C   
BRANCH  25  26
ATOM     26  C18 UNL     1       2.305   1.911  -2.479  1.00  0.00    -0.002 A   
ATOM     27  C19 UNL     1       3.273   0.974  -2.045  1.00  0.00     0.012 A   
ATOM     28  C23 UNL     1       2.643   2.846  -3.472  1.00  0.00     0.045 A   
ATOM     29  C20 UNL     1       4.565   0.975  -2.582  1.00  0.00     0.037 A   
ATOM     30  C22 UNL     1       3.924   2.816  -3.982  1.00  0.00     0.109 A   
ATOM     31  C21 UNL     1       4.859   1.909  -3.550  1.00  0.00     0.108 A   
ATOM     32  O1  UNL     1       4.409   3.641  -4.947  1.00  0.00    -0.316 OA  
ATOM     33  O2  UNL     1       6.052   2.051  -4.183  1.00  0.00    -0.316 OA  
ATOM     34  C24 UNL     1       5.771   3.167  -5.054  1.00  0.00     0.337 C   
ENDBRANCH  25  26
ENDBRANCH  22  25
ENDBRANCH  17  22
ENDBRANCH   3  17
TORSDOF 9
