REMARK SMILES Cc1ccc([C@H](CO)n2cc([C@@H]([NH2+]Cc3ccc4c(c3)OCO4)C(C)(C)C)nn2)cc1C
REMARK SMILES IDX 9 1 10 2 11 3 28 4 29 5 6 7 5 8 2 9 3 10 31 11 4 12 30 13
REMARK SMILES IDX 1 14 32 15 7 16 8 17 12 19 13 20 14 23 15 24 16 25 20 26
REMARK SMILES IDX 17 27 19 28 18 29 21 30 23 31 22 32 24 33 25 34 26 35 27 36
REMARK H PARENT 10 6 8 18 13 21 13 22
ROOT
ATOM     1   N1  UNL     1       0.835   0.191  -1.539  1.00  0.00    -0.202 N   
ATOM     2   C8  UNL     1      -0.035   0.899  -0.752  1.00  0.00     0.046 A   
ATOM     3   C9  UNL     1      -0.191   0.117   0.368  1.00  0.00     0.127 A   
ATOM     4   N3  UNL     1       0.517  -1.048   0.203  1.00  0.00    -0.132 NA  
ATOM     5   N4  UNL     1       1.130  -0.998  -0.968  1.00  0.00    -0.075 NA  
ATOM     6   H10 UNL     1      -0.421   1.865  -1.048  1.00  0.00     0.083 HD  
ENDROOT
BRANCH   1   7
ATOM     7   C6  UNL     1       1.439   0.568  -2.817  1.00  0.00     0.155 C   
BRANCH   7   8
ATOM     8   C5  UNL     1       2.020   1.976  -2.736  1.00  0.00    -0.023 A   
ATOM     9   C2  UNL     1       3.145   4.567  -2.473  1.00  0.00    -0.048 A   
ATOM     10  C3  UNL     1       3.782   3.448  -1.921  1.00  0.00     0.004 A   
ATOM     11  C24 UNL     1       1.941   4.388  -3.179  1.00  0.00    -0.048 A   
ATOM     12  C4  UNL     1       3.227   2.173  -2.045  1.00  0.00     0.006 A   
ATOM     13  C23 UNL     1       1.391   3.098  -3.296  1.00  0.00     0.009 A   
ATOM     14  C1  UNL     1       3.794   5.917  -2.335  1.00  0.00     0.044 C   
ATOM     15  C25 UNL     1       1.228   5.550  -3.820  1.00  0.00     0.044 C   
ENDBRANCH   7   8
BRANCH   7  16
ATOM     16  C7  UNL     1       0.490   0.255  -3.991  1.00  0.00     0.185 C   
BRANCH  16  17
ATOM     17  O1  UNL     1      -0.788   0.883  -3.867  1.00  0.00    -0.394 OA  
ATOM     18  H9  UNL     1      -1.283   0.673  -4.682  1.00  0.00     0.210 HD  
ENDBRANCH  16  17
ENDBRANCH   7  16
ENDBRANCH   1   7
BRANCH   3  19
ATOM     19  C10 UNL     1      -1.013   0.313   1.607  1.00  0.00     0.120 C   
BRANCH  19  20
ATOM     20  N2  UNL     1      -1.481  -1.043   2.082  1.00  0.00     0.250 N   
ATOM     21  H12 UNL     1      -1.735  -1.056   3.073  1.00  0.00     0.199 HD  
ATOM     22  H13 UNL     1      -0.673  -1.679   1.986  1.00  0.00     0.199 HD  
BRANCH  20  23
ATOM     23  C11 UNL     1      -2.596  -1.638   1.294  1.00  0.00     0.164 C   
BRANCH  23  24
ATOM     24  C12 UNL     1      -2.781  -3.083   1.661  1.00  0.00    -0.002 A   
ATOM     25  C13 UNL     1      -2.025  -4.080   0.997  1.00  0.00     0.012 A   
ATOM     26  C17 UNL     1      -3.655  -3.451   2.698  1.00  0.00     0.045 A   
ATOM     27  C14 UNL     1      -2.147  -5.428   1.348  1.00  0.00     0.037 A   
ATOM     28  C16 UNL     1      -3.750  -4.790   3.019  1.00  0.00     0.109 A   
ATOM     29  C15 UNL     1      -3.020  -5.751   2.363  1.00  0.00     0.108 A   
ATOM     30  O2  UNL     1      -4.545  -5.314   3.990  1.00  0.00    -0.316 OA  
ATOM     31  O3  UNL     1      -3.264  -7.000   2.837  1.00  0.00    -0.316 OA  
ATOM     32  C18 UNL     1      -4.246  -6.723   3.859  1.00  0.00     0.337 C   
ENDBRANCH  23  24
ENDBRANCH  20  23
ENDBRANCH  19  20
BRANCH  19  33
ATOM     33  C19 UNL     1      -0.264   1.071   2.757  1.00  0.00     0.010 C   
ATOM     34  C20 UNL     1      -1.215   1.312   3.953  1.00  0.00     0.017 C   
ATOM     35  C21 UNL     1       0.973   0.304   3.266  1.00  0.00     0.017 C   
ATOM     36  C22 UNL     1       0.196   2.463   2.267  1.00  0.00     0.017 C   
ENDBRANCH  19  33
ENDBRANCH   3  19
TORSDOF 9
