REMARK SMILES Cc1ccc([C@@H](CO)n2cc([C@@H]([NH2+]Cc3ccc4c(c3)OCO4)C(C)(C)C)nn2)cc1C
REMARK SMILES IDX 9 1 10 2 11 3 28 4 29 5 6 7 5 8 2 9 3 10 31 11 4 12 30 13
REMARK SMILES IDX 1 14 32 15 7 16 8 17 12 19 13 20 14 23 15 24 16 25 20 26
REMARK SMILES IDX 17 27 19 28 18 29 21 30 23 31 22 32 24 33 25 34 26 35 27 36
REMARK H PARENT 10 6 8 18 13 21 13 22
ROOT
ATOM     1   N1  UNL     1      -1.180   1.842   0.467  1.00  0.00    -0.202 N   
ATOM     2   C8  UNL     1      -0.707   1.215  -0.654  1.00  0.00     0.046 A   
ATOM     3   C9  UNL     1      -1.393   0.025  -0.692  1.00  0.00     0.127 A   
ATOM     4   N3  UNL     1      -2.253  -0.033   0.373  1.00  0.00    -0.132 NA  
ATOM     5   N4  UNL     1      -2.114   1.080   1.076  1.00  0.00    -0.075 NA  
ATOM     6   H10 UNL     1       0.071   1.647  -1.270  1.00  0.00     0.083 HD  
ENDROOT
BRANCH   1   7
ATOM     7   C6  UNL     1      -0.712   3.078   1.090  1.00  0.00     0.155 C   
BRANCH   7   8
ATOM     8   C5  UNL     1       0.761   2.941   1.465  1.00  0.00    -0.023 A   
ATOM     9   C2  UNL     1       3.468   2.574   2.225  1.00  0.00    -0.048 A   
ATOM     10  C3  UNL     1       3.134   3.258   1.048  1.00  0.00     0.004 A   
ATOM     11  C24 UNL     1       2.438   2.065   3.037  1.00  0.00    -0.048 A   
ATOM     12  C4  UNL     1       1.801   3.438   0.671  1.00  0.00     0.006 A   
ATOM     13  C23 UNL     1       1.101   2.250   2.646  1.00  0.00     0.009 A   
ATOM     14  C1  UNL     1       4.917   2.430   2.608  1.00  0.00     0.044 C   
ATOM     15  C25 UNL     1       2.739   1.353   4.329  1.00  0.00     0.044 C   
ENDBRANCH   7   8
BRANCH   7  16
ATOM     16  C7  UNL     1      -1.127   4.323   0.280  1.00  0.00     0.185 C   
BRANCH  16  17
ATOM     17  O1  UNL     1      -0.662   4.304  -1.071  1.00  0.00    -0.394 OA  
ATOM     18  H9  UNL     1      -0.949   5.143  -1.480  1.00  0.00     0.210 HD  
ENDBRANCH  16  17
ENDBRANCH   7  16
ENDBRANCH   1   7
BRANCH   3  19
ATOM     19  C10 UNL     1      -1.228  -1.162  -1.587  1.00  0.00     0.120 C   
BRANCH  19  20
ATOM     20  N2  UNL     1      -1.209  -2.421  -0.740  1.00  0.00     0.250 N   
ATOM     21  H12 UNL     1      -2.079  -2.415  -0.192  1.00  0.00     0.199 HD  
ATOM     22  H13 UNL     1      -1.218  -3.255  -1.328  1.00  0.00     0.199 HD  
BRANCH  20  23
ATOM     23  C11 UNL     1      -0.085  -2.541   0.242  1.00  0.00     0.164 C   
BRANCH  23  24
ATOM     24  C12 UNL     1       1.270  -2.588  -0.406  1.00  0.00    -0.002 A   
ATOM     25  C13 UNL     1       2.152  -1.484  -0.301  1.00  0.00     0.012 A   
ATOM     26  C17 UNL     1       1.663  -3.718  -1.142  1.00  0.00     0.045 A   
ATOM     27  C14 UNL     1       3.401  -1.500  -0.931  1.00  0.00     0.037 A   
ATOM     28  C16 UNL     1       2.900  -3.699  -1.752  1.00  0.00     0.109 A   
ATOM     29  C15 UNL     1       3.744  -2.621  -1.653  1.00  0.00     0.108 A   
ATOM     30  O2  UNL     1       3.425  -4.702  -2.503  1.00  0.00    -0.316 OA  
ATOM     31  O3  UNL     1       4.906  -2.810  -2.329  1.00  0.00    -0.316 OA  
ATOM     32  C18 UNL     1       4.713  -4.143  -2.847  1.00  0.00     0.337 C   
ENDBRANCH  23  24
ENDBRANCH  20  23
ENDBRANCH  19  20
BRANCH  19  33
ATOM     33  C19 UNL     1      -2.309  -1.275  -2.719  1.00  0.00     0.010 C   
ATOM     34  C20 UNL     1      -3.733  -1.501  -2.175  1.00  0.00     0.017 C   
ATOM     35  C21 UNL     1      -2.315   0.015  -3.573  1.00  0.00     0.017 C   
ATOM     36  C22 UNL     1      -1.967  -2.445  -3.672  1.00  0.00     0.017 C   
ENDBRANCH  19  33
ENDBRANCH   3  19
TORSDOF 9
