REMARK SMILES Fc1cccc(-n2cc([C@@H]([NH2+]Cc3ccc4c(c3)OCO4)C3CCCCC3)nn2)c1
REMARK SMILES IDX 10 1 9 2 7 3 8 4 29 5 28 6 6 7 2 8 3 9 30 10 4 11 5 12 1 13
REMARK SMILES IDX 11 14 12 17 13 18 14 19 18 20 15 21 17 22 16 23 19 24 21 25
REMARK SMILES IDX 20 26 22 27 23 28 27 29 24 30 26 31 25 32
REMARK H PARENT 11 15 11 16
ROOT
ATOM     1   C8  UNL     1       0.357  -0.317  -0.564  1.00  0.00     0.117 C   
ENDROOT
BRANCH   1   2
ATOM     2   C7  UNL     1       0.302  -0.952   0.791  1.00  0.00     0.127 A   
ATOM     3   N1  UNL     1       0.435  -1.534   2.899  1.00  0.00    -0.181 N   
ATOM     4   C6  UNL     1       0.774  -0.528   2.014  1.00  0.00     0.135 A   
ATOM     5   N4  UNL     1      -0.191  -2.525   2.212  1.00  0.00    -0.071 NA  
ATOM     6   N3  UNL     1      -0.285  -2.176   0.940  1.00  0.00    -0.131 NA  
BRANCH   3   7
ATOM     7   C5  UNL     1       0.668  -1.615   4.294  1.00  0.00     0.060 A   
ATOM     8   C1  UNL     1       1.536  -0.698   6.347  1.00  0.00     0.125 A   
ATOM     9   C2  UNL     1       1.112  -1.815   7.055  1.00  0.00     0.039 A   
ATOM     10  C23 UNL     1       1.322  -0.583   4.976  1.00  0.00     0.065 A   
ATOM     11  C3  UNL     1       0.459  -2.845   6.382  1.00  0.00     0.005 A   
ATOM     12  C4  UNL     1       0.236  -2.748   5.005  1.00  0.00     0.026 A   
ATOM     13  F1  UNL     1       2.165   0.293   6.992  1.00  0.00    -0.207 F   
ENDBRANCH   3   7
ENDBRANCH   1   2
BRANCH   1  14
ATOM     14  N2  UNL     1       0.194  -1.363  -1.642  1.00  0.00     0.249 N   
ATOM     15  H6  UNL     1      -0.556  -1.993  -1.321  1.00  0.00     0.199 HD  
ATOM     16  H7  UNL     1      -0.127  -0.945  -2.519  1.00  0.00     0.199 HD  
BRANCH  14  17
ATOM     17  C9  UNL     1       1.391  -2.211  -1.920  1.00  0.00     0.164 C   
BRANCH  17  18
ATOM     18  C10 UNL     1       2.498  -1.446  -2.591  1.00  0.00    -0.002 A   
ATOM     19  C11 UNL     1       3.700  -1.172  -1.894  1.00  0.00     0.012 A   
ATOM     20  C15 UNL     1       2.340  -0.976  -3.906  1.00  0.00     0.045 A   
ATOM     21  C12 UNL     1       4.725  -0.431  -2.492  1.00  0.00     0.037 A   
ATOM     22  C14 UNL     1       3.369  -0.247  -4.465  1.00  0.00     0.109 A   
ATOM     23  C13 UNL     1       4.528   0.019  -3.778  1.00  0.00     0.108 A   
ATOM     24  O1  UNL     1       3.372   0.285  -5.715  1.00  0.00    -0.316 OA  
ATOM     25  O2  UNL     1       5.407   0.751  -4.510  1.00  0.00    -0.316 OA  
ATOM     26  C16 UNL     1       4.684   0.892  -5.752  1.00  0.00     0.337 C   
ENDBRANCH  17  18
ENDBRANCH  14  17
ENDBRANCH   1  14
BRANCH   1  27
ATOM     27  C17 UNL     1      -0.712   0.799  -0.729  1.00  0.00     0.043 C   
ATOM     28  C18 UNL     1      -0.428   1.679  -1.963  1.00  0.00     0.010 C   
ATOM     29  C22 UNL     1      -2.162   0.278  -0.767  1.00  0.00     0.010 C   
ATOM     30  C19 UNL     1      -1.438   2.819  -2.085  1.00  0.00     0.001 C   
ATOM     31  C21 UNL     1      -3.167   1.422  -0.893  1.00  0.00     0.001 C   
ATOM     32  C20 UNL     1      -2.872   2.300  -2.105  1.00  0.00     0.000 C   
ENDBRANCH   1  27
TORSDOF 6
