REMARK SMILES CC(C)C[C@H]([NH2+]Cc1ccc2c(c1)OCO2)c1cn(CCc2cn(C)cn2)nn1
REMARK SMILES IDX 17 1 18 2 19 3 28 4 29 5 5 7 4 8 2 9 1 10 3 11 6 12 7 15
REMARK SMILES IDX 8 16 9 17 13 18 10 19 12 20 11 21 14 22 16 23 15 24 20 25
REMARK SMILES IDX 21 26 22 27 23 28 27 29 24 30 26 31 25 32
REMARK H PARENT 18 6 6 13 6 14
ROOT
ATOM     1   C14 UNL     1       0.694   1.669  -0.340  1.00  0.00     0.127 A   
ATOM     2   C15 UNL     1       0.228   1.375  -1.601  1.00  0.00     0.045 A   
ATOM     3   N2  UNL     1       1.349   0.964  -2.264  1.00  0.00    -0.212 N   
ATOM     4   N5  UNL     1       2.451   1.138  -1.511  1.00  0.00    -0.076 NA  
ATOM     5   N6  UNL     1       2.059   1.560  -0.320  1.00  0.00    -0.132 NA  
ATOM     6   H20 UNL     1      -0.761   1.279  -2.026  1.00  0.00     0.083 HD  
ENDROOT
BRANCH   1   7
ATOM     7   C5  UNL     1      -0.047   1.867   0.933  1.00  0.00     0.114 C   
BRANCH   7   8
ATOM     8   C4  UNL     1       0.186   3.252   1.561  1.00  0.00     0.064 C   
BRANCH   8   9
ATOM     9   C2  UNL     1      -0.303   4.441   0.706  1.00  0.00    -0.012 C   
ATOM     10  C1  UNL     1      -1.809   4.393   0.448  1.00  0.00     0.007 C   
ATOM     11  C3  UNL     1       0.059   5.758   1.399  1.00  0.00     0.007 C   
ENDBRANCH   8   9
ENDBRANCH   7   8
BRANCH   7  12
ATOM     12  N1  UNL     1       0.415   0.834   1.936  1.00  0.00     0.249 N   
ATOM     13  H11 UNL     1       1.437   0.931   2.022  1.00  0.00     0.199 HD  
ATOM     14  H12 UNL     1       0.019   1.019   2.863  1.00  0.00     0.199 HD  
BRANCH  12  15
ATOM     15  C6  UNL     1       0.145  -0.585   1.552  1.00  0.00     0.164 C   
BRANCH  15  16
ATOM     16  C7  UNL     1       0.498  -1.508   2.685  1.00  0.00    -0.002 A   
ATOM     17  C8  UNL     1       1.809  -2.030   2.793  1.00  0.00     0.012 A   
ATOM     18  C12 UNL     1      -0.456  -1.818   3.670  1.00  0.00     0.045 A   
ATOM     19  C9  UNL     1       2.166  -2.859   3.861  1.00  0.00     0.037 A   
ATOM     20  C11 UNL     1      -0.070  -2.638   4.710  1.00  0.00     0.109 A   
ATOM     21  C10 UNL     1       1.202  -3.145   4.803  1.00  0.00     0.108 A   
ATOM     22  O1  UNL     1      -0.865  -3.035   5.739  1.00  0.00    -0.316 OA  
ATOM     23  O2  UNL     1       1.369  -3.928   5.901  1.00  0.00    -0.316 OA  
ATOM     24  C13 UNL     1       0.050  -3.872   6.483  1.00  0.00     0.337 C   
ENDBRANCH  15  16
ENDBRANCH  12  15
ENDBRANCH   7  12
ENDBRANCH   1   7
BRANCH   3  25
ATOM     25  C16 UNL     1       1.425   0.254  -3.523  1.00  0.00     0.140 C   
BRANCH  25  26
ATOM     26  C17 UNL     1       1.488  -1.259  -3.321  1.00  0.00     0.079 C   
BRANCH  26  27
ATOM     27  C18 UNL     1       0.177  -1.863  -2.936  1.00  0.00     0.058 A   
ATOM     28  C19 UNL     1      -0.645  -2.665  -3.700  1.00  0.00     0.099 A   
ATOM     29  N4  UNL     1      -0.371  -1.678  -1.679  1.00  0.00    -0.244 NA  
ATOM     30  N3  UNL     1      -1.692  -2.986  -2.888  1.00  0.00    -0.300 N   
ATOM     31  C21 UNL     1      -1.488  -2.377  -1.684  1.00  0.00     0.188 A   
ATOM     32  C20 UNL     1      -2.811  -3.829  -3.230  1.00  0.00     0.137 C   
ENDBRANCH  26  27
ENDBRANCH  25  26
ENDBRANCH   3  25
TORSDOF 9
