REMARK SMILES Cc1nc(-n2cc([C@H](CC(C)C)[NH2+]Cc3ccc4c(c3)OCO4)nn2)sc1C
REMARK SMILES IDX 8 1 7 2 5 3 6 4 25 5 24 6 4 7 2 8 3 9 27 10 26 11 1 12 28 13
REMARK SMILES IDX 9 14 10 15 11 16 12 17 13 18 14 21 15 22 16 23 20 24 17 25
REMARK SMILES IDX 19 26 18 27 21 28 23 29 22 30
REMARK H PARENT 13 19 13 20
ROOT
ATOM     1   C6  UNL     1      -0.302  -0.135  -1.140  1.00  0.00     0.114 C   
ENDROOT
BRANCH   1   2
ATOM     2   C5  UNL     1      -1.183  -0.275   0.061  1.00  0.00     0.127 A   
ATOM     3   N2  UNL     1      -2.403  -0.056   1.865  1.00  0.00    -0.156 N   
ATOM     4   C4  UNL     1      -1.628   0.657   0.969  1.00  0.00     0.137 A   
ATOM     5   N5  UNL     1      -2.391  -1.368   1.513  1.00  0.00    -0.069 NA  
ATOM     6   N4  UNL     1      -1.665  -1.506   0.414  1.00  0.00    -0.131 NA  
BRANCH   3   7
ATOM     7   C3  UNL     1      -3.092   0.415   2.978  1.00  0.00     0.185 A   
ATOM     8   C2  UNL     1      -3.854   1.847   4.468  1.00  0.00     0.050 A   
ATOM     9   N1  UNL     1      -3.079   1.683   3.327  1.00  0.00    -0.229 NA  
ATOM     10  C19 UNL     1      -4.434   0.682   4.950  1.00  0.00     0.011 A   
ATOM     11  S1  UNL     1      -3.990  -0.645   3.953  1.00  0.00    -0.055 S   
ATOM     12  C1  UNL     1      -3.986   3.213   5.045  1.00  0.00     0.068 C   
ATOM     13  C20 UNL     1      -5.314   0.469   6.133  1.00  0.00     0.054 C   
ENDBRANCH   3   7
ENDBRANCH   1   2
BRANCH   1  14
ATOM     14  C7  UNL     1      -1.147   0.156  -2.398  1.00  0.00     0.064 C   
BRANCH  14  15
ATOM     15  C8  UNL     1      -0.367   0.418  -3.704  1.00  0.00    -0.012 C   
ATOM     16  C9  UNL     1       0.619   1.580  -3.577  1.00  0.00     0.007 C   
ATOM     17  C10 UNL     1      -1.353   0.702  -4.842  1.00  0.00     0.007 C   
ENDBRANCH  14  15
ENDBRANCH   1  14
BRANCH   1  18
ATOM     18  N3  UNL     1       0.492  -1.400  -1.363  1.00  0.00     0.249 N   
ATOM     19  H15 UNL     1       0.924  -1.398  -2.291  1.00  0.00     0.199 HD  
ATOM     20  H16 UNL     1      -0.183  -2.178  -1.345  1.00  0.00     0.199 HD  
BRANCH  18  21
ATOM     21  C11 UNL     1       1.552  -1.703  -0.354  1.00  0.00     0.164 C   
BRANCH  21  22
ATOM     22  C12 UNL     1       2.690  -0.721  -0.396  1.00  0.00    -0.002 A   
ATOM     23  C13 UNL     1       2.850   0.231   0.639  1.00  0.00     0.012 A   
ATOM     24  C17 UNL     1       3.583  -0.717  -1.482  1.00  0.00     0.045 A   
ATOM     25  C14 UNL     1       3.877   1.179   0.592  1.00  0.00     0.037 A   
ATOM     26  C16 UNL     1       4.583   0.232  -1.498  1.00  0.00     0.109 A   
ATOM     27  C15 UNL     1       4.726   1.155  -0.492  1.00  0.00     0.108 A   
ATOM     28  O1  UNL     1       5.518   0.378  -2.474  1.00  0.00    -0.316 OA  
ATOM     29  O2  UNL     1       5.770   1.996  -0.705  1.00  0.00    -0.316 OA  
ATOM     30  C18 UNL     1       6.291   1.482  -1.950  1.00  0.00     0.337 C   
ENDBRANCH  21  22
ENDBRANCH  18  21
ENDBRANCH   1  18
TORSDOF 7
