REMARK SMILES CC(C)(C)[C@H]([NH2+]Cc1ccc2c(c1)OCO2)c1cn([C@@H](CO)c2ncc[nH]2)nn1
REMARK SMILES IDX 17 1 18 2 19 3 28 4 29 5 5 7 2 8 1 9 3 10 4 11 6 12 7 15
REMARK SMILES IDX 8 16 9 17 13 18 10 19 12 20 11 21 14 22 16 23 15 24 20 25
REMARK SMILES IDX 21 26 22 27 23 29 24 30 27 31 25 32 26 33
REMARK H PARENT 18 6 6 13 6 14 22 28 27 34
ROOT
ATOM     1   C14 UNL     1      -0.652  -0.156   1.283  1.00  0.00     0.127 A   
ATOM     2   C15 UNL     1       0.247   0.822   1.641  1.00  0.00     0.046 A   
ATOM     3   N2  UNL     1       1.048   0.210   2.571  1.00  0.00    -0.199 N   
ATOM     4   N5  UNL     1       0.593  -1.030   2.846  1.00  0.00    -0.075 NA  
ATOM     5   N6  UNL     1      -0.438  -1.270   2.052  1.00  0.00    -0.132 NA  
ATOM     6   H20 UNL     1       0.462   1.811   1.259  1.00  0.00     0.083 HD  
ENDROOT
BRANCH   1   7
ATOM     7   C5  UNL     1      -1.618  -0.213   0.143  1.00  0.00     0.120 C   
BRANCH   7   8
ATOM     8   C2  UNL     1      -3.123  -0.060   0.557  1.00  0.00     0.010 C   
ATOM     9   C1  UNL     1      -3.635  -1.224   1.428  1.00  0.00     0.017 C   
ATOM     10  C3  UNL     1      -3.318   1.258   1.343  1.00  0.00     0.017 C   
ATOM     11  C4  UNL     1      -4.016   0.028  -0.702  1.00  0.00     0.017 C   
ENDBRANCH   7   8
BRANCH   7  12
ATOM     12  N1  UNL     1      -1.400  -1.513  -0.608  1.00  0.00     0.250 N   
ATOM     13  H11 UNL     1      -1.452  -2.264   0.093  1.00  0.00     0.199 HD  
ATOM     14  H12 UNL     1      -2.142  -1.675  -1.291  1.00  0.00     0.199 HD  
BRANCH  12  15
ATOM     15  C6  UNL     1      -0.076  -1.661  -1.295  1.00  0.00     0.164 C   
BRANCH  15  16
ATOM     16  C7  UNL     1       0.126  -0.668  -2.405  1.00  0.00    -0.002 A   
ATOM     17  C8  UNL     1       1.081   0.367  -2.265  1.00  0.00     0.012 A   
ATOM     18  C12 UNL     1      -0.648  -0.741  -3.577  1.00  0.00     0.045 A   
ATOM     19  C9  UNL     1       1.259   1.324  -3.270  1.00  0.00     0.037 A   
ATOM     20  C11 UNL     1      -0.448   0.219  -4.547  1.00  0.00     0.109 A   
ATOM     21  C10 UNL     1       0.477   1.223  -4.398  1.00  0.00     0.108 A   
ATOM     22  O1  UNL     1      -1.115   0.298  -5.728  1.00  0.00    -0.316 OA  
ATOM     23  O2  UNL     1       0.510   2.060  -5.468  1.00  0.00    -0.316 OA  
ATOM     24  C13 UNL     1      -0.483   1.455  -6.323  1.00  0.00     0.337 C   
ENDBRANCH  15  16
ENDBRANCH  12  15
ENDBRANCH   7  12
ENDBRANCH   1   7
BRANCH   3  25
ATOM     25  C16 UNL     1       2.296   0.716   3.132  1.00  0.00     0.189 C   
BRANCH  25  26
ATOM     26  C17 UNL     1       2.660   0.043   4.467  1.00  0.00     0.189 C   
BRANCH  26  27
ATOM     27  O3  UNL     1       3.739   0.744   5.103  1.00  0.00    -0.394 OA  
ATOM     28  H24 UNL     1       3.853   0.342   5.986  1.00  0.00     0.210 HD  
ENDBRANCH  26  27
ENDBRANCH  25  26
BRANCH  25  29
ATOM     29  C18 UNL     1       3.396   0.584   2.106  1.00  0.00     0.123 A   
ATOM     30  N3  UNL     1       3.284   0.287   0.821  1.00  0.00    -0.242 NA  
ATOM     31  N4  UNL     1       4.713   0.831   2.428  1.00  0.00    -0.306 N   
ATOM     32  C19 UNL     1       4.561   0.319   0.319  1.00  0.00     0.128 A   
ATOM     33  C20 UNL     1       5.461   0.655   1.299  1.00  0.00     0.093 A   
ATOM     34  H27 UNL     1       5.050   1.076   3.354  1.00  0.00     0.154 HD  
ENDBRANCH  25  29
ENDBRANCH   3  25
TORSDOF 9
