REMARK SMILES CC(C)(C)[C@H]([NH2+]Cc1ccc2c(c1)OCO2)c1cn([C@H](CO)c2ncc[nH]2)nn1
REMARK SMILES IDX 17 1 18 2 19 3 28 4 29 5 5 7 2 8 1 9 3 10 4 11 6 12 7 15
REMARK SMILES IDX 8 16 9 17 13 18 10 19 12 20 11 21 14 22 16 23 15 24 20 25
REMARK SMILES IDX 21 26 22 27 23 29 24 30 27 31 25 32 26 33
REMARK H PARENT 18 6 6 13 6 14 22 28 27 34
ROOT
ATOM     1   C14 UNL     1       1.369  -1.273  -0.698  1.00  0.00     0.127 A   
ATOM     2   C15 UNL     1       1.533  -0.118  -1.427  1.00  0.00     0.046 A   
ATOM     3   N2  UNL     1       1.585  -0.549  -2.727  1.00  0.00    -0.199 N   
ATOM     4   N5  UNL     1       1.570  -1.897  -2.778  1.00  0.00    -0.075 NA  
ATOM     5   N6  UNL     1       1.413  -2.350  -1.545  1.00  0.00    -0.132 NA  
ATOM     6   H20 UNL     1       1.513   0.933  -1.168  1.00  0.00     0.083 HD  
ENDROOT
BRANCH   1   7
ATOM     7   C5  UNL     1       1.018  -1.468   0.743  1.00  0.00     0.120 C   
BRANCH   7   8
ATOM     8   C2  UNL     1       2.210  -1.947   1.643  1.00  0.00     0.010 C   
ATOM     9   C1  UNL     1       1.786  -1.957   3.130  1.00  0.00     0.017 C   
ATOM     10  C3  UNL     1       3.393  -0.959   1.517  1.00  0.00     0.017 C   
ATOM     11  C4  UNL     1       2.717  -3.357   1.279  1.00  0.00     0.017 C   
ENDBRANCH   7   8
BRANCH   7  12
ATOM     12  N1  UNL     1      -0.144  -2.438   0.834  1.00  0.00     0.250 N   
ATOM     13  H11 UNL     1       0.135  -3.277   0.309  1.00  0.00     0.199 HD  
ATOM     14  H12 UNL     1      -0.314  -2.719   1.801  1.00  0.00     0.199 HD  
BRANCH  12  15
ATOM     15  C6  UNL     1      -1.438  -1.972   0.239  1.00  0.00     0.164 C   
BRANCH  15  16
ATOM     16  C7  UNL     1      -2.004  -0.762   0.929  1.00  0.00    -0.002 A   
ATOM     17  C8  UNL     1      -2.023   0.489   0.265  1.00  0.00     0.012 A   
ATOM     18  C12 UNL     1      -2.488  -0.853   2.246  1.00  0.00     0.045 A   
ATOM     19  C9  UNL     1      -2.506   1.636   0.904  1.00  0.00     0.037 A   
ATOM     20  C11 UNL     1      -2.954   0.297   2.846  1.00  0.00     0.109 A   
ATOM     21  C10 UNL     1      -2.963   1.507   2.196  1.00  0.00     0.108 A   
ATOM     22  O1  UNL     1      -3.443   0.383   4.112  1.00  0.00    -0.316 OA  
ATOM     23  O2  UNL     1      -3.460   2.507   2.969  1.00  0.00    -0.316 OA  
ATOM     24  C13 UNL     1      -3.781   1.788   4.179  1.00  0.00     0.337 C   
ENDBRANCH  15  16
ENDBRANCH  12  15
ENDBRANCH   7  12
ENDBRANCH   1   7
BRANCH   3  25
ATOM     25  C16 UNL     1       1.623   0.237  -3.956  1.00  0.00     0.189 C   
BRANCH  25  26
ATOM     26  C17 UNL     1       2.982   0.935  -4.109  1.00  0.00     0.189 C   
BRANCH  26  27
ATOM     27  O3  UNL     1       3.117   1.491  -5.423  1.00  0.00    -0.394 OA  
ATOM     28  H24 UNL     1       4.027   1.838  -5.497  1.00  0.00     0.210 HD  
ENDBRANCH  26  27
ENDBRANCH  25  26
BRANCH  25  29
ATOM     29  C18 UNL     1       0.473   1.212  -4.005  1.00  0.00     0.123 A   
ATOM     30  N3  UNL     1      -0.504   1.377  -3.128  1.00  0.00    -0.242 NA  
ATOM     31  N4  UNL     1       0.317   2.077  -5.067  1.00  0.00    -0.306 N   
ATOM     32  C19 UNL     1      -1.302   2.369  -3.642  1.00  0.00     0.128 A   
ATOM     33  C20 UNL     1      -0.805   2.820  -4.839  1.00  0.00     0.093 A   
ATOM     34  H27 UNL     1       0.951   2.152  -5.856  1.00  0.00     0.154 HD  
ENDBRANCH  25  29
ENDBRANCH   3  25
TORSDOF 9
