REMARK SMILES O=C1CCc2ccc(-n3cc([C@@H]([NH2+]Cc4ccc5c(c4)OCO5)C4CCCCC4)nn3)cc21
REMARK SMILES IDX 12 1 11 2 9 3 10 4 31 5 30 6 8 7 2 8 3 9 33 10 4 11 5 12
REMARK SMILES IDX 32 13 6 14 7 15 1 16 13 17 14 20 15 21 16 22 20 23 17 24
REMARK SMILES IDX 19 25 18 26 21 27 23 28 22 29 24 30 25 31 29 32 26 33 28 34
REMARK SMILES IDX 27 35
REMARK H PARENT 13 18 13 19
ROOT
ATOM     1   C10 UNL     1       0.743   0.546  -0.639  1.00  0.00     0.117 C   
ENDROOT
BRANCH   1   2
ATOM     2   C9  UNL     1       0.321  -0.872  -0.391  1.00  0.00     0.127 A   
ATOM     3   N1  UNL     1      -0.434  -2.805   0.319  1.00  0.00    -0.181 N   
ATOM     4   C8  UNL     1      -0.370  -1.463   0.644  1.00  0.00     0.135 A   
ATOM     5   N4  UNL     1       0.236  -3.002  -0.845  1.00  0.00    -0.071 NA  
ATOM     6   N3  UNL     1       0.687  -1.840  -1.286  1.00  0.00    -0.131 NA  
BRANCH   3   7
ATOM     7   C7  UNL     1      -1.056  -3.866   1.023  1.00  0.00     0.058 A   
ATOM     8   C1  UNL     1      -3.100  -4.719   4.080  1.00  0.00     0.163 C   
ATOM     9   C2  UNL     1      -3.597  -6.117   4.350  1.00  0.00     0.086 C   
ATOM     10  C26 UNL     1      -2.335  -4.706   2.844  1.00  0.00     0.023 A   
ATOM     11  C3  UNL     1      -2.938  -6.988   3.263  1.00  0.00     0.044 C   
ATOM     12  C4  UNL     1      -2.251  -6.007   2.366  1.00  0.00    -0.037 A   
ATOM     13  C25 UNL     1      -1.758  -3.619   2.209  1.00  0.00     0.038 A   
ATOM     14  C5  UNL     1      -1.558  -6.263   1.195  1.00  0.00     0.006 A   
ATOM     15  C6  UNL     1      -0.959  -5.188   0.522  1.00  0.00     0.026 A   
ATOM     16  O1  UNL     1      -3.291  -3.727   4.760  1.00  0.00    -0.294 OA  
ENDBRANCH   3   7
ENDBRANCH   1   2
BRANCH   1  17
ATOM     17  N2  UNL     1       1.755   0.565  -1.772  1.00  0.00     0.249 N   
ATOM     18  H9  UNL     1       2.017  -0.419  -1.943  1.00  0.00     0.199 HD  
ATOM     19  H10 UNL     1       1.304   0.862  -2.645  1.00  0.00     0.199 HD  
BRANCH  17  20
ATOM     20  C11 UNL     1       3.000   1.348  -1.550  1.00  0.00     0.164 C   
BRANCH  20  21
ATOM     21  C12 UNL     1       2.766   2.832  -1.550  1.00  0.00    -0.002 A   
ATOM     22  C13 UNL     1       2.822   3.567  -0.341  1.00  0.00     0.012 A   
ATOM     23  C17 UNL     1       2.450   3.496  -2.749  1.00  0.00     0.045 A   
ATOM     24  C14 UNL     1       2.556   4.940  -0.320  1.00  0.00     0.037 A   
ATOM     25  C16 UNL     1       2.184   4.848  -2.691  1.00  0.00     0.109 A   
ATOM     26  C15 UNL     1       2.233   5.550  -1.512  1.00  0.00     0.108 A   
ATOM     27  O2  UNL     1       1.846   5.632  -3.748  1.00  0.00    -0.316 OA  
ATOM     28  O3  UNL     1       1.941   6.866  -1.679  1.00  0.00    -0.316 OA  
ATOM     29  C18 UNL     1       1.685   6.914  -3.100  1.00  0.00     0.337 C   
ENDBRANCH  20  21
ENDBRANCH  17  20
ENDBRANCH   1  17
BRANCH   1  30
ATOM     30  C19 UNL     1      -0.414   1.522  -0.976  1.00  0.00     0.043 C   
ATOM     31  C20 UNL     1      -1.213   1.918   0.280  1.00  0.00     0.010 C   
ATOM     32  C24 UNL     1      -1.371   1.018  -2.075  1.00  0.00     0.010 C   
ATOM     33  C21 UNL     1      -2.279   2.964  -0.044  1.00  0.00     0.001 C   
ATOM     34  C23 UNL     1      -2.444   2.059  -2.396  1.00  0.00     0.001 C   
ATOM     35  C22 UNL     1      -3.213   2.487  -1.150  1.00  0.00     0.000 C   
ENDBRANCH   1  30
TORSDOF 6
