REMARK SMILES COc1cccnc1Cn1cc([C@H](CC(C)C)[NH2+]Cc2ccc3c(c2)OCO3)nn1
REMARK SMILES IDX 10 1 11 2 12 3 29 4 30 5 9 7 8 8 3 9 4 10 5 11 7 12 6 13
REMARK SMILES IDX 2 14 1 15 13 16 14 17 15 18 16 19 17 20 18 21 19 24 20 25
REMARK SMILES IDX 21 26 25 27 22 28 24 29 23 30 26 31 28 32 27 33
REMARK H PARENT 11 6 18 22 18 23
ROOT
ATOM     1   N2  UNL     1      -1.698   2.655  -1.645  1.00  0.00    -0.206 N   
ATOM     2   C8  UNL     1      -0.963   2.586  -0.491  1.00  0.00     0.046 A   
ATOM     3   C9  UNL     1       0.338   2.515  -0.929  1.00  0.00     0.127 A   
ATOM     4   N4  UNL     1       0.360   2.595  -2.298  1.00  0.00    -0.132 NA  
ATOM     5   N5  UNL     1      -0.890   2.677  -2.725  1.00  0.00    -0.076 NA  
ATOM     6   H9  UNL     1      -1.430   2.541   0.484  1.00  0.00     0.083 HD  
ENDROOT
BRANCH   1   7
ATOM     7   C7  UNL     1      -3.143   2.679  -1.780  1.00  0.00     0.192 C   
BRANCH   7   8
ATOM     8   C6  UNL     1      -3.712   1.322  -1.446  1.00  0.00     0.090 A   
ATOM     9   C2  UNL     1      -3.993   0.384  -2.449  1.00  0.00     0.098 A   
ATOM     10  C3  UNL     1      -4.498  -0.857  -2.055  1.00  0.00     0.037 A   
ATOM     11  C4  UNL     1      -4.703  -1.127  -0.703  1.00  0.00     0.023 A   
ATOM     12  N1  UNL     1      -3.892   1.063  -0.118  1.00  0.00    -0.257 NA  
ATOM     13  C5  UNL     1      -4.389  -0.146   0.220  1.00  0.00     0.111 A   
BRANCH   9  14
ATOM     14  O1  UNL     1      -3.737   0.758  -3.738  1.00  0.00    -0.347 OA  
ATOM     15  C1  UNL     1      -4.113  -0.148  -4.770  1.00  0.00     0.203 C   
ENDBRANCH   9  14
ENDBRANCH   7   8
ENDBRANCH   1   7
BRANCH   3  16
ATOM     16  C10 UNL     1       1.606   2.289  -0.176  1.00  0.00     0.114 C   
BRANCH  16  17
ATOM     17  C11 UNL     1       2.352   3.620   0.051  1.00  0.00     0.064 C   
BRANCH  17  18
ATOM     18  C12 UNL     1       3.663   3.542   0.864  1.00  0.00    -0.012 C   
ATOM     19  C13 UNL     1       3.466   2.903   2.239  1.00  0.00     0.007 C   
ATOM     20  C14 UNL     1       4.248   4.949   1.027  1.00  0.00     0.007 C   
ENDBRANCH  17  18
ENDBRANCH  16  17
BRANCH  16  21
ATOM     21  N3  UNL     1       2.508   1.338  -0.929  1.00  0.00     0.249 N   
ATOM     22  H20 UNL     1       3.410   1.254  -0.456  1.00  0.00     0.199 HD  
ATOM     23  H21 UNL     1       2.675   1.767  -1.850  1.00  0.00     0.199 HD  
BRANCH  21  24
ATOM     24  C15 UNL     1       1.967  -0.035  -1.177  1.00  0.00     0.164 C   
BRANCH  24  25
ATOM     25  C16 UNL     1       1.698  -0.804   0.087  1.00  0.00    -0.002 A   
ATOM     26  C17 UNL     1       2.771  -1.325   0.851  1.00  0.00     0.012 A   
ATOM     27  C21 UNL     1       0.376  -0.987   0.534  1.00  0.00     0.045 A   
ATOM     28  C18 UNL     1       2.533  -2.013   2.047  1.00  0.00     0.037 A   
ATOM     29  C20 UNL     1       0.176  -1.671   1.716  1.00  0.00     0.109 A   
ATOM     30  C19 UNL     1       1.224  -2.168   2.452  1.00  0.00     0.108 A   
ATOM     31  O2  UNL     1      -1.030  -1.933   2.286  1.00  0.00    -0.316 OA  
ATOM     32  O3  UNL     1       0.810  -2.805   3.579  1.00  0.00    -0.316 OA  
ATOM     33  C22 UNL     1      -0.624  -2.682   3.454  1.00  0.00     0.337 C   
ENDBRANCH  24  25
ENDBRANCH  21  24
ENDBRANCH  16  21
ENDBRANCH   3  16
TORSDOF 9
