REMARK SMILES CC(C)[C@H]([NH2+]Cc1ccc2c(c1)OCO2)c1cn(Cc2c(F)ccc(F)c2F)nn1
REMARK SMILES IDX 16 1 17 2 18 3 29 4 30 5 4 7 2 8 1 9 3 10 5 11 6 14 7 15
REMARK SMILES IDX 8 16 12 17 9 18 11 19 10 20 13 21 15 22 14 23 19 24 20 25
REMARK SMILES IDX 21 26 27 27 23 28 25 29 24 30 22 31 28 32 26 33
REMARK H PARENT 17 6 5 12 5 13
ROOT
ATOM     1   C13 UNL     1       0.971  -0.385   0.193  1.00  0.00     0.127 A   
ATOM     2   C14 UNL     1       1.186  -1.705  -0.136  1.00  0.00     0.046 A   
ATOM     3   N2  UNL     1      -0.046  -2.286   0.005  1.00  0.00    -0.208 N   
ATOM     4   N3  UNL     1      -0.973  -1.366   0.331  1.00  0.00    -0.076 NA  
ATOM     5   N4  UNL     1      -0.362  -0.202   0.464  1.00  0.00    -0.132 NA  
ATOM     6   H18 UNL     1       2.064  -2.270  -0.416  1.00  0.00     0.083 HD  
ENDROOT
BRANCH   1   7
ATOM     7   C4  UNL     1       1.896   0.789   0.244  1.00  0.00     0.117 C   
BRANCH   7   8
ATOM     8   C2  UNL     1       2.619   0.971   1.604  1.00  0.00     0.037 C   
ATOM     9   C1  UNL     1       3.580  -0.188   1.896  1.00  0.00     0.014 C   
ATOM     10  C3  UNL     1       1.676   1.174   2.796  1.00  0.00     0.014 C   
ENDBRANCH   7   8
BRANCH   7  11
ATOM     11  N1  UNL     1       1.131   2.054  -0.060  1.00  0.00     0.249 N   
ATOM     12  H9  UNL     1       1.618   2.886   0.289  1.00  0.00     0.199 HD  
ATOM     13  H10 UNL     1       0.245   1.996   0.464  1.00  0.00     0.199 HD  
BRANCH  11  14
ATOM     14  C5  UNL     1       0.778   2.255  -1.492  1.00  0.00     0.164 C   
BRANCH  14  15
ATOM     15  C6  UNL     1      -0.064   3.488  -1.658  1.00  0.00    -0.002 A   
ATOM     16  C7  UNL     1      -1.472   3.409  -1.522  1.00  0.00     0.012 A   
ATOM     17  C11 UNL     1       0.541   4.733  -1.896  1.00  0.00     0.045 A   
ATOM     18  C8  UNL     1      -2.269   4.553  -1.637  1.00  0.00     0.037 A   
ATOM     19  C10 UNL     1      -0.275   5.840  -2.003  1.00  0.00     0.109 A   
ATOM     20  C9  UNL     1      -1.639   5.754  -1.878  1.00  0.00     0.108 A   
ATOM     21  O1  UNL     1       0.146   7.111  -2.235  1.00  0.00    -0.316 OA  
ATOM     22  O2  UNL     1      -2.250   6.959  -2.018  1.00  0.00    -0.316 OA  
ATOM     23  C12 UNL     1      -1.115   7.818  -2.255  1.00  0.00     0.337 C   
ENDBRANCH  14  15
ENDBRANCH  11  14
ENDBRANCH   7  11
ENDBRANCH   1   7
BRANCH   3  24
ATOM     24  C15 UNL     1      -0.413  -3.680  -0.181  1.00  0.00     0.175 C   
BRANCH  24  25
ATOM     25  C16 UNL     1      -0.374  -4.430   1.115  1.00  0.00     0.046 A   
ATOM     26  C17 UNL     1      -1.547  -4.738   1.807  1.00  0.00     0.131 A   
ATOM     27  C21 UNL     1       0.839  -4.822   1.682  1.00  0.00     0.166 A   
ATOM     28  C18 UNL     1      -1.520  -5.425   3.021  1.00  0.00     0.043 A   
ATOM     29  C20 UNL     1       0.878  -5.505   2.896  1.00  0.00     0.159 A   
ATOM     30  C19 UNL     1      -0.298  -5.812   3.570  1.00  0.00     0.045 A   
ATOM     31  F1  UNL     1      -2.732  -4.371   1.299  1.00  0.00    -0.207 F   
ATOM     32  F3  UNL     1       1.986  -4.527   1.051  1.00  0.00    -0.203 F   
ATOM     33  F2  UNL     1       2.055  -5.864   3.424  1.00  0.00    -0.204 F   
ENDBRANCH  24  25
ENDBRANCH   3  24
TORSDOF 7
