REMARK SMILES CC(C)[C@H]([NH2+]Cc1ccc2c(c1)OCO2)c1cn(CCc2ccnn2C)nn1
REMARK SMILES IDX 16 1 17 2 18 3 27 4 28 5 4 7 2 8 1 9 3 10 5 11 6 14 7 15
REMARK SMILES IDX 8 16 12 17 9 18 11 19 10 20 13 21 15 22 14 23 19 24 20 25
REMARK SMILES IDX 21 26 22 27 25 28 23 29 24 30 26 31
REMARK H PARENT 17 6 5 12 5 13
ROOT
ATOM     1   C13 UNL     1       2.067   1.533   0.637  1.00  0.00     0.127 A   
ATOM     2   C14 UNL     1       2.428   1.830  -0.659  1.00  0.00     0.045 A   
ATOM     3   N2  UNL     1       1.993   3.117  -0.839  1.00  0.00    -0.212 N   
ATOM     4   N5  UNL     1       1.571   3.644   0.322  1.00  0.00    -0.076 NA  
ATOM     5   N6  UNL     1       1.605   2.683   1.233  1.00  0.00    -0.132 NA  
ATOM     6   H18 UNL     1       2.798   1.243  -1.487  1.00  0.00     0.083 HD  
ENDROOT
BRANCH   1   7
ATOM     7   C4  UNL     1       1.978   0.243   1.393  1.00  0.00     0.117 C   
BRANCH   7   8
ATOM     8   C2  UNL     1       2.789  -0.970   0.860  1.00  0.00     0.037 C   
ATOM     9   C1  UNL     1       2.271  -1.595  -0.439  1.00  0.00     0.014 C   
ATOM     10  C3  UNL     1       4.288  -0.666   0.751  1.00  0.00     0.014 C   
ENDBRANCH   7   8
BRANCH   7  11
ATOM     11  N1  UNL     1       0.535  -0.182   1.556  1.00  0.00     0.249 N   
ATOM     12  H9  UNL     1       0.471  -1.190   1.725  1.00  0.00     0.199 HD  
ATOM     13  H10 UNL     1       0.019  -0.013   0.665  1.00  0.00     0.199 HD  
BRANCH  11  14
ATOM     14  C5  UNL     1      -0.224   0.515   2.633  1.00  0.00     0.164 C   
BRANCH  14  15
ATOM     15  C6  UNL     1      -1.358  -0.340   3.132  1.00  0.00    -0.002 A   
ATOM     16  C7  UNL     1      -2.517  -0.535   2.345  1.00  0.00     0.012 A   
ATOM     17  C11 UNL     1      -1.253  -0.989   4.375  1.00  0.00     0.045 A   
ATOM     18  C8  UNL     1      -3.561  -1.356   2.787  1.00  0.00     0.037 A   
ATOM     19  C10 UNL     1      -2.300  -1.790   4.783  1.00  0.00     0.109 A   
ATOM     20  C9  UNL     1      -3.421  -1.968   4.012  1.00  0.00     0.108 A   
ATOM     21  O1  UNL     1      -2.356  -2.484   5.950  1.00  0.00    -0.316 OA  
ATOM     22  O2  UNL     1      -4.326  -2.796   4.596  1.00  0.00    -0.316 OA  
ATOM     23  C12 UNL     1      -3.661  -3.096   5.842  1.00  0.00     0.337 C   
ENDBRANCH  14  15
ENDBRANCH  11  14
ENDBRANCH   7  11
ENDBRANCH   1   7
BRANCH   3  24
ATOM     24  C15 UNL     1       1.638   3.728  -2.107  1.00  0.00     0.140 C   
BRANCH  24  25
ATOM     25  C16 UNL     1       0.132   3.619  -2.417  1.00  0.00     0.074 C   
BRANCH  25  26
ATOM     26  C17 UNL     1      -0.405   2.242  -2.145  1.00  0.00     0.031 A   
ATOM     27  C18 UNL     1      -0.268   1.057  -2.840  1.00  0.00     0.042 A   
ATOM     28  N4  UNL     1      -1.129   1.912  -1.023  1.00  0.00    -0.233 N   
ATOM     29  C19 UNL     1      -0.743   0.066  -1.960  1.00  0.00     0.133 A   
ATOM     30  N3  UNL     1      -1.106   0.575  -0.773  1.00  0.00    -0.190 NA  
ATOM     31  C20 UNL     1      -1.830   2.803  -0.124  1.00  0.00     0.159 C   
ENDBRANCH  25  26
ENDBRANCH  24  25
ENDBRANCH   3  24
TORSDOF 8
