REMARK SMILES C[C@H](c1ccncc1)n1cc([C@@H]([NH2+]Cc2ccc3c(c2)OCO3)C(C)(C)C)nn1
REMARK SMILES IDX 12 1 11 2 9 3 10 4 29 5 28 6 2 8 1 9 3 10 4 11 8 12 5 13
REMARK SMILES IDX 7 14 6 15 13 16 14 19 15 20 16 21 20 22 17 23 19 24 18 25
REMARK SMILES IDX 21 26 23 27 22 28 24 29 25 30 26 31 27 32
REMARK H PARENT 10 7 13 17 13 18
ROOT
ATOM     1   C10 UNL     1      -0.996   0.898  -0.221  1.00  0.00     0.120 C   
ENDROOT
BRANCH   1   2
ATOM     2   C9  UNL     1      -1.003  -0.031   0.957  1.00  0.00     0.127 A   
ATOM     3   N2  UNL     1      -0.944  -1.031   2.879  1.00  0.00    -0.205 N   
ATOM     4   C8  UNL     1      -1.029   0.213   2.312  1.00  0.00     0.046 A   
ATOM     5   N5  UNL     1      -0.846  -1.981   1.927  1.00  0.00    -0.075 NA  
ATOM     6   N4  UNL     1      -0.888  -1.382   0.748  1.00  0.00    -0.132 NA  
ATOM     7   H9  UNL     1      -1.087   1.117   2.904  1.00  0.00     0.083 HD  
BRANCH   3   8
ATOM     8   C2  UNL     1      -0.908  -1.397   4.298  1.00  0.00     0.126 C   
ATOM     9   C1  UNL     1      -2.256  -1.111   4.965  1.00  0.00     0.036 C   
BRANCH   8  10
ATOM     10  C3  UNL     1       0.306  -0.764   4.959  1.00  0.00    -0.023 A   
ATOM     11  C4  UNL     1       0.234   0.385   5.757  1.00  0.00     0.026 A   
ATOM     12  C7  UNL     1       1.573  -1.330   4.744  1.00  0.00     0.026 A   
ATOM     13  C5  UNL     1       1.404   0.911   6.284  1.00  0.00     0.111 A   
ATOM     14  C6  UNL     1       2.686  -0.731   5.314  1.00  0.00     0.111 A   
ATOM     15  N1  UNL     1       2.626   0.385   6.067  1.00  0.00    -0.265 NA  
ENDBRANCH   8  10
ENDBRANCH   3   8
ENDBRANCH   1   2
BRANCH   1  16
ATOM     16  N3  UNL     1      -0.118   0.301  -1.297  1.00  0.00     0.250 N   
ATOM     17  H11 UNL     1      -0.296   0.703  -2.221  1.00  0.00     0.199 HD  
ATOM     18  H12 UNL     1      -0.373  -0.696  -1.364  1.00  0.00     0.199 HD  
BRANCH  16  19
ATOM     19  C11 UNL     1       1.347   0.359  -1.030  1.00  0.00     0.164 C   
BRANCH  19  20
ATOM     20  C12 UNL     1       2.103  -0.359  -2.111  1.00  0.00    -0.002 A   
ATOM     21  C13 UNL     1       2.287  -1.761  -2.036  1.00  0.00     0.012 A   
ATOM     22  C17 UNL     1       2.581   0.344  -3.230  1.00  0.00     0.045 A   
ATOM     23  C14 UNL     1       2.948  -2.454  -3.056  1.00  0.00     0.037 A   
ATOM     24  C16 UNL     1       3.228  -0.370  -4.216  1.00  0.00     0.109 A   
ATOM     25  C15 UNL     1       3.407  -1.729  -4.133  1.00  0.00     0.108 A   
ATOM     26  O1  UNL     1       3.749   0.153  -5.357  1.00  0.00    -0.316 OA  
ATOM     27  O2  UNL     1       4.065  -2.233  -5.209  1.00  0.00    -0.316 OA  
ATOM     28  C18 UNL     1       4.300  -1.032  -5.976  1.00  0.00     0.337 C   
ENDBRANCH  19  20
ENDBRANCH  16  19
ENDBRANCH   1  16
BRANCH   1  29
ATOM     29  C19 UNL     1      -2.420   1.219  -0.795  1.00  0.00     0.010 C   
ATOM     30  C20 UNL     1      -2.322   2.283  -1.913  1.00  0.00     0.017 C   
ATOM     31  C21 UNL     1      -3.320   1.814   0.312  1.00  0.00     0.017 C   
ATOM     32  C22 UNL     1      -3.123  -0.026  -1.373  1.00  0.00     0.017 C   
ENDBRANCH   1  29
TORSDOF 7
