REMARK SMILES Oc1ccc(Cl)cc1CCn1cc([C@@H]([NH2+]Cc2ccc3c(c2)OCO3)C2CCCCC2)nn1
REMARK SMILES IDX 11 1 12 2 13 3 32 4 33 5 10 7 9 8 8 9 2 10 3 11 4 12 7 13
REMARK SMILES IDX 5 14 6 15 1 16 14 18 15 19 16 22 17 23 18 24 22 25 19 26
REMARK SMILES IDX 21 27 20 28 23 29 25 30 24 31 26 32 27 33 31 34 28 35 30 36
REMARK SMILES IDX 29 37
REMARK H PARENT 12 6 1 17 15 20 15 21
ROOT
ATOM     1   N1  UNL     1       0.447   1.765  -3.108  1.00  0.00    -0.212 N   
ATOM     2   C9  UNL     1       1.140   1.404  -1.987  1.00  0.00     0.045 A   
ATOM     3   C10 UNL     1       1.025   0.034  -1.952  1.00  0.00     0.127 A   
ATOM     4   N3  UNL     1       0.293  -0.383  -3.036  1.00  0.00    -0.132 NA  
ATOM     5   N4  UNL     1      -0.075   0.686  -3.722  1.00  0.00    -0.076 NA  
ATOM     6   H9  UNL     1       1.603   2.131  -1.337  1.00  0.00     0.083 HD  
ENDROOT
BRANCH   1   7
ATOM     7   C8  UNL     1       0.192   3.098  -3.615  1.00  0.00     0.139 C   
BRANCH   7   8
ATOM     8   C7  UNL     1      -1.202   3.604  -3.246  1.00  0.00     0.059 C   
BRANCH   8   9
ATOM     9   C6  UNL     1      -1.392   3.805  -1.757  1.00  0.00    -0.015 A   
ATOM     10  C1  UNL     1      -0.789   4.876  -1.081  1.00  0.00     0.075 A   
ATOM     11  C2  UNL     1      -0.967   5.061   0.290  1.00  0.00     0.035 A   
ATOM     12  C3  UNL     1      -1.753   4.160   1.012  1.00  0.00     0.023 A   
ATOM     13  C5  UNL     1      -2.181   2.907  -1.020  1.00  0.00     0.027 A   
ATOM     14  C4  UNL     1      -2.354   3.085   0.354  1.00  0.00     0.041 A   
ATOM     15  CL1 UNL     1      -3.305   1.955   1.241  1.00  0.00    -0.084 Cl  
BRANCH  10  16
ATOM     16  O1  UNL     1      -0.008   5.740  -1.797  1.00  0.00    -0.361 OA  
ATOM     17  H1  UNL     1       0.139   6.544  -1.268  1.00  0.00     0.218 HD  
ENDBRANCH  10  16
ENDBRANCH   8   9
ENDBRANCH   7   8
ENDBRANCH   1   7
BRANCH   3  18
ATOM     18  C11 UNL     1       1.500  -0.976  -0.957  1.00  0.00     0.117 C   
BRANCH  18  19
ATOM     19  N2  UNL     1       0.650  -2.220  -1.050  1.00  0.00     0.249 N   
ATOM     20  H11 UNL     1       1.141  -3.046  -0.701  1.00  0.00     0.199 HD  
ATOM     21  H12 UNL     1       0.487  -2.370  -2.057  1.00  0.00     0.199 HD  
BRANCH  19  22
ATOM     22  C12 UNL     1      -0.689  -2.132  -0.398  1.00  0.00     0.164 C   
BRANCH  22  23
ATOM     23  C13 UNL     1      -0.601  -2.245   1.099  1.00  0.00    -0.002 A   
ATOM     24  C14 UNL     1      -0.334  -3.496   1.705  1.00  0.00     0.012 A   
ATOM     25  C18 UNL     1      -0.760  -1.105   1.907  1.00  0.00     0.045 A   
ATOM     26  C15 UNL     1      -0.220  -3.609   3.095  1.00  0.00     0.037 A   
ATOM     27  C17 UNL     1      -0.648  -1.253   3.273  1.00  0.00     0.109 A   
ATOM     28  C16 UNL     1      -0.377  -2.469   3.850  1.00  0.00     0.108 A   
ATOM     29  O2  UNL     1      -0.788  -0.260   4.191  1.00  0.00    -0.316 OA  
ATOM     30  O3  UNL     1      -0.305  -2.393   5.205  1.00  0.00    -0.316 OA  
ATOM     31  C19 UNL     1      -0.635  -1.001   5.422  1.00  0.00     0.337 C   
ENDBRANCH  22  23
ENDBRANCH  19  22
ENDBRANCH  18  19
BRANCH  18  32
ATOM     32  C20 UNL     1       3.003  -1.325  -1.135  1.00  0.00     0.043 C   
ATOM     33  C21 UNL     1       3.326  -2.063  -2.450  1.00  0.00     0.010 C   
ATOM     34  C25 UNL     1       3.548  -2.112   0.073  1.00  0.00     0.010 C   
ATOM     35  C22 UNL     1       4.817  -2.373  -2.579  1.00  0.00     0.001 C   
ATOM     36  C24 UNL     1       5.042  -2.399  -0.069  1.00  0.00     0.001 C   
ATOM     37  C23 UNL     1       5.346  -3.135  -1.369  1.00  0.00     0.000 C   
ENDBRANCH  18  32
ENDBRANCH   3  18
TORSDOF 9
