REMARK SMILES CCc1cc(-n2cc([C@@H]([NH2+]Cc3ccc4c(c3)OCO4)C3CCCC3)nn2)ccc1O
REMARK SMILES IDX 6 1 7 2 8 3 26 4 27 5 5 6 3 7 4 8 30 9 29 10 28 11 2 12 1 13
REMARK SMILES IDX 31 14 9 16 10 17 11 20 12 21 13 22 17 23 14 24 16 25 15 26
REMARK SMILES IDX 18 27 20 28 19 29 21 30 22 31 25 32 23 33 24 34
REMARK H PARENT 31 15 10 18 10 19
ROOT
ATOM     1   N1  UNL     1      -0.476   0.301  -2.260  1.00  0.00    -0.181 N   
ATOM     2   C6  UNL     1       0.012  -0.045  -1.014  1.00  0.00     0.135 A   
ATOM     3   C7  UNL     1      -1.056  -0.613  -0.355  1.00  0.00     0.127 A   
ATOM     4   N3  UNL     1      -2.149  -0.591  -1.174  1.00  0.00    -0.131 NA  
ATOM     5   N4  UNL     1      -1.794  -0.026  -2.316  1.00  0.00    -0.071 NA  
ENDROOT
BRANCH   1   6
ATOM     6   C5  UNL     1       0.198   0.905  -3.351  1.00  0.00     0.058 A   
ATOM     7   C3  UNL     1       2.218   1.835  -4.354  1.00  0.00    -0.016 A   
ATOM     8   C4  UNL     1       1.559   1.234  -3.267  1.00  0.00     0.032 A   
ATOM     9   C24 UNL     1       1.495   2.087  -5.526  1.00  0.00     0.075 A   
ATOM     10  C23 UNL     1       0.144   1.763  -5.620  1.00  0.00     0.035 A   
ATOM     11  C22 UNL     1      -0.506   1.173  -4.534  1.00  0.00     0.028 A   
BRANCH   7  12
ATOM     12  C2  UNL     1       3.689   2.163  -4.252  1.00  0.00     0.035 C   
ATOM     13  C1  UNL     1       4.560   1.028  -4.767  1.00  0.00     0.009 C   
ENDBRANCH   7  12
BRANCH   9  14
ATOM     14  O3  UNL     1       2.140   2.655  -6.585  1.00  0.00    -0.361 OA  
ATOM     15  H29 UNL     1       1.519   2.760  -7.324  1.00  0.00     0.218 HD  
ENDBRANCH   9  14
ENDBRANCH   1   6
BRANCH   3  16
ATOM     16  C8  UNL     1      -1.175  -1.189   1.021  1.00  0.00     0.117 C   
BRANCH  16  17
ATOM     17  N2  UNL     1      -2.617  -1.167   1.470  1.00  0.00     0.249 N   
ATOM     18  H9  UNL     1      -3.175  -1.464   0.656  1.00  0.00     0.199 HD  
ATOM     19  H10 UNL     1      -2.787  -1.852   2.210  1.00  0.00     0.199 HD  
BRANCH  17  20
ATOM     20  C9  UNL     1      -3.150   0.159   1.903  1.00  0.00     0.164 C   
BRANCH  20  21
ATOM     21  C10 UNL     1      -2.561   0.625   3.206  1.00  0.00    -0.002 A   
ATOM     22  C11 UNL     1      -1.695   1.743   3.238  1.00  0.00     0.012 A   
ATOM     23  C15 UNL     1      -2.849  -0.059   4.400  1.00  0.00     0.045 A   
ATOM     24  C12 UNL     1      -1.114   2.170   4.437  1.00  0.00     0.037 A   
ATOM     25  C14 UNL     1      -2.257   0.387   5.564  1.00  0.00     0.109 A   
ATOM     26  C13 UNL     1      -1.414   1.469   5.583  1.00  0.00     0.108 A   
ATOM     27  O1  UNL     1      -2.422  -0.165   6.794  1.00  0.00    -0.316 OA  
ATOM     28  O2  UNL     1      -0.942   1.737   6.827  1.00  0.00    -0.316 OA  
ATOM     29  C16 UNL     1      -1.609   0.718   7.602  1.00  0.00     0.337 C   
ENDBRANCH  20  21
ENDBRANCH  17  20
ENDBRANCH  16  17
BRANCH  16  30
ATOM     30  C17 UNL     1      -0.611  -2.623   1.081  1.00  0.00     0.043 C   
ATOM     31  C18 UNL     1      -0.444  -3.185   2.499  1.00  0.00     0.010 C   
ATOM     32  C21 UNL     1      -1.429  -3.707   0.377  1.00  0.00     0.010 C   
ATOM     33  C19 UNL     1      -0.420  -4.706   2.335  1.00  0.00     0.001 C   
ATOM     34  C20 UNL     1      -0.788  -4.992   0.882  1.00  0.00     0.001 C   
ENDBRANCH  16  30
ENDBRANCH   3  16
TORSDOF 8
