REMARK SMILES CC(C)[C@H]([NH2+]Cc1ccc2c(c1)OCO2)c1cn([C@@H](CO)c2cnc[nH]2)nn1
REMARK SMILES IDX 16 1 17 2 18 3 27 4 28 5 4 7 2 8 1 9 3 10 5 11 6 14 7 15
REMARK SMILES IDX 8 16 12 17 9 18 11 19 10 20 13 21 15 22 14 23 19 24 20 25
REMARK SMILES IDX 21 26 22 28 23 29 26 30 24 31 25 32
REMARK H PARENT 17 6 5 12 5 13 21 27 26 33
ROOT
ATOM     1   C13 UNL     1       0.344  -0.663   0.207  1.00  0.00     0.127 A   
ATOM     2   C14 UNL     1       1.415  -0.769  -0.650  1.00  0.00     0.046 A   
ATOM     3   N2  UNL     1       1.544  -2.116  -0.866  1.00  0.00    -0.201 N   
ATOM     4   N5  UNL     1       0.557  -2.789  -0.235  1.00  0.00    -0.075 NA  
ATOM     5   N6  UNL     1      -0.171  -1.913   0.438  1.00  0.00    -0.132 NA  
ATOM     6   H18 UNL     1       2.093  -0.045  -1.081  1.00  0.00     0.083 HD  
ENDROOT
BRANCH   1   7
ATOM     7   C4  UNL     1      -0.282   0.531   0.855  1.00  0.00     0.117 C   
BRANCH   7   8
ATOM     8   C2  UNL     1       0.545   1.038   2.067  1.00  0.00     0.037 C   
ATOM     9   C1  UNL     1       0.540   0.084   3.267  1.00  0.00     0.014 C   
ATOM     10  C3  UNL     1       0.095   2.435   2.513  1.00  0.00     0.014 C   
ENDBRANCH   7   8
BRANCH   7  11
ATOM     11  N1  UNL     1      -1.696   0.219   1.286  1.00  0.00     0.249 N   
ATOM     12  H9  UNL     1      -2.014   0.872   2.005  1.00  0.00     0.199 HD  
ATOM     13  H10 UNL     1      -1.661  -0.715   1.719  1.00  0.00     0.199 HD  
BRANCH  11  14
ATOM     14  C5  UNL     1      -2.714   0.160   0.196  1.00  0.00     0.164 C   
BRANCH  14  15
ATOM     15  C6  UNL     1      -2.999   1.508  -0.404  1.00  0.00    -0.002 A   
ATOM     16  C7  UNL     1      -2.575   1.808  -1.721  1.00  0.00     0.012 A   
ATOM     17  C11 UNL     1      -3.666   2.493   0.347  1.00  0.00     0.045 A   
ATOM     18  C8  UNL     1      -2.801   3.070  -2.281  1.00  0.00     0.037 A   
ATOM     19  C10 UNL     1      -3.870   3.727  -0.234  1.00  0.00     0.109 A   
ATOM     20  C9  UNL     1      -3.449   4.008  -1.510  1.00  0.00     0.108 A   
ATOM     21  O1  UNL     1      -4.487   4.784   0.355  1.00  0.00    -0.316 OA  
ATOM     22  O2  UNL     1      -3.748   5.278  -1.886  1.00  0.00    -0.316 OA  
ATOM     23  C12 UNL     1      -4.428   5.763  -0.708  1.00  0.00     0.337 C   
ENDBRANCH  14  15
ENDBRANCH  11  14
ENDBRANCH   7  11
ENDBRANCH   1   7
BRANCH   3  24
ATOM     24  C15 UNL     1       2.553  -2.851  -1.633  1.00  0.00     0.171 C   
BRANCH  24  25
ATOM     25  C16 UNL     1       2.106  -3.049  -3.093  1.00  0.00     0.187 C   
BRANCH  25  26
ATOM     26  O3  UNL     1       2.078  -1.815  -3.827  1.00  0.00    -0.394 OA  
ATOM     27  H22 UNL     1       1.760  -2.036  -4.724  1.00  0.00     0.210 HD  
ENDBRANCH  25  26
ENDBRANCH  24  25
BRANCH  24  28
ATOM     28  C17 UNL     1       3.909  -2.223  -1.486  1.00  0.00     0.052 A   
ATOM     29  C18 UNL     1       4.853  -2.316  -0.485  1.00  0.00     0.133 A   
ATOM     30  N4  UNL     1       4.466  -1.365  -2.408  1.00  0.00    -0.306 N   
ATOM     31  N3  UNL     1       5.935  -1.525  -0.765  1.00  0.00    -0.248 NA  
ATOM     32  C19 UNL     1       5.682  -0.975  -1.929  1.00  0.00     0.185 A   
ATOM     33  H25 UNL     1       4.042  -1.071  -3.282  1.00  0.00     0.154 HD  
ENDBRANCH  24  28
ENDBRANCH   3  24
TORSDOF 9
