REMARK SMILES CC(C)[C@H]([NH2+]Cc1ccc2c(c1)OCO2)c1cn([C@H](CO)c2cnc[nH]2)nn1
REMARK SMILES IDX 16 1 17 2 18 3 27 4 28 5 4 7 2 8 1 9 3 10 5 11 6 14 7 15
REMARK SMILES IDX 8 16 12 17 9 18 11 19 10 20 13 21 15 22 14 23 19 24 20 25
REMARK SMILES IDX 21 26 22 28 23 29 26 30 24 31 25 32
REMARK H PARENT 17 6 5 12 5 13 21 27 26 33
ROOT
ATOM     1   C13 UNL     1       0.059   0.407   0.369  1.00  0.00     0.127 A   
ATOM     2   C14 UNL     1       0.095   0.719  -0.971  1.00  0.00     0.046 A   
ATOM     3   N2  UNL     1      -0.934   1.611  -1.135  1.00  0.00    -0.201 N   
ATOM     4   N5  UNL     1      -1.511   1.889   0.052  1.00  0.00    -0.075 NA  
ATOM     5   N6  UNL     1      -0.918   1.153   0.976  1.00  0.00    -0.132 NA  
ATOM     6   H18 UNL     1       0.694   0.372  -1.802  1.00  0.00     0.083 HD  
ENDROOT
BRANCH   1   7
ATOM     7   C4  UNL     1       0.891  -0.529   1.186  1.00  0.00     0.117 C   
BRANCH   7   8
ATOM     8   C2  UNL     1       0.332  -1.976   1.256  1.00  0.00     0.037 C   
ATOM     9   C1  UNL     1       0.363  -2.661  -0.115  1.00  0.00     0.014 C   
ATOM     10  C3  UNL     1      -1.076  -2.082   1.855  1.00  0.00     0.014 C   
ENDBRANCH   7   8
BRANCH   7  11
ATOM     11  N1  UNL     1       1.034  -0.006   2.600  1.00  0.00     0.249 N   
ATOM     12  H9  UNL     1       1.370  -0.748   3.220  1.00  0.00     0.199 HD  
ATOM     13  H10 UNL     1       0.086   0.247   2.910  1.00  0.00     0.199 HD  
BRANCH  11  14
ATOM     14  C5  UNL     1       1.895   1.202   2.774  1.00  0.00     0.164 C   
BRANCH  14  15
ATOM     15  C6  UNL     1       3.350   0.912   2.534  1.00  0.00    -0.002 A   
ATOM     16  C7  UNL     1       4.107   0.209   3.501  1.00  0.00     0.012 A   
ATOM     17  C11 UNL     1       3.957   1.290   1.323  1.00  0.00     0.045 A   
ATOM     18  C8  UNL     1       5.444  -0.127   3.261  1.00  0.00     0.037 A   
ATOM     19  C10 UNL     1       5.272   0.934   1.115  1.00  0.00     0.109 A   
ATOM     20  C9  UNL     1       5.995   0.245   2.056  1.00  0.00     0.108 A   
ATOM     21  O1  UNL     1       5.992   1.192  -0.007  1.00  0.00    -0.316 OA  
ATOM     22  O2  UNL     1       7.264  -0.012   1.648  1.00  0.00    -0.316 OA  
ATOM     23  C12 UNL     1       7.264   0.597   0.340  1.00  0.00     0.337 C   
ENDBRANCH  14  15
ENDBRANCH  11  14
ENDBRANCH   7  11
ENDBRANCH   1   7
BRANCH   3  24
ATOM     24  C15 UNL     1      -1.426   2.181  -2.387  1.00  0.00     0.171 C   
BRANCH  24  25
ATOM     25  C16 UNL     1      -2.101   3.553  -2.202  1.00  0.00     0.187 C   
BRANCH  25  26
ATOM     26  O3  UNL     1      -2.183   4.229  -3.463  1.00  0.00    -0.394 OA  
ATOM     27  H22 UNL     1      -2.682   5.054  -3.306  1.00  0.00     0.210 HD  
ENDBRANCH  25  26
ENDBRANCH  24  25
BRANCH  24  28
ATOM     28  C17 UNL     1      -2.333   1.210  -3.090  1.00  0.00     0.052 A   
ATOM     29  C18 UNL     1      -2.960   0.042  -2.704  1.00  0.00     0.133 A   
ATOM     30  N4  UNL     1      -2.735   1.398  -4.395  1.00  0.00    -0.306 N   
ATOM     31  N3  UNL     1      -3.676  -0.493  -3.740  1.00  0.00    -0.248 NA  
ATOM     32  C19 UNL     1      -3.531   0.345  -4.739  1.00  0.00     0.185 A   
ATOM     33  H25 UNL     1      -2.503   2.190  -4.985  1.00  0.00     0.154 HD  
ENDBRANCH  24  28
ENDBRANCH   3  24
TORSDOF 9
