REMARK SMILES O=C(c1cncc(O)c1)n1cc([C@@H]([NH2+]Cc2ccc3c(c2)OCO3)C2CCCC2)nn1
REMARK SMILES IDX 10 1 11 2 12 3 30 4 31 5 2 6 1 7 3 8 4 9 9 10 5 11 7 12 6 13
REMARK SMILES IDX 8 14 13 16 14 17 15 20 16 21 17 22 21 23 18 24 20 25 19 26
REMARK SMILES IDX 22 27 24 28 23 29 25 30 26 31 29 32 27 33 28 34
REMARK H PARENT 8 15 14 18 14 19
ROOT
ATOM     1   N2  UNL     1       1.081  -1.378  -0.489  1.00  0.00    -0.143 N   
ATOM     2   C7  UNL     1      -0.183  -1.772  -0.892  1.00  0.00     0.139 A   
ATOM     3   C8  UNL     1      -0.651  -0.730  -1.656  1.00  0.00     0.128 A   
ATOM     4   N4  UNL     1       0.328   0.221  -1.759  1.00  0.00    -0.131 NA  
ATOM     5   N5  UNL     1       1.377  -0.187  -1.064  1.00  0.00    -0.068 NA  
ENDROOT
BRANCH   1   6
ATOM     6   C1  UNL     1       1.970  -2.051   0.360  1.00  0.00     0.272 C   
ATOM     7   O1  UNL     1       1.619  -3.175   0.719  1.00  0.00    -0.269 OA  
BRANCH   6   8
ATOM     8   C2  UNL     1       3.262  -1.526   0.852  1.00  0.00     0.060 A   
ATOM     9   C3  UNL     1       4.269  -2.433   1.167  1.00  0.00     0.124 A   
ATOM     10  C6  UNL     1       3.510  -0.172   1.076  1.00  0.00     0.050 A   
ATOM     11  N1  UNL     1       5.487  -2.077   1.645  1.00  0.00    -0.261 NA  
ATOM     12  C5  UNL     1       4.747   0.215   1.581  1.00  0.00     0.090 A   
ATOM     13  C4  UNL     1       5.700  -0.757   1.843  1.00  0.00     0.144 A   
BRANCH  12  14
ATOM     14  O2  UNL     1       4.958   1.541   1.807  1.00  0.00    -0.359 OA  
ATOM     15  H3  UNL     1       5.869   1.672   2.125  1.00  0.00     0.218 HD  
ENDBRANCH  12  14
ENDBRANCH   6   8
ENDBRANCH   1   6
BRANCH   3  16
ATOM     16  C9  UNL     1      -1.996  -0.480  -2.257  1.00  0.00     0.117 C   
BRANCH  16  17
ATOM     17  N3  UNL     1      -2.393   0.968  -2.067  1.00  0.00     0.249 N   
ATOM     18  H7  UNL     1      -1.520   1.516  -2.119  1.00  0.00     0.199 HD  
ATOM     19  H8  UNL     1      -2.975   1.293  -2.845  1.00  0.00     0.199 HD  
BRANCH  17  20
ATOM     20  C10 UNL     1      -3.074   1.309  -0.780  1.00  0.00     0.164 C   
BRANCH  20  21
ATOM     21  C11 UNL     1      -2.169   1.238   0.418  1.00  0.00    -0.002 A   
ATOM     22  C12 UNL     1      -2.265   0.162   1.333  1.00  0.00     0.012 A   
ATOM     23  C16 UNL     1      -1.182   2.219   0.611  1.00  0.00     0.045 A   
ATOM     24  C13 UNL     1      -1.374   0.050   2.407  1.00  0.00     0.037 A   
ATOM     25  C15 UNL     1      -0.323   2.080   1.681  1.00  0.00     0.109 A   
ATOM     26  C14 UNL     1      -0.410   1.023   2.549  1.00  0.00     0.108 A   
ATOM     27  O3  UNL     1       0.685   2.932   2.001  1.00  0.00    -0.316 OA  
ATOM     28  O4  UNL     1       0.536   1.072   3.522  1.00  0.00    -0.316 OA  
ATOM     29  C17 UNL     1       1.201   2.312   3.200  1.00  0.00     0.337 C   
ENDBRANCH  20  21
ENDBRANCH  17  20
ENDBRANCH  16  17
BRANCH  16  30
ATOM     30  C18 UNL     1      -2.036  -0.856  -3.753  1.00  0.00     0.043 C   
ATOM     31  C19 UNL     1      -1.244   0.063  -4.707  1.00  0.00     0.010 C   
ATOM     32  C22 UNL     1      -3.459  -0.912  -4.333  1.00  0.00     0.010 C   
ATOM     33  C20 UNL     1      -2.211   0.449  -5.824  1.00  0.00     0.001 C   
ATOM     34  C21 UNL     1      -3.259  -0.649  -5.815  1.00  0.00     0.001 C   
ENDBRANCH  16  30
ENDBRANCH   3  16
TORSDOF 8
