REMARK SMILES Cc1ccc(Cn2cc([C@H](CC(C)C)[NH2+]Cc3ccc4c(c3)OCO4)nn2)c(Cl)n1
REMARK SMILES IDX 7 1 8 2 9 3 26 4 27 5 6 7 5 8 2 9 3 10 30 11 4 12 28 13 1 14
REMARK SMILES IDX 29 15 10 16 11 17 12 18 13 19 14 20 15 21 16 24 17 25 18 26
REMARK SMILES IDX 22 27 19 28 21 29 20 30 23 31 25 32 24 33
REMARK H PARENT 8 6 15 22 15 23
ROOT
ATOM     1   N1  UNL     1      -1.389  -0.406  -2.265  1.00  0.00    -0.208 N   
ATOM     2   C7  UNL     1      -0.310  -0.632  -1.453  1.00  0.00     0.046 A   
ATOM     3   C8  UNL     1      -0.870  -1.036  -0.262  1.00  0.00     0.127 A   
ATOM     4   N3  UNL     1      -2.232  -1.099  -0.401  1.00  0.00    -0.132 NA  
ATOM     5   N4  UNL     1      -2.536  -0.719  -1.630  1.00  0.00    -0.076 NA  
ATOM     6   H8  UNL     1       0.707  -0.441  -1.766  1.00  0.00     0.083 HD  
ENDROOT
BRANCH   1   7
ATOM     7   C6  UNL     1      -1.439   0.150  -3.612  1.00  0.00     0.172 C   
BRANCH   7   8
ATOM     8   C5  UNL     1      -0.415   1.226  -3.848  1.00  0.00     0.009 A   
ATOM     9   C2  UNL     1       1.478   3.202  -4.256  1.00  0.00     0.039 A   
ATOM     10  C3  UNL     1       1.530   2.049  -5.029  1.00  0.00     0.024 A   
ATOM     11  N5  UNL     1       0.532   3.395  -3.311  1.00  0.00    -0.241 NA  
ATOM     12  C4  UNL     1       0.577   1.053  -4.820  1.00  0.00     0.010 A   
ATOM     13  C22 UNL     1      -0.394   2.428  -3.144  1.00  0.00     0.134 A   
ATOM     14  C1  UNL     1       2.485   4.295  -4.459  1.00  0.00     0.067 C   
ATOM     15  CL1 UNL     1      -1.534   2.822  -1.917  1.00  0.00    -0.062 Cl  
ENDBRANCH   7   8
ENDBRANCH   1   7
BRANCH   3  16
ATOM     16  C9  UNL     1      -0.263  -1.299   1.074  1.00  0.00     0.114 C   
BRANCH  16  17
ATOM     17  C10 UNL     1      -0.181  -2.801   1.403  1.00  0.00     0.064 C   
BRANCH  17  18
ATOM     18  C11 UNL     1       0.735  -3.626   0.474  1.00  0.00    -0.012 C   
ATOM     19  C12 UNL     1       2.189  -3.155   0.523  1.00  0.00     0.007 C   
ATOM     20  C13 UNL     1       0.658  -5.106   0.860  1.00  0.00     0.007 C   
ENDBRANCH  17  18
ENDBRANCH  16  17
BRANCH  16  21
ATOM     21  N2  UNL     1      -1.116  -0.658   2.153  1.00  0.00     0.249 N   
ATOM     22  H19 UNL     1      -2.080  -0.980   1.986  1.00  0.00     0.199 HD  
ATOM     23  H20 UNL     1      -0.834  -1.002   3.076  1.00  0.00     0.199 HD  
BRANCH  21  24
ATOM     24  C14 UNL     1      -1.145   0.837   2.172  1.00  0.00     0.164 C   
BRANCH  24  25
ATOM     25  C15 UNL     1       0.186   1.439   2.530  1.00  0.00    -0.002 A   
ATOM     26  C16 UNL     1       0.682   1.350   3.854  1.00  0.00     0.012 A   
ATOM     27  C20 UNL     1       0.967   2.060   1.541  1.00  0.00     0.045 A   
ATOM     28  C17 UNL     1       1.939   1.863   4.188  1.00  0.00     0.037 A   
ATOM     29  C19 UNL     1       2.201   2.558   1.904  1.00  0.00     0.109 A   
ATOM     30  C18 UNL     1       2.675   2.460   3.190  1.00  0.00     0.108 A   
ATOM     31  O1  UNL     1       3.077   3.179   1.074  1.00  0.00    -0.316 OA  
ATOM     32  O2  UNL     1       3.911   3.006   3.329  1.00  0.00    -0.316 OA  
ATOM     33  C21 UNL     1       4.140   3.512   1.996  1.00  0.00     0.337 C   
ENDBRANCH  24  25
ENDBRANCH  21  24
ENDBRANCH  16  21
ENDBRANCH   3  16
TORSDOF 8
