REMARK SMILES CC(C)C[C@H]([NH2+]Cc1ccc2c(c1)OCO2)c1cn([C@H](CO)c2cc(F)ccn2)nn1
REMARK SMILES IDX 17 1 18 2 19 3 30 4 31 5 5 7 4 8 2 9 1 10 3 11 6 12 7 15
REMARK SMILES IDX 8 16 9 17 13 18 10 19 12 20 11 21 14 22 16 23 15 24 20 25
REMARK SMILES IDX 21 26 22 27 23 29 24 30 29 31 25 32 28 33 27 34 26 35
REMARK H PARENT 18 6 6 13 6 14 22 28
ROOT
ATOM     1   C14 UNL     1       0.448  -0.424  -1.537  1.00  0.00     0.127 A   
ATOM     2   C15 UNL     1       0.534  -0.936  -0.264  1.00  0.00     0.046 A   
ATOM     3   N2  UNL     1       0.973   0.116   0.493  1.00  0.00    -0.201 N   
ATOM     4   N4  UNL     1       1.090   1.228  -0.265  1.00  0.00    -0.075 NA  
ATOM     5   N5  UNL     1       0.775   0.907  -1.510  1.00  0.00    -0.132 NA  
ATOM     6   H20 UNL     1       0.357  -1.916   0.157  1.00  0.00     0.083 HD  
ENDROOT
BRANCH   1   7
ATOM     7   C5  UNL     1       0.048  -1.056  -2.825  1.00  0.00     0.114 C   
BRANCH   7   8
ATOM     8   C4  UNL     1       1.262  -1.430  -3.699  1.00  0.00     0.064 C   
BRANCH   8   9
ATOM     9   C2  UNL     1       2.212  -2.485  -3.090  1.00  0.00    -0.012 C   
ATOM     10  C1  UNL     1       3.402  -2.710  -4.029  1.00  0.00     0.007 C   
ATOM     11  C3  UNL     1       1.511  -3.817  -2.820  1.00  0.00     0.007 C   
ENDBRANCH   8   9
ENDBRANCH   7   8
BRANCH   7  12
ATOM     12  N1  UNL     1      -0.794  -0.079  -3.624  1.00  0.00     0.249 N   
ATOM     13  H11 UNL     1      -0.517   0.863  -3.304  1.00  0.00     0.199 HD  
ATOM     14  H12 UNL     1      -0.544  -0.120  -4.617  1.00  0.00     0.199 HD  
BRANCH  12  15
ATOM     15  C6  UNL     1      -2.269  -0.218  -3.488  1.00  0.00     0.164 C   
BRANCH  15  16
ATOM     16  C7  UNL     1      -2.793   0.115  -2.120  1.00  0.00    -0.002 A   
ATOM     17  C8  UNL     1      -3.190  -0.914  -1.232  1.00  0.00     0.012 A   
ATOM     18  C12 UNL     1      -2.881   1.455  -1.706  1.00  0.00     0.045 A   
ATOM     19  C9  UNL     1      -3.672  -0.615   0.047  1.00  0.00     0.037 A   
ATOM     20  C11 UNL     1      -3.370   1.716  -0.443  1.00  0.00     0.109 A   
ATOM     21  C10 UNL     1      -3.756   0.711   0.409  1.00  0.00     0.108 A   
ATOM     22  O1  UNL     1      -3.538   2.950   0.099  1.00  0.00    -0.316 OA  
ATOM     23  O2  UNL     1      -4.219   1.186   1.594  1.00  0.00    -0.316 OA  
ATOM     24  C13 UNL     1      -4.117   2.611   1.379  1.00  0.00     0.337 C   
ENDBRANCH  15  16
ENDBRANCH  12  15
ENDBRANCH   7  12
ENDBRANCH   1   7
BRANCH   3  25
ATOM     25  C16 UNL     1       1.323   0.157   1.908  1.00  0.00     0.174 C   
BRANCH  25  26
ATOM     26  C17 UNL     1       2.442  -0.840   2.266  1.00  0.00     0.187 C   
BRANCH  26  27
ATOM     27  O3  UNL     1       2.071  -2.210   2.094  1.00  0.00    -0.394 OA  
ATOM     28  H24 UNL     1       1.280  -2.348   2.661  1.00  0.00     0.210 HD  
ENDBRANCH  26  27
ENDBRANCH  25  26
BRANCH  25  29
ATOM     29  C18 UNL     1       0.077   0.000   2.761  1.00  0.00     0.068 A   
ATOM     30  C19 UNL     1      -0.659   1.120   3.131  1.00  0.00     0.065 A   
ATOM     31  N3  UNL     1      -0.292  -1.259   3.132  1.00  0.00    -0.259 NA  
ATOM     32  C20 UNL     1      -1.784   0.931   3.920  1.00  0.00     0.126 A   
ATOM     33  C22 UNL     1      -1.400  -1.395   3.900  1.00  0.00     0.114 A   
ATOM     34  C21 UNL     1      -2.175  -0.334   4.318  1.00  0.00     0.059 A   
ATOM     35  F1  UNL     1      -2.506   1.994   4.296  1.00  0.00    -0.207 F   
ENDBRANCH  25  29
ENDBRANCH   3  25
TORSDOF 10
