REMARK SMILES CC(C)C[C@H]([NH2+]Cc1ccc2c(c1)OCO2)c1cn([C@@H](CO)c2cc(F)ccn2)nn1
REMARK SMILES IDX 17 1 18 2 19 3 30 4 31 5 5 7 4 8 2 9 1 10 3 11 6 12 7 15
REMARK SMILES IDX 8 16 9 17 13 18 10 19 12 20 11 21 14 22 16 23 15 24 20 25
REMARK SMILES IDX 21 26 22 27 23 29 24 30 29 31 25 32 28 33 27 34 26 35
REMARK H PARENT 18 6 6 13 6 14 22 28
ROOT
ATOM     1   C14 UNL     1       0.727   1.235   0.359  1.00  0.00     0.127 A   
ATOM     2   C15 UNL     1      -0.390   0.879  -0.360  1.00  0.00     0.046 A   
ATOM     3   N2  UNL     1       0.105   0.496  -1.579  1.00  0.00    -0.201 N   
ATOM     4   N4  UNL     1       1.453   0.599  -1.596  1.00  0.00    -0.075 NA  
ATOM     5   N5  UNL     1       1.843   1.047  -0.416  1.00  0.00    -0.132 NA  
ATOM     6   H20 UNL     1      -1.448   0.857  -0.135  1.00  0.00     0.083 HD  
ENDROOT
BRANCH   1   7
ATOM     7   C5  UNL     1       0.895   1.693   1.769  1.00  0.00     0.114 C   
BRANCH   7   8
ATOM     8   C4  UNL     1       1.144   3.211   1.870  1.00  0.00     0.064 C   
BRANCH   8   9
ATOM     9   C2  UNL     1      -0.014   4.101   1.370  1.00  0.00    -0.012 C   
ATOM     10  C1  UNL     1       0.394   5.574   1.466  1.00  0.00     0.007 C   
ATOM     11  C3  UNL     1      -1.306   3.873   2.154  1.00  0.00     0.007 C   
ENDBRANCH   8   9
ENDBRANCH   7   8
BRANCH   7  12
ATOM     12  N1  UNL     1       2.109   0.999   2.365  1.00  0.00     0.249 N   
ATOM     13  H11 UNL     1       2.723   0.773   1.566  1.00  0.00     0.199 HD  
ATOM     14  H12 UNL     1       2.643   1.648   2.951  1.00  0.00     0.199 HD  
BRANCH  12  15
ATOM     15  C6  UNL     1       1.850  -0.250   3.134  1.00  0.00     0.164 C   
BRANCH  15  16
ATOM     16  C7  UNL     1       1.189  -1.341   2.340  1.00  0.00    -0.002 A   
ATOM     17  C8  UNL     1       1.910  -2.051   1.351  1.00  0.00     0.012 A   
ATOM     18  C12 UNL     1      -0.167  -1.643   2.554  1.00  0.00     0.045 A   
ATOM     19  C9  UNL     1       1.294  -3.048   0.585  1.00  0.00     0.037 A   
ATOM     20  C11 UNL     1      -0.746  -2.626   1.777  1.00  0.00     0.109 A   
ATOM     21  C10 UNL     1      -0.036  -3.312   0.824  1.00  0.00     0.108 A   
ATOM     22  O1  UNL     1      -2.042  -3.025   1.850  1.00  0.00    -0.316 OA  
ATOM     23  O2  UNL     1      -0.791  -4.243   0.186  1.00  0.00    -0.316 OA  
ATOM     24  C13 UNL     1      -2.071  -4.043   0.825  1.00  0.00     0.337 C   
ENDBRANCH  15  16
ENDBRANCH  12  15
ENDBRANCH   7  12
ENDBRANCH   1   7
BRANCH   3  25
ATOM     25  C16 UNL     1      -0.646   0.048  -2.749  1.00  0.00     0.174 C   
BRANCH  25  26
ATOM     26  C17 UNL     1      -0.352   0.901  -3.991  1.00  0.00     0.187 C   
BRANCH  26  27
ATOM     27  O3  UNL     1      -0.880   2.220  -3.825  1.00  0.00    -0.394 OA  
ATOM     28  H24 UNL     1      -0.676   2.716  -4.638  1.00  0.00     0.210 HD  
ENDBRANCH  26  27
ENDBRANCH  25  26
BRANCH  25  29
ATOM     29  C18 UNL     1      -0.437  -1.434  -2.985  1.00  0.00     0.068 A   
ATOM     30  C19 UNL     1       0.785  -1.955  -3.397  1.00  0.00     0.065 A   
ATOM     31  N3  UNL     1      -1.522  -2.232  -2.795  1.00  0.00    -0.259 NA  
ATOM     32  C20 UNL     1       0.880  -3.322  -3.607  1.00  0.00     0.126 A   
ATOM     33  C22 UNL     1      -1.388  -3.560  -3.025  1.00  0.00     0.114 A   
ATOM     34  C21 UNL     1      -0.210  -4.151  -3.427  1.00  0.00     0.059 A   
ATOM     35  F1  UNL     1       2.051  -3.844  -3.995  1.00  0.00    -0.207 F   
ENDBRANCH  25  29
ENDBRANCH   3  25
TORSDOF 10
