REMARK SMILES CC(C)C[C@H]([NH2+]Cc1ccc2c(c1)OCO2)c1cn(CCc2cccc(F)c2O)nn1
REMARK SMILES IDX 17 1 18 2 19 3 30 4 31 5 5 7 4 8 2 9 1 10 3 11 6 12 7 15
REMARK SMILES IDX 8 16 9 17 13 18 10 19 12 20 11 21 14 22 16 23 15 24 20 25
REMARK SMILES IDX 21 26 22 27 23 28 28 29 24 30 26 31 25 32 27 33 29 34
REMARK H PARENT 18 6 6 13 6 14 29 35
ROOT
ATOM     1   C14 UNL     1       0.722  -0.798   0.080  1.00  0.00     0.127 A   
ATOM     2   C15 UNL     1       1.755  -1.703  -0.013  1.00  0.00     0.045 A   
ATOM     3   N2  UNL     1       2.363  -1.385  -1.195  1.00  0.00    -0.212 N   
ATOM     4   N3  UNL     1       1.772  -0.324  -1.772  1.00  0.00    -0.076 NA  
ATOM     5   N4  UNL     1       0.756   0.037  -1.008  1.00  0.00    -0.132 NA  
ATOM     6   H20 UNL     1       2.086  -2.526   0.605  1.00  0.00     0.083 HD  
ENDROOT
BRANCH   1   7
ATOM     7   C5  UNL     1      -0.345  -0.610   1.112  1.00  0.00     0.114 C   
BRANCH   7   8
ATOM     8   C4  UNL     1      -1.477  -1.639   0.922  1.00  0.00     0.064 C   
BRANCH   8   9
ATOM     9   C2  UNL     1      -2.563  -1.659   2.021  1.00  0.00    -0.012 C   
ATOM     10  C1  UNL     1      -1.987  -1.983   3.401  1.00  0.00     0.007 C   
ATOM     11  C3  UNL     1      -3.638  -2.688   1.660  1.00  0.00     0.007 C   
ENDBRANCH   8   9
ENDBRANCH   7   8
BRANCH   7  12
ATOM     12  N1  UNL     1      -0.915   0.781   0.994  1.00  0.00     0.249 N   
ATOM     13  H11 UNL     1      -0.899   1.006  -0.017  1.00  0.00     0.199 HD  
ATOM     14  H12 UNL     1      -1.895   0.843   1.287  1.00  0.00     0.199 HD  
BRANCH  12  15
ATOM     15  C6  UNL     1      -0.129   1.840   1.688  1.00  0.00     0.164 C   
BRANCH  15  16
ATOM     16  C7  UNL     1      -0.508   3.205   1.187  1.00  0.00    -0.002 A   
ATOM     17  C8  UNL     1      -1.616   3.900   1.728  1.00  0.00     0.012 A   
ATOM     18  C12 UNL     1       0.217   3.778   0.125  1.00  0.00     0.045 A   
ATOM     19  C9  UNL     1      -1.984   5.156   1.236  1.00  0.00     0.037 A   
ATOM     20  C11 UNL     1      -0.172   5.017  -0.335  1.00  0.00     0.109 A   
ATOM     21  C10 UNL     1      -1.238   5.690   0.207  1.00  0.00     0.108 A   
ATOM     22  O1  UNL     1       0.417   5.706  -1.346  1.00  0.00    -0.316 OA  
ATOM     23  O2  UNL     1      -1.453   6.888  -0.394  1.00  0.00    -0.316 OA  
ATOM     24  C13 UNL     1      -0.418   6.885  -1.399  1.00  0.00     0.337 C   
ENDBRANCH  15  16
ENDBRANCH  12  15
ENDBRANCH   7  12
ENDBRANCH   1   7
BRANCH   3  25
ATOM     25  C16 UNL     1       3.497  -2.032  -1.822  1.00  0.00     0.139 C   
BRANCH  25  26
ATOM     26  C17 UNL     1       3.090  -2.953  -2.973  1.00  0.00     0.060 C   
BRANCH  26  27
ATOM     27  C18 UNL     1       2.229  -4.126  -2.556  1.00  0.00    -0.013 A   
ATOM     28  C19 UNL     1       0.903  -4.224  -3.015  1.00  0.00     0.006 A   
ATOM     29  C23 UNL     1       2.719  -5.146  -1.736  1.00  0.00     0.110 A   
ATOM     30  C20 UNL     1       0.098  -5.314  -2.660  1.00  0.00     0.004 A   
ATOM     31  C22 UNL     1       1.913  -6.231  -1.388  1.00  0.00     0.153 A   
ATOM     32  C21 UNL     1       0.605  -6.323  -1.843  1.00  0.00     0.042 A   
ATOM     33  F1  UNL     1       2.413  -7.192  -0.598  1.00  0.00    -0.204 F   
BRANCH  29  34
ATOM     34  O3  UNL     1       4.005  -5.079  -1.271  1.00  0.00    -0.358 OA  
ATOM     35  H28 UNL     1       4.204  -5.940  -0.854  1.00  0.00     0.218 HD  
ENDBRANCH  29  34
ENDBRANCH  26  27
ENDBRANCH  25  26
ENDBRANCH   3  25
TORSDOF 10
