REMARK SMILES CC(C)[C@H]([NH2+]Cc1ccc2c(c1)OCO2)c1cn(CC2Cc3ccccc3C2)nn1
REMARK SMILES IDX 4 1 2 2 1 3 3 4 5 5 6 8 7 9 8 10 12 11 9 12 11 13 10 14
REMARK SMILES IDX 13 15 15 16 14 17 16 18 17 19 30 20 18 21 29 22 19 24 20 25
REMARK SMILES IDX 21 26 28 27 22 28 27 29 23 30 26 31 24 32 25 33
REMARK H PARENT 5 6 5 7 17 23
ROOT
ATOM     1   C4  UNL     1      -0.916   1.420   0.888  1.00  0.00     0.117 C   
ENDROOT
BRANCH   1   2
ATOM     2   C2  UNL     1      -1.861   2.647   0.916  1.00  0.00     0.037 C   
ATOM     3   C1  UNL     1      -2.625   2.728   2.243  1.00  0.00     0.014 C   
ATOM     4   C3  UNL     1      -2.848   2.721  -0.254  1.00  0.00     0.014 C   
ENDBRANCH   1   2
BRANCH   1   5
ATOM     5   N1  UNL     1      -0.083   1.383  -0.366  1.00  0.00     0.249 N   
ATOM     6   H9  UNL     1      -0.711   1.208  -1.163  1.00  0.00     0.199 HD  
ATOM     7   H10 UNL     1       0.477   0.517  -0.325  1.00  0.00     0.199 HD  
BRANCH   5   8
ATOM     8   C5  UNL     1       0.823   2.521  -0.634  1.00  0.00     0.164 C   
BRANCH   8   9
ATOM     9   C6  UNL     1       1.752   2.217  -1.776  1.00  0.00    -0.002 A   
ATOM     10  C7  UNL     1       3.111   1.909  -1.531  1.00  0.00     0.012 A   
ATOM     11  C11 UNL     1       1.268   2.210  -3.096  1.00  0.00     0.045 A   
ATOM     12  C8  UNL     1       3.979   1.597  -2.582  1.00  0.00     0.037 A   
ATOM     13  C10 UNL     1       2.151   1.899  -4.109  1.00  0.00     0.109 A   
ATOM     14  C9  UNL     1       3.467   1.600  -3.860  1.00  0.00     0.108 A   
ATOM     15  O1  UNL     1       1.848   1.849  -5.431  1.00  0.00    -0.316 OA  
ATOM     16  O2  UNL     1       4.158   1.321  -4.995  1.00  0.00    -0.316 OA  
ATOM     17  C12 UNL     1       3.133   1.505  -5.995  1.00  0.00     0.337 C   
ENDBRANCH   8   9
ENDBRANCH   5   8
ENDBRANCH   1   5
BRANCH   1  18
ATOM     18  C13 UNL     1      -1.612   0.103   0.987  1.00  0.00     0.127 A   
ATOM     19  C14 UNL     1      -1.676  -0.807   2.019  1.00  0.00     0.045 A   
ATOM     20  N4  UNL     1      -2.193  -0.437  -0.131  1.00  0.00    -0.132 NA  
ATOM     21  N2  UNL     1      -2.202  -1.921   1.428  1.00  0.00    -0.212 N   
ATOM     22  N3  UNL     1      -2.584  -1.664   0.164  1.00  0.00    -0.076 NA  
ATOM     23  H18 UNL     1      -1.315  -0.803   3.037  1.00  0.00     0.083 HD  
BRANCH  21  24
ATOM     24  C15 UNL     1      -2.260  -3.268   1.952  1.00  0.00     0.138 C   
BRANCH  24  25
ATOM     25  C16 UNL     1      -0.990  -4.126   1.730  1.00  0.00     0.017 C   
ATOM     26  C17 UNL     1       0.250  -3.587   2.483  1.00  0.00     0.041 C   
ATOM     27  C24 UNL     1      -0.569  -4.231   0.244  1.00  0.00     0.041 C   
ATOM     28  C18 UNL     1       0.970  -2.827   1.413  1.00  0.00    -0.044 A   
ATOM     29  C23 UNL     1       0.502  -3.187   0.146  1.00  0.00    -0.044 A   
ATOM     30  C19 UNL     1       2.015  -1.930   1.560  1.00  0.00     0.004 A   
ATOM     31  C22 UNL     1       1.065  -2.654  -0.999  1.00  0.00     0.004 A   
ATOM     32  C20 UNL     1       2.592  -1.390   0.409  1.00  0.00     0.000 A   
ATOM     33  C21 UNL     1       2.119  -1.748  -0.863  1.00  0.00     0.000 A   
ENDBRANCH  24  25
ENDBRANCH  21  24
ENDBRANCH   1  18
TORSDOF 7
