REMARK SMILES COc1ccc(C(=O)n2cc([C@@H]([NH2+]Cc3ccc4c(c3)OCO4)C(C)(C)C)nn2)cn1
REMARK SMILES IDX 9 1 10 2 11 3 28 4 29 5 7 6 8 7 6 8 3 9 4 10 31 11 5 12
REMARK SMILES IDX 30 13 2 14 1 15 12 16 13 17 14 20 15 21 16 22 20 23 17 24
REMARK SMILES IDX 19 25 18 26 21 27 23 28 22 29 24 30 25 31 26 32 27 33
REMARK H PARENT 13 18 13 19
ROOT
ATOM     1   N1  UNL     1       2.280   0.209   1.042  1.00  0.00    -0.143 N   
ATOM     2   C7  UNL     1       1.609   1.368   0.689  1.00  0.00     0.139 A   
ATOM     3   C8  UNL     1       0.388   0.948   0.219  1.00  0.00     0.128 A   
ATOM     4   N3  UNL     1       0.352  -0.421   0.248  1.00  0.00    -0.131 NA  
ATOM     5   N4  UNL     1       1.504  -0.858   0.732  1.00  0.00    -0.068 NA  
ENDROOT
BRANCH   1   6
ATOM     6   C6  UNL     1       3.573   0.077   1.571  1.00  0.00     0.272 C   
ATOM     7   O2  UNL     1       4.210   1.125   1.680  1.00  0.00    -0.269 OA  
BRANCH   6   8
ATOM     8   C5  UNL     1       4.226  -1.192   1.974  1.00  0.00     0.058 A   
ATOM     9   C2  UNL     1       5.456  -3.520   2.752  1.00  0.00     0.166 A   
ATOM     10  C3  UNL     1       6.248  -2.454   2.361  1.00  0.00     0.055 A   
ATOM     11  N5  UNL     1       4.107  -3.474   2.781  1.00  0.00    -0.232 NA  
ATOM     12  C4  UNL     1       5.623  -1.270   1.971  1.00  0.00     0.020 A   
ATOM     13  C22 UNL     1       3.523  -2.311   2.400  1.00  0.00     0.127 A   
BRANCH   9  14
ATOM     14  O1  UNL     1       6.120  -4.670   3.124  1.00  0.00    -0.333 OA  
ATOM     15  C1  UNL     1       5.246  -5.715   3.541  1.00  0.00     0.205 C   
ENDBRANCH   9  14
ENDBRANCH   6   8
ENDBRANCH   1   6
BRANCH   3  16
ATOM     16  C9  UNL     1      -0.778   1.714  -0.340  1.00  0.00     0.120 C   
BRANCH  16  17
ATOM     17  N2  UNL     1      -1.415   0.901  -1.443  1.00  0.00     0.250 N   
ATOM     18  H8  UNL     1      -2.366   1.215  -1.659  1.00  0.00     0.199 HD  
ATOM     19  H9  UNL     1      -1.510  -0.065  -1.093  1.00  0.00     0.199 HD  
BRANCH  17  20
ATOM     20  C10 UNL     1      -0.647   0.836  -2.718  1.00  0.00     0.164 C   
BRANCH  20  21
ATOM     21  C11 UNL     1      -1.348  -0.055  -3.704  1.00  0.00    -0.002 A   
ATOM     22  C12 UNL     1      -1.101  -1.449  -3.701  1.00  0.00     0.012 A   
ATOM     23  C16 UNL     1      -2.295   0.479  -4.594  1.00  0.00     0.045 A   
ATOM     24  C13 UNL     1      -1.779  -2.300  -4.580  1.00  0.00     0.037 A   
ATOM     25  C15 UNL     1      -2.946  -0.388  -5.447  1.00  0.00     0.109 A   
ATOM     26  C14 UNL     1      -2.696  -1.738  -5.441  1.00  0.00     0.108 A   
ATOM     27  O3  UNL     1      -3.885  -0.037  -6.363  1.00  0.00    -0.316 OA  
ATOM     28  O4  UNL     1      -3.444  -2.407  -6.355  1.00  0.00    -0.316 OA  
ATOM     29  C17 UNL     1      -4.183  -1.322  -6.957  1.00  0.00     0.337 C   
ENDBRANCH  20  21
ENDBRANCH  17  20
ENDBRANCH  16  17
BRANCH  16  30
ATOM     30  C18 UNL     1      -1.853   2.116   0.731  1.00  0.00     0.010 C   
ATOM     31  C19 UNL     1      -2.931   3.026   0.096  1.00  0.00     0.017 C   
ATOM     32  C20 UNL     1      -2.557   0.894   1.353  1.00  0.00     0.017 C   
ATOM     33  C21 UNL     1      -1.197   2.930   1.870  1.00  0.00     0.017 C   
ENDBRANCH  16  30
ENDBRANCH   3  16
TORSDOF 8
