REMARK SMILES CC(C)(C)[C@H]([NH2+]Cc1ccc2c(c1)OCO2)c1cn(-c2ccc(N([O-])[O-])cc2F)nn1
REMARK SMILES IDX 17 1 18 2 19 3 30 4 31 5 5 6 2 7 1 8 3 9 4 10 6 11 7 14 8 15
REMARK SMILES IDX 9 16 13 17 10 18 12 19 11 20 14 21 16 22 15 23 20 24 21 25
REMARK SMILES IDX 28 26 22 27 27 28 23 29 29 30 24 31 25 32 26 33
REMARK H PARENT 6 12 6 13
ROOT
ATOM     1   C14 UNL     1      -0.432   0.729  -0.322  1.00  0.00     0.128 A   
ATOM     2   C15 UNL     1      -1.179  -0.412  -0.128  1.00  0.00     0.135 A   
ATOM     3   N2  UNL     1      -0.904  -1.215  -1.217  1.00  0.00    -0.178 N   
ATOM     4   N4  UNL     1      -0.081  -0.532  -2.058  1.00  0.00    -0.071 NA  
ATOM     5   N5  UNL     1       0.230   0.631  -1.512  1.00  0.00    -0.131 NA  
ENDROOT
BRANCH   1   6
ATOM     6   C5  UNL     1      -0.159   1.894   0.584  1.00  0.00     0.120 C   
BRANCH   6   7
ATOM     7   C2  UNL     1      -0.944   3.198   0.211  1.00  0.00     0.010 C   
ATOM     8   C1  UNL     1      -0.531   3.781  -1.156  1.00  0.00     0.017 C   
ATOM     9   C3  UNL     1      -2.462   2.908   0.175  1.00  0.00     0.017 C   
ATOM     10  C4  UNL     1      -0.719   4.281   1.292  1.00  0.00     0.017 C   
ENDBRANCH   6   7
BRANCH   6  11
ATOM     11  N1  UNL     1       1.340   2.149   0.589  1.00  0.00     0.250 N   
ATOM     12  H11 UNL     1       1.681   1.853  -0.340  1.00  0.00     0.199 HD  
ATOM     13  H12 UNL     1       1.548   3.149   0.648  1.00  0.00     0.199 HD  
BRANCH  11  14
ATOM     14  C6  UNL     1       2.137   1.435   1.633  1.00  0.00     0.164 C   
BRANCH  14  15
ATOM     15  C7  UNL     1       2.044  -0.064   1.557  1.00  0.00    -0.002 A   
ATOM     16  C8  UNL     1       2.673  -0.771   0.503  1.00  0.00     0.012 A   
ATOM     17  C12 UNL     1       1.274  -0.772   2.497  1.00  0.00     0.045 A   
ATOM     18  C9  UNL     1       2.512  -2.154   0.366  1.00  0.00     0.037 A   
ATOM     19  C11 UNL     1       1.134  -2.134   2.331  1.00  0.00     0.109 A   
ATOM     20  C10 UNL     1       1.729  -2.806   1.292  1.00  0.00     0.108 A   
ATOM     21  O1  UNL     1       0.396  -2.954   3.124  1.00  0.00    -0.316 OA  
ATOM     22  O2  UNL     1       1.438  -4.132   1.298  1.00  0.00    -0.316 OA  
ATOM     23  C13 UNL     1       0.640  -4.234   2.499  1.00  0.00     0.337 C   
ENDBRANCH  14  15
ENDBRANCH  11  14
ENDBRANCH   6  11
ENDBRANCH   1   6
BRANCH   3  24
ATOM     24  C16 UNL     1      -1.306  -2.543  -1.500  1.00  0.00     0.093 A   
ATOM     25  C17 UNL     1      -0.902  -3.144  -2.706  1.00  0.00     0.031 A   
ATOM     26  C21 UNL     1      -2.080  -3.283  -0.601  1.00  0.00     0.148 A   
ATOM     27  C18 UNL     1      -1.270  -4.463  -2.998  1.00  0.00     0.033 A   
ATOM     28  C20 UNL     1      -2.454  -4.596  -0.881  1.00  0.00     0.072 A   
ATOM     29  C19 UNL     1      -2.045  -5.185  -2.082  1.00  0.00     0.121 A   
ATOM     30  F1  UNL     1      -2.481  -2.770   0.569  1.00  0.00    -0.205 F   
BRANCH  29  31
ATOM     31  N3  UNL     1      -2.426  -6.571  -2.379  1.00  0.00     0.092 N   
ATOM     32  O3  UNL     1      -2.052  -7.050  -3.458  1.00  0.00    -0.138 OA  
ATOM     33  O4  UNL     1      -3.095  -7.173  -1.528  1.00  0.00    -0.138 OA  
ENDBRANCH  29  31
ENDBRANCH   3  24
TORSDOF 7
