REMARK SMILES OC[C@H](c1cccc(Cl)c1)n1cc([C@@H]([NH2+]Cc2ccc3c(c2)OCO3)C2CCCC2)nn1
REMARK SMILES IDX 11 1 12 2 13 3 31 4 32 5 3 7 2 8 1 9 4 11 5 12 10 13 6 14
REMARK SMILES IDX 8 15 7 16 9 17 14 18 15 19 16 22 17 23 18 24 22 25 19 26
REMARK SMILES IDX 21 27 20 28 23 29 25 30 24 31 26 32 27 33 30 34 28 35 29 36
REMARK H PARENT 12 6 1 10 15 20 15 21
ROOT
ATOM     1   N1  UNL     1       1.910  -0.372   0.248  1.00  0.00    -0.202 N   
ATOM     2   C9  UNL     1       0.987   0.438  -0.357  1.00  0.00     0.046 A   
ATOM     3   C10 UNL     1       0.535   1.249   0.657  1.00  0.00     0.127 A   
ATOM     4   N3  UNL     1       1.145   0.887   1.831  1.00  0.00    -0.132 NA  
ATOM     5   N4  UNL     1       1.982  -0.103   1.571  1.00  0.00    -0.075 NA  
ATOM     6   H9  UNL     1       0.762   0.365  -1.412  1.00  0.00     0.083 HD  
ENDROOT
BRANCH   1   7
ATOM     7   C2  UNL     1       2.742  -1.424  -0.334  1.00  0.00     0.155 C   
BRANCH   7   8
ATOM     8   C1  UNL     1       3.820  -0.847  -1.276  1.00  0.00     0.185 C   
BRANCH   8   9
ATOM     9   O1  UNL     1       3.283  -0.090  -2.362  1.00  0.00    -0.394 OA  
ATOM     10  H1  UNL     1       4.038   0.192  -2.911  1.00  0.00     0.210 HD  
ENDBRANCH   8   9
ENDBRANCH   7   8
BRANCH   7  11
ATOM     11  C3  UNL     1       1.876  -2.559  -0.868  1.00  0.00    -0.022 A   
ATOM     12  C4  UNL     1       1.572  -2.721  -2.228  1.00  0.00     0.006 A   
ATOM     13  C8  UNL     1       1.342  -3.490   0.047  1.00  0.00     0.026 A   
ATOM     14  C5  UNL     1       0.780  -3.788  -2.664  1.00  0.00     0.002 A   
ATOM     15  C7  UNL     1       0.551  -4.551  -0.394  1.00  0.00     0.041 A   
ATOM     16  C6  UNL     1       0.272  -4.707  -1.748  1.00  0.00     0.020 A   
ATOM     17  CL1 UNL     1      -0.086  -5.669   0.747  1.00  0.00    -0.084 Cl  
ENDBRANCH   7  11
ENDBRANCH   1   7
BRANCH   3  18
ATOM     18  C11 UNL     1      -0.500   2.326   0.677  1.00  0.00     0.117 C   
BRANCH  18  19
ATOM     19  N2  UNL     1      -1.348   2.129   1.924  1.00  0.00     0.249 N   
ATOM     20  H11 UNL     1      -0.817   1.478   2.525  1.00  0.00     0.199 HD  
ATOM     21  H12 UNL     1      -1.404   2.994   2.469  1.00  0.00     0.199 HD  
BRANCH  19  22
ATOM     22  C12 UNL     1      -2.711   1.574   1.715  1.00  0.00     0.164 C   
BRANCH  22  23
ATOM     23  C13 UNL     1      -2.723   0.208   1.089  1.00  0.00    -0.002 A   
ATOM     24  C14 UNL     1      -2.285  -0.922   1.821  1.00  0.00     0.012 A   
ATOM     25  C18 UNL     1      -3.152   0.045  -0.239  1.00  0.00     0.045 A   
ATOM     26  C15 UNL     1      -2.280  -2.196   1.242  1.00  0.00     0.037 A   
ATOM     27  C17 UNL     1      -3.131  -1.224  -0.780  1.00  0.00     0.109 A   
ATOM     28  C16 UNL     1      -2.711  -2.313  -0.060  1.00  0.00     0.108 A   
ATOM     29  O2  UNL     1      -3.511  -1.549  -2.043  1.00  0.00    -0.316 OA  
ATOM     30  O3  UNL     1      -2.785  -3.465  -0.775  1.00  0.00    -0.316 OA  
ATOM     31  C19 UNL     1      -3.305  -2.980  -2.030  1.00  0.00     0.337 C   
ENDBRANCH  22  23
ENDBRANCH  19  22
ENDBRANCH  18  19
BRANCH  18  32
ATOM     32  C20 UNL     1       0.116   3.747   0.724  1.00  0.00     0.043 C   
ATOM     33  C21 UNL     1       0.997   4.077  -0.489  1.00  0.00     0.010 C   
ATOM     34  C24 UNL     1      -0.937   4.862   0.620  1.00  0.00     0.010 C   
ATOM     35  C22 UNL     1       0.018   4.467  -1.590  1.00  0.00     0.001 C   
ATOM     36  C23 UNL     1      -1.215   5.013  -0.873  1.00  0.00     0.001 C   
ENDBRANCH  18  32
ENDBRANCH   3  18
TORSDOF 9
