REMARK SMILES OC[C@@H](c1cccc(Cl)c1)n1cc([C@@H]([NH2+]Cc2ccc3c(c2)OCO3)C2CCCC2)nn1
REMARK SMILES IDX 11 1 12 2 13 3 31 4 32 5 3 7 2 8 1 9 4 11 5 12 10 13 6 14
REMARK SMILES IDX 8 15 7 16 9 17 14 18 15 19 16 22 17 23 18 24 22 25 19 26
REMARK SMILES IDX 21 27 20 28 23 29 25 30 24 31 26 32 27 33 30 34 28 35 29 36
REMARK H PARENT 12 6 1 10 15 20 15 21
ROOT
ATOM     1   N1  UNL     1       1.401   1.710   1.698  1.00  0.00    -0.202 N   
ATOM     2   C9  UNL     1       1.089   0.714   0.813  1.00  0.00     0.046 A   
ATOM     3   C10 UNL     1      -0.096   1.122   0.247  1.00  0.00     0.127 A   
ATOM     4   N3  UNL     1      -0.473   2.316   0.806  1.00  0.00    -0.132 NA  
ATOM     5   N4  UNL     1       0.440   2.659   1.700  1.00  0.00    -0.075 NA  
ATOM     6   H9  UNL     1       1.718  -0.155   0.678  1.00  0.00     0.083 HD  
ENDROOT
BRANCH   1   7
ATOM     7   C2  UNL     1       2.567   1.839   2.571  1.00  0.00     0.155 C   
BRANCH   7   8
ATOM     8   C1  UNL     1       2.435   0.946   3.822  1.00  0.00     0.185 C   
BRANCH   8   9
ATOM     9   O1  UNL     1       2.231  -0.433   3.509  1.00  0.00    -0.394 OA  
ATOM     10  H1  UNL     1       2.268  -0.924   4.353  1.00  0.00     0.210 HD  
ENDBRANCH   8   9
ENDBRANCH   7   8
BRANCH   7  11
ATOM     11  C3  UNL     1       3.857   1.724   1.765  1.00  0.00    -0.022 A   
ATOM     12  C4  UNL     1       4.318   2.848   1.053  1.00  0.00     0.006 A   
ATOM     13  C8  UNL     1       4.598   0.534   1.675  1.00  0.00     0.026 A   
ATOM     14  C5  UNL     1       5.487   2.789   0.289  1.00  0.00     0.002 A   
ATOM     15  C7  UNL     1       5.764   0.479   0.905  1.00  0.00     0.041 A   
ATOM     16  C6  UNL     1       6.212   1.602   0.216  1.00  0.00     0.020 A   
ATOM     17  CL1 UNL     1       6.647  -0.995   0.805  1.00  0.00    -0.084 Cl  
ENDBRANCH   7  11
ENDBRANCH   1   7
BRANCH   3  18
ATOM     18  C11 UNL     1      -0.967   0.475  -0.780  1.00  0.00     0.117 C   
BRANCH  18  19
ATOM     19  N2  UNL     1      -2.398   0.921  -0.598  1.00  0.00     0.249 N   
ATOM     20  H11 UNL     1      -2.358   1.936  -0.424  1.00  0.00     0.199 HD  
ATOM     21  H12 UNL     1      -2.944   0.783  -1.451  1.00  0.00     0.199 HD  
BRANCH  19  22
ATOM     22  C12 UNL     1      -3.128   0.311   0.552  1.00  0.00     0.164 C   
BRANCH  22  23
ATOM     23  C13 UNL     1      -3.443  -1.142   0.333  1.00  0.00    -0.002 A   
ATOM     24  C14 UNL     1      -2.763  -2.139   1.072  1.00  0.00     0.012 A   
ATOM     25  C18 UNL     1      -4.399  -1.522  -0.626  1.00  0.00     0.045 A   
ATOM     26  C15 UNL     1      -3.019  -3.498   0.853  1.00  0.00     0.037 A   
ATOM     27  C17 UNL     1      -4.625  -2.870  -0.818  1.00  0.00     0.109 A   
ATOM     28  C16 UNL     1      -3.953  -3.831  -0.102  1.00  0.00     0.108 A   
ATOM     29  O2  UNL     1      -5.499  -3.404  -1.709  1.00  0.00    -0.316 OA  
ATOM     30  O3  UNL     1      -4.322  -5.090  -0.451  1.00  0.00    -0.316 OA  
ATOM     31  C19 UNL     1      -5.323  -4.817  -1.455  1.00  0.00     0.337 C   
ENDBRANCH  22  23
ENDBRANCH  19  22
ENDBRANCH  18  19
BRANCH  18  32
ATOM     32  C20 UNL     1      -0.476   0.778  -2.210  1.00  0.00     0.043 C   
ATOM     33  C21 UNL     1      -0.661   2.213  -2.710  1.00  0.00     0.010 C   
ATOM     34  C24 UNL     1      -1.161  -0.040  -3.307  1.00  0.00     0.010 C   
ATOM     35  C22 UNL     1      -0.495   2.115  -4.226  1.00  0.00     0.001 C   
ATOM     36  C23 UNL     1      -0.713   0.648  -4.591  1.00  0.00     0.001 C   
ENDBRANCH  18  32
ENDBRANCH   3  18
TORSDOF 9
