REMARK SMILES c1cc2c(cc1C[NH2+][C@H](c1cn(Cc3cn[nH]c3C3CC3)nn1)C1CCCC1)OCO2
REMARK SMILES IDX 10 1 11 2 12 3 22 4 23 5 9 7 8 8 7 11 6 12 1 13 2 14 3 15
REMARK SMILES IDX 5 16 4 17 31 18 29 19 30 20 24 21 25 22 28 23 26 24 27 25
REMARK SMILES IDX 13 26 14 27 15 28 18 29 16 30 17 31 19 33 20 34 21 35
REMARK H PARENT 11 6 8 9 8 10 17 32
ROOT
ATOM     1   C9  UNL     1      -1.522   0.406  -0.198  1.00  0.00     0.127 A   
ATOM     2   C10 UNL     1      -2.629  -0.208  -0.741  1.00  0.00     0.046 A   
ATOM     3   N2  UNL     1      -2.595   0.160  -2.061  1.00  0.00    -0.208 N   
ATOM     4   N5  UNL     1      -1.539   0.959  -2.309  1.00  0.00    -0.076 NA  
ATOM     5   N6  UNL     1      -0.872   1.112  -1.177  1.00  0.00    -0.132 NA  
ATOM     6   H9  UNL     1      -3.393  -0.860  -0.343  1.00  0.00     0.083 HD  
ENDROOT
BRANCH   1   7
ATOM     7   C8  UNL     1      -0.940   0.359   1.177  1.00  0.00     0.117 C   
BRANCH   7   8
ATOM     8   N1  UNL     1       0.562   0.336   1.099  1.00  0.00     0.249 N   
ATOM     9   H6  UNL     1       0.996   0.636   1.976  1.00  0.00     0.199 HD  
ATOM     10  H7  UNL     1       0.837   1.030   0.390  1.00  0.00     0.199 HD  
BRANCH   8  11
ATOM     11  C7  UNL     1       1.150  -0.969   0.691  1.00  0.00     0.164 C   
BRANCH  11  12
ATOM     12  C6  UNL     1       2.650  -0.905   0.721  1.00  0.00    -0.002 A   
ATOM     13  C1  UNL     1       3.367  -0.475  -0.421  1.00  0.00     0.012 A   
ATOM     14  C2  UNL     1       4.763  -0.385  -0.399  1.00  0.00     0.037 A   
ATOM     15  C3  UNL     1       5.412  -0.720   0.769  1.00  0.00     0.108 A   
ATOM     16  C5  UNL     1       3.348  -1.228   1.899  1.00  0.00     0.045 A   
ATOM     17  C4  UNL     1       4.723  -1.128   1.885  1.00  0.00     0.109 A   
ATOM     18  O2  UNL     1       6.755  -0.689   0.973  1.00  0.00    -0.316 OA  
ATOM     19  O1  UNL     1       5.545  -1.404   2.932  1.00  0.00    -0.316 OA  
ATOM     20  C23 UNL     1       6.839  -1.151   2.338  1.00  0.00     0.337 C   
ENDBRANCH  11  12
ENDBRANCH   8  11
ENDBRANCH   7   8
BRANCH   7  21
ATOM     21  C18 UNL     1      -1.420   1.532   2.052  1.00  0.00     0.043 C   
ATOM     22  C19 UNL     1      -1.036   1.412   3.540  1.00  0.00     0.010 C   
ATOM     23  C22 UNL     1      -0.940   2.928   1.643  1.00  0.00     0.010 C   
ATOM     24  C20 UNL     1      -0.707   2.829   4.016  1.00  0.00     0.001 C   
ATOM     25  C21 UNL     1      -1.177   3.750   2.901  1.00  0.00     0.001 C   
ENDBRANCH   7  21
ENDBRANCH   1   7
BRANCH   3  26
ATOM     26  C11 UNL     1      -3.507  -0.224  -3.128  1.00  0.00     0.172 C   
BRANCH  26  27
ATOM     27  C12 UNL     1      -3.053  -1.490  -3.761  1.00  0.00     0.010 A   
ATOM     28  C13 UNL     1      -1.918  -1.659  -4.595  1.00  0.00     0.138 A   
ATOM     29  C14 UNL     1      -3.598  -2.756  -3.703  1.00  0.00     0.034 A   
ATOM     30  N3  UNL     1      -1.755  -2.920  -4.998  1.00  0.00    -0.192 NA  
ATOM     31  N4  UNL     1      -2.807  -3.564  -4.471  1.00  0.00    -0.242 N   
ATOM     32  H13 UNL     1      -2.922  -4.552  -4.670  1.00  0.00     0.175 HD  
BRANCH  29  33
ATOM     33  C15 UNL     1      -4.853  -3.212  -2.924  1.00  0.00     0.036 C   
ATOM     34  C16 UNL     1      -6.199  -2.640  -3.284  1.00  0.00     0.010 C   
ATOM     35  C17 UNL     1      -5.876  -4.064  -3.632  1.00  0.00     0.010 C   
ENDBRANCH  29  33
ENDBRANCH  26  27
ENDBRANCH   3  26
TORSDOF 8
