REMARK SMILES CC(C)C[C@H]([NH2+]Cc1ccc2c(c1)OCO2)c1cn(Cc2cc(C3CC3)no2)nn1
REMARK SMILES IDX 17 1 18 2 19 3 29 4 30 5 5 7 4 8 2 9 1 10 3 11 6 12 7 15
REMARK SMILES IDX 8 16 9 17 13 18 10 19 12 20 11 21 14 22 16 23 15 24 20 25
REMARK SMILES IDX 21 26 22 27 28 28 23 29 27 30 24 31 25 32 26 33
REMARK H PARENT 18 6 6 13 6 14
ROOT
ATOM     1   C14 UNL     1      -0.496   1.666  -1.255  1.00  0.00     0.127 A   
ATOM     2   C15 UNL     1       0.256   1.188  -2.306  1.00  0.00     0.046 A   
ATOM     3   N2  UNL     1      -0.622   0.417  -3.021  1.00  0.00    -0.206 N   
ATOM     4   N4  UNL     1      -1.855   0.466  -2.478  1.00  0.00    -0.076 NA  
ATOM     5   N5  UNL     1      -1.791   1.230  -1.399  1.00  0.00    -0.132 NA  
ATOM     6   H20 UNL     1       1.301   1.268  -2.574  1.00  0.00     0.083 HD  
ENDROOT
BRANCH   1   7
ATOM     7   C5  UNL     1      -0.141   2.467  -0.042  1.00  0.00     0.114 C   
BRANCH   7   8
ATOM     8   C4  UNL     1       1.370   2.567   0.234  1.00  0.00     0.064 C   
BRANCH   8   9
ATOM     9   C2  UNL     1       1.778   3.378   1.483  1.00  0.00    -0.012 C   
ATOM     10  C1  UNL     1       3.299   3.334   1.652  1.00  0.00     0.007 C   
ATOM     11  C3  UNL     1       1.310   4.832   1.409  1.00  0.00     0.007 C   
ENDBRANCH   8   9
ENDBRANCH   7   8
BRANCH   7  12
ATOM     12  N1  UNL     1      -0.883   1.942   1.158  1.00  0.00     0.249 N   
ATOM     13  H11 UNL     1      -1.876   1.917   0.881  1.00  0.00     0.199 HD  
ATOM     14  H12 UNL     1      -0.832   2.598   1.944  1.00  0.00     0.199 HD  
BRANCH  12  15
ATOM     15  C6  UNL     1      -0.552   0.563   1.625  1.00  0.00     0.164 C   
BRANCH  15  16
ATOM     16  C7  UNL     1      -1.466   0.167   2.751  1.00  0.00    -0.002 A   
ATOM     17  C8  UNL     1      -2.726  -0.416   2.472  1.00  0.00     0.012 A   
ATOM     18  C12 UNL     1      -1.100   0.424   4.083  1.00  0.00     0.045 A   
ATOM     19  C9  UNL     1      -3.609  -0.746   3.506  1.00  0.00     0.037 A   
ATOM     20  C11 UNL     1      -1.995   0.087   5.078  1.00  0.00     0.109 A   
ATOM     21  C10 UNL     1      -3.214  -0.480   4.799  1.00  0.00     0.108 A   
ATOM     22  O1  UNL     1      -1.801   0.271   6.410  1.00  0.00    -0.316 OA  
ATOM     23  O2  UNL     1      -3.941  -0.726   5.920  1.00  0.00    -0.316 OA  
ATOM     24  C13 UNL     1      -3.032  -0.271   6.944  1.00  0.00     0.337 C   
ENDBRANCH  15  16
ENDBRANCH  12  15
ENDBRANCH   7  12
ENDBRANCH   1   7
BRANCH   3  25
ATOM     25  C16 UNL     1      -0.339  -0.443  -4.159  1.00  0.00     0.198 C   
BRANCH  25  26
ATOM     26  C17 UNL     1       0.051  -1.793  -3.694  1.00  0.00     0.106 A   
ATOM     27  C18 UNL     1      -0.382  -3.068  -3.967  1.00  0.00     0.060 A   
ATOM     28  O3  UNL     1       1.070  -1.854  -2.789  1.00  0.00    -0.216 OA  
ATOM     29  C19 UNL     1       0.418  -3.880  -3.145  1.00  0.00     0.074 A   
ATOM     30  N3  UNL     1       1.290  -3.169  -2.427  1.00  0.00    -0.134 NA  
BRANCH  29  31
ATOM     31  C20 UNL     1       0.334  -5.426  -3.076  1.00  0.00     0.041 C   
ATOM     32  C21 UNL     1       0.002  -6.078  -1.756  1.00  0.00     0.011 C   
ATOM     33  C22 UNL     1      -1.002  -6.099  -2.874  1.00  0.00     0.011 C   
ENDBRANCH  29  31
ENDBRANCH  25  26
ENDBRANCH   3  25
TORSDOF 9
