REMARK SMILES CCn1nc(C)c(CCn2cc([C@@H]([NH2+]Cc3ccc4c(c3)OCO4)C3CCCCC3)nn2)c1C
REMARK SMILES IDX 10 1 11 2 12 3 31 4 32 5 9 7 8 8 7 9 3 10 4 11 33 12 5 13
REMARK SMILES IDX 34 14 6 15 2 16 1 17 13 18 14 19 15 22 16 23 17 24 21 25
REMARK SMILES IDX 18 26 20 27 19 28 22 29 24 30 23 31 25 32 26 33 30 34 27 35
REMARK SMILES IDX 29 36 28 37
REMARK H PARENT 11 6 14 20 14 21
ROOT
ATOM     1   N3  UNL     1       3.291  -1.844  -0.200  1.00  0.00    -0.212 N   
ATOM     2   C8  UNL     1       2.367  -1.515   0.756  1.00  0.00     0.045 A   
ATOM     3   C9  UNL     1       1.983  -0.234   0.420  1.00  0.00     0.127 A   
ATOM     4   N5  UNL     1       2.784   0.209  -0.602  1.00  0.00    -0.132 NA  
ATOM     5   N6  UNL     1       3.587  -0.782  -0.966  1.00  0.00    -0.076 NA  
ATOM     6   H13 UNL     1       1.993  -2.253   1.446  1.00  0.00     0.083 HD  
ENDROOT
BRANCH   1   7
ATOM     7   C7  UNL     1       3.674  -3.184  -0.603  1.00  0.00     0.139 C   
BRANCH   7   8
ATOM     8   C6  UNL     1       2.781  -3.740  -1.729  1.00  0.00     0.060 C   
BRANCH   8   9
ATOM     9   C5  UNL     1       1.316  -3.522  -1.477  1.00  0.00    -0.005 A   
ATOM     10  N1  UNL     1      -0.745  -3.575  -0.718  1.00  0.00    -0.230 N   
ATOM     11  N2  UNL     1      -0.666  -2.398  -1.391  1.00  0.00    -0.186 NA  
ATOM     12  C25 UNL     1       0.469  -4.208  -0.619  1.00  0.00     0.030 A   
ATOM     13  C3  UNL     1       0.494  -2.515  -2.058  1.00  0.00     0.060 A   
ATOM     14  C26 UNL     1       0.702  -5.410   0.227  1.00  0.00     0.064 C   
ATOM     15  C4  UNL     1       0.820  -1.621  -3.200  1.00  0.00     0.069 C   
BRANCH  10  16
ATOM     16  C2  UNL     1      -2.030  -4.032  -0.218  1.00  0.00     0.129 C   
ATOM     17  C1  UNL     1      -2.420  -3.368   1.091  1.00  0.00     0.027 C   
ENDBRANCH  10  16
ENDBRANCH   8   9
ENDBRANCH   7   8
ENDBRANCH   1   7
BRANCH   3  18
ATOM     18  C10 UNL     1       0.815   0.604   0.841  1.00  0.00     0.117 C   
BRANCH  18  19
ATOM     19  N4  UNL     1      -0.406   0.271   0.015  1.00  0.00     0.249 N   
ATOM     20  H15 UNL     1      -1.265   0.416   0.545  1.00  0.00     0.199 HD  
ATOM     21  H16 UNL     1      -0.389  -0.739  -0.238  1.00  0.00     0.199 HD  
BRANCH  19  22
ATOM     22  C11 UNL     1      -0.528   0.999  -1.280  1.00  0.00     0.164 C   
BRANCH  22  23
ATOM     23  C12 UNL     1      -0.908   2.445  -1.113  1.00  0.00    -0.002 A   
ATOM     24  C13 UNL     1       0.037   3.465  -1.380  1.00  0.00     0.012 A   
ATOM     25  C17 UNL     1      -2.196   2.797  -0.674  1.00  0.00     0.045 A   
ATOM     26  C14 UNL     1      -0.290   4.815  -1.212  1.00  0.00     0.037 A   
ATOM     27  C16 UNL     1      -2.485   4.138  -0.513  1.00  0.00     0.109 A   
ATOM     28  C15 UNL     1      -1.559   5.118  -0.771  1.00  0.00     0.108 A   
ATOM     29  O1  UNL     1      -3.669   4.642  -0.073  1.00  0.00    -0.316 OA  
ATOM     30  O2  UNL     1      -2.043   6.363  -0.530  1.00  0.00    -0.316 OA  
ATOM     31  C18 UNL     1      -3.399   6.061  -0.131  1.00  0.00     0.337 C   
ENDBRANCH  22  23
ENDBRANCH  19  22
ENDBRANCH  18  19
BRANCH  18  32
ATOM     32  C19 UNL     1       0.481   0.577   2.361  1.00  0.00     0.043 C   
ATOM     33  C20 UNL     1      -0.216  -0.706   2.858  1.00  0.00     0.010 C   
ATOM     34  C24 UNL     1      -0.298   1.850   2.786  1.00  0.00     0.010 C   
ATOM     35  C21 UNL     1      -0.716  -0.554   4.293  1.00  0.00     0.001 C   
ATOM     36  C23 UNL     1      -1.712   1.569   3.285  1.00  0.00     0.001 C   
ATOM     37  C22 UNL     1      -1.710   0.594   4.457  1.00  0.00     0.000 C   
ENDBRANCH  18  32
ENDBRANCH   3  18
TORSDOF 9
