REMARK SMILES CC(C)[C@H]([NH2+]Cc1ccc2c(c1)OCO2)c1cn(-c2cccc(CCN)c2)nn1
REMARK SMILES IDX 19 1 20 2 21 3 22 4 23 5 27 6 18 7 16 8 17 9 29 10 28 11
REMARK SMILES IDX 4 12 2 13 1 14 3 15 5 16 6 19 7 20 8 21 12 22 9 23 11 24
REMARK SMILES IDX 10 25 13 26 15 27 14 28 24 29 25 30 26 31
REMARK H PARENT 5 17 5 18 26 32 26 33
ROOT
ATOM     1   C15 UNL     1      -0.103   2.335   1.808  1.00  0.00     0.058 A   
ATOM     2   C16 UNL     1      -0.503   3.620   1.414  1.00  0.00     0.026 A   
ATOM     3   C17 UNL     1      -0.920   4.546   2.371  1.00  0.00     0.002 A   
ATOM     4   C18 UNL     1      -0.939   4.202   3.722  1.00  0.00     0.004 A   
ATOM     5   C19 UNL     1      -0.534   2.926   4.132  1.00  0.00    -0.045 A   
ATOM     6   C22 UNL     1      -0.120   1.993   3.168  1.00  0.00     0.029 A   
ENDROOT
BRANCH   1   7
ATOM     7   N2  UNL     1       0.315   1.401   0.829  1.00  0.00    -0.181 N   
ATOM     8   C13 UNL     1       1.038  -0.348  -0.277  1.00  0.00     0.127 A   
ATOM     9   C14 UNL     1       0.726   0.091   0.991  1.00  0.00     0.135 A   
ATOM     10  N5  UNL     1       0.791   0.657  -1.169  1.00  0.00    -0.131 NA  
ATOM     11  N4  UNL     1       0.343   1.703  -0.496  1.00  0.00    -0.071 NA  
BRANCH   8  12
ATOM     12  C4  UNL     1       1.514  -1.675  -0.776  1.00  0.00     0.117 C   
BRANCH  12  13
ATOM     13  C2  UNL     1       3.055  -1.852  -0.744  1.00  0.00     0.037 C   
ATOM     14  C1  UNL     1       3.596  -1.861   0.690  1.00  0.00     0.014 C   
ATOM     15  C3  UNL     1       3.822  -0.821  -1.580  1.00  0.00     0.014 C   
ENDBRANCH  12  13
BRANCH  12  16
ATOM     16  N1  UNL     1       1.042  -1.895  -2.192  1.00  0.00     0.249 N   
ATOM     17  H9  UNL     1       1.591  -2.622  -2.664  1.00  0.00     0.199 HD  
ATOM     18  H10 UNL     1       1.217  -1.020  -2.708  1.00  0.00     0.199 HD  
BRANCH  16  19
ATOM     19  C5  UNL     1      -0.406  -2.209  -2.342  1.00  0.00     0.164 C   
BRANCH  19  20
ATOM     20  C6  UNL     1      -0.766  -2.337  -3.795  1.00  0.00    -0.002 A   
ATOM     21  C7  UNL     1      -1.101  -1.185  -4.548  1.00  0.00     0.012 A   
ATOM     22  C11 UNL     1      -0.719  -3.589  -4.429  1.00  0.00     0.045 A   
ATOM     23  C8  UNL     1      -1.396  -1.280  -5.912  1.00  0.00     0.037 A   
ATOM     24  C10 UNL     1      -1.017  -3.647  -5.775  1.00  0.00     0.109 A   
ATOM     25  C9  UNL     1      -1.346  -2.526  -6.496  1.00  0.00     0.108 A   
ATOM     26  O1  UNL     1      -1.019  -4.773  -6.535  1.00  0.00    -0.316 OA  
ATOM     27  O2  UNL     1      -1.600  -2.805  -7.801  1.00  0.00    -0.316 OA  
ATOM     28  C12 UNL     1      -1.417  -4.237  -7.818  1.00  0.00     0.337 C   
ENDBRANCH  19  20
ENDBRANCH  16  19
ENDBRANCH  12  16
ENDBRANCH   8  12
ENDBRANCH   1   7
BRANCH   5  29
ATOM     29  C20 UNL     1      -0.558   2.546   5.596  1.00  0.00     0.050 C   
BRANCH  29  30
ATOM     30  C21 UNL     1      -1.935   2.090   6.097  1.00  0.00     0.082 C   
BRANCH  30  31
ATOM     31  N3  UNL     1      -2.404   0.870   5.433  1.00  0.00    -0.330 NA  
ATOM     32  H26 UNL     1      -3.276   0.578   5.875  1.00  0.00     0.118 HD  
ATOM     33  H27 UNL     1      -2.654   1.106   4.472  1.00  0.00     0.118 HD  
ENDBRANCH  30  31
ENDBRANCH  29  30
ENDBRANCH   5  29
TORSDOF 9
