REMARK SMILES CC(C)C[C@H]([NH2+]Cc1ccc2c(c1)OCO2)c1cn(CCc2cccc(F)c2F)nn1
REMARK SMILES IDX 17 1 18 2 19 3 30 4 31 5 5 7 4 8 2 9 1 10 3 11 6 12 7 15
REMARK SMILES IDX 8 16 9 17 13 18 10 19 12 20 11 21 14 22 16 23 15 24 20 25
REMARK SMILES IDX 21 26 22 27 23 28 28 29 24 30 26 31 25 32 29 33 27 34
REMARK H PARENT 18 6 6 13 6 14
ROOT
ATOM     1   C14 UNL     1       1.342   0.823  -1.858  1.00  0.00     0.127 A   
ATOM     2   C15 UNL     1       2.701   0.984  -2.014  1.00  0.00     0.045 A   
ATOM     3   N2  UNL     1       2.989   2.076  -1.244  1.00  0.00    -0.212 N   
ATOM     4   N3  UNL     1       1.873   2.588  -0.694  1.00  0.00    -0.076 NA  
ATOM     5   N4  UNL     1       0.855   1.827  -1.061  1.00  0.00    -0.132 NA  
ATOM     6   H20 UNL     1       3.462   0.423  -2.534  1.00  0.00     0.083 HD  
ENDROOT
BRANCH   1   7
ATOM     7   C5  UNL     1       0.412  -0.244  -2.334  1.00  0.00     0.114 C   
BRANCH   7   8
ATOM     8   C4  UNL     1      -0.367   0.222  -3.581  1.00  0.00     0.064 C   
BRANCH   8   9
ATOM     9   C2  UNL     1      -1.252  -0.843  -4.264  1.00  0.00    -0.012 C   
ATOM     10  C1  UNL     1      -0.438  -2.033  -4.776  1.00  0.00     0.007 C   
ATOM     11  C3  UNL     1      -2.020  -0.205  -5.426  1.00  0.00     0.007 C   
ENDBRANCH   8   9
ENDBRANCH   7   8
BRANCH   7  12
ATOM     12  N1  UNL     1      -0.568  -0.583  -1.243  1.00  0.00     0.249 N   
ATOM     13  H11 UNL     1      -1.387  -1.080  -1.602  1.00  0.00     0.199 HD  
ATOM     14  H12 UNL     1      -0.916   0.313  -0.866  1.00  0.00     0.199 HD  
BRANCH  12  15
ATOM     15  C6  UNL     1      -0.010  -1.354  -0.094  1.00  0.00     0.164 C   
BRANCH  15  16
ATOM     16  C7  UNL     1      -1.088  -1.621   0.918  1.00  0.00    -0.002 A   
ATOM     17  C8  UNL     1      -1.231  -0.780   2.045  1.00  0.00     0.012 A   
ATOM     18  C12 UNL     1      -2.005  -2.671   0.717  1.00  0.00     0.045 A   
ATOM     19  C9  UNL     1      -2.268  -0.976   2.964  1.00  0.00     0.037 A   
ATOM     20  C11 UNL     1      -3.019  -2.832   1.638  1.00  0.00     0.109 A   
ATOM     21  C10 UNL     1      -3.149  -2.007   2.728  1.00  0.00     0.108 A   
ATOM     22  O1  UNL     1      -3.994  -3.778   1.582  1.00  0.00    -0.316 OA  
ATOM     23  O2  UNL     1      -4.219  -2.333   3.499  1.00  0.00    -0.316 OA  
ATOM     24  C13 UNL     1      -4.734  -3.479   2.788  1.00  0.00     0.337 C   
ENDBRANCH  15  16
ENDBRANCH  12  15
ENDBRANCH   7  12
ENDBRANCH   1   7
BRANCH   3  25
ATOM     25  C16 UNL     1       4.288   2.625  -0.914  1.00  0.00     0.139 C   
BRANCH  25  26
ATOM     26  C17 UNL     1       5.054   1.782   0.113  1.00  0.00     0.060 C   
BRANCH  26  27
ATOM     27  C18 UNL     1       4.377   1.706   1.460  1.00  0.00    -0.008 A   
ATOM     28  C19 UNL     1       4.606   2.686   2.438  1.00  0.00     0.007 A   
ATOM     29  C23 UNL     1       3.476   0.676   1.749  1.00  0.00     0.162 A   
ATOM     30  C20 UNL     1       3.945   2.626   3.673  1.00  0.00     0.004 A   
ATOM     31  C22 UNL     1       2.812   0.627   2.971  1.00  0.00     0.159 A   
ATOM     32  C21 UNL     1       3.042   1.596   3.940  1.00  0.00     0.042 A   
ATOM     33  F2  UNL     1       3.227  -0.271   0.829  1.00  0.00    -0.203 F   
ATOM     34  F1  UNL     1       1.929  -0.352   3.210  1.00  0.00    -0.204 F   
ENDBRANCH  26  27
ENDBRANCH  25  26
ENDBRANCH   3  25
TORSDOF 9
