REMARK SMILES CC(C)[C@H]([NH2+]Cc1ccc2c(c1)OCO2)c1cn(Cc2c[nH]nc2C(F)(F)F)nn1
REMARK SMILES IDX 16 1 17 2 18 3 29 4 30 5 4 7 2 8 1 9 3 10 5 11 6 14 7 15
REMARK SMILES IDX 8 16 12 17 9 18 11 19 10 20 13 21 15 22 14 23 19 24 20 25
REMARK SMILES IDX 21 26 24 27 22 28 23 29 25 31 26 32 27 33 28 34
REMARK H PARENT 17 6 5 12 5 13 22 30
ROOT
ATOM     1   C13 UNL     1       0.440  -0.948  -1.944  1.00  0.00     0.127 A   
ATOM     2   C14 UNL     1      -0.930  -1.081  -1.877  1.00  0.00     0.046 A   
ATOM     3   N2  UNL     1      -1.135  -2.432  -1.967  1.00  0.00    -0.208 N   
ATOM     4   N5  UNL     1       0.032  -3.082  -2.131  1.00  0.00    -0.076 NA  
ATOM     5   N6  UNL     1       1.003  -2.186  -2.117  1.00  0.00    -0.132 NA  
ATOM     6   H18 UNL     1      -1.739  -0.379  -1.730  1.00  0.00     0.083 HD  
ENDROOT
BRANCH   1   7
ATOM     7   C4  UNL     1       1.324   0.247  -1.788  1.00  0.00     0.117 C   
BRANCH   7   8
ATOM     8   C2  UNL     1       1.592   0.962  -3.139  1.00  0.00     0.037 C   
ATOM     9   C1  UNL     1       2.204   2.353  -2.928  1.00  0.00     0.014 C   
ATOM     10  C3  UNL     1       2.461   0.160  -4.114  1.00  0.00     0.014 C   
ENDBRANCH   7   8
BRANCH   7  11
ATOM     11  N1  UNL     1       2.629  -0.149  -1.136  1.00  0.00     0.249 N   
ATOM     12  H9  UNL     1       2.959  -0.984  -1.641  1.00  0.00     0.199 HD  
ATOM     13  H10 UNL     1       3.335   0.580  -1.255  1.00  0.00     0.199 HD  
BRANCH  11  14
ATOM     14  C5  UNL     1       2.555  -0.523   0.310  1.00  0.00     0.164 C   
BRANCH  14  15
ATOM     15  C6  UNL     1       2.230   0.647   1.197  1.00  0.00    -0.002 A   
ATOM     16  C7  UNL     1       3.194   1.656   1.436  1.00  0.00     0.012 A   
ATOM     17  C11 UNL     1       0.951   0.762   1.769  1.00  0.00     0.045 A   
ATOM     18  C8  UNL     1       2.887   2.769   2.227  1.00  0.00     0.037 A   
ATOM     19  C10 UNL     1       0.681   1.872   2.541  1.00  0.00     0.109 A   
ATOM     20  C9  UNL     1       1.621   2.848   2.764  1.00  0.00     0.108 A   
ATOM     21  O1  UNL     1      -0.501   2.142   3.154  1.00  0.00    -0.316 OA  
ATOM     22  O2  UNL     1       1.151   3.851   3.549  1.00  0.00    -0.316 OA  
ATOM     23  C12 UNL     1      -0.185   3.380   3.829  1.00  0.00     0.337 C   
ENDBRANCH  14  15
ENDBRANCH  11  14
ENDBRANCH   7  11
ENDBRANCH   1   7
BRANCH   3  24
ATOM     24  C15 UNL     1      -2.378  -3.177  -1.827  1.00  0.00     0.173 C   
BRANCH  24  25
ATOM     25  C16 UNL     1      -3.082  -2.830  -0.555  1.00  0.00     0.019 A   
ATOM     26  C17 UNL     1      -4.354  -2.310  -0.419  1.00  0.00     0.099 A   
ATOM     27  C18 UNL     1      -2.606  -2.970   0.793  1.00  0.00     0.168 A   
ATOM     28  N3  UNL     1      -4.573  -2.158   0.918  1.00  0.00    -0.245 N   
ATOM     29  N4  UNL     1      -3.519  -2.505   1.667  1.00  0.00    -0.179 NA  
ATOM     30  H22 UNL     1      -5.408  -1.816   1.386  1.00  0.00     0.175 HD  
BRANCH  27  31
ATOM     31  C19 UNL     1      -1.264  -3.504   1.242  1.00  0.00     0.435 C   
ATOM     32  F1  UNL     1      -0.872  -4.565   0.489  1.00  0.00    -0.164 F   
ATOM     33  F2  UNL     1      -1.234  -3.907   2.536  1.00  0.00    -0.164 F   
ATOM     34  F3  UNL     1      -0.290  -2.555   1.105  1.00  0.00    -0.164 F   
ENDBRANCH  27  31
ENDBRANCH  24  25
ENDBRANCH   3  24
TORSDOF 8
