REMARK SMILES CC(C)[C@H]([NH2+]Cc1ccc2c(c1)OCO2)c1cn(CCc2ccc(O)cc2Cl)nn1
REMARK SMILES IDX 16 1 17 2 18 3 29 4 30 5 4 7 2 8 1 9 3 10 5 11 6 14 7 15
REMARK SMILES IDX 8 16 12 17 9 18 11 19 10 20 13 21 15 22 14 23 19 24 20 25
REMARK SMILES IDX 21 26 22 27 27 28 23 29 26 30 24 31 28 32 25 33
REMARK H PARENT 17 6 5 12 5 13 25 34
ROOT
ATOM     1   C13 UNL     1       0.889  -1.149   0.353  1.00  0.00     0.127 A   
ATOM     2   C14 UNL     1       0.423  -1.529  -0.886  1.00  0.00     0.045 A   
ATOM     3   N2  UNL     1      -0.025  -2.804  -0.691  1.00  0.00    -0.212 N   
ATOM     4   N3  UNL     1       0.158  -3.192   0.583  1.00  0.00    -0.076 NA  
ATOM     5   N4  UNL     1       0.713  -2.185   1.236  1.00  0.00    -0.132 NA  
ATOM     6   H18 UNL     1       0.355  -1.028  -1.842  1.00  0.00     0.083 HD  
ENDROOT
BRANCH   1   7
ATOM     7   C4  UNL     1       1.448   0.145   0.845  1.00  0.00     0.117 C   
BRANCH   7   8
ATOM     8   C2  UNL     1       2.997   0.232   0.786  1.00  0.00     0.037 C   
ATOM     9   C1  UNL     1       3.509   0.202  -0.659  1.00  0.00     0.014 C   
ATOM     10  C3  UNL     1       3.723  -0.835   1.614  1.00  0.00     0.014 C   
ENDBRANCH   7   8
BRANCH   7  11
ATOM     11  N1  UNL     1       1.012   0.387   2.275  1.00  0.00     0.249 N   
ATOM     12  H9  UNL     1       1.598   1.103   2.714  1.00  0.00     0.199 HD  
ATOM     13  H10 UNL     1       1.176  -0.497   2.777  1.00  0.00     0.199 HD  
BRANCH  11  14
ATOM     14  C5  UNL     1      -0.426   0.737   2.473  1.00  0.00     0.164 C   
BRANCH  14  15
ATOM     15  C6  UNL     1      -0.774   2.097   1.935  1.00  0.00    -0.002 A   
ATOM     16  C7  UNL     1      -1.528   2.221   0.743  1.00  0.00     0.012 A   
ATOM     17  C11 UNL     1      -0.329   3.256   2.594  1.00  0.00     0.045 A   
ATOM     18  C8  UNL     1      -1.832   3.478   0.209  1.00  0.00     0.037 A   
ATOM     19  C10 UNL     1      -0.645   4.480   2.040  1.00  0.00     0.109 A   
ATOM     20  C9  UNL     1      -1.374   4.588   0.882  1.00  0.00     0.108 A   
ATOM     21  O1  UNL     1      -0.288   5.690   2.545  1.00  0.00    -0.316 OA  
ATOM     22  O2  UNL     1      -1.569   5.880   0.512  1.00  0.00    -0.316 OA  
ATOM     23  C12 UNL     1      -0.907   6.579   1.588  1.00  0.00     0.337 C   
ENDBRANCH  14  15
ENDBRANCH  11  14
ENDBRANCH   7  11
ENDBRANCH   1   7
BRANCH   3  24
ATOM     24  C15 UNL     1      -0.627  -3.701  -1.654  1.00  0.00     0.139 C   
BRANCH  24  25
ATOM     25  C16 UNL     1      -2.157  -3.712  -1.603  1.00  0.00     0.058 C   
BRANCH  25  26
ATOM     26  C17 UNL     1      -2.781  -2.423  -2.099  1.00  0.00    -0.028 A   
ATOM     27  C18 UNL     1      -2.857  -2.209  -3.489  1.00  0.00     0.008 A   
ATOM     28  C22 UNL     1      -3.269  -1.421  -1.243  1.00  0.00     0.046 A   
ATOM     29  C19 UNL     1      -3.397  -1.030  -4.008  1.00  0.00     0.033 A   
ATOM     30  C21 UNL     1      -3.811  -0.243  -1.762  1.00  0.00     0.054 A   
ATOM     31  C20 UNL     1      -3.866  -0.056  -3.137  1.00  0.00     0.073 A   
ATOM     32  CL1 UNL     1      -3.208  -1.568   0.477  1.00  0.00    -0.084 Cl  
BRANCH  31  33
ATOM     33  O3  UNL     1      -4.391   1.116  -3.593  1.00  0.00    -0.361 OA  
ATOM     34  H25 UNL     1      -4.501   1.065  -4.558  1.00  0.00     0.218 HD  
ENDBRANCH  31  33
ENDBRANCH  25  26
ENDBRANCH  24  25
ENDBRANCH   3  24
TORSDOF 9
