REMARK SMILES O[C@H](Cn1cc([C@@H]([NH2+]Cc2ccc3c(c2)OCO3)C2CCCCC2)nn1)c1ccncc1
REMARK SMILES IDX 4 1 5 2 6 3 25 4 26 5 3 7 2 8 1 9 27 11 28 12 32 13 29 14
REMARK SMILES IDX 31 15 30 16 7 17 8 18 9 21 10 22 11 23 15 24 12 25 14 26
REMARK SMILES IDX 13 27 16 28 18 29 17 30 19 31 20 32 24 33 21 34 23 35 22 36
REMARK H PARENT 5 6 1 10 8 19 8 20
ROOT
ATOM     1   N1  UNL     1       1.266   0.954   1.050  1.00  0.00    -0.209 N   
ATOM     2   C3  UNL     1       0.068   0.703   0.444  1.00  0.00     0.045 A   
ATOM     3   C4  UNL     1      -0.005  -0.671   0.416  1.00  0.00     0.127 A   
ATOM     4   N3  UNL     1       1.135  -1.196   0.969  1.00  0.00    -0.132 NA  
ATOM     5   N4  UNL     1       1.904  -0.190   1.354  1.00  0.00    -0.076 NA  
ATOM     6   H5  UNL     1      -0.591   1.491   0.105  1.00  0.00     0.083 HD  
ENDROOT
BRANCH   1   7
ATOM     7   C2  UNL     1       1.843   2.237   1.381  1.00  0.00     0.170 C   
BRANCH   7   8
ATOM     8   C1  UNL     1       1.702   2.586   2.867  1.00  0.00     0.164 C   
BRANCH   8   9
ATOM     9   O1  UNL     1       2.308   3.859   3.098  1.00  0.00    -0.387 OA  
ATOM     10  H1  UNL     1       2.116   4.108   4.021  1.00  0.00     0.211 HD  
ENDBRANCH   8   9
BRANCH   8  11
ATOM     11  C20 UNL     1       0.259   2.643   3.324  1.00  0.00    -0.015 A   
ATOM     12  C21 UNL     1      -0.263   1.633   4.140  1.00  0.00     0.026 A   
ATOM     13  C24 UNL     1      -0.596   3.673   2.913  1.00  0.00     0.026 A   
ATOM     14  C22 UNL     1      -1.604   1.684   4.486  1.00  0.00     0.111 A   
ATOM     15  C23 UNL     1      -1.923   3.635   3.310  1.00  0.00     0.111 A   
ATOM     16  N5  UNL     1      -2.447   2.651   4.070  1.00  0.00    -0.265 NA  
ENDBRANCH   8  11
ENDBRANCH   7   8
ENDBRANCH   1   7
BRANCH   3  17
ATOM     17  C5  UNL     1      -1.031  -1.590  -0.168  1.00  0.00     0.117 C   
BRANCH  17  18
ATOM     18  N2  UNL     1      -0.296  -2.631  -1.000  1.00  0.00     0.249 N   
ATOM     19  H7  UNL     1       0.657  -2.681  -0.606  1.00  0.00     0.199 HD  
ATOM     20  H8  UNL     1      -0.688  -3.565  -0.859  1.00  0.00     0.199 HD  
BRANCH  18  21
ATOM     21  C6  UNL     1      -0.188  -2.354  -2.461  1.00  0.00     0.164 C   
BRANCH  21  22
ATOM     22  C7  UNL     1       0.553  -1.087  -2.784  1.00  0.00    -0.002 A   
ATOM     23  C8  UNL     1       1.952  -1.001  -2.581  1.00  0.00     0.012 A   
ATOM     24  C12 UNL     1      -0.148   0.043  -3.242  1.00  0.00     0.045 A   
ATOM     25  C9  UNL     1       2.642   0.194  -2.812  1.00  0.00     0.037 A   
ATOM     26  C11 UNL     1       0.562   1.206  -3.457  1.00  0.00     0.109 A   
ATOM     27  C10 UNL     1       1.917   1.281  -3.245  1.00  0.00     0.108 A   
ATOM     28  O2  UNL     1       0.035   2.388  -3.872  1.00  0.00    -0.316 OA  
ATOM     29  O3  UNL     1       2.413   2.519  -3.503  1.00  0.00    -0.316 OA  
ATOM     30  C13 UNL     1       1.225   3.206  -3.950  1.00  0.00     0.337 C   
ENDBRANCH  21  22
ENDBRANCH  18  21
ENDBRANCH  17  18
BRANCH  17  31
ATOM     31  C14 UNL     1      -1.884  -2.320   0.912  1.00  0.00     0.043 C   
ATOM     32  C15 UNL     1      -2.500  -1.360   1.954  1.00  0.00     0.010 C   
ATOM     33  C19 UNL     1      -3.030  -3.162   0.302  1.00  0.00     0.010 C   
ATOM     34  C16 UNL     1      -3.595  -0.473   1.367  1.00  0.00     0.001 C   
ATOM     35  C18 UNL     1      -4.154  -2.307  -0.286  1.00  0.00     0.001 C   
ATOM     36  C17 UNL     1      -4.701  -1.308   0.730  1.00  0.00     0.000 C   
ENDBRANCH  17  31
ENDBRANCH   3  17
TORSDOF 9
