REMARK SMILES O[C@@H](Cn1cc([C@@H]([NH2+]Cc2ccc3c(c2)OCO3)C2CCCCC2)nn1)c1ccncc1
REMARK SMILES IDX 4 1 5 2 6 3 25 4 26 5 3 7 2 8 1 9 27 11 28 12 32 13 29 14
REMARK SMILES IDX 31 15 30 16 7 17 8 18 9 21 10 22 11 23 15 24 12 25 14 26
REMARK SMILES IDX 13 27 16 28 18 29 17 30 19 31 20 32 24 33 21 34 23 35 22 36
REMARK H PARENT 5 6 1 10 8 19 8 20
ROOT
ATOM     1   N1  UNL     1       2.562   1.965  -0.263  1.00  0.00    -0.209 N   
ATOM     2   C3  UNL     1       1.838   0.812  -0.153  1.00  0.00     0.045 A   
ATOM     3   C4  UNL     1       0.881   0.926  -1.137  1.00  0.00     0.127 A   
ATOM     4   N3  UNL     1       1.061   2.115  -1.801  1.00  0.00    -0.132 NA  
ATOM     5   N4  UNL     1       2.086   2.744  -1.252  1.00  0.00    -0.076 NA  
ATOM     6   H5  UNL     1       2.052   0.059   0.594  1.00  0.00     0.083 HD  
ENDROOT
BRANCH   1   7
ATOM     7   C2  UNL     1       3.687   2.393   0.537  1.00  0.00     0.170 C   
BRANCH   7   8
ATOM     8   C1  UNL     1       3.296   3.397   1.627  1.00  0.00     0.164 C   
BRANCH   8   9
ATOM     9   O1  UNL     1       4.478   3.808   2.317  1.00  0.00    -0.387 OA  
ATOM     10  H1  UNL     1       4.199   4.312   3.102  1.00  0.00     0.211 HD  
ENDBRANCH   8   9
BRANCH   8  11
ATOM     11  C20 UNL     1       2.315   2.824   2.627  1.00  0.00    -0.015 A   
ATOM     12  C21 UNL     1       0.978   3.234   2.621  1.00  0.00     0.026 A   
ATOM     13  C24 UNL     1       2.706   1.848   3.553  1.00  0.00     0.026 A   
ATOM     14  C22 UNL     1       0.100   2.645   3.516  1.00  0.00     0.111 A   
ATOM     15  C23 UNL     1       1.751   1.317   4.405  1.00  0.00     0.111 A   
ATOM     16  N5  UNL     1       0.453   1.683   4.392  1.00  0.00    -0.265 NA  
ENDBRANCH   8  11
ENDBRANCH   7   8
ENDBRANCH   1   7
BRANCH   3  17
ATOM     17  C5  UNL     1      -0.244   0.022  -1.542  1.00  0.00     0.117 C   
BRANCH  17  18
ATOM     18  N2  UNL     1      -1.107   0.726  -2.567  1.00  0.00     0.249 N   
ATOM     19  H7  UNL     1      -0.636   1.625  -2.758  1.00  0.00     0.199 HD  
ATOM     20  H8  UNL     1      -1.095   0.233  -3.463  1.00  0.00     0.199 HD  
BRANCH  18  21
ATOM     21  C6  UNL     1      -2.514   1.010  -2.178  1.00  0.00     0.164 C   
BRANCH  21  22
ATOM     22  C7  UNL     1      -2.663   1.910  -0.981  1.00  0.00    -0.002 A   
ATOM     23  C8  UNL     1      -2.120   3.218  -0.977  1.00  0.00     0.012 A   
ATOM     24  C12 UNL     1      -3.373   1.459   0.146  1.00  0.00     0.045 A   
ATOM     25  C9  UNL     1      -2.268   4.058   0.134  1.00  0.00     0.037 A   
ATOM     26  C11 UNL     1      -3.510   2.315   1.219  1.00  0.00     0.109 A   
ATOM     27  C10 UNL     1      -2.971   3.577   1.215  1.00  0.00     0.108 A   
ATOM     28  O2  UNL     1      -4.170   2.036   2.373  1.00  0.00    -0.316 OA  
ATOM     29  O3  UNL     1      -3.216   4.247   2.370  1.00  0.00    -0.316 OA  
ATOM     30  C13 UNL     1      -4.033   3.289   3.079  1.00  0.00     0.337 C   
ENDBRANCH  21  22
ENDBRANCH  18  21
ENDBRANCH  17  18
BRANCH  17  31
ATOM     31  C14 UNL     1       0.247  -1.349  -2.078  1.00  0.00     0.043 C   
ATOM     32  C15 UNL     1       1.133  -1.257  -3.337  1.00  0.00     0.010 C   
ATOM     33  C19 UNL     1      -0.925  -2.320  -2.317  1.00  0.00     0.010 C   
ATOM     34  C16 UNL     1       1.614  -2.638  -3.786  1.00  0.00     0.001 C   
ATOM     35  C18 UNL     1      -0.436  -3.695  -2.767  1.00  0.00     0.001 C   
ATOM     36  C17 UNL     1       0.449  -3.597  -4.005  1.00  0.00     0.000 C   
ENDBRANCH  17  31
ENDBRANCH   3  17
TORSDOF 9
