REMARK SMILES CC(C)C[C@H]([NH2+]Cc1ccc2c(c1)OCO2)c1cn([C@@H](CO)c2ccccc2O)nn1
REMARK SMILES IDX 17 1 18 2 19 3 30 4 31 5 5 7 4 8 2 9 1 10 3 11 6 12 7 15
REMARK SMILES IDX 8 16 9 17 13 18 10 19 12 20 11 21 14 22 16 23 15 24 20 25
REMARK SMILES IDX 21 26 22 27 23 29 24 30 28 31 25 32 27 33 26 34 29 35
REMARK H PARENT 18 6 6 13 6 14 22 28 29 36
ROOT
ATOM     1   C14 UNL     1      -1.635  -1.303   0.251  1.00  0.00     0.127 A   
ATOM     2   C15 UNL     1      -1.974  -0.001  -0.033  1.00  0.00     0.046 A   
ATOM     3   N2  UNL     1      -3.259   0.115   0.423  1.00  0.00    -0.202 N   
ATOM     4   N3  UNL     1      -3.699  -1.068   0.905  1.00  0.00    -0.075 NA  
ATOM     5   N4  UNL     1      -2.706  -1.936   0.822  1.00  0.00    -0.132 NA  
ATOM     6   H20 UNL     1      -1.429   0.840  -0.432  1.00  0.00     0.083 HD  
ENDROOT
BRANCH   1   7
ATOM     7   C5  UNL     1      -0.323  -2.008   0.173  1.00  0.00     0.114 C   
BRANCH   7   8
ATOM     8   C4  UNL     1      -0.391  -3.196  -0.807  1.00  0.00     0.064 C   
BRANCH   8   9
ATOM     9   C2  UNL     1       0.917  -3.991  -1.015  1.00  0.00    -0.012 C   
ATOM     10  C1  UNL     1       0.669  -5.120  -2.021  1.00  0.00     0.007 C   
ATOM     11  C3  UNL     1       2.070  -3.108  -1.497  1.00  0.00     0.007 C   
ENDBRANCH   8   9
ENDBRANCH   7   8
BRANCH   7  12
ATOM     12  N1  UNL     1       0.046  -2.517   1.547  1.00  0.00     0.249 N   
ATOM     13  H11 UNL     1      -0.763  -3.060   1.877  1.00  0.00     0.199 HD  
ATOM     14  H12 UNL     1       0.841  -3.154   1.494  1.00  0.00     0.199 HD  
BRANCH  12  15
ATOM     15  C6  UNL     1       0.336  -1.477   2.580  1.00  0.00     0.164 C   
BRANCH  15  16
ATOM     16  C7  UNL     1       1.620  -0.738   2.312  1.00  0.00    -0.002 A   
ATOM     17  C8  UNL     1       2.867  -1.347   2.598  1.00  0.00     0.012 A   
ATOM     18  C12 UNL     1       1.592   0.546   1.739  1.00  0.00     0.045 A   
ATOM     19  C9  UNL     1       4.069  -0.691   2.311  1.00  0.00     0.037 A   
ATOM     20  C11 UNL     1       2.796   1.162   1.462  1.00  0.00     0.109 A   
ATOM     21  C10 UNL     1       3.998   0.561   1.740  1.00  0.00     0.108 A   
ATOM     22  O1  UNL     1       2.949   2.387   0.893  1.00  0.00    -0.316 OA  
ATOM     23  O2  UNL     1       5.058   1.335   1.389  1.00  0.00    -0.316 OA  
ATOM     24  C13 UNL     1       4.389   2.510   0.884  1.00  0.00     0.337 C   
ENDBRANCH  15  16
ENDBRANCH  12  15
ENDBRANCH   7  12
ENDBRANCH   1   7
BRANCH   3  25
ATOM     25  C16 UNL     1      -4.058   1.326   0.627  1.00  0.00     0.158 C   
BRANCH  25  26
ATOM     26  C17 UNL     1      -3.737   1.942   2.005  1.00  0.00     0.186 C   
BRANCH  26  27
ATOM     27  O3  UNL     1      -2.339   2.158   2.236  1.00  0.00    -0.394 OA  
ATOM     28  H24 UNL     1      -2.106   2.906   1.646  1.00  0.00     0.210 HD  
ENDBRANCH  26  27
ENDBRANCH  25  26
BRANCH  25  29
ATOM     29  C18 UNL     1      -4.042   2.217  -0.611  1.00  0.00     0.007 A   
ATOM     30  C19 UNL     1      -4.901   1.859  -1.678  1.00  0.00     0.008 A   
ATOM     31  C23 UNL     1      -3.240   3.354  -0.784  1.00  0.00     0.076 A   
ATOM     32  C20 UNL     1      -4.961   2.614  -2.853  1.00  0.00     0.001 A   
ATOM     33  C22 UNL     1      -3.298   4.113  -1.960  1.00  0.00     0.033 A   
ATOM     34  C21 UNL     1      -4.160   3.743  -2.992  1.00  0.00     0.003 A   
BRANCH  31  35
ATOM     35  O4  UNL     1      -2.365   3.739   0.195  1.00  0.00    -0.361 OA  
ATOM     36  H29 UNL     1      -1.989   4.602  -0.061  1.00  0.00     0.218 HD  
ENDBRANCH  31  35
ENDBRANCH  25  29
ENDBRANCH   3  25
TORSDOF 11
