REMARK SMILES CC(C)C[C@H]([NH2+]Cc1ccc2c(c1)OCO2)c1cn([C@H](CO)c2ccccc2O)nn1
REMARK SMILES IDX 17 1 18 2 19 3 30 4 31 5 5 7 4 8 2 9 1 10 3 11 6 12 7 15
REMARK SMILES IDX 8 16 9 17 13 18 10 19 12 20 11 21 14 22 16 23 15 24 20 25
REMARK SMILES IDX 21 26 22 27 23 29 24 30 28 31 25 32 27 33 26 34 29 35
REMARK H PARENT 18 6 6 13 6 14 22 28 29 36
ROOT
ATOM     1   C14 UNL     1       0.277   1.601  -1.162  1.00  0.00     0.127 A   
ATOM     2   C15 UNL     1       1.348   1.004  -1.786  1.00  0.00     0.046 A   
ATOM     3   N2  UNL     1       2.417   1.333  -0.997  1.00  0.00    -0.202 N   
ATOM     4   N3  UNL     1       2.037   2.202  -0.032  1.00  0.00    -0.075 NA  
ATOM     5   N4  UNL     1       0.725   2.352  -0.110  1.00  0.00    -0.132 NA  
ATOM     6   H20 UNL     1       1.421   0.312  -2.612  1.00  0.00     0.083 HD  
ENDROOT
BRANCH   1   7
ATOM     7   C5  UNL     1      -1.190   1.409  -1.359  1.00  0.00     0.114 C   
BRANCH   7   8
ATOM     8   C4  UNL     1      -1.870   2.714  -1.812  1.00  0.00     0.064 C   
BRANCH   8   9
ATOM     9   C2  UNL     1      -3.388   2.642  -2.078  1.00  0.00    -0.012 C   
ATOM     10  C1  UNL     1      -3.892   4.010  -2.550  1.00  0.00     0.007 C   
ATOM     11  C3  UNL     1      -3.755   1.574  -3.109  1.00  0.00     0.007 C   
ENDBRANCH   8   9
ENDBRANCH   7   8
BRANCH   7  12
ATOM     12  N1  UNL     1      -1.805   0.941  -0.068  1.00  0.00     0.249 N   
ATOM     13  H11 UNL     1      -1.533   1.617   0.660  1.00  0.00     0.199 HD  
ATOM     14  H12 UNL     1      -2.828   0.950  -0.109  1.00  0.00     0.199 HD  
BRANCH  12  15
ATOM     15  C6  UNL     1      -1.361  -0.410   0.394  1.00  0.00     0.164 C   
BRANCH  15  16
ATOM     16  C7  UNL     1      -2.084  -0.791   1.655  1.00  0.00    -0.002 A   
ATOM     17  C8  UNL     1      -3.297  -1.518   1.595  1.00  0.00     0.012 A   
ATOM     18  C12 UNL     1      -1.584  -0.377   2.902  1.00  0.00     0.045 A   
ATOM     19  C9  UNL     1      -3.999  -1.839   2.762  1.00  0.00     0.037 A   
ATOM     20  C11 UNL     1      -2.301  -0.710   4.032  1.00  0.00     0.109 A   
ATOM     21  C10 UNL     1      -3.475  -1.420   3.964  1.00  0.00     0.108 A   
ATOM     22  O1  UNL     1      -1.961  -0.389   5.307  1.00  0.00    -0.316 OA  
ATOM     23  O2  UNL     1      -4.020  -1.638   5.189  1.00  0.00    -0.316 OA  
ATOM     24  C13 UNL     1      -3.042  -1.005   6.043  1.00  0.00     0.337 C   
ENDBRANCH  15  16
ENDBRANCH  12  15
ENDBRANCH   7  12
ENDBRANCH   1   7
BRANCH   3  25
ATOM     25  C16 UNL     1       3.775   0.788  -0.977  1.00  0.00     0.158 C   
BRANCH  25  26
ATOM     26  C17 UNL     1       4.374   0.485  -2.367  1.00  0.00     0.186 C   
BRANCH  26  27
ATOM     27  O3  UNL     1       3.743  -0.613  -3.038  1.00  0.00    -0.394 OA  
ATOM     28  H24 UNL     1       4.259  -0.763  -3.857  1.00  0.00     0.210 HD  
ENDBRANCH  26  27
ENDBRANCH  25  26
BRANCH  25  29
ATOM     29  C18 UNL     1       3.865  -0.369   0.012  1.00  0.00     0.007 A   
ATOM     30  C19 UNL     1       4.655  -0.207   1.166  1.00  0.00     0.008 A   
ATOM     31  C23 UNL     1       3.159  -1.574  -0.126  1.00  0.00     0.076 A   
ATOM     32  C20 UNL     1       4.726  -1.209   2.138  1.00  0.00     0.001 A   
ATOM     33  C22 UNL     1       3.213  -2.568   0.850  1.00  0.00     0.033 A   
ATOM     34  C21 UNL     1       4.003  -2.387   1.981  1.00  0.00     0.003 A   
BRANCH  31  35
ATOM     35  O4  UNL     1       2.373  -1.843  -1.211  1.00  0.00    -0.361 OA  
ATOM     36  H29 UNL     1       2.882  -1.560  -2.005  1.00  0.00     0.218 HD  
ENDBRANCH  31  35
ENDBRANCH  25  29
ENDBRANCH   3  25
TORSDOF 11
