REMARK SMILES COc1cccc(Cn2cc([C@@H]([NH2+]Cc3ccc4c(c3)OCO4)C3CCCC3)nn2)c1OC
REMARK SMILES IDX 9 1 10 2 11 3 29 4 30 5 8 7 7 8 3 9 4 10 31 11 5 12 6 13
REMARK SMILES IDX 2 14 1 15 32 16 33 17 12 18 13 19 14 22 15 23 16 24 20 25
REMARK SMILES IDX 17 26 19 27 18 28 21 29 23 30 22 31 24 32 25 33 28 34 26 35
REMARK SMILES IDX 27 36
REMARK H PARENT 10 6 13 20 13 21
ROOT
ATOM     1   N1  UNL     1       1.225  -2.283  -0.131  1.00  0.00    -0.208 N   
ATOM     2   C8  UNL     1       0.518  -1.384  -0.881  1.00  0.00     0.046 A   
ATOM     3   C9  UNL     1       1.483  -0.539  -1.378  1.00  0.00     0.127 A   
ATOM     4   N3  UNL     1       2.720  -0.987  -0.994  1.00  0.00    -0.132 NA  
ATOM     5   N4  UNL     1       2.551  -2.063  -0.244  1.00  0.00    -0.076 NA  
ATOM     6   H9  UNL     1      -0.563  -1.381  -0.912  1.00  0.00     0.083 HD  
ENDROOT
BRANCH   1   7
ATOM     7   C7  UNL     1       0.708  -3.303   0.766  1.00  0.00     0.172 C   
BRANCH   7   8
ATOM     8   C6  UNL     1       0.736  -2.824   2.198  1.00  0.00     0.004 A   
ATOM     9   C2  UNL     1      -0.098  -1.378   3.992  1.00  0.00     0.105 A   
ATOM     10  C3  UNL     1       0.897  -1.879   4.836  1.00  0.00     0.036 A   
ATOM     11  C24 UNL     1      -0.194  -1.880   2.678  1.00  0.00     0.110 A   
ATOM     12  C4  UNL     1       1.799  -2.841   4.378  1.00  0.00     0.003 A   
ATOM     13  C5  UNL     1       1.728  -3.302   3.066  1.00  0.00     0.008 A   
BRANCH   9  14
ATOM     14  O1  UNL     1      -0.971  -0.382   4.342  1.00  0.00    -0.347 OA  
ATOM     15  C1  UNL     1      -0.982   0.039   5.701  1.00  0.00     0.203 C   
ENDBRANCH   9  14
BRANCH  11  16
ATOM     16  O4  UNL     1      -1.130  -1.444   1.768  1.00  0.00    -0.346 OA  
ATOM     17  C25 UNL     1      -2.473  -1.477   2.257  1.00  0.00     0.203 C   
ENDBRANCH  11  16
ENDBRANCH   7   8
ENDBRANCH   1   7
BRANCH   3  18
ATOM     18  C10 UNL     1       1.356   0.761  -2.098  1.00  0.00     0.117 C   
BRANCH  18  19
ATOM     19  N2  UNL     1       2.272   1.783  -1.466  1.00  0.00     0.249 N   
ATOM     20  H11 UNL     1       2.328   2.627  -2.040  1.00  0.00     0.199 HD  
ATOM     21  H12 UNL     1       3.208   1.356  -1.446  1.00  0.00     0.199 HD  
BRANCH  19  22
ATOM     22  C11 UNL     1       1.953   2.170  -0.055  1.00  0.00     0.164 C   
BRANCH  22  23
ATOM     23  C12 UNL     1       0.617   2.844   0.090  1.00  0.00    -0.002 A   
ATOM     24  C13 UNL     1       0.414   4.153  -0.409  1.00  0.00     0.012 A   
ATOM     25  C17 UNL     1      -0.451   2.161   0.699  1.00  0.00     0.045 A   
ATOM     26  C14 UNL     1      -0.837   4.771  -0.312  1.00  0.00     0.037 A   
ATOM     27  C16 UNL     1      -1.672   2.798   0.775  1.00  0.00     0.109 A   
ATOM     28  C15 UNL     1      -1.860   4.066   0.283  1.00  0.00     0.108 A   
ATOM     29  O2  UNL     1      -2.805   2.279   1.317  1.00  0.00    -0.316 OA  
ATOM     30  O3  UNL     1      -3.133   4.507   0.458  1.00  0.00    -0.316 OA  
ATOM     31  C18 UNL     1      -3.722   3.383   1.146  1.00  0.00     0.337 C   
ENDBRANCH  22  23
ENDBRANCH  19  22
ENDBRANCH  18  19
BRANCH  18  32
ATOM     32  C19 UNL     1       1.641   0.615  -3.605  1.00  0.00     0.043 C   
ATOM     33  C20 UNL     1       1.274   1.844  -4.443  1.00  0.00     0.010 C   
ATOM     34  C23 UNL     1       3.095   0.372  -4.017  1.00  0.00     0.010 C   
ATOM     35  C21 UNL     1       1.968   1.615  -5.784  1.00  0.00     0.001 C   
ATOM     36  C22 UNL     1       3.079   0.597  -5.525  1.00  0.00     0.001 C   
ENDBRANCH  18  32
ENDBRANCH   3  18
TORSDOF 9
