REMARK SMILES Cc1c[nH]c(C)c1CCn1cc([C@H](CC(C)C)[NH2+]Cc2ccc3c(c2)OCO3)nn1
REMARK SMILES IDX 10 1 11 2 12 3 29 4 30 5 9 7 8 8 7 9 2 10 3 11 4 12 5 13
REMARK SMILES IDX 1 14 6 16 13 17 14 18 15 19 16 20 17 21 18 22 19 25 20 26
REMARK SMILES IDX 21 27 25 28 22 29 24 30 23 31 26 32 28 33 27 34
REMARK H PARENT 11 6 4 15 18 23 18 24
ROOT
ATOM     1   N2  UNL     1       1.579   1.726  -1.402  1.00  0.00    -0.212 N   
ATOM     2   C9  UNL     1       0.509   1.114  -0.813  1.00  0.00     0.045 A   
ATOM     3   C10 UNL     1       1.081   0.178   0.017  1.00  0.00     0.127 A   
ATOM     4   N4  UNL     1       2.443   0.198  -0.149  1.00  0.00    -0.132 NA  
ATOM     5   N5  UNL     1       2.733   1.136  -1.036  1.00  0.00    -0.076 NA  
ATOM     6   H13 UNL     1      -0.509   1.440  -0.984  1.00  0.00     0.083 HD  
ENDROOT
BRANCH   1   7
ATOM     7   C8  UNL     1       1.577   2.876  -2.282  1.00  0.00     0.139 C   
BRANCH   7   8
ATOM     8   C7  UNL     1       1.722   4.196  -1.527  1.00  0.00     0.059 C   
BRANCH   8   9
ATOM     9   C6  UNL     1       0.562   4.484  -0.613  1.00  0.00    -0.025 A   
ATOM     10  C2  UNL     1       0.542   4.348   0.815  1.00  0.00    -0.032 A   
ATOM     11  C3  UNL     1      -0.723   4.710   1.231  1.00  0.00     0.075 A   
ATOM     12  N1  UNL     1      -1.455   5.077   0.137  1.00  0.00    -0.324 N   
ATOM     13  C4  UNL     1      -0.694   4.937  -0.996  1.00  0.00     0.007 A   
ATOM     14  C1  UNL     1       1.659   3.932   1.707  1.00  0.00     0.046 C   
ATOM     15  H5  UNL     1      -2.406   5.424   0.164  1.00  0.00     0.152 HD  
ATOM     16  C5  UNL     1      -1.244   5.274  -2.337  1.00  0.00     0.062 C   
ENDBRANCH   8   9
ENDBRANCH   7   8
ENDBRANCH   1   7
BRANCH   3  17
ATOM     17  C11 UNL     1       0.467  -0.768   0.995  1.00  0.00     0.114 C   
BRANCH  17  18
ATOM     18  C12 UNL     1       0.310  -0.089   2.372  1.00  0.00     0.064 C   
BRANCH  18  19
ATOM     19  C13 UNL     1      -0.421  -0.904   3.460  1.00  0.00    -0.012 C   
ATOM     20  C14 UNL     1      -1.830  -1.318   3.034  1.00  0.00     0.007 C   
ATOM     21  C15 UNL     1      -0.494  -0.084   4.752  1.00  0.00     0.007 C   
ENDBRANCH  18  19
ENDBRANCH  17  18
BRANCH  17  22
ATOM     22  N3  UNL     1       1.332  -1.995   1.147  1.00  0.00     0.249 N   
ATOM     23  H24 UNL     1       1.081  -2.521   1.986  1.00  0.00     0.199 HD  
ATOM     24  H25 UNL     1       2.293  -1.648   1.278  1.00  0.00     0.199 HD  
BRANCH  22  25
ATOM     25  C16 UNL     1       1.352  -2.929  -0.018  1.00  0.00     0.164 C   
BRANCH  25  26
ATOM     26  C17 UNL     1       0.059  -3.681  -0.173  1.00  0.00    -0.002 A   
ATOM     27  C18 UNL     1      -0.259  -4.748   0.702  1.00  0.00     0.012 A   
ATOM     28  C22 UNL     1      -0.863  -3.303  -1.165  1.00  0.00     0.045 A   
ATOM     29  C19 UNL     1      -1.478  -5.425   0.597  1.00  0.00     0.037 A   
ATOM     30  C21 UNL     1      -2.057  -3.989  -1.239  1.00  0.00     0.109 A   
ATOM     31  C20 UNL     1      -2.357  -5.019  -0.383  1.00  0.00     0.108 A   
ATOM     32  O1  UNL     1      -3.057  -3.742  -2.126  1.00  0.00    -0.316 OA  
ATOM     33  O2  UNL     1      -3.581  -5.555  -0.626  1.00  0.00    -0.316 OA  
ATOM     34  C23 UNL     1      -4.014  -4.760  -1.751  1.00  0.00     0.337 C   
ENDBRANCH  25  26
ENDBRANCH  22  25
ENDBRANCH  17  22
ENDBRANCH   3  17
TORSDOF 9
