REMARK SMILES Cc1ccc(F)cc1[C@H](CO)n1cc([C@@H]([NH2+]Cc2ccc3c(c2)OCO3)C(C)C)nn1
REMARK SMILES IDX 12 1 13 2 14 3 30 4 31 5 9 7 8 8 2 9 3 10 4 11 7 12 5 13
REMARK SMILES IDX 1 14 6 15 10 16 11 17 15 19 16 20 17 23 18 24 19 25 23 26
REMARK SMILES IDX 20 27 22 28 21 29 24 30 26 31 25 32 27 33 28 34 29 35
REMARK H PARENT 13 6 11 18 16 21 16 22
ROOT
ATOM     1   N1  UNL     1      -0.426   0.259  -2.503  1.00  0.00    -0.202 N   
ATOM     2   C10 UNL     1      -0.356  -0.712  -1.536  1.00  0.00     0.046 A   
ATOM     3   C11 UNL     1      -1.021  -0.166  -0.461  1.00  0.00     0.127 A   
ATOM     4   N3  UNL     1      -1.454   1.092  -0.793  1.00  0.00    -0.132 NA  
ATOM     5   N4  UNL     1      -1.067   1.349  -2.031  1.00  0.00    -0.075 NA  
ATOM     6   H11 UNL     1       0.139  -1.659  -1.707  1.00  0.00     0.083 HD  
ENDROOT
BRANCH   1   7
ATOM     7   C8  UNL     1       0.143   0.213  -3.855  1.00  0.00     0.155 C   
BRANCH   7   8
ATOM     8   C7  UNL     1       1.605   0.659  -3.827  1.00  0.00    -0.017 A   
ATOM     9   C2  UNL     1       2.656  -0.181  -4.269  1.00  0.00    -0.046 A   
ATOM     10  C3  UNL     1       3.987   0.279  -4.209  1.00  0.00     0.007 A   
ATOM     11  C4  UNL     1       4.283   1.553  -3.732  1.00  0.00     0.039 A   
ATOM     12  C6  UNL     1       1.929   1.951  -3.365  1.00  0.00     0.045 A   
ATOM     13  C5  UNL     1       3.252   2.379  -3.319  1.00  0.00     0.123 A   
ATOM     14  C1  UNL     1       2.408  -1.564  -4.813  1.00  0.00     0.045 C   
ATOM     15  F1  UNL     1       3.527   3.605  -2.862  1.00  0.00    -0.207 F   
ENDBRANCH   7   8
BRANCH   7  16
ATOM     16  C9  UNL     1      -0.681   0.997  -4.892  1.00  0.00     0.185 C   
BRANCH  16  17
ATOM     17  O1  UNL     1      -1.898   0.304  -5.183  1.00  0.00    -0.394 OA  
ATOM     18  H10 UNL     1      -2.413   0.883  -5.777  1.00  0.00     0.210 HD  
ENDBRANCH  16  17
ENDBRANCH   7  16
ENDBRANCH   1   7
BRANCH   3  19
ATOM     19  C12 UNL     1      -1.301  -0.703   0.909  1.00  0.00     0.117 C   
BRANCH  19  20
ATOM     20  N2  UNL     1      -1.761   0.409   1.822  1.00  0.00     0.249 N   
ATOM     21  H13 UNL     1      -2.322   0.051   2.597  1.00  0.00     0.199 HD  
ATOM     22  H14 UNL     1      -2.380   1.004   1.253  1.00  0.00     0.199 HD  
BRANCH  20  23
ATOM     23  C13 UNL     1      -0.686   1.290   2.366  1.00  0.00     0.164 C   
BRANCH  23  24
ATOM     24  C14 UNL     1       0.125   0.610   3.435  1.00  0.00    -0.002 A   
ATOM     25  C15 UNL     1       1.463   0.224   3.181  1.00  0.00     0.012 A   
ATOM     26  C19 UNL     1      -0.448   0.330   4.687  1.00  0.00     0.045 A   
ATOM     27  C16 UNL     1       2.216  -0.443   4.154  1.00  0.00     0.037 A   
ATOM     28  C18 UNL     1       0.320  -0.332   5.622  1.00  0.00     0.109 A   
ATOM     29  C17 UNL     1       1.613  -0.712   5.362  1.00  0.00     0.108 A   
ATOM     30  O2  UNL     1      -0.084  -0.681   6.870  1.00  0.00    -0.316 OA  
ATOM     31  O3  UNL     1       2.184  -1.352   6.414  1.00  0.00    -0.316 OA  
ATOM     32  C20 UNL     1       1.106  -1.328   7.375  1.00  0.00     0.337 C   
ENDBRANCH  23  24
ENDBRANCH  20  23
ENDBRANCH  19  20
BRANCH  19  33
ATOM     33  C21 UNL     1      -2.349  -1.846   0.890  1.00  0.00     0.037 C   
ATOM     34  C22 UNL     1      -2.405  -2.589   2.232  1.00  0.00     0.014 C   
ATOM     35  C23 UNL     1      -3.758  -1.392   0.490  1.00  0.00     0.014 C   
ENDBRANCH  19  33
ENDBRANCH   3  19
TORSDOF 9
