REMARK SMILES Cc1ccc(F)cc1[C@@H](CO)n1cc([C@@H]([NH2+]Cc2ccc3c(c2)OCO3)C(C)C)nn1
REMARK SMILES IDX 12 1 13 2 14 3 30 4 31 5 9 7 8 8 2 9 3 10 4 11 7 12 5 13
REMARK SMILES IDX 1 14 6 15 10 16 11 17 15 19 16 20 17 23 18 24 19 25 23 26
REMARK SMILES IDX 20 27 22 28 21 29 24 30 26 31 25 32 27 33 28 34 29 35
REMARK H PARENT 13 6 11 18 16 21 16 22
ROOT
ATOM     1   N1  UNL     1       2.427  -0.105  -0.907  1.00  0.00    -0.202 N   
ATOM     2   C10 UNL     1       1.251   0.128  -1.568  1.00  0.00     0.046 A   
ATOM     3   C11 UNL     1       0.724   1.233  -0.943  1.00  0.00     0.127 A   
ATOM     4   N3  UNL     1       1.578   1.640   0.049  1.00  0.00    -0.132 NA  
ATOM     5   N4  UNL     1       2.615   0.817   0.062  1.00  0.00    -0.075 NA  
ATOM     6   H11 UNL     1       0.910  -0.502  -2.378  1.00  0.00     0.083 HD  
ENDROOT
BRANCH   1   7
ATOM     7   C8  UNL     1       3.382  -1.200  -1.085  1.00  0.00     0.155 C   
BRANCH   7   8
ATOM     8   C7  UNL     1       2.674  -2.553  -0.948  1.00  0.00    -0.017 A   
ATOM     9   C2  UNL     1       2.434  -3.136   0.326  1.00  0.00    -0.046 A   
ATOM     10  C3  UNL     1       1.746  -4.362   0.415  1.00  0.00     0.007 A   
ATOM     11  C4  UNL     1       1.289  -5.013  -0.727  1.00  0.00     0.039 A   
ATOM     12  C6  UNL     1       2.200  -3.235  -2.086  1.00  0.00     0.045 A   
ATOM     13  C5  UNL     1       1.519  -4.443  -1.967  1.00  0.00     0.123 A   
ATOM     14  C1  UNL     1       2.897  -2.495   1.610  1.00  0.00     0.045 C   
ATOM     15  F1  UNL     1       1.074  -5.056  -3.071  1.00  0.00    -0.207 F   
ENDBRANCH   7   8
BRANCH   7  16
ATOM     16  C9  UNL     1       4.258  -0.982  -2.340  1.00  0.00     0.185 C   
BRANCH  16  17
ATOM     17  O1  UNL     1       3.502  -0.809  -3.538  1.00  0.00    -0.394 OA  
ATOM     18  H10 UNL     1       4.143  -0.717  -4.269  1.00  0.00     0.210 HD  
ENDBRANCH  16  17
ENDBRANCH   7  16
ENDBRANCH   1   7
BRANCH   3  19
ATOM     19  C12 UNL     1      -0.582   1.927  -1.146  1.00  0.00     0.117 C   
BRANCH  19  20
ATOM     20  N2  UNL     1      -1.151   2.413   0.168  1.00  0.00     0.249 N   
ATOM     21  H13 UNL     1      -0.434   3.017   0.591  1.00  0.00     0.199 HD  
ATOM     22  H14 UNL     1      -1.983   2.984   0.004  1.00  0.00     0.199 HD  
BRANCH  20  23
ATOM     23  C13 UNL     1      -1.477   1.362   1.182  1.00  0.00     0.164 C   
BRANCH  23  24
ATOM     24  C14 UNL     1      -2.482   0.353   0.702  1.00  0.00    -0.002 A   
ATOM     25  C15 UNL     1      -3.843   0.708   0.549  1.00  0.00     0.012 A   
ATOM     26  C19 UNL     1      -2.063  -0.948   0.369  1.00  0.00     0.045 A   
ATOM     27  C16 UNL     1      -4.776  -0.217   0.066  1.00  0.00     0.037 A   
ATOM     28  C18 UNL     1      -3.007  -1.834  -0.108  1.00  0.00     0.109 A   
ATOM     29  C17 UNL     1      -4.324  -1.479  -0.257  1.00  0.00     0.108 A   
ATOM     30  O2  UNL     1      -2.768  -3.117  -0.484  1.00  0.00    -0.316 OA  
ATOM     31  O3  UNL     1      -5.083  -2.496  -0.741  1.00  0.00    -0.316 OA  
ATOM     32  C20 UNL     1      -4.094  -3.540  -0.875  1.00  0.00     0.337 C   
ENDBRANCH  23  24
ENDBRANCH  20  23
ENDBRANCH  19  20
BRANCH  19  33
ATOM     33  C21 UNL     1      -0.476   3.101  -2.156  1.00  0.00     0.037 C   
ATOM     34  C22 UNL     1      -1.859   3.580  -2.614  1.00  0.00     0.014 C   
ATOM     35  C23 UNL     1       0.339   4.298  -1.652  1.00  0.00     0.014 C   
ENDBRANCH  19  33
ENDBRANCH   3  19
TORSDOF 9
