REMARK SMILES COc1cccc([C@H](O)Cn2cc([C@@H]([NH2+]Cc3ccc4c(c3)OCO4)C3CCCC3)nn2)c1
REMARK SMILES IDX 11 1 12 2 13 3 31 4 32 5 10 7 8 8 7 9 3 10 4 11 33 12 5 13
REMARK SMILES IDX 6 14 2 15 1 16 9 17 14 19 15 20 16 23 17 24 18 25 22 26
REMARK SMILES IDX 19 27 21 28 20 29 23 30 25 31 24 32 26 33 27 34 30 35 28 36
REMARK SMILES IDX 29 37
REMARK H PARENT 12 6 9 18 15 21 15 22
ROOT
ATOM     1   N1  UNL     1      -0.939   2.870  -0.383  1.00  0.00    -0.209 N   
ATOM     2   C9  UNL     1      -0.944   2.014   0.684  1.00  0.00     0.045 A   
ATOM     3   C10 UNL     1       0.391   1.833   0.966  1.00  0.00     0.127 A   
ATOM     4   N3  UNL     1       1.139   2.626   0.135  1.00  0.00    -0.132 NA  
ATOM     5   N4  UNL     1       0.312   3.270  -0.673  1.00  0.00    -0.076 NA  
ATOM     6   H11 UNL     1      -1.853   1.573   1.071  1.00  0.00     0.083 HD  
ENDROOT
BRANCH   1   7
ATOM     7   C8  UNL     1      -2.064   3.300  -1.190  1.00  0.00     0.170 C   
BRANCH   7   8
ATOM     8   C7  UNL     1      -2.324   2.400  -2.413  1.00  0.00     0.164 C   
BRANCH   8   9
ATOM     9   C6  UNL     1      -2.551   0.947  -2.038  1.00  0.00    -0.015 A   
ATOM     10  C2  UNL     1      -1.693  -1.306  -1.660  1.00  0.00     0.075 A   
ATOM     11  C3  UNL     1      -2.947  -1.714  -1.212  1.00  0.00     0.033 A   
ATOM     12  C25 UNL     1      -1.499   0.015  -2.067  1.00  0.00     0.040 A   
ATOM     13  C4  UNL     1      -4.007  -0.804  -1.192  1.00  0.00     0.003 A   
ATOM     14  C5  UNL     1      -3.812   0.517  -1.599  1.00  0.00     0.006 A   
BRANCH  10  15
ATOM     15  O1  UNL     1      -0.581  -2.106  -1.672  1.00  0.00    -0.349 OA  
ATOM     16  C1  UNL     1      -0.839  -3.444  -2.100  1.00  0.00     0.203 C   
ENDBRANCH  10  15
ENDBRANCH   8   9
BRANCH   8  17
ATOM     17  O2  UNL     1      -1.264   2.494  -3.365  1.00  0.00    -0.387 OA  
ATOM     18  H8  UNL     1      -1.232   3.408  -3.698  1.00  0.00     0.211 HD  
ENDBRANCH   8  17
ENDBRANCH   7   8
ENDBRANCH   1   7
BRANCH   3  19
ATOM     19  C11 UNL     1       1.076   0.888   1.895  1.00  0.00     0.117 C   
BRANCH  19  20
ATOM     20  N2  UNL     1       2.187   0.181   1.159  1.00  0.00     0.249 N   
ATOM     21  H13 UNL     1       2.750   0.906   0.691  1.00  0.00     0.199 HD  
ATOM     22  H14 UNL     1       2.816  -0.312   1.799  1.00  0.00     0.199 HD  
BRANCH  20  23
ATOM     23  C12 UNL     1       1.734  -0.774   0.105  1.00  0.00     0.164 C   
BRANCH  23  24
ATOM     24  C13 UNL     1       2.912  -1.459  -0.528  1.00  0.00    -0.002 A   
ATOM     25  C14 UNL     1       3.508  -0.916  -1.691  1.00  0.00     0.012 A   
ATOM     26  C18 UNL     1       3.456  -2.616   0.056  1.00  0.00     0.045 A   
ATOM     27  C15 UNL     1       4.624  -1.524  -2.276  1.00  0.00     0.037 A   
ATOM     28  C17 UNL     1       4.558  -3.188  -0.545  1.00  0.00     0.109 A   
ATOM     29  C16 UNL     1       5.125  -2.660  -1.679  1.00  0.00     0.108 A   
ATOM     30  O3  UNL     1       5.205  -4.301  -0.110  1.00  0.00    -0.316 OA  
ATOM     31  O4  UNL     1       6.196  -3.378  -2.106  1.00  0.00    -0.316 OA  
ATOM     32  C19 UNL     1       6.227  -4.436  -1.125  1.00  0.00     0.337 C   
ENDBRANCH  23  24
ENDBRANCH  20  23
ENDBRANCH  19  20
BRANCH  19  33
ATOM     33  C20 UNL     1       1.673   1.606   3.119  1.00  0.00     0.043 C   
ATOM     34  C21 UNL     1       0.619   2.293   3.993  1.00  0.00     0.010 C   
ATOM     35  C24 UNL     1       2.364   0.674   4.123  1.00  0.00     0.010 C   
ATOM     36  C22 UNL     1       1.367   2.580   5.285  1.00  0.00     0.001 C   
ATOM     37  C23 UNL     1       2.318   1.401   5.466  1.00  0.00     0.001 C   
ENDBRANCH  19  33
ENDBRANCH   3  19
TORSDOF 10
