REMARK SMILES COc1cccc([C@@H](O)Cn2cc([C@@H]([NH2+]Cc3ccc4c(c3)OCO4)C3CCCC3)nn2)c1
REMARK SMILES IDX 11 1 12 2 13 3 31 4 32 5 10 7 8 8 7 9 3 10 4 11 33 12 5 13
REMARK SMILES IDX 6 14 2 15 1 16 9 17 14 19 15 20 16 23 17 24 18 25 22 26
REMARK SMILES IDX 19 27 21 28 20 29 23 30 25 31 24 32 26 33 27 34 30 35 28 36
REMARK SMILES IDX 29 37
REMARK H PARENT 12 6 9 18 15 21 15 22
ROOT
ATOM     1   N1  UNL     1       2.611  -1.670  -0.129  1.00  0.00    -0.209 N   
ATOM     2   C9  UNL     1       2.701  -0.391   0.346  1.00  0.00     0.045 A   
ATOM     3   C10 UNL     1       1.462  -0.158   0.900  1.00  0.00     0.127 A   
ATOM     4   N3  UNL     1       0.696  -1.289   0.783  1.00  0.00    -0.132 NA  
ATOM     5   N4  UNL     1       1.411  -2.207   0.154  1.00  0.00    -0.076 NA  
ATOM     6   H11 UNL     1       3.578   0.223   0.195  1.00  0.00     0.083 HD  
ENDROOT
BRANCH   1   7
ATOM     7   C8  UNL     1       3.553  -2.372  -0.972  1.00  0.00     0.170 C   
BRANCH   7   8
ATOM     8   C7  UNL     1       3.082  -2.471  -2.428  1.00  0.00     0.164 C   
BRANCH   8   9
ATOM     9   C6  UNL     1       2.853  -1.111  -3.064  1.00  0.00    -0.015 A   
ATOM     10  C2  UNL     1       1.320   0.695  -3.652  1.00  0.00     0.075 A   
ATOM     11  C3  UNL     1       2.390   1.448  -4.133  1.00  0.00     0.033 A   
ATOM     12  C25 UNL     1       1.555  -0.576  -3.121  1.00  0.00     0.040 A   
ATOM     13  C4  UNL     1       3.685   0.926  -4.087  1.00  0.00     0.003 A   
ATOM     14  C5  UNL     1       3.917  -0.342  -3.551  1.00  0.00     0.006 A   
BRANCH  10  15
ATOM     15  O1  UNL     1       0.019   1.120  -3.599  1.00  0.00    -0.349 OA  
ATOM     16  C1  UNL     1      -0.353   2.073  -4.593  1.00  0.00     0.203 C   
ENDBRANCH  10  15
ENDBRANCH   8   9
BRANCH   8  17
ATOM     17  O2  UNL     1       4.061  -3.191  -3.180  1.00  0.00    -0.387 OA  
ATOM     18  H8  UNL     1       3.796  -3.148  -4.117  1.00  0.00     0.211 HD  
ENDBRANCH   8  17
ENDBRANCH   7   8
ENDBRANCH   1   7
BRANCH   3  19
ATOM     19  C11 UNL     1       0.859   1.086   1.462  1.00  0.00     0.117 C   
BRANCH  19  20
ATOM     20  N2  UNL     1      -0.577   1.208   1.024  1.00  0.00     0.249 N   
ATOM     21  H13 UNL     1      -1.024   0.296   1.199  1.00  0.00     0.199 HD  
ATOM     22  H14 UNL     1      -1.092   1.896   1.579  1.00  0.00     0.199 HD  
BRANCH  20  23
ATOM     23  C12 UNL     1      -0.767   1.502  -0.427  1.00  0.00     0.164 C   
BRANCH  23  24
ATOM     24  C13 UNL     1      -2.226   1.682  -0.741  1.00  0.00    -0.002 A   
ATOM     25  C14 UNL     1      -2.817   2.966  -0.685  1.00  0.00     0.012 A   
ATOM     26  C18 UNL     1      -3.021   0.564  -1.045  1.00  0.00     0.045 A   
ATOM     27  C15 UNL     1      -4.182   3.138  -0.940  1.00  0.00     0.037 A   
ATOM     28  C17 UNL     1      -4.363   0.769  -1.290  1.00  0.00     0.109 A   
ATOM     29  C16 UNL     1      -4.927   2.019  -1.240  1.00  0.00     0.108 A   
ATOM     30  O3  UNL     1      -5.267  -0.197  -1.597  1.00  0.00    -0.316 OA  
ATOM     31  O4  UNL     1      -6.258   1.999  -1.512  1.00  0.00    -0.316 OA  
ATOM     32  C19 UNL     1      -6.468   0.591  -1.754  1.00  0.00     0.337 C   
ENDBRANCH  23  24
ENDBRANCH  20  23
ENDBRANCH  19  20
BRANCH  19  33
ATOM     33  C20 UNL     1       0.966   1.139   2.997  1.00  0.00     0.043 C   
ATOM     34  C21 UNL     1       0.110   0.134   3.776  1.00  0.00     0.010 C   
ATOM     35  C24 UNL     1       0.607   2.506   3.611  1.00  0.00     0.010 C   
ATOM     36  C22 UNL     1       0.088   0.723   5.178  1.00  0.00     0.001 C   
ATOM     37  C23 UNL     1      -0.110   2.210   4.929  1.00  0.00     0.001 C   
ENDBRANCH  19  33
ENDBRANCH   3  19
TORSDOF 10
