REMARK SMILES Cc1ccc([C@@H](O)Cn2cc([C@@H]([NH2+]Cc3ccc4c(c3)OCO4)C(C)(C)C)nn2)cc1C
REMARK SMILES IDX 9 1 10 2 11 3 28 4 29 5 8 7 6 8 5 9 2 10 3 11 31 12 4 13
REMARK SMILES IDX 30 14 1 15 32 16 7 17 12 19 13 20 14 23 15 24 16 25 20 26
REMARK SMILES IDX 17 27 19 28 18 29 21 30 23 31 22 32 24 33 25 34 26 35 27 36
REMARK H PARENT 10 6 7 18 13 21 13 22
ROOT
ATOM     1   N1  UNL     1      -3.153   0.459  -0.320  1.00  0.00    -0.209 N   
ATOM     2   C8  UNL     1      -2.626  -0.647   0.288  1.00  0.00     0.046 A   
ATOM     3   C9  UNL     1      -1.734  -0.128   1.200  1.00  0.00     0.127 A   
ATOM     4   N3  UNL     1      -1.744   1.240   1.113  1.00  0.00    -0.132 NA  
ATOM     5   N4  UNL     1      -2.631   1.587   0.195  1.00  0.00    -0.076 NA  
ATOM     6   H10 UNL     1      -2.902  -1.653   0.005  1.00  0.00     0.083 HD  
ENDROOT
BRANCH   1   7
ATOM     7   C7  UNL     1      -4.082   0.509  -1.425  1.00  0.00     0.170 C   
BRANCH   7   8
ATOM     8   C6  UNL     1      -3.549   1.278  -2.639  1.00  0.00     0.164 C   
BRANCH   8   9
ATOM     9   C5  UNL     1      -2.225   0.763  -3.170  1.00  0.00    -0.018 A   
ATOM     10  C2  UNL     1       0.246  -0.146  -4.200  1.00  0.00    -0.048 A   
ATOM     11  C3  UNL     1      -0.881  -0.981  -4.191  1.00  0.00     0.004 A   
ATOM     12  C24 UNL     1       0.139   1.159  -3.681  1.00  0.00    -0.048 A   
ATOM     13  C4  UNL     1      -2.103  -0.532  -3.687  1.00  0.00     0.007 A   
ATOM     14  C23 UNL     1      -1.096   1.597  -3.172  1.00  0.00     0.010 A   
ATOM     15  C1  UNL     1       1.530  -0.649  -4.807  1.00  0.00     0.044 C   
ATOM     16  C25 UNL     1       1.293   2.125  -3.737  1.00  0.00     0.044 C   
ENDBRANCH   8   9
BRANCH   8  17
ATOM     17  O1  UNL     1      -4.524   1.202  -3.684  1.00  0.00    -0.387 OA  
ATOM     18  H7  UNL     1      -4.084   1.471  -4.511  1.00  0.00     0.211 HD  
ENDBRANCH   8  17
ENDBRANCH   7   8
ENDBRANCH   1   7
BRANCH   3  19
ATOM     19  C10 UNL     1      -0.740  -0.796   2.100  1.00  0.00     0.120 C   
BRANCH  19  20
ATOM     20  N2  UNL     1       0.584  -0.088   1.928  1.00  0.00     0.250 N   
ATOM     21  H12 UNL     1       0.377   0.924   1.938  1.00  0.00     0.199 HD  
ATOM     22  H13 UNL     1       1.226  -0.253   2.707  1.00  0.00     0.199 HD  
BRANCH  20  23
ATOM     23  C11 UNL     1       1.287  -0.381   0.647  1.00  0.00     0.164 C   
BRANCH  23  24
ATOM     24  C12 UNL     1       2.489   0.504   0.483  1.00  0.00    -0.002 A   
ATOM     25  C13 UNL     1       3.741   0.132   1.028  1.00  0.00     0.012 A   
ATOM     26  C17 UNL     1       2.361   1.733  -0.189  1.00  0.00     0.045 A   
ATOM     27  C14 UNL     1       4.860   0.958   0.881  1.00  0.00     0.037 A   
ATOM     28  C16 UNL     1       3.485   2.518  -0.327  1.00  0.00     0.109 A   
ATOM     29  C15 UNL     1       4.700   2.141   0.190  1.00  0.00     0.108 A   
ATOM     30  O2  UNL     1       3.542   3.712  -0.975  1.00  0.00    -0.316 OA  
ATOM     31  O3  UNL     1       5.675   3.053  -0.059  1.00  0.00    -0.316 OA  
ATOM     32  C18 UNL     1       4.942   4.040  -0.818  1.00  0.00     0.337 C   
ENDBRANCH  23  24
ENDBRANCH  20  23
ENDBRANCH  19  20
BRANCH  19  33
ATOM     33  C19 UNL     1      -1.159  -0.839   3.609  1.00  0.00     0.010 C   
ATOM     34  C20 UNL     1      -0.157  -1.696   4.418  1.00  0.00     0.017 C   
ATOM     35  C21 UNL     1      -1.230   0.559   4.257  1.00  0.00     0.017 C   
ATOM     36  C22 UNL     1      -2.544  -1.512   3.755  1.00  0.00     0.017 C   
ENDBRANCH  19  33
ENDBRANCH   3  19
TORSDOF 9
