REMARK SMILES Cc1ccc([C@H](O)Cn2cc([C@@H]([NH2+]Cc3ccc4c(c3)OCO4)C(C)(C)C)nn2)cc1C
REMARK SMILES IDX 9 1 10 2 11 3 28 4 29 5 8 7 6 8 5 9 2 10 3 11 31 12 4 13
REMARK SMILES IDX 30 14 1 15 32 16 7 17 12 19 13 20 14 23 15 24 16 25 20 26
REMARK SMILES IDX 17 27 19 28 18 29 21 30 23 31 22 32 24 33 25 34 26 35 27 36
REMARK H PARENT 10 6 7 18 13 21 13 22
ROOT
ATOM     1   N1  UNL     1      -2.980  -0.079   1.676  1.00  0.00    -0.209 N   
ATOM     2   C8  UNL     1      -1.984  -0.276   0.761  1.00  0.00     0.046 A   
ATOM     3   C9  UNL     1      -1.691   0.993   0.312  1.00  0.00     0.127 A   
ATOM     4   N3  UNL     1      -2.542   1.888   0.910  1.00  0.00    -0.132 NA  
ATOM     5   N4  UNL     1      -3.330   1.219   1.736  1.00  0.00    -0.076 NA  
ATOM     6   H10 UNL     1      -1.572  -1.254   0.554  1.00  0.00     0.083 HD  
ENDROOT
BRANCH   1   7
ATOM     7   C7  UNL     1      -3.637  -1.062   2.506  1.00  0.00     0.170 C   
BRANCH   7   8
ATOM     8   C6  UNL     1      -3.115  -1.072   3.946  1.00  0.00     0.164 C   
BRANCH   8   9
ATOM     9   C5  UNL     1      -1.641  -1.414   4.043  1.00  0.00    -0.018 A   
ATOM     10  C2  UNL     1       1.117  -2.008   4.186  1.00  0.00    -0.048 A   
ATOM     11  C3  UNL     1       0.188  -2.990   3.811  1.00  0.00     0.004 A   
ATOM     12  C24 UNL     1       0.659  -0.719   4.516  1.00  0.00    -0.048 A   
ATOM     13  C4  UNL     1      -1.174  -2.698   3.740  1.00  0.00     0.007 A   
ATOM     14  C23 UNL     1      -0.715  -0.433   4.428  1.00  0.00     0.010 A   
ATOM     15  C1  UNL     1       2.572  -2.380   4.289  1.00  0.00     0.044 C   
ATOM     16  C25 UNL     1       1.609   0.366   4.947  1.00  0.00     0.044 C   
ENDBRANCH   8   9
BRANCH   8  17
ATOM     17  O1  UNL     1      -3.868  -2.027   4.697  1.00  0.00    -0.387 OA  
ATOM     18  H7  UNL     1      -3.364  -2.222   5.509  1.00  0.00     0.211 HD  
ENDBRANCH   8  17
ENDBRANCH   7   8
ENDBRANCH   1   7
BRANCH   3  19
ATOM     19  C10 UNL     1      -0.700   1.479  -0.701  1.00  0.00     0.120 C   
BRANCH  19  20
ATOM     20  N2  UNL     1      -1.321   2.630  -1.469  1.00  0.00     0.250 N   
ATOM     21  H12 UNL     1      -1.761   3.237  -0.761  1.00  0.00     0.199 HD  
ATOM     22  H13 UNL     1      -0.610   3.191  -1.941  1.00  0.00     0.199 HD  
BRANCH  20  23
ATOM     23  C11 UNL     1      -2.380   2.265  -2.457  1.00  0.00     0.164 C   
BRANCH  23  24
ATOM     24  C12 UNL     1      -1.831   1.513  -3.640  1.00  0.00    -0.002 A   
ATOM     25  C13 UNL     1      -2.104   0.132  -3.799  1.00  0.00     0.012 A   
ATOM     26  C17 UNL     1      -1.015   2.168  -4.579  1.00  0.00     0.045 A   
ATOM     27  C14 UNL     1      -1.565  -0.590  -4.870  1.00  0.00     0.037 A   
ATOM     28  C16 UNL     1      -0.501   1.426  -5.623  1.00  0.00     0.109 A   
ATOM     29  C15 UNL     1      -0.765   0.086  -5.764  1.00  0.00     0.108 A   
ATOM     30  O2  UNL     1       0.303   1.905  -6.608  1.00  0.00    -0.316 OA  
ATOM     31  O3  UNL     1      -0.163  -0.448  -6.857  1.00  0.00    -0.316 OA  
ATOM     32  C18 UNL     1       0.494   0.714  -7.408  1.00  0.00     0.337 C   
ENDBRANCH  23  24
ENDBRANCH  20  23
ENDBRANCH  19  20
BRANCH  19  33
ATOM     33  C19 UNL     1       0.683   1.911  -0.096  1.00  0.00     0.010 C   
ATOM     34  C20 UNL     1       1.287   0.755   0.737  1.00  0.00     0.017 C   
ATOM     35  C21 UNL     1       1.690   2.218  -1.229  1.00  0.00     0.017 C   
ATOM     36  C22 UNL     1       0.576   3.153   0.810  1.00  0.00     0.017 C   
ENDBRANCH  19  33
ENDBRANCH   3  19
TORSDOF 9
