REMARK SMILES COc1ccc(-n2cc([C@@H]([NH2+]Cc3ccc4c(c3)OCO4)C(C)C)nn2)cc1F
REMARK SMILES IDX 7 1 8 2 9 3 25 4 26 5 6 6 3 7 4 8 28 9 5 10 27 11 29 12 2 13
REMARK SMILES IDX 1 14 10 15 11 16 12 19 13 20 14 21 18 22 15 23 17 24 16 25
REMARK SMILES IDX 19 26 21 27 20 28 22 29 23 30 24 31
REMARK H PARENT 11 17 11 18
ROOT
ATOM     1   N1  UNL     1       1.799   0.738  -1.435  1.00  0.00    -0.181 N   
ATOM     2   C6  UNL     1       2.257  -0.059  -0.402  1.00  0.00     0.135 A   
ATOM     3   C7  UNL     1       1.138  -0.703   0.078  1.00  0.00     0.127 A   
ATOM     4   N3  UNL     1       0.045  -0.278  -0.625  1.00  0.00    -0.131 NA  
ATOM     5   N4  UNL     1       0.452   0.598  -1.528  1.00  0.00    -0.071 NA  
ENDROOT
BRANCH   1   6
ATOM     6   C5  UNL     1       2.528   1.598  -2.292  1.00  0.00     0.061 A   
ATOM     7   C2  UNL     1       3.941   3.324  -4.019  1.00  0.00     0.110 A   
ATOM     8   C3  UNL     1       2.559   3.186  -4.142  1.00  0.00     0.038 A   
ATOM     9   C21 UNL     1       4.599   2.590  -3.027  1.00  0.00     0.155 A   
ATOM     10  C4  UNL     1       1.854   2.328  -3.284  1.00  0.00     0.029 A   
ATOM     11  C20 UNL     1       3.913   1.733  -2.167  1.00  0.00     0.068 A   
ATOM     12  F1  UNL     1       5.928   2.698  -2.879  1.00  0.00    -0.204 F   
BRANCH   7  13
ATOM     13  O1  UNL     1       4.736   4.125  -4.791  1.00  0.00    -0.346 OA  
ATOM     14  C1  UNL     1       4.105   4.877  -5.819  1.00  0.00     0.203 C   
ENDBRANCH   7  13
ENDBRANCH   1   6
BRANCH   3  15
ATOM     15  C8  UNL     1       0.958  -1.679   1.198  1.00  0.00     0.117 C   
BRANCH  15  16
ATOM     16  N2  UNL     1      -0.425  -1.544   1.787  1.00  0.00     0.249 N   
ATOM     17  H8  UNL     1      -0.691  -2.380   2.318  1.00  0.00     0.199 HD  
ATOM     18  H9  UNL     1      -1.085  -1.482   0.997  1.00  0.00     0.199 HD  
BRANCH  16  19
ATOM     19  C9  UNL     1      -0.646  -0.342   2.638  1.00  0.00     0.164 C   
BRANCH  19  20
ATOM     20  C10 UNL     1      -2.075  -0.281   3.096  1.00  0.00    -0.002 A   
ATOM     21  C11 UNL     1      -3.056   0.336   2.283  1.00  0.00     0.012 A   
ATOM     22  C15 UNL     1      -2.458  -0.886   4.305  1.00  0.00     0.045 A   
ATOM     23  C12 UNL     1      -4.399   0.361   2.673  1.00  0.00     0.037 A   
ATOM     24  C14 UNL     1      -3.790  -0.844   4.659  1.00  0.00     0.109 A   
ATOM     25  C13 UNL     1      -4.734  -0.238   3.866  1.00  0.00     0.108 A   
ATOM     26  O2  UNL     1      -4.325  -1.378   5.787  1.00  0.00    -0.316 OA  
ATOM     27  O3  UNL     1      -5.981  -0.312   4.398  1.00  0.00    -0.316 OA  
ATOM     28  C16 UNL     1      -5.716  -1.017   5.629  1.00  0.00     0.337 C   
ENDBRANCH  19  20
ENDBRANCH  16  19
ENDBRANCH  15  16
BRANCH  15  29
ATOM     29  C17 UNL     1       1.170  -3.160   0.790  1.00  0.00     0.037 C   
ATOM     30  C18 UNL     1       2.622  -3.437   0.385  1.00  0.00     0.014 C   
ATOM     31  C19 UNL     1       0.223  -3.648  -0.312  1.00  0.00     0.014 C   
ENDBRANCH  15  29
ENDBRANCH   3  15
TORSDOF 7
