REMARK SMILES Cc1nn2cc[nH]c2c1Cn1cc([C@H](CC(C)C)[NH2+]Cc2ccc3c(c2)OCO3)nn1
REMARK SMILES IDX 11 1 12 2 13 3 30 4 31 5 10 7 9 8 2 9 3 10 4 11 8 12 5 13
REMARK SMILES IDX 7 14 6 15 1 16 14 18 15 19 16 20 17 21 18 22 19 23 20 26
REMARK SMILES IDX 21 27 22 28 26 29 23 30 25 31 24 32 27 33 29 34 28 35
REMARK H PARENT 12 6 7 17 19 24 19 25
ROOT
ATOM     1   N4  UNL     1       1.010  -1.435   2.060  1.00  0.00    -0.208 N   
ATOM     2   C8  UNL     1       0.816  -0.386   1.202  1.00  0.00     0.046 A   
ATOM     3   C9  UNL     1      -0.512  -0.064   1.369  1.00  0.00     0.127 A   
ATOM     4   N6  UNL     1      -1.051  -0.860   2.346  1.00  0.00    -0.132 NA  
ATOM     5   N7  UNL     1      -0.113  -1.697   2.758  1.00  0.00    -0.076 NA  
ATOM     6   H9  UNL     1       1.586  -0.043   0.524  1.00  0.00     0.083 HD  
ENDROOT
BRANCH   1   7
ATOM     7   C7  UNL     1       2.159  -2.325   2.132  1.00  0.00     0.175 C   
BRANCH   7   8
ATOM     8   C6  UNL     1       2.206  -3.149   0.899  1.00  0.00     0.032 A   
ATOM     9   C2  UNL     1       1.383  -4.271   0.538  1.00  0.00     0.064 A   
ATOM     10  N1  UNL     1       1.624  -4.718  -0.708  1.00  0.00    -0.180 NA  
ATOM     11  N2  UNL     1       2.634  -3.948  -1.133  1.00  0.00    -0.185 N   
ATOM     12  C5  UNL     1       2.988  -2.990  -0.207  1.00  0.00     0.120 A   
ATOM     13  C3  UNL     1       3.457  -3.830  -2.240  1.00  0.00     0.118 A   
ATOM     14  N3  UNL     1       3.992  -2.251  -0.741  1.00  0.00    -0.306 N   
ATOM     15  C4  UNL     1       4.300  -2.808  -1.984  1.00  0.00     0.091 A   
ATOM     16  C1  UNL     1       0.319  -4.921   1.351  1.00  0.00     0.069 C   
ATOM     17  H6  UNL     1       4.699  -1.716  -0.247  1.00  0.00     0.154 HD  
ENDBRANCH   7   8
ENDBRANCH   1   7
BRANCH   3  18
ATOM     18  C10 UNL     1      -1.387   0.874   0.607  1.00  0.00     0.114 C   
BRANCH  18  19
ATOM     19  C11 UNL     1      -1.680   2.144   1.431  1.00  0.00     0.064 C   
BRANCH  19  20
ATOM     20  C12 UNL     1      -2.539   3.226   0.743  1.00  0.00    -0.012 C   
ATOM     21  C13 UNL     1      -2.713   4.420   1.688  1.00  0.00     0.007 C   
ATOM     22  C14 UNL     1      -1.939   3.700  -0.580  1.00  0.00     0.007 C   
ENDBRANCH  19  20
ENDBRANCH  18  19
BRANCH  18  23
ATOM     23  N5  UNL     1      -2.695   0.206   0.246  1.00  0.00     0.249 N   
ATOM     24  H20 UNL     1      -3.138  -0.070   1.133  1.00  0.00     0.199 HD  
ATOM     25  H21 UNL     1      -3.317   0.872  -0.216  1.00  0.00     0.199 HD  
BRANCH  23  26
ATOM     26  C15 UNL     1      -2.605  -1.026  -0.601  1.00  0.00     0.164 C   
BRANCH  26  27
ATOM     27  C16 UNL     1      -1.943  -0.792  -1.930  1.00  0.00    -0.002 A   
ATOM     28  C17 UNL     1      -2.574  -0.001  -2.921  1.00  0.00     0.012 A   
ATOM     29  C21 UNL     1      -0.674  -1.341  -2.188  1.00  0.00     0.045 A   
ATOM     30  C18 UNL     1      -1.944   0.253  -4.144  1.00  0.00     0.037 A   
ATOM     31  C20 UNL     1      -0.082  -1.071  -3.403  1.00  0.00     0.109 A   
ATOM     32  C19 UNL     1      -0.698  -0.295  -4.353  1.00  0.00     0.108 A   
ATOM     33  O1  UNL     1       1.139  -1.512  -3.805  1.00  0.00    -0.316 OA  
ATOM     34  O2  UNL     1       0.056  -0.152  -5.474  1.00  0.00    -0.316 OA  
ATOM     35  C22 UNL     1       1.206  -0.958  -5.138  1.00  0.00     0.337 C   
ENDBRANCH  26  27
ENDBRANCH  23  26
ENDBRANCH  18  23
ENDBRANCH   3  18
TORSDOF 8
