REMARK SMILES Cc1ccc([C@@H](O)Cn2cc([C@H](CC(C)C)[NH2+]Cc3ccc4c(c3)OCO4)nn2)cc1C
REMARK SMILES IDX 9 1 10 2 11 3 28 4 29 5 8 7 6 8 5 9 2 10 3 11 31 12 4 13
REMARK SMILES IDX 30 14 1 15 32 16 7 17 12 19 13 20 14 21 15 22 16 23 17 24
REMARK SMILES IDX 18 27 19 28 20 29 24 30 21 31 23 32 22 33 25 34 27 35 26 36
REMARK H PARENT 10 6 7 18 17 25 17 26
ROOT
ATOM     1   N1  UNL     1       3.234   2.486  -0.214  1.00  0.00    -0.209 N   
ATOM     2   C8  UNL     1       2.131   2.437  -1.020  1.00  0.00     0.045 A   
ATOM     3   C9  UNL     1       1.086   2.300  -0.136  1.00  0.00     0.127 A   
ATOM     4   N3  UNL     1       1.571   2.319   1.147  1.00  0.00    -0.132 NA  
ATOM     5   N4  UNL     1       2.888   2.435   1.085  1.00  0.00    -0.076 NA  
ATOM     6   H10 UNL     1       2.199   2.439  -2.099  1.00  0.00     0.083 HD  
ENDROOT
BRANCH   1   7
ATOM     7   C7  UNL     1       4.620   2.439  -0.615  1.00  0.00     0.170 C   
BRANCH   7   8
ATOM     8   C6  UNL     1       5.294   1.101  -0.283  1.00  0.00     0.164 C   
BRANCH   8   9
ATOM     9   C5  UNL     1       4.527  -0.114  -0.774  1.00  0.00    -0.018 A   
ATOM     10  C2  UNL     1       3.060  -2.365  -1.650  1.00  0.00    -0.048 A   
ATOM     11  C3  UNL     1       3.587  -1.447  -2.570  1.00  0.00     0.004 A   
ATOM     12  C24 UNL     1       3.273  -2.159  -0.273  1.00  0.00    -0.048 A   
ATOM     13  C4  UNL     1       4.317  -0.338  -2.139  1.00  0.00     0.007 A   
ATOM     14  C23 UNL     1       4.003  -1.034   0.148  1.00  0.00     0.010 A   
ATOM     15  C1  UNL     1       2.318  -3.572  -2.158  1.00  0.00     0.044 C   
ATOM     16  C25 UNL     1       2.789  -3.150   0.752  1.00  0.00     0.044 C   
ENDBRANCH   8   9
BRANCH   8  17
ATOM     17  O1  UNL     1       6.599   1.090  -0.868  1.00  0.00    -0.387 OA  
ATOM     18  H7  UNL     1       6.916   0.168  -0.861  1.00  0.00     0.211 HD  
ENDBRANCH   8  17
ENDBRANCH   7   8
ENDBRANCH   1   7
BRANCH   3  19
ATOM     19  C10 UNL     1      -0.364   2.033  -0.371  1.00  0.00     0.114 C   
BRANCH  19  20
ATOM     20  C11 UNL     1      -1.213   3.307  -0.207  1.00  0.00     0.064 C   
BRANCH  20  21
ATOM     21  C12 UNL     1      -2.451   3.374  -1.128  1.00  0.00    -0.012 C   
ATOM     22  C13 UNL     1      -3.456   2.249  -0.891  1.00  0.00     0.007 C   
ATOM     23  C14 UNL     1      -3.148   4.728  -0.955  1.00  0.00     0.007 C   
ENDBRANCH  20  21
ENDBRANCH  19  20
BRANCH  19  24
ATOM     24  N2  UNL     1      -0.835   1.000   0.621  1.00  0.00     0.249 N   
ATOM     25  H21 UNL     1      -0.477   1.298   1.542  1.00  0.00     0.199 HD  
ATOM     26  H22 UNL     1      -1.854   0.982   0.709  1.00  0.00     0.199 HD  
BRANCH  24  27
ATOM     27  C15 UNL     1      -0.330  -0.381   0.379  1.00  0.00     0.164 C   
BRANCH  27  28
ATOM     28  C16 UNL     1      -0.764  -1.296   1.488  1.00  0.00    -0.002 A   
ATOM     29  C17 UNL     1       0.005  -1.385   2.675  1.00  0.00     0.012 A   
ATOM     30  C21 UNL     1      -1.960  -2.024   1.382  1.00  0.00     0.045 A   
ATOM     31  C18 UNL     1      -0.403  -2.199   3.736  1.00  0.00     0.037 A   
ATOM     32  C20 UNL     1      -2.333  -2.818   2.447  1.00  0.00     0.109 A   
ATOM     33  C19 UNL     1      -1.577  -2.904   3.591  1.00  0.00     0.108 A   
ATOM     34  O2  UNL     1      -3.455  -3.582   2.507  1.00  0.00    -0.316 OA  
ATOM     35  O3  UNL     1      -2.125  -3.738   4.511  1.00  0.00    -0.316 OA  
ATOM     36  C22 UNL     1      -3.311  -4.179   3.816  1.00  0.00     0.337 C   
ENDBRANCH  27  28
ENDBRANCH  24  27
ENDBRANCH  19  24
ENDBRANCH   3  19
TORSDOF 10
