REMARK SMILES Cc1ccc([C@H](O)Cn2cc([C@H](CC(C)C)[NH2+]Cc3ccc4c(c3)OCO4)nn2)cc1C
REMARK SMILES IDX 9 1 10 2 11 3 28 4 29 5 8 7 6 8 5 9 2 10 3 11 31 12 4 13
REMARK SMILES IDX 30 14 1 15 32 16 7 17 12 19 13 20 14 21 15 22 16 23 17 24
REMARK SMILES IDX 18 27 19 28 20 29 24 30 21 31 23 32 22 33 25 34 27 35 26 36
REMARK H PARENT 10 6 7 18 17 25 17 26
ROOT
ATOM     1   N1  UNL     1       2.249   2.808   0.696  1.00  0.00    -0.209 N   
ATOM     2   C8  UNL     1       1.021   2.654   0.117  1.00  0.00     0.045 A   
ATOM     3   C9  UNL     1       1.258   1.813  -0.949  1.00  0.00     0.127 A   
ATOM     4   N3  UNL     1       2.596   1.510  -0.989  1.00  0.00    -0.132 NA  
ATOM     5   N4  UNL     1       3.190   2.128   0.020  1.00  0.00    -0.076 NA  
ATOM     6   H10 UNL     1       0.126   3.092   0.537  1.00  0.00     0.083 HD  
ENDROOT
BRANCH   1   7
ATOM     7   C7  UNL     1       2.558   3.465   1.944  1.00  0.00     0.170 C   
BRANCH   7   8
ATOM     8   C6  UNL     1       2.971   2.491   3.055  1.00  0.00     0.164 C   
BRANCH   8   9
ATOM     9   C5  UNL     1       2.007   1.337   3.267  1.00  0.00    -0.018 A   
ATOM     10  C2  UNL     1       0.229  -0.828   3.654  1.00  0.00    -0.048 A   
ATOM     11  C3  UNL     1       1.570  -1.051   3.309  1.00  0.00     0.004 A   
ATOM     12  C24 UNL     1      -0.230   0.495   3.805  1.00  0.00    -0.048 A   
ATOM     13  C4  UNL     1       2.446   0.018   3.112  1.00  0.00     0.007 A   
ATOM     14  C23 UNL     1       0.669   1.562   3.627  1.00  0.00     0.010 A   
ATOM     15  C1  UNL     1      -0.678  -2.008   3.878  1.00  0.00     0.044 C   
ATOM     16  C25 UNL     1      -1.645   0.793   4.226  1.00  0.00     0.044 C   
ENDBRANCH   8   9
BRANCH   8  17
ATOM     17  O1  UNL     1       3.078   3.219   4.280  1.00  0.00    -0.387 OA  
ATOM     18  H7  UNL     1       3.204   2.568   4.995  1.00  0.00     0.211 HD  
ENDBRANCH   8  17
ENDBRANCH   7   8
ENDBRANCH   1   7
BRANCH   3  19
ATOM     19  C10 UNL     1       0.336   1.102  -1.883  1.00  0.00     0.114 C   
BRANCH  19  20
ATOM     20  C11 UNL     1      -1.128   1.574  -1.879  1.00  0.00     0.064 C   
BRANCH  20  21
ATOM     21  C12 UNL     1      -1.355   2.995  -2.443  1.00  0.00    -0.012 C   
ATOM     22  C13 UNL     1      -0.999   3.099  -3.927  1.00  0.00     0.007 C   
ATOM     23  C14 UNL     1      -2.819   3.401  -2.238  1.00  0.00     0.007 C   
ENDBRANCH  20  21
ENDBRANCH  19  20
BRANCH  19  24
ATOM     24  N2  UNL     1       0.372  -0.386  -1.607  1.00  0.00     0.249 N   
ATOM     25  H21 UNL     1      -0.235  -0.890  -2.261  1.00  0.00     0.199 HD  
ATOM     26  H22 UNL     1       1.331  -0.692  -1.821  1.00  0.00     0.199 HD  
BRANCH  24  27
ATOM     27  C15 UNL     1       0.092  -0.830  -0.209  1.00  0.00     0.164 C   
BRANCH  27  28
ATOM     28  C16 UNL     1       0.123  -2.330  -0.113  1.00  0.00    -0.002 A   
ATOM     29  C17 UNL     1       1.361  -3.006   0.015  1.00  0.00     0.012 A   
ATOM     30  C21 UNL     1      -1.069  -3.070  -0.185  1.00  0.00     0.045 A   
ATOM     31  C18 UNL     1       1.412  -4.402   0.085  1.00  0.00     0.037 A   
ATOM     32  C20 UNL     1      -0.983  -4.445  -0.110  1.00  0.00     0.109 A   
ATOM     33  C19 UNL     1       0.221  -5.091   0.022  1.00  0.00     0.108 A   
ATOM     34  O2  UNL     1      -2.033  -5.306  -0.154  1.00  0.00    -0.316 OA  
ATOM     35  O3  UNL     1       0.081  -6.441   0.081  1.00  0.00    -0.316 OA  
ATOM     36  C22 UNL     1      -1.353  -6.574  -0.011  1.00  0.00     0.337 C   
ENDBRANCH  27  28
ENDBRANCH  24  27
ENDBRANCH  19  24
ENDBRANCH   3  19
TORSDOF 10
