REMARK SMILES CC(C)C[C@H]([NH2+]Cc1ccc2c(c1)OCO2)c1cn(Cc2c[nH]nc2-c2ccccc2)nn1
REMARK SMILES IDX 17 1 18 2 19 3 32 4 33 5 5 7 4 8 2 9 1 10 3 11 6 12 7 15
REMARK SMILES IDX 8 16 9 17 13 18 10 19 12 20 11 21 14 22 16 23 15 24 20 25
REMARK SMILES IDX 21 26 22 27 25 28 23 29 24 30 26 32 27 33 31 34 28 35 30 36
REMARK SMILES IDX 29 37
REMARK H PARENT 18 6 6 13 6 14 23 31
ROOT
ATOM     1   C14 UNL     1      -1.456  -1.153   0.719  1.00  0.00     0.127 A   
ATOM     2   C15 UNL     1      -1.534  -0.050   1.539  1.00  0.00     0.046 A   
ATOM     3   N2  UNL     1      -1.115  -0.510   2.760  1.00  0.00    -0.208 N   
ATOM     4   N5  UNL     1      -0.904  -1.841   2.717  1.00  0.00    -0.076 NA  
ATOM     5   N6  UNL     1      -1.089  -2.242   1.470  1.00  0.00    -0.132 NA  
ATOM     6   H20 UNL     1      -1.773   0.992   1.366  1.00  0.00     0.083 HD  
ENDROOT
BRANCH   1   7
ATOM     7   C5  UNL     1      -1.619  -1.298  -0.761  1.00  0.00     0.114 C   
BRANCH   7   8
ATOM     8   C4  UNL     1      -3.091  -1.296  -1.213  1.00  0.00     0.064 C   
BRANCH   8   9
ATOM     9   C2  UNL     1      -3.850   0.034  -1.008  1.00  0.00    -0.012 C   
ATOM     10  C1  UNL     1      -5.294  -0.116  -1.503  1.00  0.00     0.007 C   
ATOM     11  C3  UNL     1      -3.180   1.207  -1.727  1.00  0.00     0.007 C   
ENDBRANCH   8   9
ENDBRANCH   7   8
BRANCH   7  12
ATOM     12  N1  UNL     1      -0.989  -2.615  -1.171  1.00  0.00     0.249 N   
ATOM     13  H11 UNL     1      -1.579  -3.374  -0.809  1.00  0.00     0.199 HD  
ATOM     14  H12 UNL     1      -0.125  -2.696  -0.614  1.00  0.00     0.199 HD  
BRANCH  12  15
ATOM     15  C6  UNL     1      -0.653  -2.833  -2.599  1.00  0.00     0.164 C   
BRANCH  15  16
ATOM     16  C7  UNL     1       0.520  -2.015  -3.060  1.00  0.00    -0.002 A   
ATOM     17  C8  UNL     1       0.322  -0.828  -3.804  1.00  0.00     0.012 A   
ATOM     18  C12 UNL     1       1.827  -2.413  -2.727  1.00  0.00     0.045 A   
ATOM     19  C9  UNL     1       1.407  -0.046  -4.213  1.00  0.00     0.037 A   
ATOM     20  C11 UNL     1       2.874  -1.618  -3.144  1.00  0.00     0.109 A   
ATOM     21  C10 UNL     1       2.670  -0.469  -3.866  1.00  0.00     0.108 A   
ATOM     22  O1  UNL     1       4.187  -1.842  -2.889  1.00  0.00    -0.316 OA  
ATOM     23  O2  UNL     1       3.829   0.170  -4.161  1.00  0.00    -0.316 OA  
ATOM     24  C13 UNL     1       4.794  -0.709  -3.548  1.00  0.00     0.337 C   
ENDBRANCH  15  16
ENDBRANCH  12  15
ENDBRANCH   7  12
ENDBRANCH   1   7
BRANCH   3  25
ATOM     25  C16 UNL     1      -0.857   0.229   3.989  1.00  0.00     0.173 C   
BRANCH  25  26
ATOM     26  C17 UNL     1      -0.285   1.587   3.740  1.00  0.00     0.015 A   
ATOM     27  C18 UNL     1      -0.737   2.781   4.268  1.00  0.00     0.099 A   
ATOM     28  C19 UNL     1       0.825   1.961   2.911  1.00  0.00     0.095 A   
ATOM     29  N3  UNL     1       0.061   3.756   3.752  1.00  0.00    -0.245 N   
ATOM     30  N4  UNL     1       0.973   3.292   2.889  1.00  0.00    -0.184 NA  
ATOM     31  H24 UNL     1       0.031   4.756   3.927  1.00  0.00     0.175 HD  
BRANCH  28  32
ATOM     32  C20 UNL     1       1.692   1.107   2.100  1.00  0.00     0.002 A   
ATOM     33  C21 UNL     1       1.938   1.436   0.760  1.00  0.00     0.010 A   
ATOM     34  C25 UNL     1       2.280  -0.046   2.635  1.00  0.00     0.010 A   
ATOM     35  C22 UNL     1       2.736   0.615  -0.038  1.00  0.00     0.001 A   
ATOM     36  C24 UNL     1       3.080  -0.868   1.836  1.00  0.00     0.001 A   
ATOM     37  C23 UNL     1       3.303  -0.540   0.500  1.00  0.00     0.000 A   
ENDBRANCH  28  32
ENDBRANCH  25  26
ENDBRANCH   3  25
TORSDOF 9
