REMARK SMILES CCn1c(-n2cc([C@@H]([NH2+]Cc3ccc4c(c3)OCO4)C3CCCC3)nn2)nc2ccccc21
REMARK SMILES IDX 5 1 6 2 7 3 25 4 26 5 4 6 3 7 33 8 27 9 28 10 32 11 29 12
REMARK SMILES IDX 31 13 30 14 2 15 1 16 8 17 9 18 10 21 11 22 12 23 16 24
REMARK SMILES IDX 13 25 15 26 14 27 17 28 19 29 18 30 20 31 21 32 24 33 22 34
REMARK SMILES IDX 23 35
REMARK H PARENT 9 19 9 20
ROOT
ATOM     1   N2  UNL     1       1.309  -0.753  -0.339  1.00  0.00    -0.149 N   
ATOM     2   C4  UNL     1       0.065  -0.691  -0.932  1.00  0.00     0.138 A   
ATOM     3   C5  UNL     1       0.163   0.327  -1.849  1.00  0.00     0.128 A   
ATOM     4   N4  UNL     1       1.444   0.811  -1.844  1.00  0.00    -0.131 NA  
ATOM     5   N5  UNL     1       2.133   0.139  -0.934  1.00  0.00    -0.068 NA  
ENDROOT
BRANCH   1   6
ATOM     6   C3  UNL     1       1.702  -1.512   0.756  1.00  0.00     0.215 A   
ATOM     7   N1  UNL     1       2.940  -1.547   1.360  1.00  0.00    -0.270 N   
ATOM     8   C25 UNL     1       2.834  -2.371   2.466  1.00  0.00     0.061 A   
ATOM     9   N6  UNL     1       0.838  -2.291   1.379  1.00  0.00    -0.215 NA  
ATOM     10  C20 UNL     1       1.518  -2.822   2.442  1.00  0.00     0.088 A   
ATOM     11  C24 UNL     1       3.741  -2.757   3.463  1.00  0.00     0.026 A   
ATOM     12  C21 UNL     1       1.065  -3.697   3.440  1.00  0.00     0.030 A   
ATOM     13  C23 UNL     1       3.272  -3.631   4.451  1.00  0.00     0.002 A   
ATOM     14  C22 UNL     1       1.956  -4.095   4.443  1.00  0.00     0.002 A   
BRANCH   7  15
ATOM     15  C2  UNL     1       4.170  -0.888   0.957  1.00  0.00     0.111 C   
ATOM     16  C1  UNL     1       4.317   0.495   1.567  1.00  0.00     0.025 C   
ENDBRANCH   7  15
ENDBRANCH   1   6
BRANCH   3  17
ATOM     17  C6  UNL     1      -0.877   1.008  -2.678  1.00  0.00     0.117 C   
BRANCH  17  18
ATOM     18  N3  UNL     1      -0.757   2.507  -2.460  1.00  0.00     0.249 N   
ATOM     19  H8  UNL     1      -0.919   3.018  -3.332  1.00  0.00     0.199 HD  
ATOM     20  H9  UNL     1       0.232   2.683  -2.221  1.00  0.00     0.199 HD  
BRANCH  18  21
ATOM     21  C7  UNL     1      -1.618   3.100  -1.392  1.00  0.00     0.164 C   
BRANCH  21  22
ATOM     22  C8  UNL     1      -1.444   2.481  -0.033  1.00  0.00    -0.002 A   
ATOM     23  C9  UNL     1      -2.493   1.720   0.539  1.00  0.00     0.012 A   
ATOM     24  C13 UNL     1      -0.230   2.613   0.666  1.00  0.00     0.045 A   
ATOM     25  C10 UNL     1      -2.331   1.080   1.772  1.00  0.00     0.037 A   
ATOM     26  C12 UNL     1      -0.098   1.956   1.873  1.00  0.00     0.109 A   
ATOM     27  C11 UNL     1      -1.118   1.210   2.410  1.00  0.00     0.108 A   
ATOM     28  O1  UNL     1       1.019   1.938   2.647  1.00  0.00    -0.316 OA  
ATOM     29  O2  UNL     1      -0.779   0.643   3.596  1.00  0.00    -0.316 OA  
ATOM     30  C14 UNL     1       0.582   1.099   3.742  1.00  0.00     0.337 C   
ENDBRANCH  21  22
ENDBRANCH  18  21
ENDBRANCH  17  18
BRANCH  17  31
ATOM     31  C15 UNL     1      -0.710   0.709  -4.180  1.00  0.00     0.043 C   
ATOM     32  C16 UNL     1      -1.793   1.339  -5.067  1.00  0.00     0.010 C   
ATOM     33  C19 UNL     1      -0.847  -0.778  -4.520  1.00  0.00     0.010 C   
ATOM     34  C17 UNL     1      -1.846   0.479  -6.330  1.00  0.00     0.001 C   
ATOM     35  C18 UNL     1      -1.038  -0.779  -6.029  1.00  0.00     0.001 C   
ENDBRANCH  17  31
ENDBRANCH   3  17
TORSDOF 7
