REMARK SMILES CCn1nccc1CCn1cc([C@H](CC(C)C)[NH2+]Cc2ccc3c(c2)OCO3)nn1
REMARK SMILES IDX 10 1 11 2 12 3 29 4 30 5 9 7 8 8 7 9 3 10 4 11 5 12 6 13
REMARK SMILES IDX 2 14 1 15 13 16 14 17 15 18 16 19 17 20 18 21 19 24 20 25
REMARK SMILES IDX 21 26 25 27 22 28 24 29 23 30 26 31 28 32 27 33
REMARK H PARENT 11 6 18 22 18 23
ROOT
ATOM     1   N3  UNL     1      -0.165   1.307  -3.157  1.00  0.00    -0.212 N   
ATOM     2   C8  UNL     1      -0.575   1.825  -1.961  1.00  0.00     0.045 A   
ATOM     3   C9  UNL     1       0.575   1.861  -1.204  1.00  0.00     0.127 A   
ATOM     4   N5  UNL     1       1.623   1.396  -1.955  1.00  0.00    -0.132 NA  
ATOM     5   N6  UNL     1       1.161   1.078  -3.154  1.00  0.00    -0.076 NA  
ATOM     6   H12 UNL     1      -1.609   2.061  -1.754  1.00  0.00     0.083 HD  
ENDROOT
BRANCH   1   7
ATOM     7   C7  UNL     1      -0.990   0.877  -4.268  1.00  0.00     0.140 C   
BRANCH   7   8
ATOM     8   C6  UNL     1      -1.076  -0.650  -4.403  1.00  0.00     0.074 C   
BRANCH   8   9
ATOM     9   C5  UNL     1      -1.492  -1.307  -3.122  1.00  0.00     0.031 A   
ATOM     10  N1  UNL     1      -0.640  -1.991  -2.283  1.00  0.00    -0.230 N   
ATOM     11  N2  UNL     1      -1.208  -2.285  -1.093  1.00  0.00    -0.190 NA  
ATOM     12  C3  UNL     1      -2.501  -2.006  -1.282  1.00  0.00     0.133 A   
ATOM     13  C4  UNL     1      -2.732  -1.375  -2.516  1.00  0.00     0.042 A   
BRANCH  10  14
ATOM     14  C2  UNL     1       0.737  -2.399  -2.516  1.00  0.00     0.129 C   
ATOM     15  C1  UNL     1       0.818  -3.757  -3.190  1.00  0.00     0.027 C   
ENDBRANCH  10  14
ENDBRANCH   8   9
ENDBRANCH   7   8
ENDBRANCH   1   7
BRANCH   3  16
ATOM     16  C10 UNL     1       0.792   2.216   0.228  1.00  0.00     0.114 C   
BRANCH  16  17
ATOM     17  C11 UNL     1       1.613   3.509   0.400  1.00  0.00     0.064 C   
BRANCH  17  18
ATOM     18  C12 UNL     1       0.954   4.784  -0.173  1.00  0.00    -0.012 C   
ATOM     19  C13 UNL     1       1.899   5.976  -0.000  1.00  0.00     0.007 C   
ATOM     20  C14 UNL     1      -0.391   5.092   0.488  1.00  0.00     0.007 C   
ENDBRANCH  17  18
ENDBRANCH  16  17
BRANCH  16  21
ATOM     21  N4  UNL     1       1.566   1.106   0.910  1.00  0.00     0.249 N   
ATOM     22  H23 UNL     1       1.977   1.446   1.784  1.00  0.00     0.199 HD  
ATOM     23  H24 UNL     1       2.345   0.869   0.280  1.00  0.00     0.199 HD  
BRANCH  21  24
ATOM     24  C15 UNL     1       0.797  -0.146   1.188  1.00  0.00     0.164 C   
BRANCH  24  25
ATOM     25  C16 UNL     1      -0.196   0.029   2.304  1.00  0.00    -0.002 A   
ATOM     26  C17 UNL     1      -1.583   0.040   2.027  1.00  0.00     0.012 A   
ATOM     27  C21 UNL     1       0.246   0.206   3.627  1.00  0.00     0.045 A   
ATOM     28  C18 UNL     1      -2.521   0.232   3.047  1.00  0.00     0.037 A   
ATOM     29  C20 UNL     1      -0.703   0.394   4.609  1.00  0.00     0.109 A   
ATOM     30  C19 UNL     1      -2.048   0.407   4.329  1.00  0.00     0.108 A   
ATOM     31  O1  UNL     1      -0.445   0.585   5.930  1.00  0.00    -0.316 OA  
ATOM     32  O2  UNL     1      -2.807   0.604   5.438  1.00  0.00    -0.316 OA  
ATOM     33  C22 UNL     1      -1.789   0.675   6.460  1.00  0.00     0.337 C   
ENDBRANCH  24  25
ENDBRANCH  21  24
ENDBRANCH  16  21
ENDBRANCH   3  16
TORSDOF 10
