REMARK SMILES CC(C)C[C@H]([NH2+]Cc1ccc2c(c1)OCO2)c1cn(CCc2ccc(Cl)o2)nn1
REMARK SMILES IDX 17 1 18 2 19 3 28 4 29 5 5 7 4 8 2 9 1 10 3 11 6 12 7 15
REMARK SMILES IDX 8 16 9 17 13 18 10 19 12 20 11 21 14 22 16 23 15 24 20 25
REMARK SMILES IDX 21 26 22 27 23 28 27 29 24 30 25 31 26 32
REMARK H PARENT 18 6 6 13 6 14
ROOT
ATOM     1   C14 UNL     1      -2.397   0.817   0.039  1.00  0.00     0.127 A   
ATOM     2   C15 UNL     1      -2.877   1.876  -0.700  1.00  0.00     0.045 A   
ATOM     3   N2  UNL     1      -2.888   2.913   0.189  1.00  0.00    -0.212 N   
ATOM     4   N3  UNL     1      -2.501   2.508   1.412  1.00  0.00    -0.076 NA  
ATOM     5   N4  UNL     1      -2.192   1.225   1.333  1.00  0.00    -0.132 NA  
ATOM     6   H20 UNL     1      -3.135   2.001  -1.742  1.00  0.00     0.083 HD  
ENDROOT
BRANCH   1   7
ATOM     7   C5  UNL     1      -1.996  -0.560  -0.364  1.00  0.00     0.114 C   
BRANCH   7   8
ATOM     8   C4  UNL     1      -3.005  -1.632   0.086  1.00  0.00     0.064 C   
BRANCH   8   9
ATOM     9   C2  UNL     1      -4.413  -1.507  -0.535  1.00  0.00    -0.012 C   
ATOM     10  C1  UNL     1      -4.390  -1.621  -2.060  1.00  0.00     0.007 C   
ATOM     11  C3  UNL     1      -5.331  -2.584   0.049  1.00  0.00     0.007 C   
ENDBRANCH   8   9
ENDBRANCH   7   8
BRANCH   7  12
ATOM     12  N1  UNL     1      -0.671  -0.900   0.279  1.00  0.00     0.249 N   
ATOM     13  H11 UNL     1      -0.480  -1.905   0.236  1.00  0.00     0.199 HD  
ATOM     14  H12 UNL     1      -0.755  -0.659   1.278  1.00  0.00     0.199 HD  
BRANCH  12  15
ATOM     15  C6  UNL     1       0.503  -0.154  -0.259  1.00  0.00     0.164 C   
BRANCH  15  16
ATOM     16  C7  UNL     1       1.749  -0.529   0.491  1.00  0.00    -0.002 A   
ATOM     17  C8  UNL     1       2.094   0.157   1.681  1.00  0.00     0.012 A   
ATOM     18  C12 UNL     1       2.549  -1.597   0.050  1.00  0.00     0.045 A   
ATOM     19  C9  UNL     1       3.227  -0.206   2.416  1.00  0.00     0.037 A   
ATOM     20  C11 UNL     1       3.658  -1.929   0.799  1.00  0.00     0.109 A   
ATOM     21  C10 UNL     1       3.988  -1.254   1.948  1.00  0.00     0.108 A   
ATOM     22  O1  UNL     1       4.532  -2.930   0.515  1.00  0.00    -0.316 OA  
ATOM     23  O2  UNL     1       5.114  -1.743   2.531  1.00  0.00    -0.316 OA  
ATOM     24  C13 UNL     1       5.470  -2.792   1.606  1.00  0.00     0.337 C   
ENDBRANCH  15  16
ENDBRANCH  12  15
ENDBRANCH   7  12
ENDBRANCH   1   7
BRANCH   3  25
ATOM     25  C16 UNL     1      -3.169   4.311  -0.068  1.00  0.00     0.141 C   
BRANCH  25  26
ATOM     26  C17 UNL     1      -1.903   5.166  -0.138  1.00  0.00     0.083 C   
BRANCH  26  27
ATOM     27  C18 UNL     1      -1.094   4.891  -1.359  1.00  0.00     0.062 A   
ATOM     28  C19 UNL     1      -0.863   5.596  -2.521  1.00  0.00     0.033 A   
ATOM     29  O3  UNL     1      -0.408   3.713  -1.385  1.00  0.00    -0.303 OA  
ATOM     30  C20 UNL     1       0.011   4.798  -3.301  1.00  0.00     0.049 A   
ATOM     31  C21 UNL     1       0.261   3.658  -2.571  1.00  0.00     0.147 A   
ATOM     32  CL1 UNL     1       1.236   2.321  -3.031  1.00  0.00    -0.056 Cl  
ENDBRANCH  26  27
ENDBRANCH  25  26
ENDBRANCH   3  25
TORSDOF 9
