REMARK SMILES c1cc2c(cc1C[NH2+][C@H](c1cn(Cc3cc(C4CC4)no3)nn1)C1CCCC1)OCO2
REMARK SMILES IDX 10 1 11 2 12 3 22 4 23 5 9 7 8 8 7 11 6 12 1 13 2 14 3 15
REMARK SMILES IDX 5 16 4 17 31 18 29 19 30 20 24 21 25 22 28 23 26 24 27 25
REMARK SMILES IDX 13 26 14 27 15 28 21 29 16 30 20 31 17 32 18 33 19 34
REMARK H PARENT 11 6 8 9 8 10
ROOT
ATOM     1   C9  UNL     1      -0.019   0.301  -0.747  1.00  0.00     0.127 A   
ATOM     2   C10 UNL     1       0.015   1.588  -0.258  1.00  0.00     0.046 A   
ATOM     3   N2  UNL     1       1.311   1.983  -0.452  1.00  0.00    -0.206 N   
ATOM     4   N4  UNL     1       2.008   1.032  -1.104  1.00  0.00    -0.076 NA  
ATOM     5   N5  UNL     1       1.211  -0.011  -1.270  1.00  0.00    -0.132 NA  
ATOM     6   H9  UNL     1      -0.714   2.219   0.233  1.00  0.00     0.083 HD  
ENDROOT
BRANCH   1   7
ATOM     7   C8  UNL     1      -1.125  -0.704  -0.806  1.00  0.00     0.117 C   
BRANCH   7   8
ATOM     8   N1  UNL     1      -0.940  -1.589  -2.015  1.00  0.00     0.249 N   
ATOM     9   H6  UNL     1       0.049  -1.882  -2.018  1.00  0.00     0.199 HD  
ATOM     10  H7  UNL     1      -1.492  -2.449  -1.951  1.00  0.00     0.199 HD  
BRANCH   8  11
ATOM     11  C7  UNL     1      -1.216  -0.942  -3.328  1.00  0.00     0.164 C   
BRANCH  11  12
ATOM     12  C6  UNL     1      -0.918  -1.893  -4.453  1.00  0.00    -0.002 A   
ATOM     13  C1  UNL     1       0.400  -2.005  -4.957  1.00  0.00     0.012 A   
ATOM     14  C2  UNL     1       0.705  -2.914  -5.976  1.00  0.00     0.037 A   
ATOM     15  C3  UNL     1      -0.317  -3.696  -6.465  1.00  0.00     0.108 A   
ATOM     16  C5  UNL     1      -1.931  -2.714  -4.974  1.00  0.00     0.045 A   
ATOM     17  C4  UNL     1      -1.597  -3.599  -5.978  1.00  0.00     0.109 A   
ATOM     18  O3  UNL     1      -0.205  -4.629  -7.446  1.00  0.00    -0.316 OA  
ATOM     19  O2  UNL     1      -2.452  -4.460  -6.590  1.00  0.00    -0.316 OA  
ATOM     20  C23 UNL     1      -1.567  -5.096  -7.540  1.00  0.00     0.337 C   
ENDBRANCH  11  12
ENDBRANCH   8  11
ENDBRANCH   7   8
BRANCH   7  21
ATOM     21  C18 UNL     1      -1.163  -1.601   0.448  1.00  0.00     0.043 C   
ATOM     22  C19 UNL     1      -1.414  -0.832   1.749  1.00  0.00     0.010 C   
ATOM     23  C22 UNL     1      -2.305  -2.628   0.451  1.00  0.00     0.010 C   
ATOM     24  C20 UNL     1      -1.789  -1.927   2.734  1.00  0.00     0.001 C   
ATOM     25  C21 UNL     1      -2.611  -2.919   1.921  1.00  0.00     0.001 C   
ENDBRANCH   7  21
ENDBRANCH   1   7
BRANCH   3  26
ATOM     26  C11 UNL     1       1.940   3.234  -0.062  1.00  0.00     0.198 C   
BRANCH  26  27
ATOM     27  C12 UNL     1       2.229   3.225   1.386  1.00  0.00     0.106 A   
ATOM     28  C13 UNL     1       3.362   3.049   2.144  1.00  0.00     0.060 A   
ATOM     29  O1  UNL     1       1.165   3.428   2.211  1.00  0.00    -0.216 OA  
ATOM     30  C14 UNL     1       2.901   3.149   3.472  1.00  0.00     0.074 A   
ATOM     31  N3  UNL     1       1.584   3.365   3.526  1.00  0.00    -0.134 NA  
BRANCH  30  32
ATOM     32  C15 UNL     1       3.764   3.024   4.758  1.00  0.00     0.041 C   
ATOM     33  C16 UNL     1       4.862   1.995   4.836  1.00  0.00     0.011 C   
ATOM     34  C17 UNL     1       5.207   3.456   4.760  1.00  0.00     0.011 C   
ENDBRANCH  30  32
ENDBRANCH  26  27
ENDBRANCH   3  26
TORSDOF 8
