REMARK SMILES Cc1c[nH]c(C)c1[C@@H](CO)n1cc([C@@H]([NH2+]Cc2ccc3c(c2)OCO3)C(C)(C)C)nn1
REMARK SMILES IDX 11 1 12 2 13 3 30 4 31 5 8 7 7 8 2 9 3 10 4 11 5 12 1 13
REMARK SMILES IDX 6 15 9 16 10 17 14 19 15 20 16 23 17 24 18 25 22 26 19 27
REMARK SMILES IDX 21 28 20 29 23 30 25 31 24 32 26 33 27 34 28 35 29 36
REMARK H PARENT 12 6 4 14 10 18 15 21 15 22
ROOT
ATOM     1   N2  UNL     1      -0.835   0.473   1.168  1.00  0.00    -0.202 N   
ATOM     2   C9  UNL     1      -0.607   0.529  -0.184  1.00  0.00     0.046 A   
ATOM     3   C10 UNL     1      -1.533  -0.338  -0.718  1.00  0.00     0.127 A   
ATOM     4   N4  UNL     1      -2.278  -0.882   0.296  1.00  0.00    -0.132 NA  
ATOM     5   N5  UNL     1      -1.858  -0.368   1.439  1.00  0.00    -0.075 NA  
ATOM     6   H13 UNL     1       0.177   1.139  -0.608  1.00  0.00     0.083 HD  
ENDROOT
BRANCH   1   7
ATOM     7   C7  UNL     1      -0.103   1.187   2.216  1.00  0.00     0.157 C   
BRANCH   7   8
ATOM     8   C6  UNL     1      -0.620   2.608   2.341  1.00  0.00    -0.002 A   
ATOM     9   C2  UNL     1       0.173   3.796   2.158  1.00  0.00    -0.030 A   
ATOM     10  C3  UNL     1      -0.661   4.873   2.363  1.00  0.00     0.075 A   
ATOM     11  N1  UNL     1      -1.908   4.408   2.667  1.00  0.00    -0.324 N   
ATOM     12  C4  UNL     1      -1.906   3.035   2.661  1.00  0.00     0.009 A   
ATOM     13  C1  UNL     1       1.622   3.873   1.822  1.00  0.00     0.046 C   
ATOM     14  H5  UNL     1      -2.708   4.992   2.876  1.00  0.00     0.152 HD  
ATOM     15  C5  UNL     1      -3.157   2.283   2.957  1.00  0.00     0.062 C   
ENDBRANCH   7   8
BRANCH   7  16
ATOM     16  C8  UNL     1      -0.051   0.448   3.564  1.00  0.00     0.186 C   
BRANCH  16  17
ATOM     17  O1  UNL     1       0.850  -0.663   3.494  1.00  0.00    -0.394 OA  
ATOM     18  H12 UNL     1       0.891  -1.048   4.390  1.00  0.00     0.210 HD  
ENDBRANCH  16  17
ENDBRANCH   7  16
ENDBRANCH   1   7
BRANCH   3  19
ATOM     19  C11 UNL     1      -1.748  -0.824  -2.117  1.00  0.00     0.120 C   
BRANCH  19  20
ATOM     20  N3  UNL     1      -2.032  -2.317  -2.044  1.00  0.00     0.250 N   
ATOM     21  H15 UNL     1      -2.352  -2.489  -1.077  1.00  0.00     0.199 HD  
ATOM     22  H16 UNL     1      -2.824  -2.579  -2.635  1.00  0.00     0.199 HD  
BRANCH  20  23
ATOM     23  C12 UNL     1      -0.888  -3.229  -2.326  1.00  0.00     0.164 C   
BRANCH  23  24
ATOM     24  C13 UNL     1       0.323  -3.005  -1.462  1.00  0.00    -0.002 A   
ATOM     25  C14 UNL     1       0.272  -3.233  -0.065  1.00  0.00     0.012 A   
ATOM     26  C18 UNL     1       1.516  -2.538  -2.038  1.00  0.00     0.045 A   
ATOM     27  C15 UNL     1       1.384  -2.985   0.748  1.00  0.00     0.037 A   
ATOM     28  C17 UNL     1       2.596  -2.310  -1.210  1.00  0.00     0.109 A   
ATOM     29  C16 UNL     1       2.533  -2.528   0.144  1.00  0.00     0.108 A   
ATOM     30  O2  UNL     1       3.812  -1.851  -1.607  1.00  0.00    -0.316 OA  
ATOM     31  O3  UNL     1       3.704  -2.240   0.770  1.00  0.00    -0.316 OA  
ATOM     32  C19 UNL     1       4.524  -1.842  -0.349  1.00  0.00     0.337 C   
ENDBRANCH  23  24
ENDBRANCH  20  23
ENDBRANCH  19  20
BRANCH  19  33
ATOM     33  C20 UNL     1      -2.890  -0.079  -2.892  1.00  0.00     0.010 C   
ATOM     34  C21 UNL     1      -2.583   1.436  -2.954  1.00  0.00     0.017 C   
ATOM     35  C22 UNL     1      -2.958  -0.586  -4.352  1.00  0.00     0.017 C   
ATOM     36  C23 UNL     1      -4.277  -0.264  -2.245  1.00  0.00     0.017 C   
ENDBRANCH  19  33
ENDBRANCH   3  19
TORSDOF 9
