REMARK SMILES Cc1c[nH]c(C)c1[C@H](CO)n1cc([C@@H]([NH2+]Cc2ccc3c(c2)OCO3)C(C)(C)C)nn1
REMARK SMILES IDX 11 1 12 2 13 3 30 4 31 5 8 7 7 8 2 9 3 10 4 11 5 12 1 13
REMARK SMILES IDX 6 15 9 16 10 17 14 19 15 20 16 23 17 24 18 25 22 26 19 27
REMARK SMILES IDX 21 28 20 29 23 30 25 31 24 32 26 33 27 34 28 35 29 36
REMARK H PARENT 12 6 4 14 10 18 15 21 15 22
ROOT
ATOM     1   N2  UNL     1      -0.689   2.429  -0.196  1.00  0.00    -0.202 N   
ATOM     2   C9  UNL     1      -1.128   1.459   0.670  1.00  0.00     0.046 A   
ATOM     3   C10 UNL     1       0.009   0.755   0.995  1.00  0.00     0.127 A   
ATOM     4   N4  UNL     1       1.077   1.294   0.324  1.00  0.00    -0.132 NA  
ATOM     5   N5  UNL     1       0.641   2.314  -0.397  1.00  0.00    -0.075 NA  
ATOM     6   H13 UNL     1      -2.170   1.365   0.943  1.00  0.00     0.083 HD  
ENDROOT
BRANCH   1   7
ATOM     7   C7  UNL     1      -1.489   3.463  -0.847  1.00  0.00     0.157 C   
BRANCH   7   8
ATOM     8   C6  UNL     1      -2.359   2.848  -1.934  1.00  0.00    -0.002 A   
ATOM     9   C2  UNL     1      -1.946   2.070  -3.074  1.00  0.00    -0.030 A   
ATOM     10  C3  UNL     1      -3.093   1.750  -3.772  1.00  0.00     0.075 A   
ATOM     11  N1  UNL     1      -4.168   2.297  -3.135  1.00  0.00    -0.324 N   
ATOM     12  C4  UNL     1      -3.744   2.967  -2.016  1.00  0.00     0.009 A   
ATOM     13  C1  UNL     1      -0.571   1.668  -3.474  1.00  0.00     0.046 C   
ATOM     14  H5  UNL     1      -5.128   2.228  -3.453  1.00  0.00     0.152 HD  
ATOM     15  C5  UNL     1      -4.715   3.675  -1.136  1.00  0.00     0.062 C   
ENDBRANCH   7   8
BRANCH   7  16
ATOM     16  C8  UNL     1      -0.671   4.665  -1.347  1.00  0.00     0.186 C   
BRANCH  16  17
ATOM     17  O1  UNL     1      -1.516   5.772  -1.673  1.00  0.00    -0.394 OA  
ATOM     18  H12 UNL     1      -2.021   5.528  -2.470  1.00  0.00     0.210 HD  
ENDBRANCH  16  17
ENDBRANCH   7  16
ENDBRANCH   1   7
BRANCH   3  19
ATOM     19  C11 UNL     1       0.209  -0.470   1.837  1.00  0.00     0.120 C   
BRANCH  19  20
ATOM     20  N3  UNL     1       1.256  -1.341   1.183  1.00  0.00     0.250 N   
ATOM     21  H15 UNL     1       1.625  -2.053   1.819  1.00  0.00     0.199 HD  
ATOM     22  H16 UNL     1       2.049  -0.726   0.946  1.00  0.00     0.199 HD  
BRANCH  20  23
ATOM     23  C12 UNL     1       0.831  -2.010  -0.079  1.00  0.00     0.164 C   
BRANCH  23  24
ATOM     24  C13 UNL     1       1.955  -2.835  -0.637  1.00  0.00    -0.002 A   
ATOM     25  C14 UNL     1       2.960  -2.225  -1.425  1.00  0.00     0.012 A   
ATOM     26  C18 UNL     1       2.046  -4.204  -0.335  1.00  0.00     0.045 A   
ATOM     27  C15 UNL     1       4.037  -2.970  -1.915  1.00  0.00     0.037 A   
ATOM     28  C17 UNL     1       3.122  -4.908  -0.834  1.00  0.00     0.109 A   
ATOM     29  C16 UNL     1       4.089  -4.309  -1.602  1.00  0.00     0.108 A   
ATOM     30  O2  UNL     1       3.360  -6.230  -0.634  1.00  0.00    -0.316 OA  
ATOM     31  O3  UNL     1       5.058  -5.181  -1.986  1.00  0.00    -0.316 OA  
ATOM     32  C19 UNL     1       4.583  -6.404  -1.386  1.00  0.00     0.337 C   
ENDBRANCH  23  24
ENDBRANCH  20  23
ENDBRANCH  19  20
BRANCH  19  33
ATOM     33  C20 UNL     1       0.601  -0.167   3.325  1.00  0.00     0.010 C   
ATOM     34  C21 UNL     1       1.965   0.541   3.449  1.00  0.00     0.017 C   
ATOM     35  C22 UNL     1      -0.473   0.728   3.984  1.00  0.00     0.017 C   
ATOM     36  C23 UNL     1       0.660  -1.476   4.146  1.00  0.00     0.017 C   
ENDBRANCH  19  33
ENDBRANCH   3  19
TORSDOF 9
