REMARK SMILES Cc1ccc(F)c(CCn2cc([C@@H]([NH2+]Cc3ccc4c(c3)OCO4)C(C)C)nn2)c1
REMARK SMILES IDX 10 1 11 2 12 3 28 4 29 5 9 7 8 8 7 9 2 10 3 11 30 12 4 13
REMARK SMILES IDX 5 14 1 15 6 16 13 17 14 18 15 21 16 22 17 23 21 24 18 25
REMARK SMILES IDX 20 26 19 27 22 28 24 29 23 30 25 31 26 32 27 33
REMARK H PARENT 11 6 14 19 14 20
ROOT
ATOM     1   N1  UNL     1      -1.581   1.192  -2.681  1.00  0.00    -0.212 N   
ATOM     2   C9  UNL     1      -1.502   0.819  -1.369  1.00  0.00     0.045 A   
ATOM     3   C10 UNL     1      -0.513   1.627  -0.854  1.00  0.00     0.127 A   
ATOM     4   N3  UNL     1      -0.048   2.456  -1.844  1.00  0.00    -0.132 NA  
ATOM     5   N4  UNL     1      -0.706   2.177  -2.957  1.00  0.00    -0.076 NA  
ATOM     6   H10 UNL     1      -2.110   0.027  -0.954  1.00  0.00     0.083 HD  
ENDROOT
BRANCH   1   7
ATOM     7   C8  UNL     1      -2.410   0.622  -3.721  1.00  0.00     0.139 C   
BRANCH   7   8
ATOM     8   C7  UNL     1      -1.623  -0.257  -4.697  1.00  0.00     0.060 C   
BRANCH   8   9
ATOM     9   C6  UNL     1      -0.886  -1.405  -4.048  1.00  0.00    -0.010 A   
ATOM     10  C2  UNL     1       1.202  -2.567  -3.549  1.00  0.00    -0.051 A   
ATOM     11  C3  UNL     1       0.483  -3.547  -2.853  1.00  0.00     0.006 A   
ATOM     12  C23 UNL     1       0.510  -1.506  -4.154  1.00  0.00     0.010 A   
ATOM     13  C4  UNL     1      -0.903  -3.458  -2.746  1.00  0.00     0.040 A   
ATOM     14  C5  UNL     1      -1.573  -2.396  -3.343  1.00  0.00     0.126 A   
ATOM     15  C1  UNL     1       2.690  -2.691  -3.708  1.00  0.00     0.044 C   
ATOM     16  F1  UNL     1      -2.905  -2.322  -3.220  1.00  0.00    -0.207 F   
ENDBRANCH   8   9
ENDBRANCH   7   8
ENDBRANCH   1   7
BRANCH   3  17
ATOM     17  C11 UNL     1       0.114   1.665   0.501  1.00  0.00     0.117 C   
BRANCH  17  18
ATOM     18  N2  UNL     1       1.570   2.057   0.400  1.00  0.00     0.249 N   
ATOM     19  H12 UNL     1       1.595   2.914  -0.170  1.00  0.00     0.199 HD  
ATOM     20  H13 UNL     1       1.949   2.288   1.321  1.00  0.00     0.199 HD  
BRANCH  18  21
ATOM     21  C12 UNL     1       2.473   1.071  -0.267  1.00  0.00     0.164 C   
BRANCH  21  22
ATOM     22  C13 UNL     1       2.648  -0.195   0.524  1.00  0.00    -0.002 A   
ATOM     23  C14 UNL     1       3.471  -0.216   1.675  1.00  0.00     0.012 A   
ATOM     24  C18 UNL     1       1.968  -1.364   0.139  1.00  0.00     0.045 A   
ATOM     25  C15 UNL     1       3.616  -1.383   2.433  1.00  0.00     0.037 A   
ATOM     26  C17 UNL     1       2.132  -2.497   0.907  1.00  0.00     0.109 A   
ATOM     27  C16 UNL     1       2.932  -2.506   2.023  1.00  0.00     0.108 A   
ATOM     28  O1  UNL     1       1.548  -3.702   0.677  1.00  0.00    -0.316 OA  
ATOM     29  O2  UNL     1       2.954  -3.719   2.635  1.00  0.00    -0.316 OA  
ATOM     30  C19 UNL     1       2.091  -4.483   1.765  1.00  0.00     0.337 C   
ENDBRANCH  21  22
ENDBRANCH  18  21
ENDBRANCH  17  18
BRANCH  17  31
ATOM     31  C20 UNL     1      -0.635   2.619   1.470  1.00  0.00     0.037 C   
ATOM     32  C21 UNL     1      -0.202   2.399   2.925  1.00  0.00     0.014 C   
ATOM     33  C22 UNL     1      -0.507   4.105   1.115  1.00  0.00     0.014 C   
ENDBRANCH  17  31
ENDBRANCH   3  17
TORSDOF 8
