REMARK SMILES CC(C)C[C@H]([NH2+]Cc1ccc2c(c1)OCO2)c1cn(Cc2ccc(Cl)o2)nn1
REMARK SMILES IDX 17 1 18 2 19 3 27 4 28 5 5 7 4 8 2 9 1 10 3 11 6 12 7 15
REMARK SMILES IDX 8 16 9 17 13 18 10 19 12 20 11 21 14 22 16 23 15 24 20 25
REMARK SMILES IDX 21 26 22 27 26 28 23 29 24 30 25 31
REMARK H PARENT 18 6 6 13 6 14
ROOT
ATOM     1   C14 UNL     1       0.791   0.391  -0.418  1.00  0.00     0.127 A   
ATOM     2   C15 UNL     1       2.065   0.726  -0.819  1.00  0.00     0.046 A   
ATOM     3   N2  UNL     1       2.567  -0.439  -1.336  1.00  0.00    -0.206 N   
ATOM     4   N3  UNL     1       1.628  -1.405  -1.335  1.00  0.00    -0.076 NA  
ATOM     5   N4  UNL     1       0.543  -0.916  -0.757  1.00  0.00    -0.132 NA  
ATOM     6   H20 UNL     1       2.658   1.627  -0.750  1.00  0.00     0.083 HD  
ENDROOT
BRANCH   1   7
ATOM     7   C5  UNL     1      -0.277   1.192   0.249  1.00  0.00     0.114 C   
BRANCH   7   8
ATOM     8   C4  UNL     1      -0.249   1.057   1.784  1.00  0.00     0.064 C   
BRANCH   8   9
ATOM     9   C2  UNL     1       1.022   1.598   2.474  1.00  0.00    -0.012 C   
ATOM     10  C1  UNL     1       0.938   1.342   3.982  1.00  0.00     0.007 C   
ATOM     11  C3  UNL     1       1.234   3.091   2.218  1.00  0.00     0.007 C   
ENDBRANCH   8   9
ENDBRANCH   7   8
BRANCH   7  12
ATOM     12  N1  UNL     1      -1.636   0.712  -0.206  1.00  0.00     0.249 N   
ATOM     13  H11 UNL     1      -1.621  -0.318  -0.147  1.00  0.00     0.199 HD  
ATOM     14  H12 UNL     1      -2.377   1.027   0.429  1.00  0.00     0.199 HD  
BRANCH  12  15
ATOM     15  C6  UNL     1      -2.006   1.073  -1.602  1.00  0.00     0.164 C   
BRANCH  15  16
ATOM     16  C7  UNL     1      -3.347   0.495  -1.956  1.00  0.00    -0.002 A   
ATOM     17  C8  UNL     1      -4.525   1.265  -1.803  1.00  0.00     0.012 A   
ATOM     18  C12 UNL     1      -3.442  -0.838  -2.392  1.00  0.00     0.045 A   
ATOM     19  C9  UNL     1      -5.781   0.719  -2.089  1.00  0.00     0.037 A   
ATOM     20  C11 UNL     1      -4.695  -1.345  -2.665  1.00  0.00     0.109 A   
ATOM     21  C10 UNL     1      -5.832  -0.590  -2.517  1.00  0.00     0.108 A   
ATOM     22  O1  UNL     1      -4.962  -2.607  -3.092  1.00  0.00    -0.316 OA  
ATOM     23  O2  UNL     1      -6.958  -1.280  -2.835  1.00  0.00    -0.316 OA  
ATOM     24  C13 UNL     1      -6.401  -2.553  -3.224  1.00  0.00     0.337 C   
ENDBRANCH  15  16
ENDBRANCH  12  15
ENDBRANCH   7  12
ENDBRANCH   1   7
BRANCH   3  25
ATOM     25  C16 UNL     1       3.900  -0.691  -1.858  1.00  0.00     0.195 C   
BRANCH  25  26
ATOM     26  C17 UNL     1       4.865  -0.841  -0.743  1.00  0.00     0.080 A   
ATOM     27  C18 UNL     1       5.480  -1.926  -0.155  1.00  0.00     0.035 A   
ATOM     28  O3  UNL     1       5.267   0.310  -0.130  1.00  0.00    -0.301 OA  
ATOM     29  C19 UNL     1       6.300  -1.406   0.877  1.00  0.00     0.049 A   
ATOM     30  C20 UNL     1       6.139  -0.038   0.859  1.00  0.00     0.147 A   
ATOM     31  CL1 UNL     1       6.884   1.105   1.900  1.00  0.00    -0.056 Cl  
ENDBRANCH  25  26
ENDBRANCH   3  25
TORSDOF 8
