REMARK SMILES c1cc2c(cc1C[NH2+][C@H](c1cn(Cc3cnn[nH]3)nn1)C1CCCCC1)OCO2
REMARK SMILES IDX 10 1 11 2 12 3 19 4 20 5 9 7 8 8 7 11 6 12 1 13 2 14 3 15
REMARK SMILES IDX 5 16 4 17 29 18 27 19 28 20 21 21 22 22 26 23 23 24 25 25
REMARK SMILES IDX 24 26 13 27 14 28 15 29 18 30 16 31 17 32
REMARK H PARENT 11 6 8 9 8 10 18 33
ROOT
ATOM     1   C9  UNL     1       0.848  -1.557   0.815  1.00  0.00     0.127 A   
ATOM     2   C10 UNL     1       1.918  -1.834   1.638  1.00  0.00     0.046 A   
ATOM     3   N2  UNL     1       2.864  -2.343   0.793  1.00  0.00    -0.206 N   
ATOM     4   N6  UNL     1       2.419  -2.352  -0.480  1.00  0.00    -0.076 NA  
ATOM     5   N7  UNL     1       1.187  -1.875  -0.479  1.00  0.00    -0.132 NA  
ATOM     6   H9  UNL     1       2.088  -1.720   2.699  1.00  0.00     0.083 HD  
ENDROOT
BRANCH   1   7
ATOM     7   C8  UNL     1      -0.492  -0.949   1.095  1.00  0.00     0.117 C   
BRANCH   7   8
ATOM     8   N1  UNL     1      -1.008  -0.240  -0.133  1.00  0.00     0.249 N   
ATOM     9   H6  UNL     1      -2.020  -0.083  -0.083  1.00  0.00     0.199 HD  
ATOM     10  H7  UNL     1      -0.850  -0.873  -0.932  1.00  0.00     0.199 HD  
BRANCH   8  11
ATOM     11  C7  UNL     1      -0.334   1.050  -0.453  1.00  0.00     0.164 C   
BRANCH  11  12
ATOM     12  C6  UNL     1      -0.836   1.597  -1.757  1.00  0.00    -0.002 A   
ATOM     13  C1  UNL     1      -0.311   1.108  -2.978  1.00  0.00     0.012 A   
ATOM     14  C2  UNL     1      -0.791   1.577  -4.206  1.00  0.00     0.037 A   
ATOM     15  C3  UNL     1      -1.790   2.525  -4.187  1.00  0.00     0.108 A   
ATOM     16  C5  UNL     1      -1.859   2.560  -1.780  1.00  0.00     0.045 A   
ATOM     17  C4  UNL     1      -2.308   3.002  -3.009  1.00  0.00     0.109 A   
ATOM     18  O2  UNL     1      -2.372   3.090  -5.276  1.00  0.00    -0.316 OA  
ATOM     19  O1  UNL     1      -3.282   3.928  -3.208  1.00  0.00    -0.316 OA  
ATOM     20  C20 UNL     1      -3.298   4.003  -4.652  1.00  0.00     0.337 C   
ENDBRANCH  11  12
ENDBRANCH   8  11
ENDBRANCH   7   8
BRANCH   7  21
ATOM     21  C14 UNL     1      -1.569  -1.964   1.559  1.00  0.00     0.043 C   
ATOM     22  C15 UNL     1      -1.223  -2.607   2.911  1.00  0.00     0.010 C   
ATOM     23  C19 UNL     1      -1.916  -3.044   0.508  1.00  0.00     0.010 C   
ATOM     24  C16 UNL     1      -2.393  -3.423   3.469  1.00  0.00     0.001 C   
ATOM     25  C18 UNL     1      -2.451  -4.345   1.116  1.00  0.00     0.001 C   
ATOM     26  C17 UNL     1      -3.246  -4.088   2.388  1.00  0.00     0.000 C   
ENDBRANCH   7  21
ENDBRANCH   1   7
BRANCH   3  27
ATOM     27  C11 UNL     1       4.216  -2.785   1.105  1.00  0.00     0.188 C   
BRANCH  27  28
ATOM     28  C12 UNL     1       5.194  -1.737   0.741  1.00  0.00     0.066 A   
ATOM     29  C13 UNL     1       5.966  -0.869   1.480  1.00  0.00     0.159 A   
ATOM     30  N5  UNL     1       5.512  -1.429  -0.555  1.00  0.00    -0.221 N   
ATOM     31  N3  UNL     1       6.676  -0.067   0.635  1.00  0.00    -0.141 NA  
ATOM     32  N4  UNL     1       6.384  -0.415  -0.610  1.00  0.00    -0.079 NA  
ATOM     33  H13 UNL     1       5.171  -1.827  -1.427  1.00  0.00     0.177 HD  
ENDBRANCH  27  28
ENDBRANCH   3  27
TORSDOF 7
