REMARK SMILES CC(C)[C@H]([NH2+]Cc1ccc2c(c1)OCO2)c1cn(Cc2cn(C)nc2C(C)(C)C)nn1
REMARK SMILES IDX 16 1 17 2 18 3 30 4 31 5 4 7 2 8 1 9 3 10 5 11 6 14 7 15
REMARK SMILES IDX 8 16 12 17 9 18 11 19 10 20 13 21 15 22 14 23 19 24 20 25
REMARK SMILES IDX 21 26 25 27 22 28 24 29 23 30 26 31 27 32 28 33 29 34
REMARK H PARENT 17 6 5 12 5 13
ROOT
ATOM     1   C13 UNL     1       0.877   1.493   0.474  1.00  0.00     0.127 A   
ATOM     2   C14 UNL     1       1.683   0.483  -0.000  1.00  0.00     0.046 A   
ATOM     3   N2  UNL     1       2.273  -0.030   1.124  1.00  0.00    -0.208 N   
ATOM     4   N5  UNL     1       1.915   0.682   2.210  1.00  0.00    -0.076 NA  
ATOM     5   N6  UNL     1       1.042   1.600   1.829  1.00  0.00    -0.132 NA  
ATOM     6   H18 UNL     1       1.834   0.057  -0.982  1.00  0.00     0.083 HD  
ENDROOT
BRANCH   1   7
ATOM     7   C4  UNL     1      -0.154   2.316  -0.221  1.00  0.00     0.117 C   
BRANCH   7   8
ATOM     8   C2  UNL     1       0.297   3.761  -0.559  1.00  0.00     0.037 C   
ATOM     9   C1  UNL     1       0.662   4.621   0.656  1.00  0.00     0.014 C   
ATOM     10  C3  UNL     1       1.461   3.763  -1.558  1.00  0.00     0.014 C   
ENDBRANCH   7   8
BRANCH   7  11
ATOM     11  N1  UNL     1      -1.424   2.382   0.602  1.00  0.00     0.249 N   
ATOM     12  H9  UNL     1      -2.086   3.030   0.167  1.00  0.00     0.199 HD  
ATOM     13  H10 UNL     1      -1.163   2.773   1.517  1.00  0.00     0.199 HD  
BRANCH  11  14
ATOM     14  C5  UNL     1      -2.110   1.079   0.878  1.00  0.00     0.164 C   
BRANCH  14  15
ATOM     15  C6  UNL     1      -2.493   0.322  -0.362  1.00  0.00    -0.002 A   
ATOM     16  C7  UNL     1      -1.838  -0.893  -0.686  1.00  0.00     0.012 A   
ATOM     17  C11 UNL     1      -3.486   0.821  -1.222  1.00  0.00     0.045 A   
ATOM     18  C8  UNL     1      -2.160  -1.596  -1.851  1.00  0.00     0.037 A   
ATOM     19  C10 UNL     1      -3.777   0.103  -2.363  1.00  0.00     0.109 A   
ATOM     20  C9  UNL     1      -3.131  -1.070  -2.671  1.00  0.00     0.108 A   
ATOM     21  O1  UNL     1      -4.702   0.447  -3.297  1.00  0.00    -0.316 OA  
ATOM     22  O2  UNL     1      -3.568  -1.610  -3.838  1.00  0.00    -0.316 OA  
ATOM     23  C12 UNL     1      -4.592  -0.664  -4.215  1.00  0.00     0.337 C   
ENDBRANCH  14  15
ENDBRANCH  11  14
ENDBRANCH   7  11
ENDBRANCH   1   7
BRANCH   3  24
ATOM     24  C15 UNL     1       3.129  -1.204   1.252  1.00  0.00     0.172 C   
BRANCH  24  25
ATOM     25  C16 UNL     1       2.516  -2.385   0.572  1.00  0.00     0.011 A   
ATOM     26  C17 UNL     1       2.737  -2.759  -0.744  1.00  0.00     0.102 A   
ATOM     27  C19 UNL     1       1.613  -3.382   1.077  1.00  0.00     0.070 A   
ATOM     28  N3  UNL     1       1.981  -3.867  -0.965  1.00  0.00    -0.235 N   
ATOM     29  N4  UNL     1       1.252  -4.224   0.096  1.00  0.00    -0.186 NA  
ATOM     30  C18 UNL     1       1.896  -4.643  -2.179  1.00  0.00     0.159 C   
BRANCH  27  31
ATOM     31  C20 UNL     1       1.064  -3.617   2.488  1.00  0.00     0.006 C   
ATOM     32  C21 UNL     1       2.204  -4.065   3.427  1.00  0.00     0.017 C   
ATOM     33  C22 UNL     1      -0.012  -4.734   2.507  1.00  0.00     0.017 C   
ATOM     34  C23 UNL     1       0.398  -2.353   3.058  1.00  0.00     0.017 C   
ENDBRANCH  27  31
ENDBRANCH  24  25
ENDBRANCH   3  24
TORSDOF 8
