REMARK SMILES Oc1cccc(Cl)c1Cn1cc([C@@H]([NH2+]Cc2ccc3c(c2)OCO3)C2CCCC2)nn1
REMARK SMILES IDX 10 1 11 2 12 3 30 4 31 5 9 7 8 8 2 9 3 10 4 11 6 12 5 13
REMARK SMILES IDX 7 14 1 15 13 17 14 18 15 21 16 22 17 23 21 24 18 25 20 26
REMARK SMILES IDX 19 27 22 28 24 29 23 30 25 31 26 32 29 33 27 34 28 35
REMARK H PARENT 11 6 1 16 14 19 14 20
ROOT
ATOM     1   N1  UNL     1      -1.470   2.306  -0.239  1.00  0.00    -0.208 N   
ATOM     2   C8  UNL     1      -1.105   1.083  -0.731  1.00  0.00     0.046 A   
ATOM     3   C9  UNL     1      -1.812   0.189   0.041  1.00  0.00     0.127 A   
ATOM     4   N3  UNL     1      -2.594   0.878   0.928  1.00  0.00    -0.132 NA  
ATOM     5   N4  UNL     1      -2.378   2.170   0.747  1.00  0.00    -0.076 NA  
ATOM     6   H7  UNL     1      -0.383   0.973  -1.529  1.00  0.00     0.083 HD  
ENDROOT
BRANCH   1   7
ATOM     7   C7  UNL     1      -0.999   3.622  -0.642  1.00  0.00     0.173 C   
BRANCH   7   8
ATOM     8   C6  UNL     1       0.492   3.763  -0.439  1.00  0.00     0.020 A   
ATOM     9   C1  UNL     1       1.370   3.574  -1.517  1.00  0.00     0.078 A   
ATOM     10  C2  UNL     1       2.752   3.702  -1.370  1.00  0.00     0.033 A   
ATOM     11  C3  UNL     1       3.285   4.020  -0.123  1.00  0.00     0.004 A   
ATOM     12  C5  UNL     1       1.053   4.064   0.815  1.00  0.00     0.048 A   
ATOM     13  C4  UNL     1       2.438   4.196   0.968  1.00  0.00     0.021 A   
ATOM     14  CL1 UNL     1       0.081   4.269   2.228  1.00  0.00    -0.084 Cl  
BRANCH   9  15
ATOM     15  O1  UNL     1       0.850   3.237  -2.736  1.00  0.00    -0.361 OA  
ATOM     16  H1  UNL     1       1.543   3.338  -3.416  1.00  0.00     0.218 HD  
ENDBRANCH   9  15
ENDBRANCH   7   8
ENDBRANCH   1   7
BRANCH   3  17
ATOM     17  C10 UNL     1      -1.778  -1.301   0.088  1.00  0.00     0.117 C   
BRANCH  17  18
ATOM     18  N2  UNL     1      -1.750  -1.778   1.528  1.00  0.00     0.249 N   
ATOM     19  H9  UNL     1      -2.609  -1.422   1.968  1.00  0.00     0.199 HD  
ATOM     20  H10 UNL     1      -1.787  -2.800   1.561  1.00  0.00     0.199 HD  
BRANCH  18  21
ATOM     21  C11 UNL     1      -0.605  -1.308   2.370  1.00  0.00     0.164 C   
BRANCH  21  22
ATOM     22  C12 UNL     1       0.742  -1.674   1.811  1.00  0.00    -0.002 A   
ATOM     23  C13 UNL     1       1.590  -0.667   1.289  1.00  0.00     0.012 A   
ATOM     24  C17 UNL     1       1.157  -3.016   1.776  1.00  0.00     0.045 A   
ATOM     25  C14 UNL     1       2.829  -0.990   0.727  1.00  0.00     0.037 A   
ATOM     26  C16 UNL     1       2.386  -3.299   1.216  1.00  0.00     0.109 A   
ATOM     27  C15 UNL     1       3.197  -2.317   0.704  1.00  0.00     0.108 A   
ATOM     28  O2  UNL     1       2.932  -4.538   1.099  1.00  0.00    -0.316 OA  
ATOM     29  O3  UNL     1       4.356  -2.813   0.197  1.00  0.00    -0.316 OA  
ATOM     30  C18 UNL     1       4.206  -4.219   0.492  1.00  0.00     0.337 C   
ENDBRANCH  21  22
ENDBRANCH  18  21
ENDBRANCH  17  18
BRANCH  17  31
ATOM     31  C19 UNL     1      -3.009  -1.924  -0.600  1.00  0.00     0.043 C   
ATOM     32  C20 UNL     1      -3.026  -3.459  -0.598  1.00  0.00     0.010 C   
ATOM     33  C23 UNL     1      -3.104  -1.604  -2.095  1.00  0.00     0.010 C   
ATOM     34  C21 UNL     1      -3.888  -3.867  -1.795  1.00  0.00     0.001 C   
ATOM     35  C22 UNL     1      -4.146  -2.592  -2.591  1.00  0.00     0.001 C   
ENDBRANCH  17  31
ENDBRANCH   3  17
TORSDOF 8
