REMARK SMILES Cc1cnn(C)c1CCn1cc([C@@H]([NH2+]Cc2ccc3c(c2)OCO3)C(C)C)nn1
REMARK SMILES IDX 10 1 11 2 12 3 28 4 29 5 9 7 8 8 7 9 2 10 3 11 4 12 5 13
REMARK SMILES IDX 1 14 6 15 13 16 14 17 15 20 16 21 17 22 21 23 18 24 20 25
REMARK SMILES IDX 19 26 22 27 24 28 23 29 25 30 26 31 27 32
REMARK H PARENT 11 6 14 18 14 19
ROOT
ATOM     1   N3  UNL     1      -0.389  -1.403  -2.510  1.00  0.00    -0.212 N   
ATOM     2   C8  UNL     1      -1.464  -0.834  -1.877  1.00  0.00     0.045 A   
ATOM     3   C9  UNL     1      -0.925   0.278  -1.266  1.00  0.00     0.127 A   
ATOM     4   N5  UNL     1       0.372   0.434  -1.683  1.00  0.00    -0.132 NA  
ATOM     5   N6  UNL     1       0.675  -0.580  -2.479  1.00  0.00    -0.076 NA  
ATOM     6   H12 UNL     1      -2.409  -1.347  -1.774  1.00  0.00     0.083 HD  
ENDROOT
BRANCH   1   7
ATOM     7   C7  UNL     1      -0.215  -2.817  -2.793  1.00  0.00     0.140 C   
BRANCH   7   8
ATOM     8   C6  UNL     1       0.575  -3.558  -1.692  1.00  0.00     0.075 C   
BRANCH   8   9
ATOM     9   C5  UNL     1       0.135  -3.159  -0.310  1.00  0.00     0.034 A   
ATOM     10  C2  UNL     1      -0.978  -3.535   0.427  1.00  0.00    -0.012 A   
ATOM     11  C3  UNL     1      -0.996  -2.635   1.516  1.00  0.00     0.136 A   
ATOM     12  N1  UNL     1      -0.011  -1.731   1.450  1.00  0.00    -0.190 NA  
ATOM     13  N2  UNL     1       0.791  -2.234   0.472  1.00  0.00    -0.232 N   
ATOM     14  C1  UNL     1      -1.971  -4.593   0.118  1.00  0.00     0.048 C   
ATOM     15  C4  UNL     1       2.136  -1.718   0.338  1.00  0.00     0.159 C   
ENDBRANCH   8   9
ENDBRANCH   7   8
ENDBRANCH   1   7
BRANCH   3  16
ATOM     16  C10 UNL     1      -1.474   1.118  -0.153  1.00  0.00     0.117 C   
BRANCH  16  17
ATOM     17  N4  UNL     1      -0.517   1.033   1.005  1.00  0.00     0.249 N   
ATOM     18  H14 UNL     1       0.396   1.399   0.711  1.00  0.00     0.199 HD  
ATOM     19  H15 UNL     1      -0.321   0.019   1.171  1.00  0.00     0.199 HD  
BRANCH  17  20
ATOM     20  C11 UNL     1      -0.922   1.594   2.311  1.00  0.00     0.164 C   
BRANCH  20  21
ATOM     21  C12 UNL     1       0.226   1.594   3.283  1.00  0.00    -0.002 A   
ATOM     22  C13 UNL     1       1.060   2.732   3.399  1.00  0.00     0.012 A   
ATOM     23  C17 UNL     1       0.509   0.450   4.049  1.00  0.00     0.045 A   
ATOM     24  C14 UNL     1       2.151   2.739   4.276  1.00  0.00     0.037 A   
ATOM     25  C16 UNL     1       1.591   0.489   4.904  1.00  0.00     0.109 A   
ATOM     26  C15 UNL     1       2.388   1.602   5.015  1.00  0.00     0.108 A   
ATOM     27  O1  UNL     1       1.998  -0.525   5.714  1.00  0.00    -0.316 OA  
ATOM     28  O2  UNL     1       3.396   1.430   5.909  1.00  0.00    -0.316 OA  
ATOM     29  C18 UNL     1       3.131   0.087   6.370  1.00  0.00     0.337 C   
ENDBRANCH  20  21
ENDBRANCH  17  20
ENDBRANCH  16  17
BRANCH  16  30
ATOM     30  C19 UNL     1      -1.769   2.586  -0.556  1.00  0.00     0.037 C   
ATOM     31  C20 UNL     1      -0.532   3.419  -0.906  1.00  0.00     0.014 C   
ATOM     32  C21 UNL     1      -2.783   2.657  -1.706  1.00  0.00     0.014 C   
ENDBRANCH  16  30
ENDBRANCH   3  16
TORSDOF 8
