REMARK SMILES Cc1c(F)cccc1Cn1cc([C@H](CC(C)C)[NH2+]Cc2ccc3c(c2)OCO3)nn1
REMARK SMILES IDX 10 1 11 2 12 3 29 4 30 5 9 7 8 8 2 9 3 10 5 11 7 12 6 13
REMARK SMILES IDX 1 14 4 15 13 16 14 17 15 18 16 19 17 20 18 21 19 24 20 25
REMARK SMILES IDX 21 26 25 27 22 28 24 29 23 30 26 31 28 32 27 33
REMARK H PARENT 11 6 18 22 18 23
ROOT
ATOM     1   N1  UNL     1      -1.247  -1.695  -2.030  1.00  0.00    -0.208 N   
ATOM     2   C9  UNL     1      -0.470  -0.578  -1.882  1.00  0.00     0.046 A   
ATOM     3   C10 UNL     1       0.818  -1.056  -1.957  1.00  0.00     0.127 A   
ATOM     4   N3  UNL     1       0.786  -2.405  -2.190  1.00  0.00    -0.132 NA  
ATOM     5   N4  UNL     1      -0.481  -2.784  -2.237  1.00  0.00    -0.076 NA  
ATOM     6   H9  UNL     1      -0.891   0.399  -1.688  1.00  0.00     0.083 HD  
ENDROOT
BRANCH   1   7
ATOM     7   C8  UNL     1      -2.691  -1.811  -1.902  1.00  0.00     0.169 C   
BRANCH   7   8
ATOM     8   C7  UNL     1      -3.148  -1.368  -0.527  1.00  0.00    -0.023 A   
ATOM     9   C2  UNL     1      -2.902  -2.128   0.639  1.00  0.00    -0.010 A   
ATOM     10  C3  UNL     1      -3.275  -1.595   1.882  1.00  0.00     0.126 A   
ATOM     11  C4  UNL     1      -3.913  -0.365   1.990  1.00  0.00     0.039 A   
ATOM     12  C6  UNL     1      -3.807  -0.128  -0.405  1.00  0.00     0.006 A   
ATOM     13  C5  UNL     1      -4.189   0.367   0.843  1.00  0.00     0.003 A   
ATOM     14  C1  UNL     1      -2.207  -3.462   0.615  1.00  0.00     0.048 C   
ATOM     15  F1  UNL     1      -2.998  -2.273   3.005  1.00  0.00    -0.207 F   
ENDBRANCH   7   8
ENDBRANCH   1   7
BRANCH   3  16
ATOM     16  C11 UNL     1       2.123  -0.374  -1.729  1.00  0.00     0.114 C   
BRANCH  16  17
ATOM     17  C12 UNL     1       2.919  -0.162  -3.031  1.00  0.00     0.064 C   
BRANCH  17  18
ATOM     18  C13 UNL     1       2.236   0.750  -4.074  1.00  0.00    -0.012 C   
ATOM     19  C14 UNL     1       3.096   0.819  -5.340  1.00  0.00     0.007 C   
ATOM     20  C15 UNL     1       1.989   2.162  -3.543  1.00  0.00     0.007 C   
ENDBRANCH  17  18
ENDBRANCH  16  17
BRANCH  16  21
ATOM     21  N2  UNL     1       2.999  -1.206  -0.809  1.00  0.00     0.249 N   
ATOM     22  H20 UNL     1       3.923  -0.772  -0.729  1.00  0.00     0.199 HD  
ATOM     23  H21 UNL     1       3.125  -2.116  -1.272  1.00  0.00     0.199 HD  
BRANCH  21  24
ATOM     24  C16 UNL     1       2.464  -1.482   0.561  1.00  0.00     0.164 C   
BRANCH  24  25
ATOM     25  C17 UNL     1       2.165  -0.239   1.351  1.00  0.00    -0.002 A   
ATOM     26  C18 UNL     1       3.216   0.579   1.832  1.00  0.00     0.012 A   
ATOM     27  C22 UNL     1       0.831   0.137   1.591  1.00  0.00     0.045 A   
ATOM     28  C19 UNL     1       2.943   1.760   2.530  1.00  0.00     0.037 A   
ATOM     29  C21 UNL     1       0.597   1.309   2.278  1.00  0.00     0.109 A   
ATOM     30  C20 UNL     1       1.623   2.099   2.733  1.00  0.00     0.108 A   
ATOM     31  O1  UNL     1      -0.626   1.821   2.578  1.00  0.00    -0.316 OA  
ATOM     32  O2  UNL     1       1.177   3.206   3.381  1.00  0.00    -0.316 OA  
ATOM     33  C23 UNL     1      -0.252   3.010   3.310  1.00  0.00     0.337 C   
ENDBRANCH  24  25
ENDBRANCH  21  24
ENDBRANCH  16  21
ENDBRANCH   3  16
TORSDOF 8
