REMARK SMILES CC(C)(C)[C@H]([NH2+]Cc1ccc2c(c1)OCO2)c1cn([C@@H](CO)c2ccc(F)cc2F)nn1
REMARK SMILES IDX 17 1 18 2 19 3 31 4 32 5 5 7 2 8 1 9 3 10 4 11 6 12 7 15
REMARK SMILES IDX 8 16 9 17 13 18 10 19 12 20 11 21 14 22 16 23 15 24 20 25
REMARK SMILES IDX 21 26 22 27 23 29 24 30 29 31 25 32 28 33 26 34 30 35 27 36
REMARK H PARENT 18 6 6 13 6 14 22 28
ROOT
ATOM     1   C14 UNL     1      -0.062   0.660  -1.135  1.00  0.00     0.127 A   
ATOM     2   C15 UNL     1       0.357   1.311   0.003  1.00  0.00     0.046 A   
ATOM     3   N2  UNL     1      -0.114   2.588  -0.148  1.00  0.00    -0.202 N   
ATOM     4   N3  UNL     1      -0.845   2.691  -1.278  1.00  0.00    -0.075 NA  
ATOM     5   N4  UNL     1      -0.806   1.523  -1.897  1.00  0.00    -0.132 NA  
ATOM     6   H20 UNL     1       0.925   1.001   0.869  1.00  0.00     0.083 HD  
ENDROOT
BRANCH   1   7
ATOM     7   C5  UNL     1       0.096  -0.765  -1.564  1.00  0.00     0.120 C   
BRANCH   7   8
ATOM     8   C2  UNL     1       1.303  -1.012  -2.538  1.00  0.00     0.010 C   
ATOM     9   C1  UNL     1       1.476  -2.526  -2.804  1.00  0.00     0.017 C   
ATOM     10  C3  UNL     1       1.135  -0.301  -3.895  1.00  0.00     0.017 C   
ATOM     11  C4  UNL     1       2.617  -0.516  -1.890  1.00  0.00     0.017 C   
ENDBRANCH   7   8
BRANCH   7  12
ATOM     12  N1  UNL     1      -1.199  -1.237  -2.199  1.00  0.00     0.250 N   
ATOM     13  H11 UNL     1      -1.073  -2.135  -2.668  1.00  0.00     0.199 HD  
ATOM     14  H12 UNL     1      -1.434  -0.541  -2.921  1.00  0.00     0.199 HD  
BRANCH  12  15
ATOM     15  C6  UNL     1      -2.383  -1.334  -1.291  1.00  0.00     0.164 C   
BRANCH  15  16
ATOM     16  C7  UNL     1      -2.212  -2.362  -0.208  1.00  0.00    -0.002 A   
ATOM     17  C8  UNL     1      -1.999  -1.956   1.131  1.00  0.00     0.012 A   
ATOM     18  C12 UNL     1      -2.224  -3.733  -0.522  1.00  0.00     0.045 A   
ATOM     19  C9  UNL     1      -1.794  -2.898   2.145  1.00  0.00     0.037 A   
ATOM     20  C11 UNL     1      -2.019  -4.635   0.502  1.00  0.00     0.109 A   
ATOM     21  C10 UNL     1      -1.808  -4.230   1.797  1.00  0.00     0.108 A   
ATOM     22  O1  UNL     1      -1.993  -5.986   0.369  1.00  0.00    -0.316 OA  
ATOM     23  O2  UNL     1      -1.624  -5.276   2.643  1.00  0.00    -0.316 OA  
ATOM     24  C13 UNL     1      -1.772  -6.392   1.740  1.00  0.00     0.337 C   
ENDBRANCH  15  16
ENDBRANCH  12  15
ENDBRANCH   7  12
ENDBRANCH   1   7
BRANCH   3  25
ATOM     25  C16 UNL     1       0.029   3.742   0.743  1.00  0.00     0.158 C   
BRANCH  25  26
ATOM     26  C17 UNL     1      -1.142   3.793   1.745  1.00  0.00     0.186 C   
BRANCH  26  27
ATOM     27  O3  UNL     1      -1.248   2.606   2.536  1.00  0.00    -0.394 OA  
ATOM     28  H24 UNL     1      -1.973   2.757   3.171  1.00  0.00     0.210 HD  
ENDBRANCH  26  27
ENDBRANCH  25  26
BRANCH  25  29
ATOM     29  C18 UNL     1       1.438   3.826   1.317  1.00  0.00     0.013 A   
ATOM     30  C19 UNL     1       1.756   3.533   2.653  1.00  0.00     0.012 A   
ATOM     31  C23 UNL     1       2.486   4.205   0.461  1.00  0.00     0.131 A   
ATOM     32  C20 UNL     1       3.077   3.623   3.102  1.00  0.00     0.040 A   
ATOM     33  C22 UNL     1       3.802   4.297   0.899  1.00  0.00     0.078 A   
ATOM     34  C21 UNL     1       4.085   4.004   2.223  1.00  0.00     0.126 A   
ATOM     35  F2  UNL     1       2.219   4.479  -0.823  1.00  0.00    -0.207 F   
ATOM     36  F1  UNL     1       5.347   4.081   2.662  1.00  0.00    -0.207 F   
ENDBRANCH  25  29
ENDBRANCH   3  25
TORSDOF 9
