REMARK SMILES CC(C)(C)[C@H]([NH2+]Cc1ccc2c(c1)OCO2)c1cn([C@H](CO)c2ccc(F)cc2F)nn1
REMARK SMILES IDX 17 1 18 2 19 3 31 4 32 5 5 7 2 8 1 9 3 10 4 11 6 12 7 15
REMARK SMILES IDX 8 16 9 17 13 18 10 19 12 20 11 21 14 22 16 23 15 24 20 25
REMARK SMILES IDX 21 26 22 27 23 29 24 30 29 31 25 32 28 33 26 34 30 35 27 36
REMARK H PARENT 18 6 6 13 6 14 22 28
ROOT
ATOM     1   C14 UNL     1       0.954   0.999  -0.897  1.00  0.00     0.127 A   
ATOM     2   C15 UNL     1       2.269   0.612  -0.772  1.00  0.00     0.046 A   
ATOM     3   N2  UNL     1       2.644   1.079   0.460  1.00  0.00    -0.202 N   
ATOM     4   N3  UNL     1       1.593   1.669   1.076  1.00  0.00    -0.075 NA  
ATOM     5   N4  UNL     1       0.559   1.629   0.254  1.00  0.00    -0.132 NA  
ATOM     6   H20 UNL     1       2.949   0.091  -1.430  1.00  0.00     0.083 HD  
ENDROOT
BRANCH   1   7
ATOM     7   C5  UNL     1      -0.046   0.778  -1.992  1.00  0.00     0.120 C   
BRANCH   7   8
ATOM     8   C2  UNL     1      -0.102   1.931  -3.055  1.00  0.00     0.010 C   
ATOM     9   C1  UNL     1      -0.597   3.265  -2.461  1.00  0.00     0.017 C   
ATOM     10  C3  UNL     1      -1.041   1.540  -4.220  1.00  0.00     0.017 C   
ATOM     11  C4  UNL     1       1.299   2.163  -3.669  1.00  0.00     0.017 C   
ENDBRANCH   7   8
BRANCH   7  12
ATOM     12  N1  UNL     1      -1.405   0.577  -1.364  1.00  0.00     0.250 N   
ATOM     13  H11 UNL     1      -1.500   1.305  -0.639  1.00  0.00     0.199 HD  
ATOM     14  H12 UNL     1      -2.172   0.731  -2.022  1.00  0.00     0.199 HD  
BRANCH  12  15
ATOM     15  C6  UNL     1      -1.608  -0.736  -0.690  1.00  0.00     0.164 C   
BRANCH  15  16
ATOM     16  C7  UNL     1      -2.938  -0.765   0.007  1.00  0.00    -0.002 A   
ATOM     17  C8  UNL     1      -3.055  -0.270   1.328  1.00  0.00     0.012 A   
ATOM     18  C12 UNL     1      -4.082  -1.223  -0.665  1.00  0.00     0.045 A   
ATOM     19  C9  UNL     1      -4.293  -0.245   1.977  1.00  0.00     0.037 A   
ATOM     20  C11 UNL     1      -5.287  -1.183   0.004  1.00  0.00     0.109 A   
ATOM     21  C10 UNL     1      -5.390  -0.710   1.288  1.00  0.00     0.108 A   
ATOM     22  O1  UNL     1      -6.484  -1.583  -0.499  1.00  0.00    -0.316 OA  
ATOM     23  O2  UNL     1      -6.663  -0.757   1.757  1.00  0.00    -0.316 OA  
ATOM     24  C13 UNL     1      -7.354  -1.328   0.626  1.00  0.00     0.337 C   
ENDBRANCH  15  16
ENDBRANCH  12  15
ENDBRANCH   7  12
ENDBRANCH   1   7
BRANCH   3  25
ATOM     25  C16 UNL     1       3.934   1.002   1.149  1.00  0.00     0.158 C   
BRANCH  25  26
ATOM     26  C17 UNL     1       5.143   0.774   0.219  1.00  0.00     0.186 C   
BRANCH  26  27
ATOM     27  O3  UNL     1       5.289   1.859  -0.696  1.00  0.00    -0.394 OA  
ATOM     28  H24 UNL     1       6.161   1.765  -1.123  1.00  0.00     0.210 HD  
ENDBRANCH  26  27
ENDBRANCH  25  26
BRANCH  25  29
ATOM     29  C18 UNL     1       3.872  -0.036   2.257  1.00  0.00     0.013 A   
ATOM     30  C19 UNL     1       3.970   0.356   3.603  1.00  0.00     0.012 A   
ATOM     31  C23 UNL     1       3.708  -1.399   1.972  1.00  0.00     0.131 A   
ATOM     32  C20 UNL     1       3.906  -0.598   4.622  1.00  0.00     0.040 A   
ATOM     33  C22 UNL     1       3.646  -2.354   2.980  1.00  0.00     0.078 A   
ATOM     34  C21 UNL     1       3.745  -1.941   4.300  1.00  0.00     0.126 A   
ATOM     35  F2  UNL     1       3.601  -1.803   0.698  1.00  0.00    -0.207 F   
ATOM     36  F1  UNL     1       3.680  -2.850   5.280  1.00  0.00    -0.207 F   
ENDBRANCH  25  29
ENDBRANCH   3  25
TORSDOF 9
