REMARK SMILES CC(C)(C)[C@H]([NH2+]Cc1ccc2c(c1)OCO2)c1cn(Cc2cc[nH]c2)nn1
REMARK SMILES IDX 17 1 18 2 19 3 26 4 27 5 5 7 2 8 1 9 3 10 4 11 6 12 7 15
REMARK SMILES IDX 8 16 9 17 13 18 10 19 12 20 11 21 14 22 16 23 15 24 20 25
REMARK SMILES IDX 21 26 22 27 25 28 23 29 24 30
REMARK H PARENT 18 6 6 13 6 14 24 31
ROOT
ATOM     1   C14 UNL     1       1.467   0.317   1.171  1.00  0.00     0.127 A   
ATOM     2   C15 UNL     1       2.768   0.358   0.722  1.00  0.00     0.046 A   
ATOM     3   N2  UNL     1       3.326  -0.793   1.212  1.00  0.00    -0.208 N   
ATOM     4   N4  UNL     1       2.422  -1.498   1.921  1.00  0.00    -0.076 NA  
ATOM     5   N5  UNL     1       1.281  -0.829   1.904  1.00  0.00    -0.132 NA  
ATOM     6   H20 UNL     1       3.327   1.051   0.108  1.00  0.00     0.083 HD  
ENDROOT
BRANCH   1   7
ATOM     7   C5  UNL     1       0.300   1.222   0.918  1.00  0.00     0.120 C   
BRANCH   7   8
ATOM     8   C2  UNL     1       0.119   2.356   1.987  1.00  0.00     0.010 C   
ATOM     9   C1  UNL     1      -1.019   3.315   1.567  1.00  0.00     0.017 C   
ATOM     10  C3  UNL     1      -0.205   1.805   3.389  1.00  0.00     0.017 C   
ATOM     11  C4  UNL     1       1.406   3.207   2.084  1.00  0.00     0.017 C   
ENDBRANCH   7   8
BRANCH   7  12
ATOM     12  N1  UNL     1      -0.950   0.377   0.831  1.00  0.00     0.250 N   
ATOM     13  H11 UNL     1      -1.806   0.922   0.958  1.00  0.00     0.199 HD  
ATOM     14  H12 UNL     1      -0.911  -0.286   1.621  1.00  0.00     0.199 HD  
BRANCH  12  15
ATOM     15  C6  UNL     1      -1.083  -0.437  -0.411  1.00  0.00     0.164 C   
BRANCH  15  16
ATOM     16  C7  UNL     1      -2.304  -1.309  -0.335  1.00  0.00    -0.002 A   
ATOM     17  C8  UNL     1      -2.228  -2.583   0.279  1.00  0.00     0.012 A   
ATOM     18  C12 UNL     1      -3.538  -0.846  -0.820  1.00  0.00     0.045 A   
ATOM     19  C9  UNL     1      -3.363  -3.391   0.398  1.00  0.00     0.037 A   
ATOM     20  C11 UNL     1      -4.638  -1.668  -0.686  1.00  0.00     0.109 A   
ATOM     21  C10 UNL     1      -4.553  -2.905  -0.096  1.00  0.00     0.108 A   
ATOM     22  O1  UNL     1      -5.899  -1.374  -1.099  1.00  0.00    -0.316 OA  
ATOM     23  O2  UNL     1      -5.749  -3.547  -0.065  1.00  0.00    -0.316 OA  
ATOM     24  C13 UNL     1      -6.598  -2.583  -0.724  1.00  0.00     0.337 C   
ENDBRANCH  15  16
ENDBRANCH  12  15
ENDBRANCH   7  12
ENDBRANCH   1   7
BRANCH   3  25
ATOM     25  C16 UNL     1       4.690  -1.275   1.051  1.00  0.00     0.170 C   
BRANCH  25  26
ATOM     26  C17 UNL     1       4.974  -1.591  -0.382  1.00  0.00    -0.013 A   
ATOM     27  C18 UNL     1       4.412  -2.655  -1.147  1.00  0.00     0.022 A   
ATOM     28  C20 UNL     1       5.849  -0.927  -1.224  1.00  0.00     0.076 A   
ATOM     29  C19 UNL     1       4.953  -2.595  -2.410  1.00  0.00     0.072 A   
ATOM     30  N3  UNL     1       5.834  -1.548  -2.447  1.00  0.00    -0.327 N   
ATOM     31  H25 UNL     1       6.398  -1.286  -3.247  1.00  0.00     0.152 HD  
ENDBRANCH  25  26
ENDBRANCH   3  25
TORSDOF 7
