REMARK SMILES NCc1cccc(-n2cc([C@@H]([NH2+]Cc3ccc4c(c3)OCO4)C3CCCCC3)nn2)c1
REMARK SMILES IDX 8 1 9 2 10 3 29 4 30 5 7 6 3 7 4 8 31 9 5 10 6 11 2 12 1 13
REMARK SMILES IDX 11 16 12 17 13 20 14 21 15 22 19 23 16 24 18 25 17 26 20 27
REMARK SMILES IDX 22 28 21 29 23 30 24 31 28 32 25 33 27 34 26 35
REMARK H PARENT 1 14 1 15 12 18 12 19
ROOT
ATOM     1   N2  UNL     1      -1.452  -1.121   0.798  1.00  0.00    -0.181 N   
ATOM     2   C7  UNL     1      -1.248  -0.255  -0.260  1.00  0.00     0.135 A   
ATOM     3   C8  UNL     1       0.085   0.083  -0.197  1.00  0.00     0.127 A   
ATOM     4   N4  UNL     1       0.654  -0.544   0.873  1.00  0.00    -0.131 NA  
ATOM     5   N5  UNL     1      -0.281  -1.260   1.474  1.00  0.00    -0.071 NA  
ENDROOT
BRANCH   1   6
ATOM     6   C6  UNL     1      -2.639  -1.784   1.195  1.00  0.00     0.058 A   
ATOM     7   C2  UNL     1      -5.016  -2.244   0.893  1.00  0.00    -0.032 A   
ATOM     8   C3  UNL     1      -4.977  -3.096   2.004  1.00  0.00     0.005 A   
ATOM     9   C24 UNL     1      -3.833  -1.601   0.486  1.00  0.00     0.031 A   
ATOM     10  C4  UNL     1      -3.788  -3.287   2.709  1.00  0.00     0.002 A   
ATOM     11  C5  UNL     1      -2.621  -2.632   2.311  1.00  0.00     0.026 A   
BRANCH   7  12
ATOM     12  C1  UNL     1      -6.297  -2.065   0.114  1.00  0.00     0.113 C   
BRANCH  12  13
ATOM     13  N1  UNL     1      -6.557  -0.656  -0.180  1.00  0.00    -0.327 NA  
ATOM     14  H1  UNL     1      -6.706  -0.168   0.703  1.00  0.00     0.119 HD  
ATOM     15  H2  UNL     1      -7.441  -0.592  -0.680  1.00  0.00     0.119 HD  
ENDBRANCH  12  13
ENDBRANCH   7  12
ENDBRANCH   1   6
BRANCH   3  16
ATOM     16  C9  UNL     1       0.914   0.979  -1.062  1.00  0.00     0.117 C   
BRANCH  16  17
ATOM     17  N3  UNL     1       2.119   1.480  -0.313  1.00  0.00     0.249 N   
ATOM     18  H10 UNL     1       2.524   0.671   0.183  1.00  0.00     0.199 HD  
ATOM     19  H11 UNL     1       2.848   1.822  -0.944  1.00  0.00     0.199 HD  
BRANCH  17  20
ATOM     20  C10 UNL     1       1.847   2.526   0.712  1.00  0.00     0.164 C   
BRANCH  20  21
ATOM     21  C11 UNL     1       3.133   2.970   1.352  1.00  0.00    -0.002 A   
ATOM     22  C12 UNL     1       3.832   4.093   0.849  1.00  0.00     0.012 A   
ATOM     23  C16 UNL     1       3.680   2.231   2.417  1.00  0.00     0.045 A   
ATOM     24  C13 UNL     1       5.057   4.481   1.402  1.00  0.00     0.037 A   
ATOM     25  C15 UNL     1       4.889   2.642   2.938  1.00  0.00     0.109 A   
ATOM     26  C14 UNL     1       5.559   3.733   2.445  1.00  0.00     0.108 A   
ATOM     27  O1  UNL     1       5.556   2.040   3.960  1.00  0.00    -0.316 OA  
ATOM     28  O2  UNL     1       6.729   3.960   3.095  1.00  0.00    -0.316 OA  
ATOM     29  C17 UNL     1       6.715   2.896   4.071  1.00  0.00     0.337 C   
ENDBRANCH  20  21
ENDBRANCH  17  20
ENDBRANCH  16  17
BRANCH  16  30
ATOM     30  C18 UNL     1       1.350   0.277  -2.377  1.00  0.00     0.043 C   
ATOM     31  C19 UNL     1       1.873   1.287  -3.418  1.00  0.00     0.010 C   
ATOM     32  C23 UNL     1       2.377  -0.855  -2.171  1.00  0.00     0.010 C   
ATOM     33  C20 UNL     1       2.232   0.601  -4.735  1.00  0.00     0.001 C   
ATOM     34  C22 UNL     1       2.737  -1.534  -3.491  1.00  0.00     0.001 C   
ATOM     35  C21 UNL     1       3.234  -0.530  -4.525  1.00  0.00     0.000 C   
ENDBRANCH  16  30
ENDBRANCH   3  16
TORSDOF 8
