REMARK SMILES Cc1cccc([C@H](CO)n2cc([C@H](CC(C)C)[NH2+]Cc3ccc4c(c3)OCO4)nn2)c1F
REMARK SMILES IDX 10 1 11 2 12 3 29 4 30 5 7 7 6 8 2 9 3 10 31 11 4 12 5 13
REMARK SMILES IDX 1 14 32 15 8 16 9 17 13 19 14 20 15 21 16 22 17 23 18 24
REMARK SMILES IDX 19 27 20 28 21 29 25 30 22 31 24 32 23 33 26 34 28 35 27 36
REMARK H PARENT 11 6 9 18 18 25 18 26
ROOT
ATOM     1   N1  UNL     1       2.247  -0.013   1.175  1.00  0.00    -0.202 N   
ATOM     2   C9  UNL     1       1.482  -1.085   0.799  1.00  0.00     0.046 A   
ATOM     3   C10 UNL     1       1.905  -1.366  -0.479  1.00  0.00     0.127 A   
ATOM     4   N3  UNL     1       2.881  -0.472  -0.841  1.00  0.00    -0.132 NA  
ATOM     5   N4  UNL     1       3.086   0.345   0.177  1.00  0.00    -0.075 NA  
ATOM     6   H11 UNL     1       0.736  -1.518   1.451  1.00  0.00     0.083 HD  
ENDROOT
BRANCH   1   7
ATOM     7   C7  UNL     1       2.233   0.692   2.458  1.00  0.00     0.158 C   
BRANCH   7   8
ATOM     8   C6  UNL     1       1.765   2.124   2.278  1.00  0.00     0.013 A   
ATOM     9   C2  UNL     1      -0.025   3.778   2.507  1.00  0.00    -0.015 A   
ATOM     10  C3  UNL     1       0.831   4.762   2.002  1.00  0.00     0.006 A   
ATOM     11  C24 UNL     1       0.454   2.470   2.634  1.00  0.00     0.131 A   
ATOM     12  C4  UNL     1       2.134   4.438   1.626  1.00  0.00     0.001 A   
ATOM     13  C5  UNL     1       2.600   3.129   1.763  1.00  0.00     0.009 A   
ATOM     14  C1  UNL     1      -1.415   4.143   2.935  1.00  0.00     0.047 C   
ATOM     15  F1  UNL     1      -0.362   1.517   3.111  1.00  0.00    -0.206 F   
ENDBRANCH   7   8
BRANCH   7  16
ATOM     16  C8  UNL     1       3.587   0.570   3.180  1.00  0.00     0.186 C   
BRANCH  16  17
ATOM     17  O1  UNL     1       3.773  -0.768   3.652  1.00  0.00    -0.394 OA  
ATOM     18  H10 UNL     1       4.606  -0.778   4.160  1.00  0.00     0.210 HD  
ENDBRANCH  16  17
ENDBRANCH   7  16
ENDBRANCH   1   7
BRANCH   3  19
ATOM     19  C11 UNL     1       1.440  -2.372  -1.481  1.00  0.00     0.114 C   
BRANCH  19  20
ATOM     20  C12 UNL     1       2.393  -3.582  -1.528  1.00  0.00     0.064 C   
BRANCH  20  21
ATOM     21  C13 UNL     1       1.953  -4.750  -2.437  1.00  0.00    -0.012 C   
ATOM     22  C14 UNL     1       0.603  -5.337  -2.024  1.00  0.00     0.007 C   
ATOM     23  C15 UNL     1       3.021  -5.848  -2.409  1.00  0.00     0.007 C   
ENDBRANCH  20  21
ENDBRANCH  19  20
BRANCH  19  24
ATOM     24  N2  UNL     1       1.398  -1.713  -2.844  1.00  0.00     0.249 N   
ATOM     25  H22 UNL     1       1.800  -2.320  -3.563  1.00  0.00     0.199 HD  
ATOM     26  H23 UNL     1       2.042  -0.907  -2.781  1.00  0.00     0.199 HD  
BRANCH  24  27
ATOM     27  C16 UNL     1       0.069  -1.215  -3.298  1.00  0.00     0.164 C   
BRANCH  27  28
ATOM     28  C17 UNL     1      -0.577  -0.235  -2.359  1.00  0.00    -0.002 A   
ATOM     29  C18 UNL     1      -0.042   1.065  -2.191  1.00  0.00     0.012 A   
ATOM     30  C22 UNL     1      -1.702  -0.619  -1.609  1.00  0.00     0.045 A   
ATOM     31  C19 UNL     1      -0.609   1.965  -1.281  1.00  0.00     0.037 A   
ATOM     32  C21 UNL     1      -2.234   0.291  -0.720  1.00  0.00     0.109 A   
ATOM     33  C20 UNL     1      -1.705   1.547  -0.561  1.00  0.00     0.108 A   
ATOM     34  O2  UNL     1      -3.305   0.070   0.087  1.00  0.00    -0.316 OA  
ATOM     35  O3  UNL     1      -2.383   2.281   0.358  1.00  0.00    -0.316 OA  
ATOM     36  C23 UNL     1      -3.389   1.336   0.780  1.00  0.00     0.337 C   
ENDBRANCH  27  28
ENDBRANCH  24  27
ENDBRANCH  19  24
ENDBRANCH   3  19
TORSDOF 10
