REMARK SMILES Cc1cccc([C@@H](CO)n2cc([C@H](CC(C)C)[NH2+]Cc3ccc4c(c3)OCO4)nn2)c1F
REMARK SMILES IDX 10 1 11 2 12 3 29 4 30 5 7 7 6 8 2 9 3 10 31 11 4 12 5 13
REMARK SMILES IDX 1 14 32 15 8 16 9 17 13 19 14 20 15 21 16 22 17 23 18 24
REMARK SMILES IDX 19 27 20 28 21 29 25 30 22 31 24 32 23 33 26 34 28 35 27 36
REMARK H PARENT 11 6 9 18 18 25 18 26
ROOT
ATOM     1   N1  UNL     1      -2.066  -1.400   1.369  1.00  0.00    -0.202 N   
ATOM     2   C9  UNL     1      -1.508  -0.193   1.040  1.00  0.00     0.046 A   
ATOM     3   C10 UNL     1      -2.284   0.263   0.001  1.00  0.00     0.127 A   
ATOM     4   N3  UNL     1      -3.291  -0.635  -0.242  1.00  0.00    -0.132 NA  
ATOM     5   N4  UNL     1      -3.149  -1.647   0.599  1.00  0.00    -0.075 NA  
ATOM     6   H11 UNL     1      -0.629   0.193   1.542  1.00  0.00     0.083 HD  
ENDROOT
BRANCH   1   7
ATOM     7   C7  UNL     1      -1.615  -2.390   2.352  1.00  0.00     0.158 C   
BRANCH   7   8
ATOM     8   C6  UNL     1      -0.109  -2.605   2.256  1.00  0.00     0.013 A   
ATOM     9   C2  UNL     1       1.791  -3.361   0.894  1.00  0.00    -0.015 A   
ATOM     10  C3  UNL     1       2.659  -3.042   1.939  1.00  0.00     0.006 A   
ATOM     11  C24 UNL     1       0.420  -3.152   1.074  1.00  0.00     0.131 A   
ATOM     12  C4  UNL     1       2.160  -2.502   3.124  1.00  0.00     0.001 A   
ATOM     13  C5  UNL     1       0.789  -2.283   3.282  1.00  0.00     0.009 A   
ATOM     14  C1  UNL     1       2.312  -3.960  -0.378  1.00  0.00     0.047 C   
ATOM     15  F1  UNL     1      -0.417  -3.462   0.071  1.00  0.00    -0.206 F   
ENDBRANCH   7   8
BRANCH   7  16
ATOM     16  C8  UNL     1      -2.204  -2.062   3.738  1.00  0.00     0.186 C   
BRANCH  16  17
ATOM     17  O1  UNL     1      -1.800  -0.776   4.215  1.00  0.00    -0.394 OA  
ATOM     18  H10 UNL     1      -2.244  -0.639   5.076  1.00  0.00     0.210 HD  
ENDBRANCH  16  17
ENDBRANCH   7  16
ENDBRANCH   1   7
BRANCH   3  19
ATOM     19  C11 UNL     1      -2.130   1.459  -0.871  1.00  0.00     0.114 C   
BRANCH  19  20
ATOM     20  C12 UNL     1      -3.142   2.572  -0.538  1.00  0.00     0.064 C   
BRANCH  20  21
ATOM     21  C13 UNL     1      -3.009   3.176   0.877  1.00  0.00    -0.012 C   
ATOM     22  C14 UNL     1      -1.643   3.823   1.106  1.00  0.00     0.007 C   
ATOM     23  C15 UNL     1      -4.115   4.210   1.101  1.00  0.00     0.007 C   
ENDBRANCH  20  21
ENDBRANCH  19  20
BRANCH  19  24
ATOM     24  N2  UNL     1      -2.356   1.088  -2.326  1.00  0.00     0.249 N   
ATOM     25  H22 UNL     1      -3.310   0.704  -2.383  1.00  0.00     0.199 HD  
ATOM     26  H23 UNL     1      -2.326   1.933  -2.904  1.00  0.00     0.199 HD  
BRANCH  24  27
ATOM     27  C16 UNL     1      -1.442   0.053  -2.906  1.00  0.00     0.164 C   
BRANCH  27  28
ATOM     28  C17 UNL     1       0.015   0.410  -2.811  1.00  0.00    -0.002 A   
ATOM     29  C18 UNL     1       0.551   1.482  -3.564  1.00  0.00     0.012 A   
ATOM     30  C22 UNL     1       0.853  -0.313  -1.944  1.00  0.00     0.045 A   
ATOM     31  C19 UNL     1       1.899   1.835  -3.448  1.00  0.00     0.037 A   
ATOM     32  C21 UNL     1       2.177   0.059  -1.856  1.00  0.00     0.109 A   
ATOM     33  C20 UNL     1       2.685   1.105  -2.585  1.00  0.00     0.108 A   
ATOM     34  O2  UNL     1       3.115  -0.532  -1.071  1.00  0.00    -0.316 OA  
ATOM     35  O3  UNL     1       4.005   1.307  -2.349  1.00  0.00    -0.316 OA  
ATOM     36  C23 UNL     1       4.283   0.252  -1.403  1.00  0.00     0.337 C   
ENDBRANCH  27  28
ENDBRANCH  24  27
ENDBRANCH  19  24
ENDBRANCH   3  19
TORSDOF 10
