REMARK SMILES O=C(c1ccc(Cl)nc1)n1cc([C@@H]([NH2+]Cc2ccc3c(c2)OCO3)C2CCCCC2)nn1
REMARK SMILES IDX 10 1 11 2 12 3 31 4 32 5 2 6 1 7 3 8 4 9 9 10 5 11 8 12 6 13
REMARK SMILES IDX 7 14 13 15 14 16 15 19 16 20 17 21 21 22 18 23 20 24 19 25
REMARK SMILES IDX 22 26 24 27 23 28 25 29 26 30 30 31 27 32 29 33 28 34
REMARK H PARENT 14 17 14 18
ROOT
ATOM     1   N2  UNL     1      -3.926   0.317  -0.100  1.00  0.00    -0.143 N   
ATOM     2   C7  UNL     1      -3.113   1.411  -0.339  1.00  0.00     0.139 A   
ATOM     3   C8  UNL     1      -1.837   0.902  -0.428  1.00  0.00     0.128 A   
ATOM     4   N4  UNL     1      -1.893  -0.448  -0.231  1.00  0.00    -0.131 NA  
ATOM     5   N5  UNL     1      -3.153  -0.789  -0.009  1.00  0.00    -0.068 NA  
ENDROOT
BRANCH   1   6
ATOM     6   C1  UNL     1      -5.314   0.295   0.108  1.00  0.00     0.272 C   
ATOM     7   O1  UNL     1      -5.865   1.394   0.125  1.00  0.00    -0.269 OA  
BRANCH   6   8
ATOM     8   C2  UNL     1      -6.144  -0.912   0.332  1.00  0.00     0.058 A   
ATOM     9   C3  UNL     1      -5.838  -2.182  -0.166  1.00  0.00     0.018 A   
ATOM     10  C6  UNL     1      -7.326  -0.770   1.054  1.00  0.00     0.126 A   
ATOM     11  C4  UNL     1      -6.703  -3.247   0.096  1.00  0.00     0.042 A   
ATOM     12  N1  UNL     1      -8.173  -1.790   1.331  1.00  0.00    -0.244 NA  
ATOM     13  C5  UNL     1      -7.842  -3.001   0.843  1.00  0.00     0.129 A   
ATOM     14  CL1 UNL     1      -8.947  -4.256   1.212  1.00  0.00    -0.062 Cl  
ENDBRANCH   6   8
ENDBRANCH   1   6
BRANCH   3  15
ATOM     15  C9  UNL     1      -0.533   1.606  -0.661  1.00  0.00     0.117 C   
BRANCH  15  16
ATOM     16  N3  UNL     1       0.431   1.376   0.477  1.00  0.00     0.249 N   
ATOM     17  H6  UNL     1      -0.075   1.553   1.355  1.00  0.00     0.199 HD  
ATOM     18  H7  UNL     1       1.172   2.086   0.452  1.00  0.00     0.199 HD  
BRANCH  16  19
ATOM     19  C10 UNL     1       1.071   0.033   0.619  1.00  0.00     0.164 C   
BRANCH  19  20
ATOM     20  C11 UNL     1       1.964   0.014   1.829  1.00  0.00    -0.002 A   
ATOM     21  C12 UNL     1       1.478  -0.475   3.066  1.00  0.00     0.012 A   
ATOM     22  C16 UNL     1       3.269   0.531   1.753  1.00  0.00     0.045 A   
ATOM     23  C13 UNL     1       2.282  -0.459   4.210  1.00  0.00     0.037 A   
ATOM     24  C15 UNL     1       4.034   0.535   2.901  1.00  0.00     0.109 A   
ATOM     25  C14 UNL     1       3.555   0.054   4.095  1.00  0.00     0.108 A   
ATOM     26  O2  UNL     1       5.305   1.003   3.001  1.00  0.00    -0.316 OA  
ATOM     27  O3  UNL     1       4.467   0.154   5.096  1.00  0.00    -0.316 OA  
ATOM     28  C17 UNL     1       5.586   0.739   4.396  1.00  0.00     0.337 C   
ENDBRANCH  19  20
ENDBRANCH  16  19
ENDBRANCH  15  16
BRANCH  15  29
ATOM     29  C18 UNL     1       0.116   1.309  -2.042  1.00  0.00     0.043 C   
ATOM     30  C19 UNL     1       1.422   2.106  -2.248  1.00  0.00     0.010 C   
ATOM     31  C23 UNL     1      -0.864   1.626  -3.197  1.00  0.00     0.010 C   
ATOM     32  C20 UNL     1       2.037   1.873  -3.626  1.00  0.00     0.001 C   
ATOM     33  C22 UNL     1      -0.239   1.394  -4.571  1.00  0.00     0.001 C   
ATOM     34  C21 UNL     1       1.050   2.184  -4.743  1.00  0.00     0.000 C   
ENDBRANCH  15  29
ENDBRANCH   3  15
TORSDOF 7
