REMARK SMILES CC(C)Cn1ccc(Cn2cc([C@@H]([NH2+]Cc3ccc4c(c3)OCO4)C(C)(C)C)nn2)n1
REMARK SMILES IDX 10 1 11 2 12 3 29 4 30 5 9 7 8 8 5 9 6 10 31 11 7 12 4 13
REMARK SMILES IDX 2 14 1 15 3 16 13 17 14 18 15 21 16 22 17 23 21 24 18 25
REMARK SMILES IDX 20 26 19 27 22 28 24 29 23 30 25 31 26 32 27 33 28 34
REMARK H PARENT 11 6 14 19 14 20
ROOT
ATOM     1   N2  UNL     1      -2.406   0.061   1.191  1.00  0.00    -0.206 N   
ATOM     2   C9  UNL     1      -1.067   0.326   1.288  1.00  0.00     0.046 A   
ATOM     3   C10 UNL     1      -0.466  -0.812   0.803  1.00  0.00     0.127 A   
ATOM     4   N4  UNL     1      -1.432  -1.747   0.528  1.00  0.00    -0.132 NA  
ATOM     5   N5  UNL     1      -2.612  -1.212   0.793  1.00  0.00    -0.076 NA  
ATOM     6   H14 UNL     1      -0.698   1.291   1.612  1.00  0.00     0.083 HD  
ENDROOT
BRANCH   1   7
ATOM     7   C8  UNL     1      -3.519   0.956   1.458  1.00  0.00     0.191 C   
BRANCH   7   8
ATOM     8   C7  UNL     1      -3.651   1.938   0.346  1.00  0.00     0.079 A   
ATOM     9   N1  UNL     1      -3.208   3.621  -0.866  1.00  0.00    -0.232 N   
ATOM     10  C5  UNL     1      -4.288   3.041  -1.464  1.00  0.00     0.097 A   
ATOM     11  N6  UNL     1      -2.803   2.973   0.245  1.00  0.00    -0.185 NA  
ATOM     12  C6  UNL     1      -4.602   1.942  -0.702  1.00  0.00     0.044 A   
BRANCH   9  13
ATOM     13  C4  UNL     1      -2.513   4.820  -1.302  1.00  0.00     0.135 C   
BRANCH  13  14
ATOM     14  C2  UNL     1      -1.065   4.564  -1.755  1.00  0.00     0.002 C   
ATOM     15  C1  UNL     1      -1.001   3.656  -2.986  1.00  0.00     0.009 C   
ATOM     16  C3  UNL     1      -0.378   5.898  -2.056  1.00  0.00     0.009 C   
ENDBRANCH  13  14
ENDBRANCH   9  13
ENDBRANCH   7   8
ENDBRANCH   1   7
BRANCH   3  17
ATOM     17  C11 UNL     1       0.977  -1.157   0.591  1.00  0.00     0.120 C   
BRANCH  17  18
ATOM     18  N3  UNL     1       1.144  -2.650   0.751  1.00  0.00     0.250 N   
ATOM     19  H16 UNL     1       2.010  -2.998   0.333  1.00  0.00     0.199 HD  
ATOM     20  H17 UNL     1       0.373  -3.088   0.225  1.00  0.00     0.199 HD  
BRANCH  18  21
ATOM     21  C12 UNL     1       1.055  -3.158   2.150  1.00  0.00     0.164 C   
BRANCH  21  22
ATOM     22  C13 UNL     1       1.109  -4.659   2.159  1.00  0.00    -0.002 A   
ATOM     23  C14 UNL     1      -0.071  -5.410   1.936  1.00  0.00     0.012 A   
ATOM     24  C18 UNL     1       2.335  -5.326   2.328  1.00  0.00     0.045 A   
ATOM     25  C15 UNL     1      -0.035  -6.808   1.889  1.00  0.00     0.037 A   
ATOM     26  C17 UNL     1       2.335  -6.704   2.273  1.00  0.00     0.109 A   
ATOM     27  C16 UNL     1       1.184  -7.424   2.062  1.00  0.00     0.108 A   
ATOM     28  O1  UNL     1       3.428  -7.499   2.407  1.00  0.00    -0.316 OA  
ATOM     29  O2  UNL     1       1.408  -8.764   2.040  1.00  0.00    -0.316 OA  
ATOM     30  C19 UNL     1       2.834  -8.810   2.263  1.00  0.00     0.337 C   
ENDBRANCH  21  22
ENDBRANCH  18  21
ENDBRANCH  17  18
BRANCH  17  31
ATOM     31  C20 UNL     1       1.546  -0.693  -0.799  1.00  0.00     0.010 C   
ATOM     32  C21 UNL     1       1.355   0.831  -0.980  1.00  0.00     0.017 C   
ATOM     33  C22 UNL     1       3.067  -0.963  -0.876  1.00  0.00     0.017 C   
ATOM     34  C23 UNL     1       0.867  -1.408  -1.985  1.00  0.00     0.017 C   
ENDBRANCH  17  31
ENDBRANCH   3  17
TORSDOF 9
