REMARK SMILES Fc1cccc(CCn2cc([C@@H]([NH2+]Cc3ccc4c(c3)OCO4)C3CCCCC3)nn2)c1F
REMARK SMILES IDX 9 1 10 2 11 3 30 4 31 5 8 7 7 8 6 9 2 10 3 11 32 12 4 13
REMARK SMILES IDX 5 14 1 15 33 16 12 17 13 18 14 21 15 22 16 23 20 24 17 25
REMARK SMILES IDX 19 26 18 27 21 28 23 29 22 30 24 31 25 32 29 33 26 34 28 35
REMARK SMILES IDX 27 36
REMARK H PARENT 10 6 13 19 13 20
ROOT
ATOM     1   N1  UNL     1       2.560  -1.849   2.047  1.00  0.00    -0.212 N   
ATOM     2   C8  UNL     1       1.667  -0.820   1.942  1.00  0.00     0.045 A   
ATOM     3   C9  UNL     1       1.813  -0.390   0.641  1.00  0.00     0.127 A   
ATOM     4   N3  UNL     1       2.830  -1.096   0.048  1.00  0.00    -0.132 NA  
ATOM     5   N4  UNL     1       3.293  -1.968   0.925  1.00  0.00    -0.076 NA  
ATOM     6   H8  UNL     1       1.003  -0.542   2.749  1.00  0.00     0.083 HD  
ENDROOT
BRANCH   1   7
ATOM     7   C7  UNL     1       2.773  -2.752   3.159  1.00  0.00     0.139 C   
BRANCH   7   8
ATOM     8   C6  UNL     1       2.018  -4.074   3.007  1.00  0.00     0.060 C   
BRANCH   8   9
ATOM     9   C5  UNL     1       0.547  -3.954   3.323  1.00  0.00    -0.008 A   
ATOM     10  C1  UNL     1      -1.735  -3.521   2.620  1.00  0.00     0.159 A   
ATOM     11  C2  UNL     1      -2.189  -3.679   3.924  1.00  0.00     0.042 A   
ATOM     12  C25 UNL     1      -0.384  -3.659   2.321  1.00  0.00     0.162 A   
ATOM     13  C3  UNL     1      -1.277  -3.977   4.936  1.00  0.00     0.004 A   
ATOM     14  C4  UNL     1       0.084  -4.112   4.639  1.00  0.00     0.007 A   
ATOM     15  F1  UNL     1      -2.607  -3.207   1.653  1.00  0.00    -0.204 F   
ATOM     16  F2  UNL     1       0.033  -3.472   1.060  1.00  0.00    -0.203 F   
ENDBRANCH   8   9
ENDBRANCH   7   8
ENDBRANCH   1   7
BRANCH   3  17
ATOM     17  C10 UNL     1       1.112   0.671  -0.144  1.00  0.00     0.117 C   
BRANCH  17  18
ATOM     18  N2  UNL     1       2.045   1.211  -1.210  1.00  0.00     0.249 N   
ATOM     19  H10 UNL     1       1.516   1.683  -1.949  1.00  0.00     0.199 HD  
ATOM     20  H11 UNL     1       2.490   0.384  -1.634  1.00  0.00     0.199 HD  
BRANCH  18  21
ATOM     21  C11 UNL     1       3.142   2.103  -0.735  1.00  0.00     0.164 C   
BRANCH  21  22
ATOM     22  C12 UNL     1       2.656   3.488  -0.413  1.00  0.00    -0.002 A   
ATOM     23  C13 UNL     1       2.398   4.414  -1.453  1.00  0.00     0.012 A   
ATOM     24  C17 UNL     1       2.424   3.866   0.921  1.00  0.00     0.045 A   
ATOM     25  C14 UNL     1       1.919   5.698  -1.171  1.00  0.00     0.037 A   
ATOM     26  C16 UNL     1       1.946   5.137   1.164  1.00  0.00     0.109 A   
ATOM     27  C15 UNL     1       1.702   6.028   0.148  1.00  0.00     0.108 A   
ATOM     28  O1  UNL     1       1.661   5.654   2.388  1.00  0.00    -0.316 OA  
ATOM     29  O2  UNL     1       1.239   7.220   0.605  1.00  0.00    -0.316 OA  
ATOM     30  C18 UNL     1       1.241   6.991   2.030  1.00  0.00     0.337 C   
ENDBRANCH  21  22
ENDBRANCH  18  21
ENDBRANCH  17  18
BRANCH  17  31
ATOM     31  C19 UNL     1      -0.190   0.195  -0.843  1.00  0.00     0.043 C   
ATOM     32  C20 UNL     1      -1.300  -0.121   0.177  1.00  0.00     0.010 C   
ATOM     33  C24 UNL     1       0.008  -0.994  -1.803  1.00  0.00     0.010 C   
ATOM     34  C21 UNL     1      -2.605  -0.517  -0.511  1.00  0.00     0.001 C   
ATOM     35  C23 UNL     1      -1.301  -1.393  -2.484  1.00  0.00     0.001 C   
ATOM     36  C22 UNL     1      -2.400  -1.686  -1.469  1.00  0.00     0.000 C   
ENDBRANCH  17  31
ENDBRANCH   3  17
TORSDOF 8
