REMARK SMILES CC(C)[C@H]([NH2+]Cc1ccc2c(c1)OCO2)c1cn(CCc2[nH]nc3c2CCCC3)nn1
REMARK SMILES IDX 16 1 17 2 18 3 30 4 31 5 4 7 2 8 1 9 3 10 5 11 6 14 7 15
REMARK SMILES IDX 8 16 12 17 9 18 11 19 10 20 13 21 15 22 14 23 19 24 20 25
REMARK SMILES IDX 21 26 22 27 25 28 23 29 24 30 26 31 29 32 27 33 28 34
REMARK H PARENT 17 6 5 12 5 13 22 35
ROOT
ATOM     1   C13 UNL     1       0.786  -1.819   0.137  1.00  0.00     0.127 A   
ATOM     2   C14 UNL     1       1.249  -2.079   1.411  1.00  0.00     0.045 A   
ATOM     3   N2  UNL     1       0.385  -3.029   1.891  1.00  0.00    -0.212 N   
ATOM     4   N5  UNL     1      -0.432  -3.466   0.913  1.00  0.00    -0.076 NA  
ATOM     5   N6  UNL     1      -0.200  -2.729  -0.162  1.00  0.00    -0.132 NA  
ATOM     6   H18 UNL     1       1.972  -1.596   2.052  1.00  0.00     0.083 HD  
ENDROOT
BRANCH   1   7
ATOM     7   C4  UNL     1       1.072  -0.702  -0.826  1.00  0.00     0.117 C   
BRANCH   7   8
ATOM     8   C2  UNL     1       2.378   0.088  -0.533  1.00  0.00     0.037 C   
ATOM     9   C1  UNL     1       2.270   1.110   0.607  1.00  0.00     0.014 C   
ATOM     10  C3  UNL     1       2.879   0.803  -1.796  1.00  0.00     0.014 C   
ENDBRANCH   7   8
BRANCH   7  11
ATOM     11  N1  UNL     1      -0.097   0.255  -0.910  1.00  0.00     0.249 N   
ATOM     12  H9  UNL     1      -0.513   0.360   0.043  1.00  0.00     0.199 HD  
ATOM     13  H10 UNL     1       0.209   1.190  -1.178  1.00  0.00     0.199 HD  
BRANCH  11  14
ATOM     14  C5  UNL     1      -1.225  -0.132  -1.803  1.00  0.00     0.164 C   
BRANCH  14  15
ATOM     15  C6  UNL     1      -0.850  -0.119  -3.259  1.00  0.00    -0.002 A   
ATOM     16  C7  UNL     1      -0.703  -1.337  -3.967  1.00  0.00     0.012 A   
ATOM     17  C11 UNL     1      -0.612   1.098  -3.921  1.00  0.00     0.045 A   
ATOM     18  C8  UNL     1      -0.316  -1.346  -5.311  1.00  0.00     0.037 A   
ATOM     19  C10 UNL     1      -0.230   1.054  -5.245  1.00  0.00     0.109 A   
ATOM     20  C9  UNL     1      -0.085  -0.133  -5.920  1.00  0.00     0.108 A   
ATOM     21  O1  UNL     1       0.049   2.132  -6.023  1.00  0.00    -0.316 OA  
ATOM     22  O2  UNL     1       0.299   0.049  -7.210  1.00  0.00    -0.316 OA  
ATOM     23  C12 UNL     1       0.358   1.489  -7.281  1.00  0.00     0.337 C   
ENDBRANCH  14  15
ENDBRANCH  11  14
ENDBRANCH   7  11
ENDBRANCH   1   7
BRANCH   3  24
ATOM     24  C15 UNL     1       0.035  -3.236   3.286  1.00  0.00     0.140 C   
BRANCH  24  25
ATOM     25  C16 UNL     1      -1.297  -2.560   3.673  1.00  0.00     0.074 C   
BRANCH  25  26
ATOM     26  C17 UNL     1      -1.404  -1.159   3.151  1.00  0.00     0.032 A   
ATOM     27  N3  UNL     1      -1.894  -0.909   1.891  1.00  0.00    -0.242 N   
ATOM     28  C19 UNL     1      -1.072   0.075   3.660  1.00  0.00    -0.006 A   
ATOM     29  N4  UNL     1      -1.618   0.346   1.448  1.00  0.00    -0.189 NA  
ATOM     30  C18 UNL     1      -1.266   0.974   2.580  1.00  0.00     0.063 A   
ATOM     31  C20 UNL     1      -0.596   0.497   5.005  1.00  0.00     0.039 C   
ATOM     32  C23 UNL     1      -1.002   2.438   2.670  1.00  0.00     0.058 C   
ATOM     33  C21 UNL     1      -0.001   1.916   4.959  1.00  0.00     0.005 C   
ATOM     34  C22 UNL     1      -0.872   2.884   4.138  1.00  0.00     0.007 C   
ATOM     35  H23 UNL     1      -2.272  -1.596   1.241  1.00  0.00     0.175 HD  
ENDBRANCH  25  26
ENDBRANCH  24  25
ENDBRANCH   3  24
TORSDOF 8
