REMARK SMILES COc1cccc(F)c1Cn1cc([C@@H]([NH2+]Cc2ccc3c(c2)OCO3)C(C)(C)C)nn1
REMARK SMILES IDX 11 1 12 2 13 3 30 4 31 5 10 7 9 8 3 9 4 10 5 11 7 12 6 13
REMARK SMILES IDX 8 14 2 15 1 16 14 17 15 18 16 21 17 22 18 23 22 24 19 25
REMARK SMILES IDX 21 26 20 27 23 28 25 29 24 30 26 31 27 32 28 33 29 34
REMARK H PARENT 12 6 15 19 15 20
ROOT
ATOM     1   N1  UNL     1      -2.908  -0.274  -0.104  1.00  0.00    -0.208 N   
ATOM     2   C9  UNL     1      -2.038  -0.495   0.929  1.00  0.00     0.046 A   
ATOM     3   C10 UNL     1      -1.100   0.504   0.796  1.00  0.00     0.127 A   
ATOM     4   N3  UNL     1      -1.418   1.278  -0.290  1.00  0.00    -0.132 NA  
ATOM     5   N4  UNL     1      -2.524   0.795  -0.831  1.00  0.00    -0.076 NA  
ATOM     6   H9  UNL     1      -2.163  -1.316   1.621  1.00  0.00     0.083 HD  
ENDROOT
BRANCH   1   7
ATOM     7   C8  UNL     1      -4.114  -1.010  -0.442  1.00  0.00     0.175 C   
BRANCH   7   8
ATOM     8   C7  UNL     1      -3.810  -2.163  -1.359  1.00  0.00     0.037 A   
ATOM     9   C2  UNL     1      -3.436  -3.428  -0.872  1.00  0.00     0.082 A   
ATOM     10  C3  UNL     1      -3.148  -4.461  -1.773  1.00  0.00     0.034 A   
ATOM     11  C4  UNL     1      -3.237  -4.246  -3.152  1.00  0.00     0.006 A   
ATOM     12  C6  UNL     1      -3.886  -1.971  -2.743  1.00  0.00     0.130 A   
ATOM     13  C5  UNL     1      -3.607  -2.997  -3.638  1.00  0.00     0.040 A   
ATOM     14  F1  UNL     1      -4.239  -0.774  -3.229  1.00  0.00    -0.207 F   
BRANCH   9  15
ATOM     15  O1  UNL     1      -3.357  -3.548   0.492  1.00  0.00    -0.349 OA  
ATOM     16  C1  UNL     1      -3.325  -4.873   1.017  1.00  0.00     0.203 C   
ENDBRANCH   9  15
ENDBRANCH   7   8
ENDBRANCH   1   7
BRANCH   3  17
ATOM     17  C11 UNL     1       0.163   0.790   1.550  1.00  0.00     0.120 C   
BRANCH  17  18
ATOM     18  N2  UNL     1       1.196   1.300   0.572  1.00  0.00     0.250 N   
ATOM     19  H11 UNL     1       0.719   2.002  -0.014  1.00  0.00     0.199 HD  
ATOM     20  H12 UNL     1       1.970   1.787   1.029  1.00  0.00     0.199 HD  
BRANCH  18  21
ATOM     21  C12 UNL     1       1.756   0.276  -0.355  1.00  0.00     0.164 C   
BRANCH  21  22
ATOM     22  C13 UNL     1       2.703   0.915  -1.330  1.00  0.00    -0.002 A   
ATOM     23  C14 UNL     1       2.205   1.513  -2.513  1.00  0.00     0.012 A   
ATOM     24  C18 UNL     1       4.078   0.978  -1.047  1.00  0.00     0.045 A   
ATOM     25  C15 UNL     1       3.065   2.154  -3.411  1.00  0.00     0.037 A   
ATOM     26  C17 UNL     1       4.898   1.616  -1.955  1.00  0.00     0.109 A   
ATOM     27  C16 UNL     1       4.407   2.188  -3.103  1.00  0.00     0.108 A   
ATOM     28  O2  UNL     1       6.244   1.761  -1.837  1.00  0.00    -0.316 OA  
ATOM     29  O3  UNL     1       5.383   2.765  -3.851  1.00  0.00    -0.316 OA  
ATOM     30  C19 UNL     1       6.552   2.469  -3.059  1.00  0.00     0.337 C   
ENDBRANCH  21  22
ENDBRANCH  18  21
ENDBRANCH  17  18
BRANCH  17  31
ATOM     31  C20 UNL     1      -0.010   1.801   2.737  1.00  0.00     0.010 C   
ATOM     32  C21 UNL     1       1.307   1.918   3.539  1.00  0.00     0.017 C   
ATOM     33  C22 UNL     1      -0.414   3.211   2.263  1.00  0.00     0.017 C   
ATOM     34  C23 UNL     1      -1.088   1.291   3.720  1.00  0.00     0.017 C   
ENDBRANCH  17  31
ENDBRANCH   3  17
TORSDOF 8
