REMARK SMILES O=C(Cn1cc([C@@H]([NH2+]Cc2ccc3c(c2)OCO3)C2CCCCC2)nn1)c1ccccc1Cl
REMARK SMILES IDX 4 1 5 2 6 3 25 4 26 5 3 7 2 8 1 9 27 10 28 11 32 12 29 13
REMARK SMILES IDX 31 14 30 15 33 16 7 17 8 18 9 21 10 22 11 23 15 24 12 25
REMARK SMILES IDX 14 26 13 27 16 28 18 29 17 30 19 31 20 32 24 33 21 34 23 35
REMARK SMILES IDX 22 36
REMARK H PARENT 5 6 8 19 8 20
ROOT
ATOM     1   N1  UNL     1       2.662  -0.294   0.095  1.00  0.00    -0.204 N   
ATOM     2   C3  UNL     1       1.456  -0.428  -0.532  1.00  0.00     0.046 A   
ATOM     3   C4  UNL     1       0.730   0.655  -0.091  1.00  0.00     0.127 A   
ATOM     4   N3  UNL     1       1.524   1.432   0.712  1.00  0.00    -0.132 NA  
ATOM     5   N4  UNL     1       2.707   0.849   0.806  1.00  0.00    -0.076 NA  
ATOM     6   H3  UNL     1       1.210  -1.285  -1.143  1.00  0.00     0.083 HD  
ENDROOT
BRANCH   1   7
ATOM     7   C2  UNL     1       3.778  -1.227   0.122  1.00  0.00     0.214 C   
BRANCH   7   8
ATOM     8   C1  UNL     1       3.360  -2.560   0.709  1.00  0.00     0.183 C   
ATOM     9   O1  UNL     1       2.380  -2.677   1.448  1.00  0.00    -0.292 OA  
BRANCH   8  10
ATOM     10  C20 UNL     1       4.096  -3.796   0.318  1.00  0.00     0.038 A   
ATOM     11  C21 UNL     1       3.308  -4.953   0.156  1.00  0.00     0.013 A   
ATOM     12  C25 UNL     1       5.481  -3.887   0.115  1.00  0.00     0.051 A   
ATOM     13  C22 UNL     1       3.884  -6.164  -0.227  1.00  0.00     0.001 A   
ATOM     14  C24 UNL     1       6.050  -5.107  -0.272  1.00  0.00     0.021 A   
ATOM     15  C23 UNL     1       5.254  -6.241  -0.447  1.00  0.00     0.002 A   
ATOM     16  CL1 UNL     1       6.577  -2.581   0.373  1.00  0.00    -0.084 Cl  
ENDBRANCH   8  10
ENDBRANCH   7   8
ENDBRANCH   1   7
BRANCH   3  17
ATOM     17  C5  UNL     1      -0.713   0.995  -0.264  1.00  0.00     0.117 C   
BRANCH  17  18
ATOM     18  N2  UNL     1      -1.309   1.480   1.037  1.00  0.00     0.249 N   
ATOM     19  H5  UNL     1      -2.264   1.818   0.896  1.00  0.00     0.199 HD  
ATOM     20  H6  UNL     1      -0.738   2.280   1.339  1.00  0.00     0.199 HD  
BRANCH  18  21
ATOM     21  C6  UNL     1      -1.300   0.513   2.181  1.00  0.00     0.164 C   
BRANCH  21  22
ATOM     22  C7  UNL     1      -1.948  -0.808   1.872  1.00  0.00    -0.002 A   
ATOM     23  C8  UNL     1      -1.169  -1.991   1.886  1.00  0.00     0.012 A   
ATOM     24  C12 UNL     1      -3.316  -0.885   1.552  1.00  0.00     0.045 A   
ATOM     25  C9  UNL     1      -1.735  -3.233   1.575  1.00  0.00     0.037 A   
ATOM     26  C11 UNL     1      -3.841  -2.125   1.245  1.00  0.00     0.109 A   
ATOM     27  C10 UNL     1      -3.074  -3.266   1.254  1.00  0.00     0.108 A   
ATOM     28  O2  UNL     1      -5.132  -2.371   0.902  1.00  0.00    -0.316 OA  
ATOM     29  O3  UNL     1      -3.787  -4.374   0.922  1.00  0.00    -0.316 OA  
ATOM     30  C13 UNL     1      -5.099  -3.808   0.725  1.00  0.00     0.337 C   
ENDBRANCH  21  22
ENDBRANCH  18  21
ENDBRANCH  17  18
BRANCH  17  31
ATOM     31  C14 UNL     1      -0.950   2.032  -1.398  1.00  0.00     0.043 C   
ATOM     32  C15 UNL     1      -2.436   2.089  -1.808  1.00  0.00     0.010 C   
ATOM     33  C19 UNL     1      -0.433   3.450  -1.083  1.00  0.00     0.010 C   
ATOM     34  C16 UNL     1      -2.668   3.053  -2.971  1.00  0.00     0.001 C   
ATOM     35  C18 UNL     1      -0.668   4.408  -2.251  1.00  0.00     0.001 C   
ATOM     36  C17 UNL     1      -2.137   4.448  -2.659  1.00  0.00     0.000 C   
ENDBRANCH  17  31
ENDBRANCH   3  17
TORSDOF 8
