REMARK SMILES CC(C)[C@H]([NH2+]Cc1ccc2c(c1)OCO2)c1cn(-c2ccc(N(C)C)cc2)nn1
REMARK SMILES IDX 16 1 17 2 18 3 28 4 29 5 4 6 2 7 1 8 3 9 5 10 6 13 7 14 8 15
REMARK SMILES IDX 12 16 9 17 11 18 10 19 13 20 15 21 14 22 19 23 20 24 27 25
REMARK SMILES IDX 21 26 26 27 22 28 23 29 24 30 25 31
REMARK H PARENT 5 11 5 12
ROOT
ATOM     1   C13 UNL     1      -1.800  -0.052   0.813  1.00  0.00     0.127 A   
ATOM     2   C14 UNL     1      -1.707   1.235   0.332  1.00  0.00     0.135 A   
ATOM     3   N2  UNL     1      -0.415   1.635   0.623  1.00  0.00    -0.181 N   
ATOM     4   N4  UNL     1       0.232   0.606   1.229  1.00  0.00    -0.071 NA  
ATOM     5   N5  UNL     1      -0.601  -0.413   1.359  1.00  0.00    -0.131 NA  
ENDROOT
BRANCH   1   6
ATOM     6   C4  UNL     1      -2.930  -1.034   0.801  1.00  0.00     0.117 C   
BRANCH   6   7
ATOM     7   C2  UNL     1      -3.981  -0.728   1.901  1.00  0.00     0.037 C   
ATOM     8   C1  UNL     1      -3.470  -0.956   3.329  1.00  0.00     0.014 C   
ATOM     9   C3  UNL     1      -5.277  -1.518   1.683  1.00  0.00     0.014 C   
ENDBRANCH   6   7
BRANCH   6  10
ATOM     10  N1  UNL     1      -2.410  -2.439   0.955  1.00  0.00     0.249 N   
ATOM     11  H9  UNL     1      -3.130  -3.086   1.289  1.00  0.00     0.199 HD  
ATOM     12  H10 UNL     1      -1.687  -2.410   1.690  1.00  0.00     0.199 HD  
BRANCH  10  13
ATOM     13  C5  UNL     1      -1.771  -3.019  -0.260  1.00  0.00     0.164 C   
BRANCH  13  14
ATOM     14  C6  UNL     1      -1.224  -4.386   0.040  1.00  0.00    -0.002 A   
ATOM     15  C7  UNL     1      -1.994  -5.543  -0.227  1.00  0.00     0.012 A   
ATOM     16  C11 UNL     1       0.041  -4.518   0.639  1.00  0.00     0.045 A   
ATOM     17  C8  UNL     1      -1.508  -6.816   0.089  1.00  0.00     0.037 A   
ATOM     18  C10 UNL     1       0.489  -5.787   0.938  1.00  0.00     0.109 A   
ATOM     19  C9  UNL     1      -0.263  -6.904   0.671  1.00  0.00     0.108 A   
ATOM     20  O1  UNL     1       1.681  -6.089   1.517  1.00  0.00    -0.316 OA  
ATOM     21  O2  UNL     1       0.362  -8.051   1.046  1.00  0.00    -0.316 OA  
ATOM     22  C12 UNL     1       1.607  -7.532   1.561  1.00  0.00     0.337 C   
ENDBRANCH  13  14
ENDBRANCH  10  13
ENDBRANCH   6  10
ENDBRANCH   1   6
BRANCH   3  23
ATOM     23  C15 UNL     1       0.217   2.874   0.361  1.00  0.00     0.058 A   
ATOM     24  C16 UNL     1      -0.462   3.918  -0.267  1.00  0.00     0.028 A   
ATOM     25  C22 UNL     1       1.546   3.069   0.742  1.00  0.00     0.028 A   
ATOM     26  C17 UNL     1       0.193   5.137  -0.510  1.00  0.00     0.025 A   
ATOM     27  C21 UNL     1       2.181   4.295   0.491  1.00  0.00     0.025 A   
ATOM     28  C18 UNL     1       1.533   5.364  -0.152  1.00  0.00     0.028 A   
BRANCH  28  29
ATOM     29  N3  UNL     1       2.165   6.588  -0.380  1.00  0.00    -0.337 N   
ATOM     30  C19 UNL     1       1.574   7.540  -1.320  1.00  0.00     0.129 C   
ATOM     31  C20 UNL     1       3.611   6.702  -0.193  1.00  0.00     0.129 C   
ENDBRANCH  28  29
ENDBRANCH   3  23
TORSDOF 7
