REMARK SMILES CC(C)[C@H]([NH2+]Cc1ccc2c(c1)OCO2)c1cn([C@@H](CO)c2ccccc2F)nn1
REMARK SMILES IDX 16 1 17 2 18 3 29 4 30 5 4 7 2 8 1 9 3 10 5 11 6 14 7 15
REMARK SMILES IDX 8 16 12 17 9 18 11 19 10 20 13 21 15 22 14 23 19 24 20 25
REMARK SMILES IDX 21 26 22 28 23 29 27 30 24 31 26 32 25 33 28 34
REMARK H PARENT 17 6 5 12 5 13 21 27
ROOT
ATOM     1   C13 UNL     1       1.806  -0.036  -0.168  1.00  0.00     0.127 A   
ATOM     2   C14 UNL     1       1.093   1.092  -0.497  1.00  0.00     0.046 A   
ATOM     3   N2  UNL     1       0.719   0.883  -1.800  1.00  0.00    -0.202 N   
ATOM     4   N3  UNL     1       1.162  -0.318  -2.235  1.00  0.00    -0.075 NA  
ATOM     5   N4  UNL     1       1.840  -0.881  -1.250  1.00  0.00    -0.132 NA  
ATOM     6   H18 UNL     1       0.795   1.975   0.052  1.00  0.00     0.083 HD  
ENDROOT
BRANCH   1   7
ATOM     7   C4  UNL     1       2.413  -0.483   1.122  1.00  0.00     0.117 C   
BRANCH   7   8
ATOM     8   C2  UNL     1       3.884  -0.022   1.281  1.00  0.00     0.037 C   
ATOM     9   C1  UNL     1       4.858  -0.651   0.277  1.00  0.00     0.014 C   
ATOM     10  C3  UNL     1       4.389  -0.256   2.709  1.00  0.00     0.014 C   
ENDBRANCH   7   8
BRANCH   7  11
ATOM     11  N1  UNL     1       2.307  -1.990   1.221  1.00  0.00     0.249 N   
ATOM     12  H9  UNL     1       3.183  -2.405   1.557  1.00  0.00     0.199 HD  
ATOM     13  H10 UNL     1       2.200  -2.322   0.246  1.00  0.00     0.199 HD  
BRANCH  11  14
ATOM     14  C5  UNL     1       1.170  -2.524   2.026  1.00  0.00     0.164 C   
BRANCH  14  15
ATOM     15  C6  UNL     1      -0.188  -2.039   1.593  1.00  0.00    -0.002 A   
ATOM     16  C7  UNL     1      -0.722  -2.406   0.333  1.00  0.00     0.012 A   
ATOM     17  C11 UNL     1      -0.927  -1.190   2.435  1.00  0.00     0.045 A   
ATOM     18  C8  UNL     1      -1.957  -1.908  -0.097  1.00  0.00     0.037 A   
ATOM     19  C10 UNL     1      -2.146  -0.725   1.986  1.00  0.00     0.109 A   
ATOM     20  C9  UNL     1      -2.644  -1.068   0.753  1.00  0.00     0.108 A   
ATOM     21  O1  UNL     1      -2.975   0.107   2.672  1.00  0.00    -0.316 OA  
ATOM     22  O2  UNL     1      -3.845  -0.482   0.499  1.00  0.00    -0.316 OA  
ATOM     23  C12 UNL     1      -4.077   0.216   1.745  1.00  0.00     0.337 C   
ENDBRANCH  14  15
ENDBRANCH  11  14
ENDBRANCH   7  11
ENDBRANCH   1   7
BRANCH   3  24
ATOM     24  C15 UNL     1      -0.106   1.721  -2.670  1.00  0.00     0.158 C   
BRANCH  24  25
ATOM     25  C16 UNL     1      -1.604   1.503  -2.380  1.00  0.00     0.186 C   
BRANCH  25  26
ATOM     26  O3  UNL     1      -1.964   1.791  -1.028  1.00  0.00    -0.394 OA  
ATOM     27  H22 UNL     1      -2.900   1.524  -0.929  1.00  0.00     0.210 HD  
ENDBRANCH  25  26
ENDBRANCH  24  25
BRANCH  24  28
ATOM     28  C17 UNL     1       0.398   3.155  -2.688  1.00  0.00     0.013 A   
ATOM     29  C18 UNL     1      -0.197   4.202  -1.966  1.00  0.00     0.009 A   
ATOM     30  C22 UNL     1       1.534   3.454  -3.459  1.00  0.00     0.128 A   
ATOM     31  C19 UNL     1       0.326   5.498  -2.030  1.00  0.00     0.001 A   
ATOM     32  C21 UNL     1       2.058   4.740  -3.528  1.00  0.00     0.039 A   
ATOM     33  C20 UNL     1       1.451   5.768  -2.813  1.00  0.00     0.003 A   
ATOM     34  F1  UNL     1       2.138   2.477  -4.154  1.00  0.00    -0.207 F   
ENDBRANCH  24  28
ENDBRANCH   3  24
TORSDOF 9
