REMARK SMILES CC(C)[C@H]([NH2+]Cc1ccc2c(c1)OCO2)c1cn([C@H](CO)c2ccccc2F)nn1
REMARK SMILES IDX 16 1 17 2 18 3 29 4 30 5 4 7 2 8 1 9 3 10 5 11 6 14 7 15
REMARK SMILES IDX 8 16 12 17 9 18 11 19 10 20 13 21 15 22 14 23 19 24 20 25
REMARK SMILES IDX 21 26 22 28 23 29 27 30 24 31 26 32 25 33 28 34
REMARK H PARENT 17 6 5 12 5 13 21 27
ROOT
ATOM     1   C13 UNL     1       0.733  -0.417  -1.397  1.00  0.00     0.127 A   
ATOM     2   C14 UNL     1      -0.384  -0.980  -0.824  1.00  0.00     0.046 A   
ATOM     3   N2  UNL     1      -0.018  -2.278  -0.582  1.00  0.00    -0.202 N   
ATOM     4   N3  UNL     1       1.258  -2.493  -0.972  1.00  0.00    -0.075 NA  
ATOM     5   N4  UNL     1       1.724  -1.363  -1.478  1.00  0.00    -0.132 NA  
ATOM     6   H18 UNL     1      -1.367  -0.602  -0.575  1.00  0.00     0.083 HD  
ENDROOT
BRANCH   1   7
ATOM     7   C4  UNL     1       1.001   0.976  -1.868  1.00  0.00     0.117 C   
BRANCH   7   8
ATOM     8   C2  UNL     1       0.458   1.225  -3.300  1.00  0.00     0.037 C   
ATOM     9   C1  UNL     1       0.443   2.719  -3.647  1.00  0.00     0.014 C   
ATOM     10  C3  UNL     1       1.201   0.448  -4.394  1.00  0.00     0.014 C   
ENDBRANCH   7   8
BRANCH   7  11
ATOM     11  N1  UNL     1       2.481   1.271  -1.811  1.00  0.00     0.249 N   
ATOM     12  H9  UNL     1       2.948   0.447  -2.215  1.00  0.00     0.199 HD  
ATOM     13  H10 UNL     1       2.719   2.074  -2.398  1.00  0.00     0.199 HD  
BRANCH  11  14
ATOM     14  C5  UNL     1       3.056   1.474  -0.448  1.00  0.00     0.164 C   
BRANCH  14  15
ATOM     15  C6  UNL     1       2.617   2.768   0.179  1.00  0.00    -0.002 A   
ATOM     16  C7  UNL     1       3.113   4.005  -0.304  1.00  0.00     0.012 A   
ATOM     17  C11 UNL     1       1.687   2.761   1.233  1.00  0.00     0.045 A   
ATOM     18  C8  UNL     1       2.684   5.216   0.250  1.00  0.00     0.037 A   
ATOM     19  C10 UNL     1       1.285   3.973   1.755  1.00  0.00     0.109 A   
ATOM     20  C9  UNL     1       1.768   5.166   1.277  1.00  0.00     0.108 A   
ATOM     21  O1  UNL     1       0.392   4.142   2.765  1.00  0.00    -0.316 OA  
ATOM     22  O2  UNL     1       1.243   6.236   1.928  1.00  0.00    -0.316 OA  
ATOM     23  C12 UNL     1       0.393   5.582   2.894  1.00  0.00     0.337 C   
ENDBRANCH  14  15
ENDBRANCH  11  14
ENDBRANCH   7  11
ENDBRANCH   1   7
BRANCH   3  24
ATOM     24  C15 UNL     1      -0.831  -3.339   0.014  1.00  0.00     0.158 C   
BRANCH  24  25
ATOM     25  C16 UNL     1      -0.165  -3.922   1.273  1.00  0.00     0.186 C   
BRANCH  25  26
ATOM     26  O3  UNL     1      -0.171  -2.954   2.328  1.00  0.00    -0.394 OA  
ATOM     27  H22 UNL     1       0.171  -3.400   3.125  1.00  0.00     0.210 HD  
ENDBRANCH  25  26
ENDBRANCH  24  25
BRANCH  24  28
ATOM     28  C17 UNL     1      -1.200  -4.359  -1.046  1.00  0.00     0.013 A   
ATOM     29  C18 UNL     1      -0.410  -5.484  -1.333  1.00  0.00     0.009 A   
ATOM     30  C22 UNL     1      -2.360  -4.158  -1.804  1.00  0.00     0.128 A   
ATOM     31  C19 UNL     1      -0.796  -6.385  -2.331  1.00  0.00     0.001 A   
ATOM     32  C21 UNL     1      -2.750  -5.052  -2.797  1.00  0.00     0.039 A   
ATOM     33  C20 UNL     1      -1.967  -6.172  -3.058  1.00  0.00     0.003 A   
ATOM     34  F1  UNL     1      -3.116  -3.074  -1.580  1.00  0.00    -0.207 F   
ENDBRANCH  24  28
ENDBRANCH   3  24
TORSDOF 9
