REMARK SMILES CC(C)(C)[C@H]([NH2+]Cc1ccc2c(c1)OCO2)c1cn(CCc2nc[nH]n2)nn1
REMARK SMILES IDX 17 1 18 2 19 3 27 4 28 5 5 7 2 8 1 9 3 10 4 11 6 12 7 15
REMARK SMILES IDX 8 16 9 17 13 18 10 19 12 20 11 21 14 22 16 23 15 24 20 25
REMARK SMILES IDX 21 26 22 27 23 28 26 29 24 30 25 31
REMARK H PARENT 18 6 6 13 6 14 25 32
ROOT
ATOM     1   C14 UNL     1       1.405   0.671  -0.167  1.00  0.00     0.127 A   
ATOM     2   C15 UNL     1       2.301  -0.266  -0.634  1.00  0.00     0.045 A   
ATOM     3   N2  UNL     1       3.360  -0.162   0.221  1.00  0.00    -0.212 N   
ATOM     4   N6  UNL     1       3.150   0.803   1.136  1.00  0.00    -0.076 NA  
ATOM     5   N7  UNL     1       1.955   1.325   0.907  1.00  0.00    -0.132 NA  
ATOM     6   H20 UNL     1       2.268  -0.998  -1.431  1.00  0.00     0.083 HD  
ENDROOT
BRANCH   1   7
ATOM     7   C5  UNL     1      -0.005   0.977  -0.567  1.00  0.00     0.120 C   
BRANCH   7   8
ATOM     8   C2  UNL     1      -0.137   2.114  -1.643  1.00  0.00     0.010 C   
ATOM     9   C1  UNL     1       0.660   1.734  -2.914  1.00  0.00     0.017 C   
ATOM     10  C3  UNL     1      -1.613   2.284  -2.071  1.00  0.00     0.017 C   
ATOM     11  C4  UNL     1       0.380   3.475  -1.135  1.00  0.00     0.017 C   
ENDBRANCH   7   8
BRANCH   7  12
ATOM     12  N1  UNL     1      -0.790   1.340   0.680  1.00  0.00     0.250 N   
ATOM     13  H11 UNL     1      -0.218   2.035   1.181  1.00  0.00     0.199 HD  
ATOM     14  H12 UNL     1      -1.679   1.785   0.450  1.00  0.00     0.199 HD  
BRANCH  12  15
ATOM     15  C6  UNL     1      -1.041   0.223   1.644  1.00  0.00     0.164 C   
BRANCH  15  16
ATOM     16  C7  UNL     1      -1.992  -0.813   1.112  1.00  0.00    -0.002 A   
ATOM     17  C8  UNL     1      -1.535  -2.123   0.835  1.00  0.00     0.012 A   
ATOM     18  C12 UNL     1      -3.339  -0.486   0.876  1.00  0.00     0.045 A   
ATOM     19  C9  UNL     1      -2.402  -3.095   0.325  1.00  0.00     0.037 A   
ATOM     20  C11 UNL     1      -4.167  -1.466   0.369  1.00  0.00     0.109 A   
ATOM     21  C10 UNL     1      -3.712  -2.734   0.100  1.00  0.00     0.108 A   
ATOM     22  O1  UNL     1      -5.486  -1.314   0.081  1.00  0.00    -0.316 OA  
ATOM     23  O2  UNL     1      -4.689  -3.540  -0.389  1.00  0.00    -0.316 OA  
ATOM     24  C13 UNL     1      -5.824  -2.648  -0.363  1.00  0.00     0.337 C   
ENDBRANCH  15  16
ENDBRANCH  12  15
ENDBRANCH   7  12
ENDBRANCH   1   7
BRANCH   3  25
ATOM     25  C16 UNL     1       4.551  -0.983   0.284  1.00  0.00     0.142 C   
BRANCH  25  26
ATOM     26  C17 UNL     1       4.342  -2.215   1.155  1.00  0.00     0.100 C   
BRANCH  26  27
ATOM     27  C18 UNL     1       3.515  -3.244   0.479  1.00  0.00     0.149 A   
ATOM     28  N3  UNL     1       2.162  -3.365   0.676  1.00  0.00    -0.223 NA  
ATOM     29  N5  UNL     1       4.030  -4.103  -0.407  1.00  0.00    -0.168 NA  
ATOM     30  C19 UNL     1       1.853  -4.414  -0.055  1.00  0.00     0.205 A   
ATOM     31  N4  UNL     1       2.964  -4.868  -0.697  1.00  0.00    -0.226 N   
ATOM     32  H26 UNL     1       3.070  -5.658  -1.325  1.00  0.00     0.177 HD  
ENDBRANCH  26  27
ENDBRANCH  25  26
ENDBRANCH   3  25
TORSDOF 8
