REMARK SMILES Oc1c(Cl)cccc1CCn1cc([C@@H]([NH2+]Cc2ccc3c(c2)OCO3)C2CCCCC2)nn1
REMARK SMILES IDX 11 1 12 2 13 3 32 4 33 5 10 7 9 8 8 9 2 10 3 11 5 12 7 13
REMARK SMILES IDX 6 14 4 15 1 16 14 18 15 19 16 22 17 23 18 24 22 25 19 26
REMARK SMILES IDX 21 27 20 28 23 29 25 30 24 31 26 32 27 33 31 34 28 35 30 36
REMARK SMILES IDX 29 37
REMARK H PARENT 12 6 1 17 15 20 15 21
ROOT
ATOM     1   N1  UNL     1       0.054  -0.654   1.363  1.00  0.00    -0.212 N   
ATOM     2   C9  UNL     1       0.421  -0.442   0.064  1.00  0.00     0.045 A   
ATOM     3   C10 UNL     1      -0.771  -0.464  -0.625  1.00  0.00     0.127 A   
ATOM     4   N3  UNL     1      -1.793  -0.720   0.255  1.00  0.00    -0.132 NA  
ATOM     5   N4  UNL     1      -1.273  -0.846   1.464  1.00  0.00    -0.076 NA  
ATOM     6   H9  UNL     1       1.450  -0.285  -0.229  1.00  0.00     0.083 HD  
ENDROOT
BRANCH   1   7
ATOM     7   C8  UNL     1       0.901  -0.695   2.537  1.00  0.00     0.139 C   
BRANCH   7   8
ATOM     8   C7  UNL     1       0.866   0.628   3.296  1.00  0.00     0.059 C   
BRANCH   8   9
ATOM     9   C6  UNL     1       1.831   0.637   4.455  1.00  0.00    -0.015 A   
ATOM     10  C1  UNL     1       3.210   0.774   4.250  1.00  0.00     0.093 A   
ATOM     11  C2  UNL     1       4.097   0.782   5.333  1.00  0.00     0.071 A   
ATOM     12  C3  UNL     1       3.616   0.649   6.633  1.00  0.00     0.023 A   
ATOM     13  C5  UNL     1       1.359   0.501   5.769  1.00  0.00     0.006 A   
ATOM     14  C4  UNL     1       2.245   0.508   6.849  1.00  0.00     0.002 A   
ATOM     15  CL1 UNL     1       5.792   0.949   5.068  1.00  0.00    -0.081 Cl  
BRANCH  10  16
ATOM     16  O1  UNL     1       3.668   0.895   2.962  1.00  0.00    -0.359 OA  
ATOM     17  H1  UNL     1       4.634   1.040   3.024  1.00  0.00     0.218 HD  
ENDBRANCH  10  16
ENDBRANCH   8   9
ENDBRANCH   7   8
ENDBRANCH   1   7
BRANCH   3  18
ATOM     18  C11 UNL     1      -1.075  -0.316  -2.080  1.00  0.00     0.117 C   
BRANCH  18  19
ATOM     19  N2  UNL     1      -2.288  -1.149  -2.445  1.00  0.00     0.249 N   
ATOM     20  H11 UNL     1      -2.651  -0.868  -3.360  1.00  0.00     0.199 HD  
ATOM     21  H12 UNL     1      -3.008  -0.927  -1.744  1.00  0.00     0.199 HD  
BRANCH  19  22
ATOM     22  C12 UNL     1      -2.107  -2.631  -2.420  1.00  0.00     0.164 C   
BRANCH  22  23
ATOM     23  C13 UNL     1      -1.185  -3.128  -3.499  1.00  0.00    -0.002 A   
ATOM     24  C14 UNL     1      -1.616  -3.176  -4.847  1.00  0.00     0.012 A   
ATOM     25  C18 UNL     1       0.126  -3.520  -3.177  1.00  0.00     0.045 A   
ATOM     26  C15 UNL     1      -0.752  -3.604  -5.861  1.00  0.00     0.037 A   
ATOM     27  C17 UNL     1       0.952  -3.934  -4.201  1.00  0.00     0.109 A   
ATOM     28  C16 UNL     1       0.525  -3.974  -5.506  1.00  0.00     0.108 A   
ATOM     29  O2  UNL     1       2.243  -4.335  -4.063  1.00  0.00    -0.316 OA  
ATOM     30  O3  UNL     1       1.494  -4.410  -6.353  1.00  0.00    -0.316 OA  
ATOM     31  C19 UNL     1       2.572  -4.672  -5.430  1.00  0.00     0.337 C   
ENDBRANCH  22  23
ENDBRANCH  19  22
ENDBRANCH  18  19
BRANCH  18  32
ATOM     32  C20 UNL     1      -1.339   1.147  -2.533  1.00  0.00     0.043 C   
ATOM     33  C21 UNL     1      -0.068   2.013  -2.421  1.00  0.00     0.010 C   
ATOM     34  C25 UNL     1      -2.515   1.833  -1.810  1.00  0.00     0.010 C   
ATOM     35  C22 UNL     1      -0.304   3.429  -2.941  1.00  0.00     0.001 C   
ATOM     36  C24 UNL     1      -2.741   3.255  -2.325  1.00  0.00     0.001 C   
ATOM     37  C23 UNL     1      -1.475   4.098  -2.232  1.00  0.00     0.000 C   
ENDBRANCH  18  32
ENDBRANCH   3  18
TORSDOF 9
