REMARK SMILES CC(C)(C)[C@H]([NH2+]Cc1ccc2c(c1)OCO2)c1cn(CCc2cccs2)nn1
REMARK SMILES IDX 17 1 18 2 19 3 27 4 28 5 5 7 2 8 1 9 3 10 4 11 6 12 7 15
REMARK SMILES IDX 8 16 9 17 13 18 10 19 12 20 11 21 14 22 16 23 15 24 20 25
REMARK SMILES IDX 21 26 22 27 23 28 26 29 24 30 25 31
REMARK H PARENT 18 6 6 13 6 14
ROOT
ATOM     1   C14 UNL     1       0.972  -0.592  -1.423  1.00  0.00     0.127 A   
ATOM     2   C15 UNL     1       0.078  -0.041  -2.314  1.00  0.00     0.045 A   
ATOM     3   N2  UNL     1       0.783   0.037  -3.482  1.00  0.00    -0.212 N   
ATOM     4   N3  UNL     1       2.006  -0.506  -3.344  1.00  0.00    -0.076 NA  
ATOM     5   N4  UNL     1       2.141  -0.882  -2.083  1.00  0.00    -0.132 NA  
ATOM     6   H20 UNL     1      -0.936   0.324  -2.223  1.00  0.00     0.083 HD  
ENDROOT
BRANCH   1   7
ATOM     7   C5  UNL     1       0.839  -0.946   0.028  1.00  0.00     0.120 C   
BRANCH   7   8
ATOM     8   C2  UNL     1       1.240   0.211   1.011  1.00  0.00     0.010 C   
ATOM     9   C1  UNL     1       0.400   1.476   0.720  1.00  0.00     0.017 C   
ATOM     10  C3  UNL     1       2.731   0.588   0.910  1.00  0.00     0.017 C   
ATOM     11  C4  UNL     1       0.937  -0.198   2.472  1.00  0.00     0.017 C   
ENDBRANCH   7   8
BRANCH   7  12
ATOM     12  N1  UNL     1       1.679  -2.180   0.300  1.00  0.00     0.250 N   
ATOM     13  H11 UNL     1       1.885  -2.283   1.295  1.00  0.00     0.199 HD  
ATOM     14  H12 UNL     1       2.578  -2.019  -0.178  1.00  0.00     0.199 HD  
BRANCH  12  15
ATOM     15  C6  UNL     1       1.135  -3.471  -0.214  1.00  0.00     0.164 C   
BRANCH  15  16
ATOM     16  C7  UNL     1      -0.086  -3.926   0.538  1.00  0.00    -0.002 A   
ATOM     17  C8  UNL     1      -1.357  -3.904  -0.083  1.00  0.00     0.012 A   
ATOM     18  C12 UNL     1       0.023  -4.350   1.874  1.00  0.00     0.045 A   
ATOM     19  C9  UNL     1      -2.506  -4.289   0.616  1.00  0.00     0.037 A   
ATOM     20  C11 UNL     1      -1.130  -4.722   2.534  1.00  0.00     0.109 A   
ATOM     21  C10 UNL     1      -2.359  -4.691   1.924  1.00  0.00     0.108 A   
ATOM     22  O1  UNL     1      -1.200  -5.146   3.823  1.00  0.00    -0.316 OA  
ATOM     23  O2  UNL     1      -3.358  -5.093   2.751  1.00  0.00    -0.316 OA  
ATOM     24  C13 UNL     1      -2.616  -5.411   3.948  1.00  0.00     0.337 C   
ENDBRANCH  15  16
ENDBRANCH  12  15
ENDBRANCH   7  12
ENDBRANCH   1   7
BRANCH   3  25
ATOM     25  C16 UNL     1       0.359   0.597  -4.748  1.00  0.00     0.139 C   
BRANCH  25  26
ATOM     26  C17 UNL     1       0.961   1.974  -5.021  1.00  0.00     0.064 C   
BRANCH  26  27
ATOM     27  C18 UNL     1       0.553   3.007  -4.008  1.00  0.00    -0.009 A   
ATOM     28  C19 UNL     1       1.328   3.577  -3.017  1.00  0.00     0.011 A   
ATOM     29  S1  UNL     1      -1.042   3.634  -3.996  1.00  0.00    -0.102 S   
ATOM     30  C20 UNL     1       0.605   4.531  -2.244  1.00  0.00     0.008 A   
ATOM     31  C21 UNL     1      -0.698   4.657  -2.671  1.00  0.00     0.046 A   
ENDBRANCH  26  27
ENDBRANCH  25  26
ENDBRANCH   3  25
TORSDOF 8
