REMARK SMILES Cc1cc(Cn2cc([C@H](CC(C)C)[NH2+]Cc3ccc4c(c3)OCO4)nn2)ccc1F
REMARK SMILES IDX 6 1 7 2 8 3 25 4 26 5 5 7 4 8 2 9 3 10 29 11 28 12 27 13
REMARK SMILES IDX 1 14 30 15 9 16 10 17 11 18 12 19 13 20 14 21 15 24 16 25
REMARK SMILES IDX 17 26 21 27 18 28 20 29 19 30 22 31 24 32 23 33
REMARK H PARENT 7 6 14 22 14 23
ROOT
ATOM     1   N1  UNL     1      -2.699   0.520   0.861  1.00  0.00    -0.208 N   
ATOM     2   C6  UNL     1      -2.140  -0.203  -0.157  1.00  0.00     0.046 A   
ATOM     3   C7  UNL     1      -1.440  -1.198   0.488  1.00  0.00     0.127 A   
ATOM     4   N3  UNL     1      -1.629  -1.080   1.840  1.00  0.00    -0.132 NA  
ATOM     5   N4  UNL     1      -2.393  -0.021   2.057  1.00  0.00    -0.076 NA  
ATOM     6   H7  UNL     1      -2.243   0.081  -1.195  1.00  0.00     0.083 HD  
ENDROOT
BRANCH   1   7
ATOM     7   C5  UNL     1      -3.428   1.773   0.772  1.00  0.00     0.169 C   
BRANCH   7   8
ATOM     8   C4  UNL     1      -2.479   2.905   0.451  1.00  0.00    -0.028 A   
ATOM     9   C2  UNL     1      -1.430   4.390  -1.176  1.00  0.00    -0.015 A   
ATOM     10  C3  UNL     1      -2.347   3.376  -0.867  1.00  0.00     0.011 A   
ATOM     11  C23 UNL     1      -0.644   4.920  -0.151  1.00  0.00     0.126 A   
ATOM     12  C22 UNL     1      -0.766   4.471   1.159  1.00  0.00     0.040 A   
ATOM     13  C21 UNL     1      -1.681   3.465   1.462  1.00  0.00     0.008 A   
ATOM     14  C1  UNL     1      -1.271   4.898  -2.578  1.00  0.00     0.047 C   
ATOM     15  F1  UNL     1       0.255   5.875  -0.427  1.00  0.00    -0.207 F   
ENDBRANCH   7   8
ENDBRANCH   1   7
BRANCH   3  16
ATOM     16  C8  UNL     1      -0.503  -2.226  -0.045  1.00  0.00     0.114 C   
BRANCH  16  17
ATOM     17  C9  UNL     1      -1.120  -3.638  -0.071  1.00  0.00     0.064 C   
BRANCH  17  18
ATOM     18  C10 UNL     1      -2.348  -3.800  -0.994  1.00  0.00    -0.012 C   
ATOM     19  C11 UNL     1      -2.021  -3.503  -2.458  1.00  0.00     0.007 C   
ATOM     20  C12 UNL     1      -2.903  -5.221  -0.867  1.00  0.00     0.007 C   
ENDBRANCH  17  18
ENDBRANCH  16  17
BRANCH  16  21
ATOM     21  N2  UNL     1       0.748  -2.312   0.811  1.00  0.00     0.249 N   
ATOM     22  H18 UNL     1       0.443  -2.596   1.751  1.00  0.00     0.199 HD  
ATOM     23  H19 UNL     1       1.359  -3.051   0.451  1.00  0.00     0.199 HD  
BRANCH  21  24
ATOM     24  C13 UNL     1       1.543  -1.054   0.978  1.00  0.00     0.164 C   
BRANCH  24  25
ATOM     25  C14 UNL     1       1.936  -0.399  -0.318  1.00  0.00    -0.002 A   
ATOM     26  C15 UNL     1       1.402   0.868  -0.660  1.00  0.00     0.012 A   
ATOM     27  C19 UNL     1       2.817  -1.040  -1.205  1.00  0.00     0.045 A   
ATOM     28  C16 UNL     1       1.727   1.484  -1.873  1.00  0.00     0.037 A   
ATOM     29  C18 UNL     1       3.115  -0.406  -2.394  1.00  0.00     0.109 A   
ATOM     30  C17 UNL     1       2.585   0.819  -2.720  1.00  0.00     0.108 A   
ATOM     31  O1  UNL     1       3.936  -0.891  -3.362  1.00  0.00    -0.316 OA  
ATOM     32  O2  UNL     1       3.006   1.259  -3.933  1.00  0.00    -0.316 OA  
ATOM     33  C20 UNL     1       3.894   0.189  -4.323  1.00  0.00     0.337 C   
ENDBRANCH  24  25
ENDBRANCH  21  24
ENDBRANCH  16  21
ENDBRANCH   3  16
TORSDOF 8
