REMARK SMILES CC(C)[C@H]([NH2+]Cc1ccc2c(c1)OCO2)c1cn(CCc2cnn3ccccc23)nn1
REMARK SMILES IDX 16 1 17 2 18 3 30 4 31 5 4 7 2 8 1 9 3 10 5 11 6 14 7 15
REMARK SMILES IDX 8 16 12 17 9 18 11 19 10 20 13 21 15 22 14 23 19 24 20 25
REMARK SMILES IDX 21 26 22 27 29 28 23 29 24 30 28 31 25 32 27 33 26 34
REMARK H PARENT 17 6 5 12 5 13
ROOT
ATOM     1   C13 UNL     1      -0.605  -1.531   2.196  1.00  0.00     0.127 A   
ATOM     2   C14 UNL     1      -1.219  -0.428   2.750  1.00  0.00     0.045 A   
ATOM     3   N2  UNL     1      -0.345  -0.034   3.731  1.00  0.00    -0.212 N   
ATOM     4   N5  UNL     1       0.631  -0.945   3.898  1.00  0.00    -0.076 NA  
ATOM     5   N6  UNL     1       0.506  -1.845   2.935  1.00  0.00    -0.132 NA  
ATOM     6   H18 UNL     1      -2.059   0.181   2.447  1.00  0.00     0.083 HD  
ENDROOT
BRANCH   1   7
ATOM     7   C4  UNL     1      -0.866  -2.220   0.893  1.00  0.00     0.117 C   
BRANCH   7   8
ATOM     8   C2  UNL     1      -1.250  -3.715   1.025  1.00  0.00     0.037 C   
ATOM     9   C1  UNL     1      -0.148  -4.621   1.585  1.00  0.00     0.014 C   
ATOM     10  C3  UNL     1      -2.531  -3.888   1.854  1.00  0.00     0.014 C   
ENDBRANCH   7   8
BRANCH   7  11
ATOM     11  N1  UNL     1       0.340  -2.025   0.011  1.00  0.00     0.249 N   
ATOM     12  H9  UNL     1       1.170  -2.376   0.505  1.00  0.00     0.199 HD  
ATOM     13  H10 UNL     1       0.535  -1.002  -0.051  1.00  0.00     0.199 HD  
BRANCH  11  14
ATOM     14  C5  UNL     1       0.283  -2.554  -1.369  1.00  0.00     0.164 C   
BRANCH  14  15
ATOM     15  C6  UNL     1       1.408  -2.022  -2.212  1.00  0.00    -0.002 A   
ATOM     16  C7  UNL     1       2.719  -2.536  -2.069  1.00  0.00     0.012 A   
ATOM     17  C11 UNL     1       1.171  -0.975  -3.118  1.00  0.00     0.045 A   
ATOM     18  C8  UNL     1       3.780  -2.014  -2.818  1.00  0.00     0.037 A   
ATOM     19  C10 UNL     1       2.238  -0.480  -3.837  1.00  0.00     0.109 A   
ATOM     20  C9  UNL     1       3.507  -0.986  -3.693  1.00  0.00     0.108 A   
ATOM     21  O1  UNL     1       2.179   0.532  -4.742  1.00  0.00    -0.316 OA  
ATOM     22  O2  UNL     1       4.408  -0.358  -4.492  1.00  0.00    -0.316 OA  
ATOM     23  C12 UNL     1       3.558   0.588  -5.175  1.00  0.00     0.337 C   
ENDBRANCH  14  15
ENDBRANCH  11  14
ENDBRANCH   7  11
ENDBRANCH   1   7
BRANCH   3  24
ATOM     24  C15 UNL     1      -0.173   1.320   4.233  1.00  0.00     0.139 C   
BRANCH  24  25
ATOM     25  C16 UNL     1       0.976   2.066   3.525  1.00  0.00     0.060 C   
BRANCH  25  26
ATOM     26  C17 UNL     1       0.935   1.902   2.035  1.00  0.00    -0.003 A   
ATOM     27  C18 UNL     1       1.634   0.932   1.281  1.00  0.00     0.137 A   
ATOM     28  C23 UNL     1       0.166   2.556   1.097  1.00  0.00     0.061 A   
ATOM     29  N3  UNL     1       1.182   0.820   0.027  1.00  0.00    -0.185 NA  
ATOM     30  N4  UNL     1       0.402   1.935  -0.137  1.00  0.00    -0.201 N   
ATOM     31  C22 UNL     1      -0.746   3.651   1.128  1.00  0.00     0.026 A   
ATOM     32  C19 UNL     1      -0.185   2.388  -1.318  1.00  0.00     0.102 A   
ATOM     33  C21 UNL     1      -1.314   4.072  -0.018  1.00  0.00     0.003 A   
ATOM     34  C20 UNL     1      -1.025   3.436  -1.292  1.00  0.00     0.018 A   
ENDBRANCH  25  26
ENDBRANCH  24  25
ENDBRANCH   3  24
TORSDOF 8
