REMARK SMILES FC(F)(F)c1nnc(-n2cc([C@@H]([NH2+]Cc3ccc4c(c3)OCO4)C3CCCC3)nn2)[nH]1
REMARK SMILES IDX 9 1 10 2 11 3 29 4 30 5 8 6 5 7 6 8 31 9 7 10 2 12 1 13 3 14
REMARK SMILES IDX 4 15 12 16 13 17 14 20 15 21 16 22 20 23 17 24 19 25 18 26
REMARK SMILES IDX 21 27 23 28 22 29 24 30 25 31 28 32 26 33 27 34
REMARK H PARENT 31 11 13 18 13 19
ROOT
ATOM     1   N3  UNL     1       0.953   0.184   1.293  1.00  0.00    -0.148 N   
ATOM     2   C4  UNL     1      -0.112   0.178   0.425  1.00  0.00     0.138 A   
ATOM     3   C5  UNL     1      -0.985  -0.741   0.962  1.00  0.00     0.128 A   
ATOM     4   N5  UNL     1      -0.467  -1.219   2.140  1.00  0.00    -0.131 NA  
ATOM     5   N6  UNL     1       0.705  -0.634   2.343  1.00  0.00    -0.068 NA  
ENDROOT
BRANCH   1   6
ATOM     6   C3  UNL     1       2.174   0.810   1.198  1.00  0.00     0.233 A   
ATOM     7   C2  UNL     1       4.217   1.448   1.619  1.00  0.00     0.229 A   
ATOM     8   N1  UNL     1       3.857   1.942   0.446  1.00  0.00    -0.126 NA  
ATOM     9   N7  UNL     1       3.168   0.723   2.127  1.00  0.00    -0.263 N   
ATOM     10  N2  UNL     1       2.566   1.544   0.185  1.00  0.00    -0.114 NA  
ATOM     11  H21 UNL     1       3.140   0.219   3.006  1.00  0.00     0.157 HD  
BRANCH   7  12
ATOM     12  C1  UNL     1       5.508   1.583   2.338  1.00  0.00     0.449 C   
ATOM     13  F1  UNL     1       6.545   1.077   1.628  1.00  0.00    -0.163 F   
ATOM     14  F2  UNL     1       5.473   0.898   3.515  1.00  0.00    -0.163 F   
ATOM     15  F3  UNL     1       5.802   2.868   2.643  1.00  0.00    -0.163 F   
ENDBRANCH   7  12
ENDBRANCH   1   6
BRANCH   3  16
ATOM     16  C6  UNL     1      -2.244  -1.341   0.417  1.00  0.00     0.117 C   
BRANCH  16  17
ATOM     17  N4  UNL     1      -2.123  -2.854   0.491  1.00  0.00     0.249 N   
ATOM     18  H3  UNL     1      -3.009  -3.279   0.781  1.00  0.00     0.199 HD  
ATOM     19  H4  UNL     1      -1.467  -3.055   1.262  1.00  0.00     0.199 HD  
BRANCH  17  20
ATOM     20  C7  UNL     1      -1.642  -3.553  -0.740  1.00  0.00     0.164 C   
BRANCH  20  21
ATOM     21  C8  UNL     1      -0.352  -3.019  -1.299  1.00  0.00    -0.002 A   
ATOM     22  C9  UNL     1      -0.346  -2.365  -2.555  1.00  0.00     0.012 A   
ATOM     23  C13 UNL     1       0.847  -3.122  -0.570  1.00  0.00     0.045 A   
ATOM     24  C10 UNL     1       0.825  -1.795  -3.066  1.00  0.00     0.037 A   
ATOM     25  C12 UNL     1       1.980  -2.531  -1.094  1.00  0.00     0.109 A   
ATOM     26  C11 UNL     1       1.969  -1.887  -2.306  1.00  0.00     0.108 A   
ATOM     27  O1  UNL     1       3.198  -2.479  -0.492  1.00  0.00    -0.316 OA  
ATOM     28  O2  UNL     1       3.180  -1.369  -2.631  1.00  0.00    -0.316 OA  
ATOM     29  C14 UNL     1       3.963  -1.748  -1.481  1.00  0.00     0.337 C   
ENDBRANCH  20  21
ENDBRANCH  17  20
ENDBRANCH  16  17
BRANCH  16  30
ATOM     30  C15 UNL     1      -3.489  -0.900   1.210  1.00  0.00     0.043 C   
ATOM     31  C16 UNL     1      -3.714   0.617   1.184  1.00  0.00     0.010 C   
ATOM     32  C19 UNL     1      -4.812  -1.417   0.635  1.00  0.00     0.010 C   
ATOM     33  C17 UNL     1      -5.186   0.810   1.535  1.00  0.00     0.001 C   
ATOM     34  C18 UNL     1      -5.864  -0.535   1.294  1.00  0.00     0.001 C   
ENDBRANCH  16  30
ENDBRANCH   3  16
TORSDOF 7
