REMARK SMILES CCn1cnc(Cl)c1Cn1cc([C@@H]([NH2+]Cc2ccc3c(c2)OCO3)C2CCCCC2)nn1
REMARK SMILES IDX 10 1 11 2 12 3 31 4 32 5 9 7 8 8 3 9 4 10 5 11 6 12 7 13
REMARK SMILES IDX 2 14 1 15 13 16 14 17 15 20 16 21 17 22 21 23 18 24 20 25
REMARK SMILES IDX 19 26 22 27 24 28 23 29 25 30 26 31 30 32 27 33 29 34 28 35
REMARK H PARENT 11 6 14 18 14 19
ROOT
ATOM     1   N3  UNL     1      -2.121   0.781   0.171  1.00  0.00    -0.206 N   
ATOM     2   C7  UNL     1      -0.951   0.328  -0.372  1.00  0.00     0.046 A   
ATOM     3   C8  UNL     1      -0.036   0.453   0.649  1.00  0.00     0.127 A   
ATOM     4   N5  UNL     1      -0.649   1.030   1.732  1.00  0.00    -0.132 NA  
ATOM     5   N6  UNL     1      -1.920   1.235   1.424  1.00  0.00    -0.076 NA  
ATOM     6   H9  UNL     1      -0.887  -0.053  -1.382  1.00  0.00     0.083 HD  
ENDROOT
BRANCH   1   7
ATOM     7   C6  UNL     1      -3.439   0.851  -0.444  1.00  0.00     0.188 C   
BRANCH   7   8
ATOM     8   C5  UNL     1      -4.077  -0.492  -0.483  1.00  0.00     0.068 A   
ATOM     9   N1  UNL     1      -4.896  -1.016   0.493  1.00  0.00    -0.291 N   
ATOM     10  C3  UNL     1      -5.269  -2.269   0.090  1.00  0.00     0.190 A   
ATOM     11  N2  UNL     1      -4.746  -2.575  -1.074  1.00  0.00    -0.227 NA  
ATOM     12  C4  UNL     1      -4.015  -1.482  -1.448  1.00  0.00     0.149 A   
ATOM     13  CL1 UNL     1      -3.152  -1.434  -2.915  1.00  0.00    -0.060 Cl  
BRANCH   9  14
ATOM     14  C2  UNL     1      -5.302  -0.411   1.750  1.00  0.00     0.109 C   
ATOM     15  C1  UNL     1      -6.550   0.443   1.606  1.00  0.00     0.025 C   
ENDBRANCH   9  14
ENDBRANCH   7   8
ENDBRANCH   1   7
BRANCH   3  16
ATOM     16  C9  UNL     1       1.422   0.135   0.704  1.00  0.00     0.117 C   
BRANCH  16  17
ATOM     17  N4  UNL     1       2.148   1.169   1.538  1.00  0.00     0.249 N   
ATOM     18  H11 UNL     1       3.077   0.825   1.800  1.00  0.00     0.199 HD  
ATOM     19  H12 UNL     1       1.604   1.273   2.406  1.00  0.00     0.199 HD  
BRANCH  17  20
ATOM     20  C10 UNL     1       2.281   2.529   0.936  1.00  0.00     0.164 C   
BRANCH  20  21
ATOM     21  C11 UNL     1       3.224   2.555  -0.234  1.00  0.00    -0.002 A   
ATOM     22  C12 UNL     1       4.623   2.498  -0.028  1.00  0.00     0.012 A   
ATOM     23  C16 UNL     1       2.719   2.599  -1.546  1.00  0.00     0.045 A   
ATOM     24  C13 UNL     1       5.509   2.479  -1.111  1.00  0.00     0.037 A   
ATOM     25  C15 UNL     1       3.619   2.575  -2.591  1.00  0.00     0.109 A   
ATOM     26  C14 UNL     1       4.975   2.517  -2.380  1.00  0.00     0.108 A   
ATOM     27  O1  UNL     1       3.299   2.595  -3.911  1.00  0.00    -0.316 OA  
ATOM     28  O2  UNL     1       5.681   2.500  -3.541  1.00  0.00    -0.316 OA  
ATOM     29  C17 UNL     1       4.614   2.576  -4.513  1.00  0.00     0.337 C   
ENDBRANCH  20  21
ENDBRANCH  17  20
ENDBRANCH  16  17
BRANCH  16  30
ATOM     30  C18 UNL     1       1.748  -1.272   1.276  1.00  0.00     0.043 C   
ATOM     31  C19 UNL     1       1.208  -2.392   0.365  1.00  0.00     0.010 C   
ATOM     32  C23 UNL     1       1.281  -1.497   2.727  1.00  0.00     0.010 C   
ATOM     33  C20 UNL     1       1.609  -3.775   0.875  1.00  0.00     0.001 C   
ATOM     34  C22 UNL     1       1.676  -2.884   3.235  1.00  0.00     0.001 C   
ATOM     35  C21 UNL     1       1.164  -3.990   2.319  1.00  0.00     0.000 C   
ENDBRANCH  16  30
ENDBRANCH   3  16
TORSDOF 8
