REMARK SMILES FC(F)(F)c1cc(Cn2cc([C@@H]([NH2+]Cc3ccc4c(c3)OCO4)C3CCCCC3)nn2)no1
REMARK SMILES IDX 9 1 10 2 11 3 30 4 31 5 8 7 7 8 5 9 6 10 33 11 32 12 2 13
REMARK SMILES IDX 1 14 3 15 4 16 12 17 13 18 14 21 15 22 16 23 20 24 17 25
REMARK SMILES IDX 19 26 18 27 21 28 23 29 22 30 24 31 25 32 29 33 26 34 28 35
REMARK SMILES IDX 27 36
REMARK H PARENT 10 6 13 19 13 20
ROOT
ATOM     1   N1  UNL     1      -0.357  -1.260   2.782  1.00  0.00    -0.206 N   
ATOM     2   C6  UNL     1      -0.423  -0.426   1.699  1.00  0.00     0.046 A   
ATOM     3   C7  UNL     1       0.202  -1.132   0.695  1.00  0.00     0.127 A   
ATOM     4   N3  UNL     1       0.693  -2.305   1.211  1.00  0.00    -0.132 NA  
ATOM     5   N4  UNL     1       0.362  -2.363   2.491  1.00  0.00    -0.076 NA  
ATOM     6   H4  UNL     1      -0.942   0.523   1.732  1.00  0.00     0.083 HD  
ENDROOT
BRANCH   1   7
ATOM     7   C5  UNL     1      -0.940  -1.075   4.099  1.00  0.00     0.192 C   
BRANCH   7   8
ATOM     8   C4  UNL     1      -2.385  -1.423   4.064  1.00  0.00     0.090 A   
ATOM     9   C2  UNL     1      -4.353  -2.405   4.228  1.00  0.00     0.190 A   
ATOM     10  C3  UNL     1      -3.020  -2.608   4.505  1.00  0.00     0.069 A   
ATOM     11  O3  UNL     1      -4.506  -1.180   3.656  1.00  0.00    -0.208 OA  
ATOM     12  N5  UNL     1      -3.275  -0.558   3.559  1.00  0.00    -0.132 NA  
BRANCH   9  13
ATOM     13  C1  UNL     1      -5.580  -3.207   4.403  1.00  0.00     0.440 C   
ATOM     14  F1  UNL     1      -5.386  -4.224   5.284  1.00  0.00    -0.164 F   
ATOM     15  F2  UNL     1      -6.619  -2.472   4.870  1.00  0.00    -0.164 F   
ATOM     16  F3  UNL     1      -5.978  -3.773   3.235  1.00  0.00    -0.164 F   
ENDBRANCH   9  13
ENDBRANCH   7   8
ENDBRANCH   1   7
BRANCH   3  17
ATOM     17  C8  UNL     1       0.432  -0.803  -0.748  1.00  0.00     0.117 C   
BRANCH  17  18
ATOM     18  N2  UNL     1       1.818  -1.287  -1.134  1.00  0.00     0.249 N   
ATOM     19  H6  UNL     1       1.932  -1.321  -2.148  1.00  0.00     0.199 HD  
ATOM     20  H7  UNL     1       1.887  -2.257  -0.791  1.00  0.00     0.199 HD  
BRANCH  18  21
ATOM     21  C9  UNL     1       2.966  -0.522  -0.562  1.00  0.00     0.164 C   
BRANCH  21  22
ATOM     22  C10 UNL     1       3.041   0.886  -1.085  1.00  0.00    -0.002 A   
ATOM     23  C11 UNL     1       2.778   1.980  -0.226  1.00  0.00     0.012 A   
ATOM     24  C15 UNL     1       3.339   1.126  -2.438  1.00  0.00     0.045 A   
ATOM     25  C12 UNL     1       2.798   3.294  -0.708  1.00  0.00     0.037 A   
ATOM     26  C14 UNL     1       3.344   2.433  -2.881  1.00  0.00     0.109 A   
ATOM     27  C13 UNL     1       3.081   3.486  -2.042  1.00  0.00     0.108 A   
ATOM     28  O1  UNL     1       3.593   2.833  -4.155  1.00  0.00    -0.316 OA  
ATOM     29  O2  UNL     1       3.135   4.683  -2.680  1.00  0.00    -0.316 OA  
ATOM     30  C16 UNL     1       3.473   4.268  -4.021  1.00  0.00     0.337 C   
ENDBRANCH  21  22
ENDBRANCH  18  21
ENDBRANCH  17  18
BRANCH  17  31
ATOM     31  C17 UNL     1      -0.619  -1.473  -1.690  1.00  0.00     0.043 C   
ATOM     32  C18 UNL     1      -0.428  -1.127  -3.186  1.00  0.00     0.010 C   
ATOM     33  C22 UNL     1      -2.076  -1.114  -1.317  1.00  0.00     0.010 C   
ATOM     34  C19 UNL     1      -0.739   0.336  -3.500  1.00  0.00     0.001 C   
ATOM     35  C21 UNL     1      -2.412   0.351  -1.597  1.00  0.00     0.001 C   
ATOM     36  C20 UNL     1      -2.147   0.719  -3.054  1.00  0.00     0.000 C   
ENDBRANCH  17  31
ENDBRANCH   3  17
TORSDOF 8
