REMARK SMILES CC(C)Oc1cccc(Cn2cc([C@@H]([NH2+]Cc3ccc4c(c3)OCO4)C(C)(C)C)nn2)n1
REMARK SMILES IDX 11 1 12 2 13 3 30 4 31 5 10 7 9 8 5 9 6 10 32 11 7 12 8 13
REMARK SMILES IDX 4 14 2 15 1 16 3 17 14 18 15 19 16 22 17 23 18 24 22 25
REMARK SMILES IDX 19 26 21 27 20 28 23 29 25 30 24 31 26 32 27 33 28 34 29 35
REMARK H PARENT 12 6 15 20 15 21
ROOT
ATOM     1   N1  UNL     1       1.954  -0.565   1.645  1.00  0.00    -0.206 N   
ATOM     2   C10 UNL     1       0.753  -0.277   1.057  1.00  0.00     0.046 A   
ATOM     3   C11 UNL     1       0.830   1.069   0.783  1.00  0.00     0.127 A   
ATOM     4   N3  UNL     1       2.007   1.563   1.288  1.00  0.00    -0.132 NA  
ATOM     5   N4  UNL     1       2.679   0.557   1.825  1.00  0.00    -0.076 NA  
ATOM     6   H13 UNL     1       0.017  -1.042   0.849  1.00  0.00     0.083 HD  
ENDROOT
BRANCH   1   7
ATOM     7   C9  UNL     1       2.462  -1.859   2.058  1.00  0.00     0.190 C   
BRANCH   7   8
ATOM     8   C8  UNL     1       2.842  -2.668   0.849  1.00  0.00     0.063 A   
ATOM     9   C4  UNL     1       2.174  -4.098  -0.844  1.00  0.00     0.167 A   
ATOM     10  C5  UNL     1       3.439  -4.112  -1.405  1.00  0.00     0.055 A   
ATOM     11  N5  UNL     1       1.852  -3.387   0.259  1.00  0.00    -0.228 NA  
ATOM     12  C6  UNL     1       4.440  -3.364  -0.797  1.00  0.00     0.006 A   
ATOM     13  C7  UNL     1       4.142  -2.628   0.345  1.00  0.00     0.026 A   
BRANCH   9  14
ATOM     14  O1  UNL     1       1.213  -4.838  -1.499  1.00  0.00    -0.327 OA  
BRANCH  14  15
ATOM     15  C2  UNL     1      -0.054  -4.933  -0.839  1.00  0.00     0.121 C   
ATOM     16  C1  UNL     1      -0.951  -3.776  -1.274  1.00  0.00     0.039 C   
ATOM     17  C3  UNL     1      -0.672  -6.264  -1.264  1.00  0.00     0.039 C   
ENDBRANCH  14  15
ENDBRANCH   9  14
ENDBRANCH   7   8
ENDBRANCH   1   7
BRANCH   3  18
ATOM     18  C12 UNL     1      -0.140   1.993   0.113  1.00  0.00     0.120 C   
BRANCH  18  19
ATOM     19  N2  UNL     1      -0.078   3.349   0.790  1.00  0.00     0.250 N   
ATOM     20  H15 UNL     1      -0.529   4.068   0.221  1.00  0.00     0.199 HD  
ATOM     21  H16 UNL     1       0.922   3.591   0.851  1.00  0.00     0.199 HD  
BRANCH  19  22
ATOM     22  C13 UNL     1      -0.629   3.423   2.176  1.00  0.00     0.164 C   
BRANCH  22  23
ATOM     23  C14 UNL     1      -2.116   3.200   2.226  1.00  0.00    -0.002 A   
ATOM     24  C15 UNL     1      -3.008   4.181   1.729  1.00  0.00     0.012 A   
ATOM     25  C19 UNL     1      -2.628   1.994   2.736  1.00  0.00     0.045 A   
ATOM     26  C16 UNL     1      -4.390   3.962   1.732  1.00  0.00     0.037 A   
ATOM     27  C18 UNL     1      -3.995   1.810   2.723  1.00  0.00     0.109 A   
ATOM     28  C17 UNL     1      -4.852   2.765   2.234  1.00  0.00     0.108 A   
ATOM     29  O2  UNL     1      -4.648   0.704   3.166  1.00  0.00    -0.316 OA  
ATOM     30  O3  UNL     1      -6.153   2.383   2.312  1.00  0.00    -0.316 OA  
ATOM     31  C20 UNL     1      -6.024   1.083   2.926  1.00  0.00     0.337 C   
ENDBRANCH  22  23
ENDBRANCH  19  22
ENDBRANCH  18  19
BRANCH  18  32
ATOM     32  C21 UNL     1       0.090   2.147  -1.434  1.00  0.00     0.010 C   
ATOM     33  C22 UNL     1       0.061   0.761  -2.121  1.00  0.00     0.017 C   
ATOM     34  C23 UNL     1      -1.050   2.982  -2.064  1.00  0.00     0.017 C   
ATOM     35  C24 UNL     1       1.432   2.826  -1.774  1.00  0.00     0.017 C   
ENDBRANCH  18  32
ENDBRANCH   3  18
TORSDOF 9
