REMARK SMILES Cc1nn(C)c(Cl)c1CCn1cc([C@@H]([NH2+]Cc2ccc3c(c2)OCO3)C2CCCC2)nn1
REMARK SMILES IDX 11 1 12 2 13 3 31 4 32 5 10 7 9 8 8 9 2 10 3 11 4 12 6 13
REMARK SMILES IDX 1 14 5 15 7 16 14 17 15 18 16 21 17 22 18 23 22 24 19 25
REMARK SMILES IDX 21 26 20 27 23 28 25 29 24 30 26 31 27 32 30 33 28 34 29 35
REMARK H PARENT 12 6 15 19 15 20
ROOT
ATOM     1   N3  UNL     1       1.468   2.800  -0.299  1.00  0.00    -0.212 N   
ATOM     2   C8  UNL     1       1.852   1.513  -0.583  1.00  0.00     0.045 A   
ATOM     3   C9  UNL     1       0.659   0.825  -0.632  1.00  0.00     0.127 A   
ATOM     4   N5  UNL     1      -0.377   1.721  -0.565  1.00  0.00    -0.132 NA  
ATOM     5   N6  UNL     1       0.132   2.931  -0.390  1.00  0.00    -0.076 NA  
ATOM     6   H11 UNL     1       2.885   1.196  -0.538  1.00  0.00     0.083 HD  
ENDROOT
BRANCH   1   7
ATOM     7   C7  UNL     1       2.252   3.785   0.426  1.00  0.00     0.139 C   
BRANCH   7   8
ATOM     8   C6  UNL     1       1.964   3.764   1.943  1.00  0.00     0.062 C   
BRANCH   8   9
ATOM     9   C5  UNL     1       1.907   2.374   2.507  1.00  0.00     0.011 A   
ATOM     10  C2  UNL     1       0.748   1.614   2.856  1.00  0.00     0.062 A   
ATOM     11  N1  UNL     1       1.041   0.304   2.990  1.00  0.00    -0.185 NA  
ATOM     12  N2  UNL     1       2.397   0.303   3.090  1.00  0.00    -0.217 N   
ATOM     13  C4  UNL     1       2.938   1.493   2.713  1.00  0.00     0.121 A   
ATOM     14  C1  UNL     1      -0.666   2.067   2.959  1.00  0.00     0.069 C   
ATOM     15  C3  UNL     1       3.088  -0.902   3.483  1.00  0.00     0.161 C   
ATOM     16  CL1 UNL     1       4.617   1.673   2.517  1.00  0.00    -0.065 Cl  
ENDBRANCH   8   9
ENDBRANCH   7   8
ENDBRANCH   1   7
BRANCH   3  17
ATOM     17  C10 UNL     1       0.394  -0.645  -0.534  1.00  0.00     0.117 C   
BRANCH  17  18
ATOM     18  N4  UNL     1      -0.465  -0.873   0.681  1.00  0.00     0.249 N   
ATOM     19  H13 UNL     1      -1.352  -0.368   0.548  1.00  0.00     0.199 HD  
ATOM     20  H14 UNL     1      -0.021  -0.374   1.479  1.00  0.00     0.199 HD  
BRANCH  18  21
ATOM     21  C11 UNL     1      -0.716  -2.255   1.140  1.00  0.00     0.164 C   
BRANCH  21  22
ATOM     22  C12 UNL     1      -1.759  -2.274   2.223  1.00  0.00    -0.002 A   
ATOM     23  C13 UNL     1      -1.394  -2.067   3.574  1.00  0.00     0.012 A   
ATOM     24  C17 UNL     1      -3.115  -2.440   1.893  1.00  0.00     0.045 A   
ATOM     25  C14 UNL     1      -2.360  -2.030   4.584  1.00  0.00     0.037 A   
ATOM     26  C16 UNL     1      -4.043  -2.404   2.913  1.00  0.00     0.109 A   
ATOM     27  C15 UNL     1      -3.677  -2.203   4.221  1.00  0.00     0.108 A   
ATOM     28  O1  UNL     1      -5.386  -2.551   2.765  1.00  0.00    -0.316 OA  
ATOM     29  O2  UNL     1      -4.743  -2.196   5.064  1.00  0.00    -0.316 OA  
ATOM     30  C18 UNL     1      -5.825  -2.436   4.139  1.00  0.00     0.337 C   
ENDBRANCH  21  22
ENDBRANCH  18  21
ENDBRANCH  17  18
BRANCH  17  31
ATOM     31  C19 UNL     1      -0.236  -1.273  -1.789  1.00  0.00     0.043 C   
ATOM     32  C20 UNL     1      -1.669  -0.853  -2.137  1.00  0.00     0.010 C   
ATOM     33  C23 UNL     1       0.518  -0.996  -3.093  1.00  0.00     0.010 C   
ATOM     34  C21 UNL     1      -1.839  -1.208  -3.617  1.00  0.00     0.001 C   
ATOM     35  C22 UNL     1      -0.443  -1.526  -4.150  1.00  0.00     0.001 C   
ENDBRANCH  17  31
ENDBRANCH   3  17
TORSDOF 8
