REMARK SMILES Oc1c(Cl)cccc1CCn1cc([C@@H]([NH2+]Cc2ccc3c(c2)OCO3)C2CCCC2)nn1
REMARK SMILES IDX 11 1 12 2 13 3 31 4 32 5 10 7 9 8 8 9 2 10 3 11 5 12 7 13
REMARK SMILES IDX 6 14 4 15 1 16 14 18 15 19 16 22 17 23 18 24 22 25 19 26
REMARK SMILES IDX 21 27 20 28 23 29 25 30 24 31 26 32 27 33 30 34 28 35 29 36
REMARK H PARENT 12 6 1 17 15 20 15 21
ROOT
ATOM     1   N1  UNL     1      -2.550  -1.194  -0.911  1.00  0.00    -0.212 N   
ATOM     2   C9  UNL     1      -1.516  -1.113  -0.024  1.00  0.00     0.045 A   
ATOM     3   C10 UNL     1      -1.525   0.204   0.377  1.00  0.00     0.127 A   
ATOM     4   N3  UNL     1      -2.551   0.859  -0.254  1.00  0.00    -0.132 NA  
ATOM     5   N4  UNL     1      -3.160  -0.003  -1.051  1.00  0.00    -0.076 NA  
ATOM     6   H9  UNL     1      -0.891  -1.962   0.216  1.00  0.00     0.083 HD  
ENDROOT
BRANCH   1   7
ATOM     7   C8  UNL     1      -2.997  -2.351  -1.660  1.00  0.00     0.139 C   
BRANCH   7   8
ATOM     8   C7  UNL     1      -2.400  -2.415  -3.067  1.00  0.00     0.059 C   
BRANCH   8   9
ATOM     9   C6  UNL     1      -0.892  -2.547  -3.091  1.00  0.00    -0.015 A   
ATOM     10  C1  UNL     1      -0.249  -3.698  -2.617  1.00  0.00     0.093 A   
ATOM     11  C2  UNL     1       1.146  -3.798  -2.631  1.00  0.00     0.071 A   
ATOM     12  C3  UNL     1       1.918  -2.749  -3.125  1.00  0.00     0.023 A   
ATOM     13  C5  UNL     1      -0.103  -1.502  -3.599  1.00  0.00     0.006 A   
ATOM     14  C4  UNL     1       1.292  -1.604  -3.616  1.00  0.00     0.002 A   
ATOM     15  CL1 UNL     1       1.927  -5.210  -2.025  1.00  0.00    -0.081 Cl  
BRANCH  10  16
ATOM     16  O1  UNL     1      -1.022  -4.720  -2.131  1.00  0.00    -0.359 OA  
ATOM     17  H1  UNL     1      -0.431  -5.482  -1.974  1.00  0.00     0.218 HD  
ENDBRANCH  10  16
ENDBRANCH   8   9
ENDBRANCH   7   8
ENDBRANCH   1   7
BRANCH   3  18
ATOM     18  C11 UNL     1      -0.621   0.956   1.299  1.00  0.00     0.117 C   
BRANCH  18  19
ATOM     19  N2  UNL     1      -0.602   2.421   0.935  1.00  0.00     0.249 N   
ATOM     20  H11 UNL     1      -1.587   2.699   0.823  1.00  0.00     0.199 HD  
ATOM     21  H12 UNL     1      -0.212   2.983   1.695  1.00  0.00     0.199 HD  
BRANCH  19  22
ATOM     22  C12 UNL     1       0.083   2.777  -0.344  1.00  0.00     0.164 C   
BRANCH  22  23
ATOM     23  C13 UNL     1       1.562   2.516  -0.320  1.00  0.00    -0.002 A   
ATOM     24  C14 UNL     1       2.429   3.353   0.424  1.00  0.00     0.012 A   
ATOM     25  C18 UNL     1       2.095   1.422  -1.025  1.00  0.00     0.045 A   
ATOM     26  C15 UNL     1       3.805   3.104   0.465  1.00  0.00     0.037 A   
ATOM     27  C17 UNL     1       3.456   1.209  -0.970  1.00  0.00     0.109 A   
ATOM     28  C16 UNL     1       4.287   2.024  -0.244  1.00  0.00     0.108 A   
ATOM     29  O2  UNL     1       4.129   0.210  -1.606  1.00  0.00    -0.316 OA  
ATOM     30  O3  UNL     1       5.588   1.640  -0.327  1.00  0.00    -0.316 OA  
ATOM     31  C19 UNL     1       5.492   0.524  -1.238  1.00  0.00     0.337 C   
ENDBRANCH  22  23
ENDBRANCH  19  22
ENDBRANCH  18  19
BRANCH  18  32
ATOM     32  C20 UNL     1      -1.034   0.773   2.773  1.00  0.00     0.043 C   
ATOM     33  C21 UNL     1      -2.340   1.443   3.204  1.00  0.00     0.010 C   
ATOM     34  C24 UNL     1      -0.001   1.281   3.794  1.00  0.00     0.010 C   
ATOM     35  C22 UNL     1      -2.253   1.389   4.722  1.00  0.00     0.001 C   
ATOM     36  C23 UNL     1      -0.801   1.737   5.016  1.00  0.00     0.001 C   
ENDBRANCH  18  32
ENDBRANCH   3  18
TORSDOF 9
