REMARK SMILES Nc1ccc(CCn2cc([C@@H]([NH2+]Cc3ccc4c(c3)OCO4)C3CCCC3)nn2)cc1
REMARK SMILES IDX 8 1 9 2 10 3 28 4 29 5 7 7 6 8 5 9 2 10 3 11 31 12 4 13
REMARK SMILES IDX 30 14 1 15 11 18 12 19 13 22 14 23 15 24 19 25 16 26 18 27
REMARK SMILES IDX 17 28 20 29 22 30 21 31 23 32 24 33 27 34 25 35 26 36
REMARK H PARENT 9 6 1 16 1 17 12 20 12 21
ROOT
ATOM     1   N2  UNL     1      -0.525   3.607  -0.790  1.00  0.00    -0.212 N   
ATOM     2   C7  UNL     1      -1.133   2.660  -1.567  1.00  0.00     0.045 A   
ATOM     3   C8  UNL     1      -1.529   1.700  -0.664  1.00  0.00     0.127 A   
ATOM     4   N4  UNL     1      -1.222   2.119   0.605  1.00  0.00    -0.132 NA  
ATOM     5   N5  UNL     1      -0.621   3.296   0.515  1.00  0.00    -0.076 NA  
ATOM     6   H9  UNL     1      -1.145   2.715  -2.647  1.00  0.00     0.083 HD  
ENDROOT
BRANCH   1   7
ATOM     7   C6  UNL     1       0.292   4.718  -1.236  1.00  0.00     0.139 C   
BRANCH   7   8
ATOM     8   C5  UNL     1       1.789   4.524  -0.955  1.00  0.00     0.057 C   
BRANCH   8   9
ATOM     9   C4  UNL     1       2.323   3.169  -1.371  1.00  0.00    -0.046 A   
ATOM     10  C1  UNL     1       3.169   0.570  -2.075  1.00  0.00     0.023 A   
ATOM     11  C2  UNL     1       2.637   1.432  -3.037  1.00  0.00     0.023 A   
ATOM     12  C24 UNL     1       3.256   1.011  -0.754  1.00  0.00     0.023 A   
ATOM     13  C3  UNL     1       2.249   2.732  -2.699  1.00  0.00     0.005 A   
ATOM     14  C23 UNL     1       2.849   2.301  -0.405  1.00  0.00     0.005 A   
BRANCH  10  15
ATOM     15  N1  UNL     1       3.374  -0.785  -2.377  1.00  0.00    -0.358 N   
ATOM     16  H1  UNL     1       4.059  -1.222  -1.762  1.00  0.00     0.143 HD  
ATOM     17  H2  UNL     1       3.638  -0.931  -3.350  1.00  0.00     0.143 HD  
ENDBRANCH  10  15
ENDBRANCH   8   9
ENDBRANCH   7   8
ENDBRANCH   1   7
BRANCH   3  18
ATOM     18  C9  UNL     1      -2.067   0.324  -0.881  1.00  0.00     0.117 C   
BRANCH  18  19
ATOM     19  N3  UNL     1      -1.313  -0.652  -0.021  1.00  0.00     0.249 N   
ATOM     20  H11 UNL     1      -1.262  -0.237   0.921  1.00  0.00     0.199 HD  
ATOM     21  H12 UNL     1      -1.804  -1.545   0.081  1.00  0.00     0.199 HD  
BRANCH  19  22
ATOM     22  C10 UNL     1       0.093  -0.912  -0.453  1.00  0.00     0.164 C   
BRANCH  22  23
ATOM     23  C11 UNL     1       0.793  -1.790   0.545  1.00  0.00    -0.002 A   
ATOM     24  C12 UNL     1       1.326  -1.228   1.730  1.00  0.00     0.012 A   
ATOM     25  C16 UNL     1       0.881  -3.175   0.333  1.00  0.00     0.045 A   
ATOM     26  C13 UNL     1       1.950  -2.033   2.689  1.00  0.00     0.037 A   
ATOM     27  C15 UNL     1       1.502  -3.940   1.298  1.00  0.00     0.109 A   
ATOM     28  C14 UNL     1       2.021  -3.386   2.443  1.00  0.00     0.108 A   
ATOM     29  O1  UNL     1       1.672  -5.287   1.250  1.00  0.00    -0.316 OA  
ATOM     30  O2  UNL     1       2.585  -4.314   3.258  1.00  0.00    -0.316 OA  
ATOM     31  C17 UNL     1       2.373  -5.520   2.493  1.00  0.00     0.337 C   
ENDBRANCH  22  23
ENDBRANCH  19  22
ENDBRANCH  18  19
BRANCH  18  32
ATOM     32  C18 UNL     1      -3.581   0.238  -0.608  1.00  0.00     0.043 C   
ATOM     33  C19 UNL     1      -4.022   0.395   0.852  1.00  0.00     0.010 C   
ATOM     34  C22 UNL     1      -4.230  -1.081  -1.067  1.00  0.00     0.010 C   
ATOM     35  C20 UNL     1      -5.428  -0.183   0.845  1.00  0.00     0.001 C   
ATOM     36  C21 UNL     1      -5.290  -1.425  -0.021  1.00  0.00     0.001 C   
ENDBRANCH  18  32
ENDBRANCH   3  18
TORSDOF 9
