REMARK SMILES COc1ccc(-n2cc([C@@H]([NH2+]Cc3ccc4c(c3)OCO4)C(C)C)nn2)c(C)c1
REMARK SMILES IDX 7 1 8 2 9 3 25 4 26 5 6 6 3 7 4 8 29 9 5 10 27 11 28 12 2 13
REMARK SMILES IDX 1 14 10 15 11 16 12 19 13 20 14 21 18 22 15 23 17 24 16 25
REMARK SMILES IDX 19 26 21 27 20 28 22 29 23 30 24 31
REMARK H PARENT 11 17 11 18
ROOT
ATOM     1   N1  UNL     1       1.705  -0.368  -0.592  1.00  0.00    -0.180 N   
ATOM     2   C6  UNL     1       0.976  -1.302   0.131  1.00  0.00     0.135 A   
ATOM     3   C7  UNL     1      -0.332  -0.877   0.070  1.00  0.00     0.127 A   
ATOM     4   N3  UNL     1      -0.385   0.286  -0.638  1.00  0.00    -0.131 NA  
ATOM     5   N4  UNL     1       0.843   0.589  -1.019  1.00  0.00    -0.071 NA  
ENDROOT
BRANCH   1   6
ATOM     6   C5  UNL     1       3.107  -0.347  -0.865  1.00  0.00     0.061 A   
ATOM     7   C2  UNL     1       5.900  -0.433  -1.336  1.00  0.00     0.075 A   
ATOM     8   C3  UNL     1       5.284  -1.448  -0.618  1.00  0.00     0.035 A   
ATOM     9   C22 UNL     1       5.122   0.620  -1.817  1.00  0.00     0.038 A   
ATOM     10  C4  UNL     1       3.903  -1.407  -0.385  1.00  0.00     0.029 A   
ATOM     11  C20 UNL     1       3.729   0.690  -1.599  1.00  0.00    -0.025 A   
ATOM     12  C21 UNL     1       3.019   1.885  -2.183  1.00  0.00     0.046 C   
BRANCH   7  13
ATOM     13  O1  UNL     1       7.229  -0.346  -1.635  1.00  0.00    -0.349 OA  
ATOM     14  C1  UNL     1       8.068  -1.405  -1.187  1.00  0.00     0.203 C   
ENDBRANCH   7  13
ENDBRANCH   1   6
BRANCH   3  15
ATOM     15  C8  UNL     1      -1.590  -1.432   0.660  1.00  0.00     0.117 C   
BRANCH  15  16
ATOM     16  N2  UNL     1      -2.576  -0.318   0.915  1.00  0.00     0.249 N   
ATOM     17  H8  UNL     1      -2.566   0.287   0.079  1.00  0.00     0.199 HD  
ATOM     18  H9  UNL     1      -3.535  -0.672   1.000  1.00  0.00     0.199 HD  
BRANCH  16  19
ATOM     19  C9  UNL     1      -2.274   0.552   2.085  1.00  0.00     0.164 C   
BRANCH  19  20
ATOM     20  C10 UNL     1      -3.274   1.669   2.179  1.00  0.00    -0.002 A   
ATOM     21  C11 UNL     1      -4.424   1.539   2.993  1.00  0.00     0.012 A   
ATOM     22  C15 UNL     1      -3.096   2.834   1.411  1.00  0.00     0.045 A   
ATOM     23  C12 UNL     1      -5.382   2.558   3.050  1.00  0.00     0.037 A   
ATOM     24  C14 UNL     1      -4.060   3.817   1.490  1.00  0.00     0.109 A   
ATOM     25  C13 UNL     1      -5.170   3.684   2.286  1.00  0.00     0.108 A   
ATOM     26  O2  UNL     1      -4.044   4.996   0.815  1.00  0.00    -0.316 OA  
ATOM     27  O3  UNL     1      -5.992   4.763   2.216  1.00  0.00    -0.316 OA  
ATOM     28  C16 UNL     1      -5.263   5.605   1.296  1.00  0.00     0.337 C   
ENDBRANCH  19  20
ENDBRANCH  16  19
ENDBRANCH  15  16
BRANCH  15  29
ATOM     29  C17 UNL     1      -2.285  -2.505  -0.218  1.00  0.00     0.037 C   
ATOM     30  C18 UNL     1      -2.686  -2.009  -1.613  1.00  0.00     0.014 C   
ATOM     31  C19 UNL     1      -1.435  -3.774  -0.345  1.00  0.00     0.014 C   
ENDBRANCH  15  29
ENDBRANCH   3  15
TORSDOF 7
