REMARK SMILES CC(C)(C)[C@H]([NH2+]Cc1ccc2c(c1)OCO2)c1cn(Cc2c(O)cccc2Cl)nn1
REMARK SMILES IDX 17 1 18 2 19 3 29 4 30 5 5 7 2 8 1 9 3 10 4 11 6 12 7 15
REMARK SMILES IDX 8 16 9 17 13 18 10 19 12 20 11 21 14 22 16 23 15 24 20 25
REMARK SMILES IDX 21 26 22 27 27 28 24 29 26 30 25 31 28 32 23 33
REMARK H PARENT 18 6 6 13 6 14 23 34
ROOT
ATOM     1   C14 UNL     1       1.470   0.504   0.522  1.00  0.00     0.127 A   
ATOM     2   C15 UNL     1       0.551   0.843  -0.445  1.00  0.00     0.046 A   
ATOM     3   N2  UNL     1       1.063   0.301  -1.594  1.00  0.00    -0.208 N   
ATOM     4   N3  UNL     1       2.231  -0.326  -1.345  1.00  0.00    -0.076 NA  
ATOM     5   N4  UNL     1       2.485  -0.219  -0.053  1.00  0.00    -0.132 NA  
ATOM     6   H20 UNL     1      -0.383   1.389  -0.430  1.00  0.00     0.083 HD  
ENDROOT
BRANCH   1   7
ATOM     7   C5  UNL     1       1.488   0.722   2.003  1.00  0.00     0.120 C   
BRANCH   7   8
ATOM     8   C2  UNL     1       2.261   2.008   2.459  1.00  0.00     0.010 C   
ATOM     9   C1  UNL     1       2.142   2.181   3.991  1.00  0.00     0.017 C   
ATOM     10  C3  UNL     1       1.627   3.263   1.814  1.00  0.00     0.017 C   
ATOM     11  C4  UNL     1       3.756   1.976   2.082  1.00  0.00     0.017 C   
ENDBRANCH   7   8
BRANCH   7  12
ATOM     12  N1  UNL     1       2.086  -0.520   2.647  1.00  0.00     0.250 N   
ATOM     13  H11 UNL     1       2.598  -1.003   1.889  1.00  0.00     0.199 HD  
ATOM     14  H12 UNL     1       2.804  -0.281   3.335  1.00  0.00     0.199 HD  
BRANCH  12  15
ATOM     15  C6  UNL     1       1.125  -1.482   3.251  1.00  0.00     0.164 C   
BRANCH  15  16
ATOM     16  C7  UNL     1       0.132  -2.055   2.279  1.00  0.00    -0.002 A   
ATOM     17  C8  UNL     1       0.549  -2.965   1.278  1.00  0.00     0.012 A   
ATOM     18  C12 UNL     1      -1.220  -1.676   2.344  1.00  0.00     0.045 A   
ATOM     19  C9  UNL     1      -0.364  -3.490   0.357  1.00  0.00     0.037 A   
ATOM     20  C11 UNL     1      -2.093  -2.211   1.419  1.00  0.00     0.109 A   
ATOM     21  C10 UNL     1      -1.679  -3.094   0.454  1.00  0.00     0.108 A   
ATOM     22  O1  UNL     1      -3.424  -1.945   1.343  1.00  0.00    -0.316 OA  
ATOM     23  O2  UNL     1      -2.696  -3.502  -0.348  1.00  0.00    -0.316 OA  
ATOM     24  C13 UNL     1      -3.810  -2.800   0.243  1.00  0.00     0.337 C   
ENDBRANCH  15  16
ENDBRANCH  12  15
ENDBRANCH   7  12
ENDBRANCH   1   7
BRANCH   3  25
ATOM     25  C16 UNL     1       0.559   0.412  -2.953  1.00  0.00     0.173 C   
BRANCH  25  26
ATOM     26  C17 UNL     1      -0.834  -0.147  -3.094  1.00  0.00     0.020 A   
ATOM     27  C18 UNL     1      -1.944   0.711  -3.060  1.00  0.00     0.078 A   
ATOM     28  C22 UNL     1      -1.075  -1.521  -3.264  1.00  0.00     0.048 A   
ATOM     29  C19 UNL     1      -3.247   0.234  -3.215  1.00  0.00     0.033 A   
ATOM     30  C21 UNL     1      -2.380  -2.005  -3.418  1.00  0.00     0.021 A   
ATOM     31  C20 UNL     1      -3.463  -1.128  -3.399  1.00  0.00     0.004 A   
ATOM     32  CL1 UNL     1       0.209  -2.676  -3.303  1.00  0.00    -0.084 Cl  
BRANCH  27  33
ATOM     33  O3  UNL     1      -1.736   2.050  -2.863  1.00  0.00    -0.361 OA  
ATOM     34  H23 UNL     1      -2.566   2.528  -3.040  1.00  0.00     0.218 HD  
ENDBRANCH  27  33
ENDBRANCH  25  26
ENDBRANCH   3  25
TORSDOF 8
