REMARK SMILES OCc1ccc(-n2cc([C@@H]([NH2+]Cc3ccc4c(c3)OCO4)C3CCCCC3)nn2)cc1F
REMARK SMILES IDX 7 1 8 2 9 3 28 4 29 5 6 6 3 7 4 8 31 9 5 10 30 11 32 12 2 13
REMARK SMILES IDX 1 14 10 16 11 17 12 20 13 21 14 22 18 23 15 24 17 25 16 26
REMARK SMILES IDX 19 27 21 28 20 29 22 30 23 31 27 32 24 33 26 34 25 35
REMARK H PARENT 1 15 11 18 11 19
ROOT
ATOM     1   N1  UNL     1      -1.829  -1.062  -0.937  1.00  0.00    -0.181 N   
ATOM     2   C6  UNL     1      -0.915  -0.172  -0.404  1.00  0.00     0.135 A   
ATOM     3   C7  UNL     1       0.261  -0.418  -1.077  1.00  0.00     0.127 A   
ATOM     4   N3  UNL     1       0.063  -1.445  -1.957  1.00  0.00    -0.131 NA  
ATOM     5   N4  UNL     1      -1.196  -1.833  -1.859  1.00  0.00    -0.071 NA  
ENDROOT
BRANCH   1   6
ATOM     6   C5  UNL     1      -3.200  -1.228  -0.627  1.00  0.00     0.060 A   
ATOM     7   C2  UNL     1      -5.937  -1.597  -0.033  1.00  0.00     0.013 A   
ATOM     8   C3  UNL     1      -5.305  -2.387  -1.001  1.00  0.00     0.011 A   
ATOM     9   C24 UNL     1      -5.178  -0.620   0.615  1.00  0.00     0.130 A   
ATOM     10  C4  UNL     1      -3.948  -2.209  -1.296  1.00  0.00     0.026 A   
ATOM     11  C23 UNL     1      -3.825  -0.427   0.334  1.00  0.00     0.065 A   
ATOM     12  F1  UNL     1      -5.754   0.163   1.538  1.00  0.00    -0.207 F   
BRANCH   7  13
ATOM     13  C1  UNL     1      -7.396  -1.733   0.306  1.00  0.00     0.194 C   
BRANCH  13  14
ATOM     14  O1  UNL     1      -7.951  -2.914  -0.256  1.00  0.00    -0.392 OA  
ATOM     15  H1  UNL     1      -8.882  -2.944   0.024  1.00  0.00     0.211 HD  
ENDBRANCH  13  14
ENDBRANCH   7  13
ENDBRANCH   1   6
BRANCH   3  16
ATOM     16  C8  UNL     1       1.620   0.192  -0.952  1.00  0.00     0.117 C   
BRANCH  16  17
ATOM     17  N2  UNL     1       2.688  -0.839  -1.259  1.00  0.00     0.249 N   
ATOM     18  H8  UNL     1       2.410  -1.295  -2.139  1.00  0.00     0.199 HD  
ATOM     19  H9  UNL     1       3.587  -0.378  -1.428  1.00  0.00     0.199 HD  
BRANCH  17  20
ATOM     20  C9  UNL     1       2.877  -1.922  -0.247  1.00  0.00     0.164 C   
BRANCH  20  21
ATOM     21  C10 UNL     1       3.386  -1.412   1.071  1.00  0.00    -0.002 A   
ATOM     22  C11 UNL     1       2.549  -1.429   2.213  1.00  0.00     0.012 A   
ATOM     23  C15 UNL     1       4.687  -0.889   1.176  1.00  0.00     0.045 A   
ATOM     24  C12 UNL     1       2.994  -0.923   3.439  1.00  0.00     0.037 A   
ATOM     25  C14 UNL     1       5.093  -0.396   2.399  1.00  0.00     0.109 A   
ATOM     26  C13 UNL     1       4.271  -0.411   3.498  1.00  0.00     0.108 A   
ATOM     27  O2  UNL     1       6.308   0.150   2.666  1.00  0.00    -0.316 OA  
ATOM     28  O3  UNL     1       4.864   0.123   4.597  1.00  0.00    -0.316 OA  
ATOM     29  C16 UNL     1       6.168   0.454   4.074  1.00  0.00     0.337 C   
ENDBRANCH  20  21
ENDBRANCH  17  20
ENDBRANCH  16  17
BRANCH  16  30
ATOM     30  C17 UNL     1       1.855   1.421  -1.874  1.00  0.00     0.043 C   
ATOM     31  C18 UNL     1       0.969   2.615  -1.468  1.00  0.00     0.010 C   
ATOM     32  C22 UNL     1       1.692   1.126  -3.379  1.00  0.00     0.010 C   
ATOM     33  C19 UNL     1       1.259   3.849  -2.320  1.00  0.00     0.001 C   
ATOM     34  C21 UNL     1       1.973   2.365  -4.229  1.00  0.00     0.001 C   
ATOM     35  C20 UNL     1       1.110   3.550  -3.807  1.00  0.00     0.000 C   
ENDBRANCH  16  30
ENDBRANCH   3  16
TORSDOF 8
