REMARK SMILES Cc1cscc1[C@H](CO)n1cc([C@@H]([NH2+]Cc2ccc3c(c2)OCO3)C2CCCCC2)nn1
REMARK SMILES IDX 10 1 11 2 12 3 31 4 32 5 7 7 6 8 2 9 3 10 4 11 5 12 1 13
REMARK SMILES IDX 8 14 9 15 13 17 14 18 15 21 16 22 17 23 21 24 18 25 20 26
REMARK SMILES IDX 19 27 22 28 24 29 23 30 25 31 26 32 30 33 27 34 29 35 28 36
REMARK H PARENT 11 6 9 16 14 19 14 20
ROOT
ATOM     1   N1  UNL     1      -1.435  -0.095  -2.468  1.00  0.00    -0.202 N   
ATOM     2   C8  UNL     1      -0.315  -0.791  -2.093  1.00  0.00     0.046 A   
ATOM     3   C9  UNL     1      -0.220  -0.578  -0.738  1.00  0.00     0.127 A   
ATOM     4   N3  UNL     1      -1.234   0.258  -0.343  1.00  0.00    -0.132 NA  
ATOM     5   N4  UNL     1      -1.959   0.559  -1.408  1.00  0.00    -0.075 NA  
ATOM     6   H10 UNL     1       0.266  -1.367  -2.801  1.00  0.00     0.083 HD  
ENDROOT
BRANCH   1   7
ATOM     7   C6  UNL     1      -2.083  -0.024  -3.776  1.00  0.00     0.156 C   
BRANCH   7   8
ATOM     8   C5  UNL     1      -2.327  -1.427  -4.321  1.00  0.00    -0.013 A   
ATOM     9   C2  UNL     1      -3.448  -2.270  -3.934  1.00  0.00    -0.039 A   
ATOM     10  C3  UNL     1      -3.404  -3.495  -4.572  1.00  0.00     0.049 A   
ATOM     11  S1  UNL     1      -2.065  -3.656  -5.613  1.00  0.00    -0.105 S   
ATOM     12  C4  UNL     1      -1.519  -2.086  -5.235  1.00  0.00     0.051 A   
ATOM     13  C1  UNL     1      -4.521  -1.887  -2.964  1.00  0.00     0.045 C   
ENDBRANCH   7   8
BRANCH   7  14
ATOM     14  C7  UNL     1      -1.353   0.948  -4.722  1.00  0.00     0.185 C   
BRANCH  14  15
ATOM     15  O1  UNL     1       0.025   0.618  -4.912  1.00  0.00    -0.394 OA  
ATOM     16  H9  UNL     1       0.372   1.224  -5.594  1.00  0.00     0.210 HD  
ENDBRANCH  14  15
ENDBRANCH   7  14
ENDBRANCH   1   7
BRANCH   3  17
ATOM     17  C10 UNL     1       0.765  -1.092   0.268  1.00  0.00     0.117 C   
BRANCH  17  18
ATOM     18  N2  UNL     1       0.746  -0.231   1.492  1.00  0.00     0.249 N   
ATOM     19  H12 UNL     1      -0.243  -0.019   1.694  1.00  0.00     0.199 HD  
ATOM     20  H13 UNL     1       1.111  -0.716   2.313  1.00  0.00     0.199 HD  
BRANCH  18  21
ATOM     21  C11 UNL     1       1.451   1.074   1.364  1.00  0.00     0.164 C   
BRANCH  21  22
ATOM     22  C12 UNL     1       1.283   1.883   2.619  1.00  0.00    -0.002 A   
ATOM     23  C13 UNL     1       0.252   2.849   2.708  1.00  0.00     0.012 A   
ATOM     24  C17 UNL     1       2.113   1.651   3.731  1.00  0.00     0.045 A   
ATOM     25  C14 UNL     1       0.058   3.589   3.879  1.00  0.00     0.037 A   
ATOM     26  C16 UNL     1       1.891   2.395   4.872  1.00  0.00     0.109 A   
ATOM     27  C15 UNL     1       0.895   3.338   4.944  1.00  0.00     0.108 A   
ATOM     28  O2  UNL     1       2.604   2.301   6.024  1.00  0.00    -0.316 OA  
ATOM     29  O3  UNL     1       0.856   3.958   6.152  1.00  0.00    -0.316 OA  
ATOM     30  C18 UNL     1       1.942   3.297   6.838  1.00  0.00     0.337 C   
ENDBRANCH  21  22
ENDBRANCH  18  21
ENDBRANCH  17  18
BRANCH  17  31
ATOM     31  C19 UNL     1       0.506  -2.590   0.612  1.00  0.00     0.043 C   
ATOM     32  C20 UNL     1      -0.789  -2.880   1.398  1.00  0.00     0.010 C   
ATOM     33  C24 UNL     1       1.728  -3.300   1.232  1.00  0.00     0.010 C   
ATOM     34  C21 UNL     1      -0.655  -2.810   2.917  1.00  0.00     0.001 C   
ATOM     35  C23 UNL     1       1.825  -3.241   2.753  1.00  0.00     0.001 C   
ATOM     36  C22 UNL     1       0.518  -3.639   3.423  1.00  0.00     0.000 C   
ENDBRANCH  17  31
ENDBRANCH   3  17
TORSDOF 9
