REMARK SMILES Cc1cscc1[C@@H](CO)n1cc([C@@H]([NH2+]Cc2ccc3c(c2)OCO3)C2CCCCC2)nn1
REMARK SMILES IDX 10 1 11 2 12 3 31 4 32 5 7 7 6 8 2 9 3 10 4 11 5 12 1 13
REMARK SMILES IDX 8 14 9 15 13 17 14 18 15 21 16 22 17 23 21 24 18 25 20 26
REMARK SMILES IDX 19 27 22 28 24 29 23 30 25 31 26 32 30 33 27 34 29 35 28 36
REMARK H PARENT 11 6 9 16 14 19 14 20
ROOT
ATOM     1   N1  UNL     1      -1.047  -0.333  -1.163  1.00  0.00    -0.202 N   
ATOM     2   C8  UNL     1      -0.447  -0.852  -0.045  1.00  0.00     0.046 A   
ATOM     3   C9  UNL     1      -0.388   0.207   0.831  1.00  0.00     0.127 A   
ATOM     4   N3  UNL     1      -0.936   1.315   0.237  1.00  0.00    -0.132 NA  
ATOM     5   N4  UNL     1      -1.340   0.975  -0.975  1.00  0.00    -0.075 NA  
ATOM     6   H10 UNL     1      -0.130  -1.883   0.018  1.00  0.00     0.083 HD  
ENDROOT
BRANCH   1   7
ATOM     7   C6  UNL     1      -1.405  -0.984  -2.424  1.00  0.00     0.156 C   
BRANCH   7   8
ATOM     8   C5  UNL     1      -0.224  -1.010  -3.383  1.00  0.00    -0.013 A   
ATOM     9   C2  UNL     1      -0.232  -0.424  -4.714  1.00  0.00    -0.039 A   
ATOM     10  C3  UNL     1       0.976  -0.617  -5.357  1.00  0.00     0.049 A   
ATOM     11  S1  UNL     1       2.103  -1.476  -4.415  1.00  0.00    -0.105 S   
ATOM     12  C4  UNL     1       1.002  -1.601  -3.121  1.00  0.00     0.051 A   
ATOM     13  C1  UNL     1      -1.386   0.300  -5.335  1.00  0.00     0.045 C   
ENDBRANCH   7   8
BRANCH   7  14
ATOM     14  C7  UNL     1      -2.077  -2.359  -2.238  1.00  0.00     0.185 C   
BRANCH  14  15
ATOM     15  O1  UNL     1      -1.197  -3.367  -1.739  1.00  0.00    -0.394 OA  
ATOM     16  H9  UNL     1      -0.809  -3.821  -2.512  1.00  0.00     0.210 HD  
ENDBRANCH  14  15
ENDBRANCH   7  14
ENDBRANCH   1   7
BRANCH   3  17
ATOM     17  C10 UNL     1       0.179   0.321   2.210  1.00  0.00     0.117 C   
BRANCH  17  18
ATOM     18  N2  UNL     1       0.659   1.737   2.440  1.00  0.00     0.249 N   
ATOM     19  H12 UNL     1       0.317   2.106   3.330  1.00  0.00     0.199 HD  
ATOM     20  H13 UNL     1       0.199   2.309   1.713  1.00  0.00     0.199 HD  
BRANCH  18  21
ATOM     21  C11 UNL     1       2.128   1.960   2.353  1.00  0.00     0.164 C   
BRANCH  21  22
ATOM     22  C12 UNL     1       2.737   1.593   1.029  1.00  0.00    -0.002 A   
ATOM     23  C13 UNL     1       2.414   2.321  -0.142  1.00  0.00     0.012 A   
ATOM     24  C17 UNL     1       3.634   0.515   0.942  1.00  0.00     0.045 A   
ATOM     25  C14 UNL     1       2.974   1.982  -1.379  1.00  0.00     0.037 A   
ATOM     26  C16 UNL     1       4.172   0.210  -0.291  1.00  0.00     0.109 A   
ATOM     27  C15 UNL     1       3.855   0.925  -1.419  1.00  0.00     0.108 A   
ATOM     28  O2  UNL     1       5.051  -0.794  -0.542  1.00  0.00    -0.316 OA  
ATOM     29  O3  UNL     1       4.504   0.469  -2.521  1.00  0.00    -0.316 OA  
ATOM     30  C18 UNL     1       5.286  -0.605  -1.956  1.00  0.00     0.337 C   
ENDBRANCH  21  22
ENDBRANCH  18  21
ENDBRANCH  17  18
BRANCH  17  31
ATOM     31  C19 UNL     1      -0.839  -0.101   3.304  1.00  0.00     0.043 C   
ATOM     32  C20 UNL     1      -0.163  -0.226   4.683  1.00  0.00     0.010 C   
ATOM     33  C24 UNL     1      -2.085   0.803   3.394  1.00  0.00     0.010 C   
ATOM     34  C21 UNL     1      -1.142  -0.703   5.753  1.00  0.00     0.001 C   
ATOM     35  C23 UNL     1      -3.055   0.322   4.472  1.00  0.00     0.001 C   
ATOM     36  C22 UNL     1      -2.373   0.194   5.829  1.00  0.00     0.000 C   
ENDBRANCH  17  31
ENDBRANCH   3  17
TORSDOF 9
