REMARK SMILES CC(C)(C)[C@H]([NH2+]Cc1ccc2c(c1)OCO2)c1cn(Cc2cccc(F)c2)nn1
REMARK SMILES IDX 17 1 18 2 19 3 28 4 29 5 5 7 2 8 1 9 3 10 4 11 6 12 7 15
REMARK SMILES IDX 8 16 9 17 13 18 10 19 12 20 11 21 14 22 16 23 15 24 20 25
REMARK SMILES IDX 21 26 22 27 27 28 23 29 25 30 24 31 26 32
REMARK H PARENT 18 6 6 13 6 14
ROOT
ATOM     1   C14 UNL     1      -1.491  -1.185  -0.089  1.00  0.00     0.127 A   
ATOM     2   C15 UNL     1      -2.587  -0.491  -0.555  1.00  0.00     0.046 A   
ATOM     3   N2  UNL     1      -3.323  -0.240   0.571  1.00  0.00    -0.208 N   
ATOM     4   N3  UNL     1      -2.714  -0.739   1.664  1.00  0.00    -0.076 NA  
ATOM     5   N4  UNL     1      -1.594  -1.323   1.273  1.00  0.00    -0.132 NA  
ATOM     6   H20 UNL     1      -2.893  -0.150  -1.534  1.00  0.00     0.083 HD  
ENDROOT
BRANCH   1   7
ATOM     7   C5  UNL     1      -0.261  -1.688  -0.785  1.00  0.00     0.120 C   
BRANCH   7   8
ATOM     8   C2  UNL     1      -0.369  -3.167  -1.294  1.00  0.00     0.010 C   
ATOM     9   C1  UNL     1       0.883  -3.545  -2.119  1.00  0.00     0.017 C   
ATOM     10  C3  UNL     1      -1.587  -3.321  -2.234  1.00  0.00     0.017 C   
ATOM     11  C4  UNL     1      -0.514  -4.183  -0.144  1.00  0.00     0.017 C   
ENDBRANCH   7   8
BRANCH   7  12
ATOM     12  N1  UNL     1       0.914  -1.540   0.155  1.00  0.00     0.250 N   
ATOM     13  H11 UNL     1       0.598  -1.883   1.075  1.00  0.00     0.199 HD  
ATOM     14  H12 UNL     1       1.709  -2.127  -0.109  1.00  0.00     0.199 HD  
BRANCH  12  15
ATOM     15  C6  UNL     1       1.399  -0.145   0.356  1.00  0.00     0.164 C   
BRANCH  15  16
ATOM     16  C7  UNL     1       2.488  -0.117   1.390  1.00  0.00    -0.002 A   
ATOM     17  C8  UNL     1       2.159  -0.015   2.764  1.00  0.00     0.012 A   
ATOM     18  C12 UNL     1       3.833  -0.251   1.008  1.00  0.00     0.045 A   
ATOM     19  C9  UNL     1       3.156  -0.033   3.744  1.00  0.00     0.037 A   
ATOM     20  C11 UNL     1       4.791  -0.266   2.001  1.00  0.00     0.109 A   
ATOM     21  C10 UNL     1       4.463  -0.160   3.330  1.00  0.00     0.108 A   
ATOM     22  O1  UNL     1       6.130  -0.388   1.804  1.00  0.00    -0.316 OA  
ATOM     23  O2  UNL     1       5.554  -0.199   4.138  1.00  0.00    -0.316 OA  
ATOM     24  C13 UNL     1       6.614  -0.320   3.165  1.00  0.00     0.337 C   
ENDBRANCH  15  16
ENDBRANCH  12  15
ENDBRANCH   7  12
ENDBRANCH   1   7
BRANCH   3  25
ATOM     25  C16 UNL     1      -4.578   0.486   0.686  1.00  0.00     0.169 C   
BRANCH  25  26
ATOM     26  C17 UNL     1      -4.371   1.965   0.470  1.00  0.00    -0.026 A   
ATOM     27  C18 UNL     1      -4.910   2.608  -0.656  1.00  0.00     0.005 A   
ATOM     28  C22 UNL     1      -3.634   2.724   1.393  1.00  0.00     0.044 A   
ATOM     29  C19 UNL     1      -4.709   3.977  -0.858  1.00  0.00     0.003 A   
ATOM     30  C21 UNL     1      -3.437   4.084   1.177  1.00  0.00     0.123 A   
ATOM     31  C20 UNL     1      -3.967   4.716   0.060  1.00  0.00     0.039 A   
ATOM     32  F1  UNL     1      -2.716   4.790   2.057  1.00  0.00    -0.207 F   
ENDBRANCH  25  26
ENDBRANCH   3  25
TORSDOF 7
