REMARK SMILES CC(C)C[C@H]([NH2+]Cc1ccc2c(c1)OCO2)c1cn(Cc2ccc(F)cn2)nn1
REMARK SMILES IDX 17 1 18 2 19 3 28 4 29 5 5 7 4 8 2 9 1 10 3 11 6 12 7 15
REMARK SMILES IDX 8 16 9 17 13 18 10 19 12 20 11 21 14 22 16 23 15 24 20 25
REMARK SMILES IDX 21 26 22 27 27 28 23 29 26 30 24 31 25 32
REMARK H PARENT 18 6 6 13 6 14
ROOT
ATOM     1   C14 UNL     1       0.657   1.157   0.021  1.00  0.00     0.127 A   
ATOM     2   C15 UNL     1       1.069   0.189  -0.867  1.00  0.00     0.046 A   
ATOM     3   N2  UNL     1       2.434   0.231  -0.791  1.00  0.00    -0.206 N   
ATOM     4   N4  UNL     1       2.838   1.189   0.066  1.00  0.00    -0.076 NA  
ATOM     5   N5  UNL     1       1.757   1.765   0.568  1.00  0.00    -0.132 NA  
ATOM     6   H20 UNL     1       0.548  -0.533  -1.481  1.00  0.00     0.083 HD  
ENDROOT
BRANCH   1   7
ATOM     7   C5  UNL     1      -0.707   1.521   0.497  1.00  0.00     0.114 C   
BRANCH   7   8
ATOM     8   C4  UNL     1      -1.193   2.869  -0.070  1.00  0.00     0.064 C   
BRANCH   8   9
ATOM     9   C2  UNL     1      -1.356   2.914  -1.605  1.00  0.00    -0.012 C   
ATOM     10  C1  UNL     1      -1.770   4.323  -2.038  1.00  0.00     0.007 C   
ATOM     11  C3  UNL     1      -2.380   1.897  -2.113  1.00  0.00     0.007 C   
ENDBRANCH   8   9
ENDBRANCH   7   8
BRANCH   7  12
ATOM     12  N1  UNL     1      -0.718   1.651   2.009  1.00  0.00     0.249 N   
ATOM     13  H11 UNL     1      -1.631   1.994   2.319  1.00  0.00     0.199 HD  
ATOM     14  H12 UNL     1      -0.021   2.371   2.245  1.00  0.00     0.199 HD  
BRANCH  12  15
ATOM     15  C6  UNL     1      -0.362   0.424   2.786  1.00  0.00     0.164 C   
BRANCH  15  16
ATOM     16  C7  UNL     1      -1.275  -0.739   2.519  1.00  0.00    -0.002 A   
ATOM     17  C8  UNL     1      -0.809  -1.855   1.782  1.00  0.00     0.012 A   
ATOM     18  C12 UNL     1      -2.606  -0.717   2.971  1.00  0.00     0.045 A   
ATOM     19  C9  UNL     1      -1.655  -2.929   1.489  1.00  0.00     0.037 A   
ATOM     20  C11 UNL     1      -3.414  -1.792   2.665  1.00  0.00     0.109 A   
ATOM     21  C10 UNL     1      -2.953  -2.866   1.944  1.00  0.00     0.108 A   
ATOM     22  O1  UNL     1      -4.719  -1.924   3.017  1.00  0.00    -0.316 OA  
ATOM     23  O2  UNL     1      -3.910  -3.811   1.753  1.00  0.00    -0.316 OA  
ATOM     24  C13 UNL     1      -5.024  -3.224   2.461  1.00  0.00     0.337 C   
ENDBRANCH  15  16
ENDBRANCH  12  15
ENDBRANCH   7  12
ENDBRANCH   1   7
BRANCH   3  25
ATOM     25  C16 UNL     1       3.393  -0.631  -1.454  1.00  0.00     0.190 C   
BRANCH  25  26
ATOM     26  C17 UNL     1       3.620  -1.871  -0.628  1.00  0.00     0.060 A   
ATOM     27  C18 UNL     1       4.795  -2.028   0.109  1.00  0.00     0.028 A   
ATOM     28  N3  UNL     1       2.628  -2.806  -0.629  1.00  0.00    -0.257 NA  
ATOM     29  C19 UNL     1       4.973  -3.189   0.860  1.00  0.00     0.043 A   
ATOM     30  C21 UNL     1       2.840  -3.931   0.101  1.00  0.00     0.150 A   
ATOM     31  C20 UNL     1       3.980  -4.154   0.850  1.00  0.00     0.141 A   
ATOM     32  F1  UNL     1       4.120  -5.279   1.560  1.00  0.00    -0.205 F   
ENDBRANCH  25  26
ENDBRANCH   3  25
TORSDOF 8
