REMARK SMILES OC[C@@H](c1ccncc1Cl)n1cc([C@@H]([NH2+]Cc2ccc3c(c2)OCO3)C2CCCCC2)nn1
REMARK SMILES IDX 11 1 12 2 13 3 32 4 33 5 3 7 2 8 1 9 4 11 5 12 9 13 6 14
REMARK SMILES IDX 8 15 7 16 10 17 14 18 15 19 16 22 17 23 18 24 22 25 19 26
REMARK SMILES IDX 21 27 20 28 23 29 25 30 24 31 26 32 27 33 31 34 28 35 30 36
REMARK SMILES IDX 29 37
REMARK H PARENT 12 6 1 10 15 20 15 21
ROOT
ATOM     1   N2  UNL     1      -2.012  -1.799   2.138  1.00  0.00    -0.202 N   
ATOM     2   C8  UNL     1      -1.084  -1.468   1.189  1.00  0.00     0.046 A   
ATOM     3   C9  UNL     1      -0.968  -0.101   1.292  1.00  0.00     0.127 A   
ATOM     4   N4  UNL     1      -1.832   0.352   2.252  1.00  0.00    -0.132 NA  
ATOM     5   N5  UNL     1      -2.468  -0.690   2.759  1.00  0.00    -0.075 NA  
ATOM     6   H8  UNL     1      -0.618  -2.202   0.548  1.00  0.00     0.083 HD  
ENDROOT
BRANCH   1   7
ATOM     7   C2  UNL     1      -2.562  -3.111   2.492  1.00  0.00     0.157 C   
BRANCH   7   8
ATOM     8   C1  UNL     1      -3.922  -3.322   1.789  1.00  0.00     0.186 C   
BRANCH   8   9
ATOM     9   O1  UNL     1      -3.834  -3.205   0.365  1.00  0.00    -0.394 OA  
ATOM     10  H1  UNL     1      -4.726  -3.382   0.015  1.00  0.00     0.210 HD  
ENDBRANCH   8   9
ENDBRANCH   7   8
BRANCH   7  11
ATOM     11  C3  UNL     1      -1.526  -4.220   2.335  1.00  0.00    -0.001 A   
ATOM     12  C4  UNL     1      -1.562  -5.122   1.256  1.00  0.00     0.027 A   
ATOM     13  C7  UNL     1      -0.474  -4.368   3.257  1.00  0.00     0.064 A   
ATOM     14  C5  UNL     1      -0.586  -6.108   1.149  1.00  0.00     0.111 A   
ATOM     15  C6  UNL     1       0.452  -5.391   3.067  1.00  0.00     0.131 A   
ATOM     16  N1  UNL     1       0.420  -6.258   2.029  1.00  0.00    -0.263 NA  
ATOM     17  CL1 UNL     1      -0.264  -3.320   4.610  1.00  0.00    -0.082 Cl  
ENDBRANCH   7  11
ENDBRANCH   1   7
BRANCH   3  18
ATOM     18  C10 UNL     1      -0.152   0.870   0.503  1.00  0.00     0.117 C   
BRANCH  18  19
ATOM     19  N3  UNL     1      -0.930   2.142   0.268  1.00  0.00     0.249 N   
ATOM     20  H10 UNL     1      -1.287   2.429   1.190  1.00  0.00     0.199 HD  
ATOM     21  H11 UNL     1      -0.318   2.888  -0.071  1.00  0.00     0.199 HD  
BRANCH  19  22
ATOM     22  C11 UNL     1      -2.112   2.032  -0.641  1.00  0.00     0.164 C   
BRANCH  22  23
ATOM     23  C12 UNL     1      -1.730   1.741  -2.065  1.00  0.00    -0.002 A   
ATOM     24  C13 UNL     1      -1.196   2.762  -2.887  1.00  0.00     0.012 A   
ATOM     25  C17 UNL     1      -1.862   0.438  -2.578  1.00  0.00     0.045 A   
ATOM     26  C14 UNL     1      -0.792   2.491  -4.200  1.00  0.00     0.037 A   
ATOM     27  C16 UNL     1      -1.450   0.204  -3.874  1.00  0.00     0.109 A   
ATOM     28  C15 UNL     1      -0.928   1.200  -4.661  1.00  0.00     0.108 A   
ATOM     29  O2  UNL     1      -1.493  -0.996  -4.511  1.00  0.00    -0.316 OA  
ATOM     30  O3  UNL     1      -0.580   0.753  -5.896  1.00  0.00    -0.316 OA  
ATOM     31  C18 UNL     1      -0.958  -0.638  -5.806  1.00  0.00     0.337 C   
ENDBRANCH  22  23
ENDBRANCH  19  22
ENDBRANCH  18  19
BRANCH  18  32
ATOM     32  C19 UNL     1       1.212   1.181   1.182  1.00  0.00     0.043 C   
ATOM     33  C20 UNL     1       2.192   1.855   0.200  1.00  0.00     0.010 C   
ATOM     34  C24 UNL     1       1.100   2.013   2.476  1.00  0.00     0.010 C   
ATOM     35  C21 UNL     1       3.557   2.092   0.842  1.00  0.00     0.001 C   
ATOM     36  C23 UNL     1       2.470   2.253   3.110  1.00  0.00     0.001 C   
ATOM     37  C22 UNL     1       3.438   2.904   2.127  1.00  0.00     0.000 C   
ENDBRANCH  18  32
ENDBRANCH   3  18
TORSDOF 9
