REMARK SMILES OC[C@H](c1ccncc1Cl)n1cc([C@@H]([NH2+]Cc2ccc3c(c2)OCO3)C2CCCCC2)nn1
REMARK SMILES IDX 11 1 12 2 13 3 32 4 33 5 3 7 2 8 1 9 4 11 5 12 9 13 6 14
REMARK SMILES IDX 8 15 7 16 10 17 14 18 15 19 16 22 17 23 18 24 22 25 19 26
REMARK SMILES IDX 21 27 20 28 23 29 25 30 24 31 26 32 27 33 31 34 28 35 30 36
REMARK SMILES IDX 29 37
REMARK H PARENT 12 6 1 10 15 20 15 21
ROOT
ATOM     1   N2  UNL     1       3.033  -1.408  -1.147  1.00  0.00    -0.202 N   
ATOM     2   C8  UNL     1       1.958  -0.569  -1.273  1.00  0.00     0.046 A   
ATOM     3   C9  UNL     1       1.721  -0.132   0.010  1.00  0.00     0.127 A   
ATOM     4   N4  UNL     1       2.639  -0.700   0.857  1.00  0.00    -0.132 NA  
ATOM     5   N5  UNL     1       3.436  -1.474   0.141  1.00  0.00    -0.075 NA  
ATOM     6   H8  UNL     1       1.490  -0.367  -2.227  1.00  0.00     0.083 HD  
ENDROOT
BRANCH   1   7
ATOM     7   C2  UNL     1       3.737  -2.181  -2.174  1.00  0.00     0.157 C   
BRANCH   7   8
ATOM     8   C1  UNL     1       4.855  -1.321  -2.803  1.00  0.00     0.186 C   
BRANCH   8   9
ATOM     9   O1  UNL     1       4.360  -0.127  -3.411  1.00  0.00    -0.394 OA  
ATOM     10  H1  UNL     1       5.136   0.365  -3.741  1.00  0.00     0.210 HD  
ENDBRANCH   8   9
ENDBRANCH   7   8
BRANCH   7  11
ATOM     11  C3  UNL     1       2.757  -2.872  -3.121  1.00  0.00    -0.001 A   
ATOM     12  C4  UNL     1       2.584  -2.447  -4.450  1.00  0.00     0.027 A   
ATOM     13  C7  UNL     1       1.974  -3.961  -2.693  1.00  0.00     0.064 A   
ATOM     14  C5  UNL     1       1.670  -3.098  -5.268  1.00  0.00     0.111 A   
ATOM     15  C6  UNL     1       1.088  -4.549  -3.590  1.00  0.00     0.131 A   
ATOM     16  N1  UNL     1       0.914  -4.135  -4.864  1.00  0.00    -0.263 NA  
ATOM     17  CL1 UNL     1       2.048  -4.598  -1.092  1.00  0.00    -0.082 Cl  
ENDBRANCH   7  11
ENDBRANCH   1   7
BRANCH   3  18
ATOM     18  C10 UNL     1       0.675   0.780   0.567  1.00  0.00     0.117 C   
BRANCH  18  19
ATOM     19  N3  UNL     1       0.471   0.490   2.035  1.00  0.00     0.249 N   
ATOM     20  H10 UNL     1       1.412   0.319   2.419  1.00  0.00     0.199 HD  
ATOM     21  H11 UNL     1       0.089   1.301   2.527  1.00  0.00     0.199 HD  
BRANCH  19  22
ATOM     22  C11 UNL     1      -0.358  -0.710   2.353  1.00  0.00     0.164 C   
BRANCH  22  23
ATOM     23  C12 UNL     1      -1.823  -0.471   2.112  1.00  0.00    -0.002 A   
ATOM     24  C13 UNL     1      -2.561   0.376   2.974  1.00  0.00     0.012 A   
ATOM     25  C17 UNL     1      -2.464  -1.064   1.010  1.00  0.00     0.045 A   
ATOM     26  C14 UNL     1      -3.916   0.638   2.738  1.00  0.00     0.037 A   
ATOM     27  C16 UNL     1      -3.800  -0.785   0.807  1.00  0.00     0.109 A   
ATOM     28  C15 UNL     1      -4.505   0.045   1.644  1.00  0.00     0.108 A   
ATOM     29  O2  UNL     1      -4.563  -1.266  -0.209  1.00  0.00    -0.316 OA  
ATOM     30  O3  UNL     1      -5.799   0.193   1.258  1.00  0.00    -0.316 OA  
ATOM     31  C18 UNL     1      -5.837  -0.651   0.087  1.00  0.00     0.337 C   
ENDBRANCH  22  23
ENDBRANCH  19  22
ENDBRANCH  18  19
BRANCH  18  32
ATOM     32  C19 UNL     1       1.030   2.277   0.355  1.00  0.00     0.043 C   
ATOM     33  C20 UNL     1      -0.186   3.189   0.614  1.00  0.00     0.010 C   
ATOM     34  C24 UNL     1       2.243   2.756   1.178  1.00  0.00     0.010 C   
ATOM     35  C21 UNL     1       0.141   4.657   0.346  1.00  0.00     0.001 C   
ATOM     36  C23 UNL     1       2.561   4.226   0.907  1.00  0.00     0.001 C   
ATOM     37  C22 UNL     1       1.350   5.119   1.153  1.00  0.00     0.000 C   
ENDBRANCH  18  32
ENDBRANCH   3  18
TORSDOF 9
