REMARK SMILES CC(C)C[C@H]([NH2+]Cc1ccc2c(c1)OCO2)c1cn(C(=O)c2cncc(O)c2)nn1
REMARK SMILES IDX 17 1 18 2 19 3 29 4 30 5 5 6 4 7 2 8 1 9 3 10 6 11 7 14 8 15
REMARK SMILES IDX 9 16 13 17 10 18 12 19 11 20 14 21 16 22 15 23 20 24 21 25
REMARK SMILES IDX 22 26 23 27 28 28 24 29 26 30 25 31 27 32
REMARK H PARENT 6 12 6 13 27 33
ROOT
ATOM     1   C14 UNL     1       0.790   1.726  -0.498  1.00  0.00     0.127 A   
ATOM     2   C15 UNL     1       0.600   2.921  -1.152  1.00  0.00     0.139 A   
ATOM     3   N2  UNL     1      -0.418   2.681  -2.059  1.00  0.00    -0.143 N   
ATOM     4   N4  UNL     1      -0.834   1.399  -1.923  1.00  0.00    -0.068 NA  
ATOM     5   N5  UNL     1      -0.100   0.809  -0.992  1.00  0.00    -0.131 NA  
ENDROOT
BRANCH   1   6
ATOM     6   C5  UNL     1       1.734   1.344   0.598  1.00  0.00     0.114 C   
BRANCH   6   7
ATOM     7   C4  UNL     1       3.221   1.373   0.184  1.00  0.00     0.064 C   
BRANCH   7   8
ATOM     8   C2  UNL     1       3.764   0.222  -0.696  1.00  0.00    -0.012 C   
ATOM     9   C1  UNL     1       3.141   0.170  -2.090  1.00  0.00     0.007 C   
ATOM     10  C3  UNL     1       5.285   0.369  -0.830  1.00  0.00     0.007 C   
ENDBRANCH   7   8
ENDBRANCH   6   7
BRANCH   6  11
ATOM     11  N1  UNL     1       1.412   0.001   1.187  1.00  0.00     0.249 N   
ATOM     12  H11 UNL     1       1.224  -0.642   0.406  1.00  0.00     0.199 HD  
ATOM     13  H12 UNL     1       2.215  -0.386   1.694  1.00  0.00     0.199 HD  
BRANCH  11  14
ATOM     14  C6  UNL     1       0.224  -0.036   2.088  1.00  0.00     0.164 C   
BRANCH  14  15
ATOM     15  C7  UNL     1      -0.035  -1.440   2.557  1.00  0.00    -0.002 A   
ATOM     16  C8  UNL     1       0.396  -1.861   3.837  1.00  0.00     0.012 A   
ATOM     17  C12 UNL     1      -0.666  -2.360   1.700  1.00  0.00     0.045 A   
ATOM     18  C9  UNL     1       0.193  -3.177   4.266  1.00  0.00     0.037 A   
ATOM     19  C11 UNL     1      -0.843  -3.650   2.152  1.00  0.00     0.109 A   
ATOM     20  C10 UNL     1      -0.428  -4.047   3.400  1.00  0.00     0.108 A   
ATOM     21  O1  UNL     1      -1.422  -4.660   1.451  1.00  0.00    -0.316 OA  
ATOM     22  O2  UNL     1      -0.701  -5.355   3.645  1.00  0.00    -0.316 OA  
ATOM     23  C13 UNL     1      -1.346  -5.740   2.410  1.00  0.00     0.337 C   
ENDBRANCH  14  15
ENDBRANCH  11  14
ENDBRANCH   6  11
ENDBRANCH   1   6
BRANCH   3  24
ATOM     24  C16 UNL     1      -1.012   3.576  -2.963  1.00  0.00     0.272 C   
ATOM     25  O3  UNL     1      -0.608   4.737  -2.904  1.00  0.00    -0.269 OA  
BRANCH  24  26
ATOM     26  C17 UNL     1      -2.075   3.244  -3.941  1.00  0.00     0.060 A   
ATOM     27  C18 UNL     1      -2.207   1.986  -4.519  1.00  0.00     0.124 A   
ATOM     28  C21 UNL     1      -2.967   4.242  -4.341  1.00  0.00     0.050 A   
ATOM     29  N3  UNL     1      -3.166   1.668  -5.424  1.00  0.00    -0.261 NA  
ATOM     30  C20 UNL     1      -3.956   3.940  -5.267  1.00  0.00     0.090 A   
ATOM     31  C19 UNL     1      -4.024   2.653  -5.778  1.00  0.00     0.144 A   
BRANCH  30  32
ATOM     32  O4  UNL     1      -4.817   4.930  -5.629  1.00  0.00    -0.359 OA  
ATOM     33  H23 UNL     1      -5.430   4.601  -6.310  1.00  0.00     0.218 HD  
ENDBRANCH  30  32
ENDBRANCH  24  26
ENDBRANCH   3  24
TORSDOF 9
