REMARK SMILES Fc1ccc(CCn2cc([C@@H]([NH2+]Cc3ccc4c(c3)OCO4)C3CCCC3)nn2)cc1
REMARK SMILES IDX 8 1 9 2 10 3 28 4 29 5 7 7 6 8 5 9 2 10 3 11 31 12 4 13
REMARK SMILES IDX 30 14 1 15 11 16 12 17 13 20 14 21 15 22 19 23 16 24 18 25
REMARK SMILES IDX 17 26 20 27 22 28 21 29 23 30 24 31 27 32 25 33 26 34
REMARK H PARENT 9 6 12 18 12 19
ROOT
ATOM     1   N1  UNL     1       0.754   0.299  -2.984  1.00  0.00    -0.212 N   
ATOM     2   C7  UNL     1      -0.011   0.615  -1.897  1.00  0.00     0.045 A   
ATOM     3   C8  UNL     1       0.868   1.248  -1.046  1.00  0.00     0.127 A   
ATOM     4   N3  UNL     1       2.110   1.285  -1.628  1.00  0.00    -0.132 NA  
ATOM     5   N4  UNL     1       2.027   0.697  -2.810  1.00  0.00    -0.076 NA  
ATOM     6   H7  UNL     1      -1.060   0.363  -1.831  1.00  0.00     0.083 HD  
ENDROOT
BRANCH   1   7
ATOM     7   C6  UNL     1       0.350  -0.390  -4.191  1.00  0.00     0.139 C   
BRANCH   7   8
ATOM     8   C5  UNL     1       0.901  -1.814  -4.287  1.00  0.00     0.057 C   
BRANCH   8   9
ATOM     9   C4  UNL     1       0.458  -2.710  -3.151  1.00  0.00    -0.046 A   
ATOM     10  C1  UNL     1      -0.346  -4.347  -1.039  1.00  0.00     0.123 A   
ATOM     11  C2  UNL     1      -1.288  -3.903  -1.959  1.00  0.00     0.039 A   
ATOM     12  C24 UNL     1       0.993  -3.995  -1.161  1.00  0.00     0.039 A   
ATOM     13  C3  UNL     1      -0.887  -3.089  -3.019  1.00  0.00     0.007 A   
ATOM     14  C23 UNL     1       1.395  -3.174  -2.214  1.00  0.00     0.007 A   
ATOM     15  F1  UNL     1      -0.735  -5.113  -0.013  1.00  0.00    -0.207 F   
ENDBRANCH   8   9
ENDBRANCH   7   8
ENDBRANCH   1   7
BRANCH   3  16
ATOM     16  C9  UNL     1       0.681   1.795   0.330  1.00  0.00     0.117 C   
BRANCH  16  17
ATOM     17  N2  UNL     1       1.888   1.463   1.183  1.00  0.00     0.249 N   
ATOM     18  H9  UNL     1       1.853   1.970   2.070  1.00  0.00     0.199 HD  
ATOM     19  H10 UNL     1       2.709   1.805   0.665  1.00  0.00     0.199 HD  
BRANCH  17  20
ATOM     20  C10 UNL     1       2.115   0.015   1.470  1.00  0.00     0.164 C   
BRANCH  20  21
ATOM     21  C11 UNL     1       1.031  -0.590   2.317  1.00  0.00    -0.002 A   
ATOM     22  C12 UNL     1       0.083  -1.467   1.738  1.00  0.00     0.012 A   
ATOM     23  C16 UNL     1       0.931  -0.268   3.681  1.00  0.00     0.045 A   
ATOM     24  C13 UNL     1      -0.951  -2.018   2.503  1.00  0.00     0.037 A   
ATOM     25  C15 UNL     1      -0.102  -0.825   4.406  1.00  0.00     0.109 A   
ATOM     26  C14 UNL     1      -1.017  -1.675   3.835  1.00  0.00     0.108 A   
ATOM     27  O1  UNL     1      -0.344  -0.613   5.726  1.00  0.00    -0.316 OA  
ATOM     28  O2  UNL     1      -1.948  -2.107   4.723  1.00  0.00    -0.316 OA  
ATOM     29  C17 UNL     1      -1.499  -1.458   5.932  1.00  0.00     0.337 C   
ENDBRANCH  20  21
ENDBRANCH  17  20
ENDBRANCH  16  17
BRANCH  16  30
ATOM     30  C18 UNL     1       0.504   3.327   0.322  1.00  0.00     0.043 C   
ATOM     31  C19 UNL     1      -0.742   3.793  -0.439  1.00  0.00     0.010 C   
ATOM     32  C22 UNL     1       0.280   3.942   1.710  1.00  0.00     0.010 C   
ATOM     33  C20 UNL     1      -0.907   5.236   0.009  1.00  0.00     0.001 C   
ATOM     34  C21 UNL     1      -0.467   5.254   1.469  1.00  0.00     0.001 C   
ENDBRANCH  16  30
ENDBRANCH   3  16
TORSDOF 8
