REMARK SMILES CC(=O)c1cccc(Cn2cc([C@@H]([NH2+]Cc3ccc4c(c3)OCO4)C(C)C)nn2)c1
REMARK SMILES IDX 10 1 11 2 12 3 28 4 29 5 9 7 8 8 4 9 5 10 30 11 6 12 7 13
REMARK SMILES IDX 2 14 1 15 3 16 13 17 14 18 15 21 16 22 17 23 21 24 18 25
REMARK SMILES IDX 20 26 19 27 22 28 24 29 23 30 25 31 26 32 27 33
REMARK H PARENT 11 6 14 19 14 20
ROOT
ATOM     1   N1  UNL     1       2.694   1.051  -1.687  1.00  0.00    -0.208 N   
ATOM     2   C9  UNL     1       3.003   0.040  -0.815  1.00  0.00     0.046 A   
ATOM     3   C10 UNL     1       1.943  -0.829  -0.932  1.00  0.00     0.127 A   
ATOM     4   N3  UNL     1       1.106  -0.389  -1.927  1.00  0.00    -0.132 NA  
ATOM     5   N4  UNL     1       1.578   0.758  -2.383  1.00  0.00    -0.076 NA  
ATOM     6   H9  UNL     1       3.853   0.095  -0.145  1.00  0.00     0.083 HD  
ENDROOT
BRANCH   1   7
ATOM     7   C8  UNL     1       3.247   2.403  -1.721  1.00  0.00     0.169 C   
BRANCH   7   8
ATOM     8   C7  UNL     1       3.112   3.088  -0.375  1.00  0.00    -0.028 A   
ATOM     9   C3  UNL     1       1.873   3.482   1.698  1.00  0.00     0.018 A   
ATOM     10  C4  UNL     1       2.917   4.272   2.178  1.00  0.00     0.012 A   
ATOM     11  C23 UNL     1       1.957   2.931   0.414  1.00  0.00     0.017 A   
ATOM     12  C5  UNL     1       4.044   4.489   1.378  1.00  0.00     0.001 A   
ATOM     13  C6  UNL     1       4.145   3.898   0.113  1.00  0.00     0.005 A   
BRANCH   9  14
ATOM     14  C2  UNL     1       0.695   3.112   2.528  1.00  0.00     0.159 C   
ATOM     15  C1  UNL     1       0.314   3.996   3.689  1.00  0.00     0.093 C   
ATOM     16  O1  UNL     1       0.084   2.070   2.272  1.00  0.00    -0.295 OA  
ENDBRANCH   9  14
ENDBRANCH   7   8
ENDBRANCH   1   7
BRANCH   3  17
ATOM     17  C11 UNL     1       1.536  -2.006  -0.100  1.00  0.00     0.117 C   
BRANCH  17  18
ATOM     18  N2  UNL     1       0.037  -2.033   0.045  1.00  0.00     0.249 N   
ATOM     19  H11 UNL     1      -0.306  -2.934   0.387  1.00  0.00     0.199 HD  
ATOM     20  H12 UNL     1      -0.350  -1.909  -0.903  1.00  0.00     0.199 HD  
BRANCH  18  21
ATOM     21  C12 UNL     1      -0.553  -0.938   0.883  1.00  0.00     0.164 C   
BRANCH  21  22
ATOM     22  C13 UNL     1      -2.054  -1.029   0.855  1.00  0.00    -0.002 A   
ATOM     23  C14 UNL     1      -2.758  -1.725   1.866  1.00  0.00     0.012 A   
ATOM     24  C18 UNL     1      -2.763  -0.456  -0.214  1.00  0.00     0.045 A   
ATOM     25  C15 UNL     1      -4.153  -1.833   1.821  1.00  0.00     0.037 A   
ATOM     26  C17 UNL     1      -4.135  -0.581  -0.225  1.00  0.00     0.109 A   
ATOM     27  C16 UNL     1      -4.813  -1.249   0.763  1.00  0.00     0.108 A   
ATOM     28  O2  UNL     1      -4.962  -0.083  -1.178  1.00  0.00    -0.316 OA  
ATOM     29  O3  UNL     1      -6.155  -1.250   0.559  1.00  0.00    -0.316 OA  
ATOM     30  C19 UNL     1      -6.252  -0.446  -0.636  1.00  0.00     0.337 C   
ENDBRANCH  21  22
ENDBRANCH  18  21
ENDBRANCH  17  18
BRANCH  17  31
ATOM     31  C20 UNL     1       2.058  -3.348  -0.677  1.00  0.00     0.037 C   
ATOM     32  C21 UNL     1       1.430  -3.743  -2.019  1.00  0.00     0.014 C   
ATOM     33  C22 UNL     1       1.892  -4.502   0.326  1.00  0.00     0.014 C   
ENDBRANCH  17  31
ENDBRANCH   3  17
TORSDOF 8
