REMARK SMILES CC(C)[C@H]([NH2+]Cc1ccc2c(c1)OCO2)c1cn(-c2nc3ccccc3n2C)nn1
REMARK SMILES IDX 4 1 2 2 1 3 3 4 5 5 6 8 7 9 8 10 12 11 9 12 11 13 10 14
REMARK SMILES IDX 13 15 15 16 14 17 16 18 17 19 30 20 18 21 29 22 19 23 20 24
REMARK SMILES IDX 27 25 21 26 26 27 22 28 25 29 23 30 24 31 28 32
REMARK H PARENT 5 6 5 7
ROOT
ATOM     1   C4  UNL     1       1.254   1.763   2.225  1.00  0.00     0.117 C   
ENDROOT
BRANCH   1   2
ATOM     2   C2  UNL     1       2.439   2.750   2.389  1.00  0.00     0.037 C   
ATOM     3   C1  UNL     1       3.030   2.697   3.803  1.00  0.00     0.014 C   
ATOM     4   C3  UNL     1       3.554   2.559   1.352  1.00  0.00     0.014 C   
ENDBRANCH   1   2
BRANCH   1   5
ATOM     5   N1  UNL     1       1.752   0.341   2.254  1.00  0.00     0.249 N   
ATOM     6   H9  UNL     1       2.582   0.227   2.843  1.00  0.00     0.199 HD  
ATOM     7   H10 UNL     1       2.058   0.118   1.293  1.00  0.00     0.199 HD  
BRANCH   5   8
ATOM     8   C5  UNL     1       0.738  -0.679   2.644  1.00  0.00     0.164 C   
BRANCH   8   9
ATOM     9   C6  UNL     1       1.206  -2.054   2.265  1.00  0.00    -0.002 A   
ATOM     10  C7  UNL     1       1.924  -2.856   3.180  1.00  0.00     0.012 A   
ATOM     11  C11 UNL     1       0.975  -2.531   0.959  1.00  0.00     0.045 A   
ATOM     12  C8  UNL     1       2.392  -4.123   2.811  1.00  0.00     0.037 A   
ATOM     13  C10 UNL     1       1.447  -3.784   0.629  1.00  0.00     0.109 A   
ATOM     14  C9  UNL     1       2.138  -4.558   1.528  1.00  0.00     0.108 A   
ATOM     15  O1  UNL     1       1.308  -4.390  -0.580  1.00  0.00    -0.316 OA  
ATOM     16  O2  UNL     1       2.526  -5.748   0.999  1.00  0.00    -0.316 OA  
ATOM     17  C12 UNL     1       1.971  -5.652  -0.331  1.00  0.00     0.337 C   
ENDBRANCH   8   9
ENDBRANCH   5   8
ENDBRANCH   1   5
BRANCH   1  18
ATOM     18  C13 UNL     1       0.484   2.012   0.964  1.00  0.00     0.128 A   
ATOM     19  C14 UNL     1      -0.454   2.963   0.644  1.00  0.00     0.138 A   
ATOM     20  N6  UNL     1       0.669   1.191  -0.119  1.00  0.00    -0.131 NA  
ATOM     21  N2  UNL     1      -0.792   2.703  -0.669  1.00  0.00    -0.149 N   
ATOM     22  N5  UNL     1      -0.123   1.608  -1.095  1.00  0.00    -0.068 NA  
BRANCH  21  23
ATOM     23  C15 UNL     1      -1.676   3.395  -1.486  1.00  0.00     0.214 A   
ATOM     24  N3  UNL     1      -2.340   4.446  -1.039  1.00  0.00    -0.215 NA  
ATOM     25  N4  UNL     1      -1.988   3.117  -2.799  1.00  0.00    -0.273 N   
ATOM     26  C16 UNL     1      -3.118   4.860  -2.089  1.00  0.00     0.088 A   
ATOM     27  C21 UNL     1      -2.934   4.041  -3.202  1.00  0.00     0.061 A   
ATOM     28  C17 UNL     1      -4.014   5.936  -2.159  1.00  0.00     0.030 A   
ATOM     29  C20 UNL     1      -3.626   4.247  -4.403  1.00  0.00     0.026 A   
ATOM     30  C18 UNL     1      -4.709   6.158  -3.352  1.00  0.00     0.002 A   
ATOM     31  C19 UNL     1      -4.519   5.324  -4.452  1.00  0.00     0.002 A   
ATOM     32  C22 UNL     1      -1.440   2.071  -3.634  1.00  0.00     0.139 C   
ENDBRANCH  21  23
ENDBRANCH   1  18
TORSDOF 6
