REMARK SMILES COc1ccccc1[C@H](O)Cn1cc([C@@H]([NH2+]Cc2ccc3c(c2)OCO3)C2CCCC2)nn1
REMARK SMILES IDX 12 1 13 2 14 3 32 4 33 5 11 7 9 8 8 9 3 10 4 11 5 12 7 13
REMARK SMILES IDX 6 14 2 15 1 16 10 17 15 19 16 20 17 23 18 24 19 25 23 26
REMARK SMILES IDX 20 27 22 28 21 29 24 30 26 31 25 32 27 33 28 34 31 35 29 36
REMARK SMILES IDX 30 37
REMARK H PARENT 13 6 10 18 16 21 16 22
ROOT
ATOM     1   N1  UNL     1      -0.164  -1.727  -1.109  1.00  0.00    -0.209 N   
ATOM     2   C10 UNL     1      -0.565  -0.709  -1.928  1.00  0.00     0.045 A   
ATOM     3   C11 UNL     1       0.312   0.311  -1.639  1.00  0.00     0.127 A   
ATOM     4   N3  UNL     1       1.203  -0.115  -0.687  1.00  0.00    -0.132 NA  
ATOM     5   N4  UNL     1       0.904  -1.364  -0.374  1.00  0.00    -0.076 NA  
ATOM     6   H12 UNL     1      -1.420  -0.797  -2.584  1.00  0.00     0.083 HD  
ENDROOT
BRANCH   1   7
ATOM     7   C9  UNL     1      -0.755  -3.042  -0.956  1.00  0.00     0.170 C   
BRANCH   7   8
ATOM     8   C8  UNL     1      -1.666  -3.097   0.274  1.00  0.00     0.166 C   
BRANCH   8   9
ATOM     9   C7  UNL     1      -2.044  -4.530   0.616  1.00  0.00     0.012 A   
ATOM     10  C2  UNL     1      -2.938  -5.288  -0.168  1.00  0.00     0.080 A   
ATOM     11  C3  UNL     1      -3.220  -6.612   0.184  1.00  0.00     0.034 A   
ATOM     12  C4  UNL     1      -2.617  -7.192   1.302  1.00  0.00     0.003 A   
ATOM     13  C6  UNL     1      -1.446  -5.131   1.738  1.00  0.00     0.009 A   
ATOM     14  C5  UNL     1      -1.731  -6.453   2.078  1.00  0.00     0.001 A   
BRANCH  10  15
ATOM     15  O1  UNL     1      -3.487  -4.635  -1.241  1.00  0.00    -0.349 OA  
ATOM     16  C1  UNL     1      -4.398  -5.369  -2.055  1.00  0.00     0.203 C   
ENDBRANCH  10  15
ENDBRANCH   8   9
BRANCH   8  17
ATOM     17  O2  UNL     1      -2.825  -2.279   0.052  1.00  0.00    -0.387 OA  
ATOM     18  H9  UNL     1      -3.584  -2.883  -0.064  1.00  0.00     0.211 HD  
ENDBRANCH   8  17
ENDBRANCH   7   8
ENDBRANCH   1   7
BRANCH   3  19
ATOM     19  C12 UNL     1       0.381   1.722  -2.127  1.00  0.00     0.117 C   
BRANCH  19  20
ATOM     20  N2  UNL     1       0.869   2.612  -1.015  1.00  0.00     0.249 N   
ATOM     21  H14 UNL     1       1.604   2.078  -0.522  1.00  0.00     0.199 HD  
ATOM     22  H15 UNL     1       1.323   3.463  -1.356  1.00  0.00     0.199 HD  
BRANCH  20  23
ATOM     23  C13 UNL     1      -0.162   2.970  -0.004  1.00  0.00     0.164 C   
BRANCH  23  24
ATOM     24  C14 UNL     1       0.468   3.628   1.190  1.00  0.00    -0.002 A   
ATOM     25  C15 UNL     1       0.511   5.037   1.299  1.00  0.00     0.012 A   
ATOM     26  C19 UNL     1       1.052   2.835   2.196  1.00  0.00     0.045 A   
ATOM     27  C16 UNL     1       1.107   5.652   2.407  1.00  0.00     0.037 A   
ATOM     28  C18 UNL     1       1.635   3.473   3.271  1.00  0.00     0.109 A   
ATOM     29  C17 UNL     1       1.657   4.841   3.377  1.00  0.00     0.108 A   
ATOM     30  O3  UNL     1       2.235   2.860   4.326  1.00  0.00    -0.316 OA  
ATOM     31  O4  UNL     1       2.263   5.262   4.518  1.00  0.00    -0.316 OA  
ATOM     32  C20 UNL     1       2.604   4.000   5.131  1.00  0.00     0.337 C   
ENDBRANCH  23  24
ENDBRANCH  20  23
ENDBRANCH  19  20
BRANCH  19  33
ATOM     33  C21 UNL     1       1.278   1.861  -3.370  1.00  0.00     0.043 C   
ATOM     34  C22 UNL     1       2.779   1.647  -3.153  1.00  0.00     0.010 C   
ATOM     35  C25 UNL     1       1.185   3.232  -4.063  1.00  0.00     0.010 C   
ATOM     36  C23 UNL     1       3.385   2.248  -4.412  1.00  0.00     0.001 C   
ATOM     37  C24 UNL     1       2.577   3.519  -4.628  1.00  0.00     0.001 C   
ENDBRANCH  19  33
ENDBRANCH   3  19
TORSDOF 10
