REMARK SMILES COc1ccccc1[C@@H](O)Cn1cc([C@@H]([NH2+]Cc2ccc3c(c2)OCO3)C2CCCC2)nn1
REMARK SMILES IDX 12 1 13 2 14 3 32 4 33 5 11 7 9 8 8 9 3 10 4 11 5 12 7 13
REMARK SMILES IDX 6 14 2 15 1 16 10 17 15 19 16 20 17 23 18 24 19 25 23 26
REMARK SMILES IDX 20 27 22 28 21 29 24 30 26 31 25 32 27 33 28 34 31 35 29 36
REMARK SMILES IDX 30 37
REMARK H PARENT 13 6 10 18 16 21 16 22
ROOT
ATOM     1   N1  UNL     1       1.554  -0.732  -2.582  1.00  0.00    -0.209 N   
ATOM     2   C10 UNL     1       0.350  -0.386  -2.034  1.00  0.00     0.045 A   
ATOM     3   C11 UNL     1       0.668   0.633  -1.165  1.00  0.00     0.127 A   
ATOM     4   N3  UNL     1       2.009   0.905  -1.258  1.00  0.00    -0.132 NA  
ATOM     5   N4  UNL     1       2.542   0.055  -2.119  1.00  0.00    -0.076 NA  
ATOM     6   H12 UNL     1      -0.567  -0.906  -2.270  1.00  0.00     0.083 HD  
ENDROOT
BRANCH   1   7
ATOM     7   C9  UNL     1       1.833  -1.785  -3.532  1.00  0.00     0.170 C   
BRANCH   7   8
ATOM     8   C8  UNL     1       2.163  -3.121  -2.859  1.00  0.00     0.166 C   
BRANCH   8   9
ATOM     9   C7  UNL     1       0.952  -3.780  -2.224  1.00  0.00     0.012 A   
ATOM     10  C2  UNL     1       0.759  -3.792  -0.829  1.00  0.00     0.080 A   
ATOM     11  C3  UNL     1      -0.384  -4.385  -0.279  1.00  0.00     0.034 A   
ATOM     12  C4  UNL     1      -1.329  -4.994  -1.108  1.00  0.00     0.003 A   
ATOM     13  C6  UNL     1      -0.020  -4.390  -3.042  1.00  0.00     0.009 A   
ATOM     14  C5  UNL     1      -1.147  -4.997  -2.488  1.00  0.00     0.001 A   
BRANCH  10  15
ATOM     15  O1  UNL     1       1.668  -3.125  -0.044  1.00  0.00    -0.349 OA  
ATOM     16  C1  UNL     1       2.128  -3.908   1.063  1.00  0.00     0.203 C   
ENDBRANCH  10  15
ENDBRANCH   8   9
BRANCH   8  17
ATOM     17  O2  UNL     1       2.702  -4.004  -3.853  1.00  0.00    -0.387 OA  
ATOM     18  H9  UNL     1       2.771  -4.888  -3.446  1.00  0.00     0.211 HD  
ENDBRANCH   8  17
ENDBRANCH   7   8
ENDBRANCH   1   7
BRANCH   3  19
ATOM     19  C12 UNL     1      -0.168   1.376  -0.177  1.00  0.00     0.117 C   
BRANCH  19  20
ATOM     20  N2  UNL     1       0.699   1.904   0.942  1.00  0.00     0.249 N   
ATOM     21  H14 UNL     1       1.489   2.377   0.481  1.00  0.00     0.199 HD  
ATOM     22  H15 UNL     1       0.203   2.607   1.498  1.00  0.00     0.199 HD  
BRANCH  20  23
ATOM     23  C13 UNL     1       1.292   0.873   1.849  1.00  0.00     0.164 C   
BRANCH  23  24
ATOM     24  C14 UNL     1       0.296   0.303   2.820  1.00  0.00    -0.002 A   
ATOM     25  C15 UNL     1      -0.078   1.040   3.970  1.00  0.00     0.012 A   
ATOM     26  C19 UNL     1      -0.281  -0.958   2.583  1.00  0.00     0.045 A   
ATOM     27  C16 UNL     1      -1.004   0.522   4.883  1.00  0.00     0.037 A   
ATOM     28  C18 UNL     1      -1.186  -1.442   3.504  1.00  0.00     0.109 A   
ATOM     29  C17 UNL     1      -1.536  -0.723   4.622  1.00  0.00     0.108 A   
ATOM     30  O3  UNL     1      -1.817  -2.646   3.442  1.00  0.00    -0.316 OA  
ATOM     31  O4  UNL     1      -2.433  -1.382   5.401  1.00  0.00    -0.316 OA  
ATOM     32  C20 UNL     1      -2.549  -2.635   4.688  1.00  0.00     0.337 C   
ENDBRANCH  23  24
ENDBRANCH  20  23
ENDBRANCH  19  20
BRANCH  19  33
ATOM     33  C21 UNL     1      -0.957   2.517  -0.851  1.00  0.00     0.043 C   
ATOM     34  C22 UNL     1      -2.058   3.135   0.018  1.00  0.00     0.010 C   
ATOM     35  C25 UNL     1      -0.155   3.748  -1.283  1.00  0.00     0.010 C   
ATOM     36  C23 UNL     1      -2.412   4.446  -0.685  1.00  0.00     0.001 C   
ATOM     37  C24 UNL     1      -1.235   4.776  -1.604  1.00  0.00     0.001 C   
ENDBRANCH  19  33
ENDBRANCH   3  19
TORSDOF 10
