REMARK SMILES Cc1cccc(N([O-])[O-])c1-n1cc([C@@H]([NH2+]Cc2ccc3c(c2)OCO3)C2CCCC2)nn1
REMARK SMILES IDX 11 1 12 2 13 3 31 4 32 5 10 6 2 7 3 8 4 9 6 10 5 11 1 12
REMARK SMILES IDX 7 13 8 14 9 15 14 16 15 17 16 20 17 21 18 22 22 23 19 24
REMARK SMILES IDX 21 25 20 26 23 27 25 28 24 29 26 30 27 31 30 32 28 33 29 34
REMARK H PARENT 15 18 15 19
ROOT
ATOM     1   N2  UNL     1       0.113   2.101  -1.725  1.00  0.00    -0.178 N   
ATOM     2   C8  UNL     1       0.289   0.784  -2.110  1.00  0.00     0.135 A   
ATOM     3   C9  UNL     1      -0.254   0.035  -1.092  1.00  0.00     0.127 A   
ATOM     4   N4  UNL     1      -0.804   0.877  -0.168  1.00  0.00    -0.131 NA  
ATOM     5   N5  UNL     1      -0.618   2.119  -0.584  1.00  0.00    -0.071 NA  
ENDROOT
BRANCH   1   6
ATOM     6   C7  UNL     1       0.614   3.288  -2.325  1.00  0.00     0.089 A   
ATOM     7   C2  UNL     1      -0.144   4.485  -2.303  1.00  0.00    -0.025 A   
ATOM     8   C3  UNL     1       0.380   5.634  -2.933  1.00  0.00     0.005 A   
ATOM     9   C4  UNL     1       1.613   5.616  -3.585  1.00  0.00     0.003 A   
ATOM     10  C6  UNL     1       1.874   3.307  -2.964  1.00  0.00     0.141 A   
ATOM     11  C5  UNL     1       2.369   4.453  -3.601  1.00  0.00     0.033 A   
ATOM     12  C1  UNL     1      -1.508   4.614  -1.670  1.00  0.00     0.046 C   
BRANCH  10  13
ATOM     13  N1  UNL     1       2.795   2.187  -2.873  1.00  0.00     0.094 N   
ATOM     14  O1  UNL     1       3.180   1.686  -3.936  1.00  0.00    -0.138 OA  
ATOM     15  O2  UNL     1       3.083   1.777  -1.739  1.00  0.00    -0.138 OA  
ENDBRANCH  10  13
ENDBRANCH   1   6
BRANCH   3  16
ATOM     16  C10 UNL     1      -0.244  -1.438  -0.846  1.00  0.00     0.117 C   
BRANCH  16  17
ATOM     17  N3  UNL     1      -0.024  -1.710   0.622  1.00  0.00     0.249 N   
ATOM     18  H9  UNL     1      -0.678  -1.109   1.144  1.00  0.00     0.199 HD  
ATOM     19  H10 UNL     1      -0.266  -2.677   0.863  1.00  0.00     0.199 HD  
BRANCH  17  20
ATOM     20  C11 UNL     1       1.349  -1.417   1.126  1.00  0.00     0.164 C   
BRANCH  20  21
ATOM     21  C12 UNL     1       1.431  -1.692   2.601  1.00  0.00    -0.002 A   
ATOM     22  C13 UNL     1       1.874  -2.950   3.073  1.00  0.00     0.012 A   
ATOM     23  C17 UNL     1       1.014  -0.714   3.521  1.00  0.00     0.045 A   
ATOM     24  C14 UNL     1       1.911  -3.229   4.444  1.00  0.00     0.037 A   
ATOM     25  C16 UNL     1       1.062  -1.022   4.864  1.00  0.00     0.109 A   
ATOM     26  C15 UNL     1       1.498  -2.244   5.313  1.00  0.00     0.108 A   
ATOM     27  O3  UNL     1       0.696  -0.196   5.879  1.00  0.00    -0.316 OA  
ATOM     28  O4  UNL     1       1.464  -2.341   6.668  1.00  0.00    -0.316 OA  
ATOM     29  C18 UNL     1       0.977  -1.030   7.026  1.00  0.00     0.337 C   
ENDBRANCH  20  21
ENDBRANCH  17  20
ENDBRANCH  16  17
BRANCH  16  30
ATOM     30  C19 UNL     1      -1.520  -2.180  -1.280  1.00  0.00     0.043 C   
ATOM     31  C20 UNL     1      -1.867  -2.051  -2.764  1.00  0.00     0.010 C   
ATOM     32  C23 UNL     1      -2.828  -1.754  -0.608  1.00  0.00     0.010 C   
ATOM     33  C21 UNL     1      -3.280  -2.617  -2.852  1.00  0.00     0.001 C   
ATOM     34  C22 UNL     1      -3.920  -2.359  -1.488  1.00  0.00     0.001 C   
ENDBRANCH  16  30
ENDBRANCH   3  16
TORSDOF 7
