REMARK SMILES Cc1ccc(CCn2cc([C@H](CC(C)C)[NH2+]Cc3ccc4c(c3)OCO4)nn2)cn1
REMARK SMILES IDX 8 1 9 2 10 3 27 4 28 5 7 7 6 8 5 9 2 10 3 11 30 12 4 13
REMARK SMILES IDX 29 14 1 15 11 16 12 17 13 18 14 19 15 20 16 21 17 24 18 25
REMARK SMILES IDX 19 26 23 27 20 28 22 29 21 30 24 31 26 32 25 33
REMARK H PARENT 9 6 16 22 16 23
ROOT
ATOM     1   N1  UNL     1       2.094  -2.215  -1.232  1.00  0.00    -0.212 N   
ATOM     2   C8  UNL     1       1.662  -1.328  -0.281  1.00  0.00     0.045 A   
ATOM     3   C9  UNL     1       0.443  -1.841   0.108  1.00  0.00     0.127 A   
ATOM     4   N3  UNL     1       0.234  -3.040  -0.523  1.00  0.00    -0.132 NA  
ATOM     5   N4  UNL     1       1.264  -3.273  -1.319  1.00  0.00    -0.076 NA  
ATOM     6   H10 UNL     1       2.175  -0.396  -0.079  1.00  0.00     0.083 HD  
ENDROOT
BRANCH   1   7
ATOM     7   C7  UNL     1       3.047  -1.953  -2.295  1.00  0.00     0.139 C   
BRANCH   7   8
ATOM     8   C6  UNL     1       2.352  -1.645  -3.636  1.00  0.00     0.058 C   
BRANCH   8   9
ATOM     9   C5  UNL     1       1.366  -0.501  -3.549  1.00  0.00    -0.028 A   
ATOM     10  C2  UNL     1      -0.492   1.514  -3.253  1.00  0.00     0.037 A   
ATOM     11  C3  UNL     1       0.811   1.837  -3.626  1.00  0.00     0.024 A   
ATOM     12  N5  UNL     1      -0.882   0.246  -2.960  1.00  0.00    -0.261 NA  
ATOM     13  C4  UNL     1       1.756   0.820  -3.747  1.00  0.00     0.007 A   
ATOM     14  C23 UNL     1       0.034  -0.728  -3.198  1.00  0.00     0.115 A   
ATOM     15  C1  UNL     1      -1.534   2.597  -3.222  1.00  0.00     0.067 C   
ENDBRANCH   8   9
ENDBRANCH   7   8
ENDBRANCH   1   7
BRANCH   3  16
ATOM     16  C10 UNL     1      -0.654  -1.229   0.916  1.00  0.00     0.114 C   
BRANCH  16  17
ATOM     17  C11 UNL     1      -1.215  -2.208   1.968  1.00  0.00     0.064 C   
BRANCH  17  18
ATOM     18  C12 UNL     1      -0.200  -2.643   3.049  1.00  0.00    -0.012 C   
ATOM     19  C13 UNL     1       0.282  -1.462   3.897  1.00  0.00     0.007 C   
ATOM     20  C14 UNL     1      -0.837  -3.700   3.956  1.00  0.00     0.007 C   
ENDBRANCH  17  18
ENDBRANCH  16  17
BRANCH  16  21
ATOM     21  N2  UNL     1      -1.750  -0.830  -0.053  1.00  0.00     0.249 N   
ATOM     22  H21 UNL     1      -1.328  -0.254  -0.805  1.00  0.00     0.199 HD  
ATOM     23  H22 UNL     1      -2.046  -1.680  -0.549  1.00  0.00     0.199 HD  
BRANCH  21  24
ATOM     24  C15 UNL     1      -2.944  -0.114   0.470  1.00  0.00     0.164 C   
BRANCH  24  25
ATOM     25  C16 UNL     1      -2.615   1.120   1.265  1.00  0.00    -0.002 A   
ATOM     26  C17 UNL     1      -2.764   1.131   2.675  1.00  0.00     0.012 A   
ATOM     27  C21 UNL     1      -2.129   2.268   0.615  1.00  0.00     0.045 A   
ATOM     28  C18 UNL     1      -2.411   2.258   3.428  1.00  0.00     0.037 A   
ATOM     29  C20 UNL     1      -1.804   3.368   1.383  1.00  0.00     0.109 A   
ATOM     30  C19 UNL     1      -1.933   3.361   2.751  1.00  0.00     0.108 A   
ATOM     31  O1  UNL     1      -1.327   4.550   0.908  1.00  0.00    -0.316 OA  
ATOM     32  O2  UNL     1      -1.540   4.535   3.311  1.00  0.00    -0.316 OA  
ATOM     33  C22 UNL     1      -1.203   5.306   2.134  1.00  0.00     0.337 C   
ENDBRANCH  24  25
ENDBRANCH  21  24
ENDBRANCH  16  21
ENDBRANCH   3  16
TORSDOF 9
