REMARK SMILES Cn1cc(Cn2cc([C@@H]([NH2+]Cc3ccc4c(c3)OCO4)C3CCCCC3)nn2)c(Cl)n1
REMARK SMILES IDX 6 1 7 2 8 3 27 4 28 5 5 7 4 8 2 9 3 10 31 11 29 12 1 13
REMARK SMILES IDX 30 14 9 15 10 16 11 19 12 20 13 21 17 22 14 23 16 24 15 25
REMARK SMILES IDX 18 26 20 27 19 28 21 29 22 30 26 31 23 32 25 33 24 34
REMARK H PARENT 7 6 10 17 10 18
ROOT
ATOM     1   N2  UNL     1       0.287  -2.760   0.468  1.00  0.00    -0.208 N   
ATOM     2   C5  UNL     1       0.810  -1.497   0.475  1.00  0.00     0.046 A   
ATOM     3   C6  UNL     1       0.215  -0.892   1.561  1.00  0.00     0.127 A   
ATOM     4   N4  UNL     1      -0.614  -1.791   2.178  1.00  0.00    -0.132 NA  
ATOM     5   N5  UNL     1      -0.575  -2.924   1.492  1.00  0.00    -0.076 NA  
ATOM     6   H7  UNL     1       1.512  -1.151  -0.270  1.00  0.00     0.083 HD  
ENDROOT
BRANCH   1   7
ATOM     7   C4  UNL     1       0.574  -3.853  -0.449  1.00  0.00     0.174 C   
BRANCH   7   8
ATOM     8   C3  UNL     1       0.022  -3.573  -1.800  1.00  0.00     0.026 A   
ATOM     9   N1  UNL     1      -1.273  -3.411  -3.573  1.00  0.00    -0.234 N   
ATOM     10  C2  UNL     1      -1.251  -3.835  -2.274  1.00  0.00     0.104 A   
ATOM     11  N6  UNL     1      -0.107  -2.883  -3.979  1.00  0.00    -0.170 NA  
ATOM     12  C22 UNL     1       0.679  -2.991  -2.909  1.00  0.00     0.153 A   
ATOM     13  C1  UNL     1      -2.382  -3.484  -4.494  1.00  0.00     0.159 C   
ATOM     14  CL1 UNL     1       2.281  -2.441  -2.968  1.00  0.00    -0.060 Cl  
ENDBRANCH   7   8
ENDBRANCH   1   7
BRANCH   3  15
ATOM     15  C7  UNL     1       0.313   0.516   2.056  1.00  0.00     0.117 C   
BRANCH  15  16
ATOM     16  N3  UNL     1      -1.046   1.053   2.474  1.00  0.00     0.249 N   
ATOM     17  H9  UNL     1      -0.965   2.046   2.703  1.00  0.00     0.199 HD  
ATOM     18  H10 UNL     1      -1.311   0.555   3.333  1.00  0.00     0.199 HD  
BRANCH  16  19
ATOM     19  C8  UNL     1      -2.190   0.898   1.519  1.00  0.00     0.164 C   
BRANCH  19  20
ATOM     20  C9  UNL     1      -1.891   1.299   0.103  1.00  0.00    -0.002 A   
ATOM     21  C10 UNL     1      -1.515   2.623  -0.225  1.00  0.00     0.012 A   
ATOM     22  C14 UNL     1      -1.978   0.334  -0.917  1.00  0.00     0.045 A   
ATOM     23  C11 UNL     1      -1.192   2.972  -1.542  1.00  0.00     0.037 A   
ATOM     24  C13 UNL     1      -1.657   0.711  -2.202  1.00  0.00     0.109 A   
ATOM     25  C12 UNL     1      -1.264   1.990  -2.506  1.00  0.00     0.108 A   
ATOM     26  O1  UNL     1      -1.687  -0.098  -3.291  1.00  0.00    -0.316 OA  
ATOM     27  O2  UNL     1      -0.978   2.142  -3.825  1.00  0.00    -0.316 OA  
ATOM     28  C15 UNL     1      -1.194   0.797  -4.312  1.00  0.00     0.337 C   
ENDBRANCH  19  20
ENDBRANCH  16  19
ENDBRANCH  15  16
BRANCH  15  29
ATOM     29  C16 UNL     1       1.298   0.649   3.262  1.00  0.00     0.043 C   
ATOM     30  C17 UNL     1       1.348   2.084   3.833  1.00  0.00     0.010 C   
ATOM     31  C21 UNL     1       2.724   0.202   2.863  1.00  0.00     0.010 C   
ATOM     32  C18 UNL     1       2.371   2.238   4.957  1.00  0.00     0.001 C   
ATOM     33  C20 UNL     1       3.733   0.365   3.997  1.00  0.00     0.001 C   
ATOM     34  C19 UNL     1       3.760   1.792   4.524  1.00  0.00     0.000 C   
ENDBRANCH  15  29
ENDBRANCH   3  15
TORSDOF 7
