REMARK SMILES COc1cncc(CCn2cc([C@@H]([NH2+]Cc3ccc4c(c3)OCO4)C3CCCC3)nn2)c1
REMARK SMILES IDX 10 1 11 2 12 3 30 4 31 5 9 7 8 8 7 9 3 10 4 11 32 12 5 13
REMARK SMILES IDX 6 14 2 15 1 16 13 17 14 18 15 21 16 22 17 23 21 24 18 25
REMARK SMILES IDX 20 26 19 27 22 28 24 29 23 30 25 31 26 32 29 33 27 34 28 35
REMARK H PARENT 11 6 14 19 14 20
ROOT
ATOM     1   N2  UNL     1      -0.989   0.781   3.435  1.00  0.00    -0.212 N   
ATOM     2   C8  UNL     1      -1.238   1.343   2.211  1.00  0.00     0.045 A   
ATOM     3   C9  UNL     1       0.010   1.430   1.627  1.00  0.00     0.127 A   
ATOM     4   N4  UNL     1       0.953   1.091   2.562  1.00  0.00    -0.132 NA  
ATOM     5   N5  UNL     1       0.331   0.698   3.663  1.00  0.00    -0.076 NA  
ATOM     6   H10 UNL     1      -2.245   1.477   1.840  1.00  0.00     0.083 HD  
ENDROOT
BRANCH   1   7
ATOM     7   C7  UNL     1      -1.922  -0.001   4.229  1.00  0.00     0.139 C   
BRANCH   7   8
ATOM     8   C6  UNL     1      -1.784  -1.516   3.983  1.00  0.00     0.058 C   
BRANCH   8   9
ATOM     9   C5  UNL     1      -1.818  -1.880   2.513  1.00  0.00    -0.025 A   
ATOM     10  C2  UNL     1      -3.001  -2.240   0.442  1.00  0.00     0.093 A   
ATOM     11  C3  UNL     1      -1.766  -2.205  -0.199  1.00  0.00     0.144 A   
ATOM     12  C24 UNL     1      -3.022  -2.046   1.823  1.00  0.00     0.040 A   
ATOM     13  N1  UNL     1      -0.576  -1.998   0.421  1.00  0.00    -0.262 NA  
ATOM     14  C4  UNL     1      -0.635  -1.923   1.774  1.00  0.00     0.114 A   
BRANCH  10  15
ATOM     15  O1  UNL     1      -4.085  -2.412  -0.367  1.00  0.00    -0.348 OA  
ATOM     16  C1  UNL     1      -5.298  -2.800   0.276  1.00  0.00     0.203 C   
ENDBRANCH  10  15
ENDBRANCH   8   9
ENDBRANCH   7   8
ENDBRANCH   1   7
BRANCH   3  17
ATOM     17  C10 UNL     1       0.441   1.678   0.214  1.00  0.00     0.117 C   
BRANCH  17  18
ATOM     18  N3  UNL     1       0.951   0.409  -0.422  1.00  0.00     0.249 N   
ATOM     19  H12 UNL     1       0.943   0.475  -1.442  1.00  0.00     0.199 HD  
ATOM     20  H13 UNL     1       0.317  -0.378  -0.189  1.00  0.00     0.199 HD  
BRANCH  18  21
ATOM     21  C11 UNL     1       2.315  -0.023   0.003  1.00  0.00     0.164 C   
BRANCH  21  22
ATOM     22  C12 UNL     1       2.942  -0.902  -1.046  1.00  0.00    -0.002 A   
ATOM     23  C13 UNL     1       2.622  -2.279  -1.113  1.00  0.00     0.012 A   
ATOM     24  C17 UNL     1       3.807  -0.345  -2.004  1.00  0.00     0.045 A   
ATOM     25  C14 UNL     1       3.155  -3.093  -2.119  1.00  0.00     0.037 A   
ATOM     26  C16 UNL     1       4.317  -1.176  -2.980  1.00  0.00     0.109 A   
ATOM     27  C15 UNL     1       3.999  -2.511  -3.038  1.00  0.00     0.108 A   
ATOM     28  O2  UNL     1       5.154  -0.797  -3.980  1.00  0.00    -0.316 OA  
ATOM     29  O3  UNL     1       4.594  -3.141  -4.084  1.00  0.00    -0.316 OA  
ATOM     30  C18 UNL     1       5.358  -2.059  -4.658  1.00  0.00     0.337 C   
ENDBRANCH  21  22
ENDBRANCH  18  21
ENDBRANCH  17  18
BRANCH  17  31
ATOM     31  C19 UNL     1      -0.637   2.328  -0.678  1.00  0.00     0.043 C   
ATOM     32  C20 UNL     1      -0.064   2.986  -1.943  1.00  0.00     0.010 C   
ATOM     33  C23 UNL     1      -1.729   1.414  -1.235  1.00  0.00     0.010 C   
ATOM     34  C21 UNL     1      -1.208   3.020  -2.958  1.00  0.00     0.001 C   
ATOM     35  C22 UNL     1      -2.368   2.269  -2.320  1.00  0.00     0.001 C   
ENDBRANCH  17  31
ENDBRANCH   3  17
TORSDOF 9
