REMARK SMILES COc1ncc(CCn2cc([C@@H]([NH2+]Cc3ccc4c(c3)OCO4)C(C)(C)C)nn2)cc1C
REMARK SMILES IDX 9 1 10 2 11 3 28 4 29 5 8 7 7 8 6 9 3 10 4 11 31 12 5 13
REMARK SMILES IDX 30 14 32 15 2 16 1 17 12 18 13 19 14 22 15 23 16 24 20 25
REMARK SMILES IDX 17 26 19 27 18 28 21 29 23 30 22 31 24 32 25 33 26 34 27 35
REMARK H PARENT 10 6 13 20 13 21
ROOT
ATOM     1   N2  UNL     1       2.936   1.693  -1.687  1.00  0.00    -0.212 N   
ATOM     2   C7  UNL     1       2.750   1.037  -0.498  1.00  0.00     0.045 A   
ATOM     3   C8  UNL     1       1.713   1.717   0.106  1.00  0.00     0.127 A   
ATOM     4   N4  UNL     1       1.419   2.822  -0.660  1.00  0.00    -0.132 NA  
ATOM     5   N5  UNL     1       2.169   2.793  -1.750  1.00  0.00    -0.076 NA  
ATOM     6   H9  UNL     1       3.266   0.114  -0.280  1.00  0.00     0.083 HD  
ENDROOT
BRANCH   1   7
ATOM     7   C6  UNL     1       3.542   1.146  -2.888  1.00  0.00     0.139 C   
BRANCH   7   8
ATOM     8   C5  UNL     1       2.507   0.495  -3.829  1.00  0.00     0.058 C   
BRANCH   8   9
ATOM     9   C4  UNL     1       1.601  -0.474  -3.103  1.00  0.00    -0.028 A   
ATOM     10  C2  UNL     1       0.053  -2.005  -1.445  1.00  0.00     0.169 A   
ATOM     11  N1  UNL     1      -0.362  -0.738  -1.694  1.00  0.00    -0.232 NA  
ATOM     12  C23 UNL     1       1.230  -2.561  -1.940  1.00  0.00    -0.001 A   
ATOM     13  C3  UNL     1       0.385  -0.038  -2.580  1.00  0.00     0.117 A   
ATOM     14  C22 UNL     1       2.016  -1.767  -2.781  1.00  0.00     0.013 A   
ATOM     15  C24 UNL     1       1.655  -3.950  -1.568  1.00  0.00     0.049 C   
BRANCH  10  16
ATOM     16  O1  UNL     1      -0.665  -2.726  -0.518  1.00  0.00    -0.332 OA  
ATOM     17  C1  UNL     1      -2.056  -2.717  -0.835  1.00  0.00     0.205 C   
ENDBRANCH  10  16
ENDBRANCH   8   9
ENDBRANCH   7   8
ENDBRANCH   1   7
BRANCH   3  18
ATOM     18  C9  UNL     1       0.820   1.400   1.274  1.00  0.00     0.120 C   
BRANCH  18  19
ATOM     19  N3  UNL     1      -0.508   0.870   0.765  1.00  0.00     0.250 N   
ATOM     20  H11 UNL     1      -0.958   0.250   1.441  1.00  0.00     0.199 HD  
ATOM     21  H12 UNL     1      -0.352   0.266  -0.067  1.00  0.00     0.199 HD  
BRANCH  19  22
ATOM     22  C10 UNL     1      -1.490   1.918   0.364  1.00  0.00     0.164 C   
BRANCH  22  23
ATOM     23  C11 UNL     1      -2.850   1.325   0.113  1.00  0.00    -0.002 A   
ATOM     24  C12 UNL     1      -3.299   1.096  -1.209  1.00  0.00     0.012 A   
ATOM     25  C16 UNL     1      -3.672   0.962   1.195  1.00  0.00     0.045 A   
ATOM     26  C13 UNL     1      -4.549   0.517  -1.455  1.00  0.00     0.037 A   
ATOM     27  C15 UNL     1      -4.896   0.389   0.917  1.00  0.00     0.109 A   
ATOM     28  C14 UNL     1      -5.323   0.173  -0.369  1.00  0.00     0.108 A   
ATOM     29  O2  UNL     1      -5.801  -0.026   1.842  1.00  0.00    -0.316 OA  
ATOM     30  O3  UNL     1      -6.551  -0.404  -0.418  1.00  0.00    -0.316 OA  
ATOM     31  C17 UNL     1      -6.864  -0.507   0.988  1.00  0.00     0.337 C   
ENDBRANCH  22  23
ENDBRANCH  19  22
ENDBRANCH  18  19
BRANCH  18  32
ATOM     32  C18 UNL     1       1.384   0.467   2.403  1.00  0.00     0.010 C   
ATOM     33  C19 UNL     1       0.458   0.549   3.646  1.00  0.00     0.017 C   
ATOM     34  C20 UNL     1       2.776   0.948   2.870  1.00  0.00     0.017 C   
ATOM     35  C21 UNL     1       1.474  -1.016   1.992  1.00  0.00     0.017 C   
ENDBRANCH  18  32
ENDBRANCH   3  18
TORSDOF 9
