REMARK SMILES CCn1cnc(Cl)c1Cn1cc([C@@H]([NH2+]Cc2ccc3c(c2)OCO3)C(C)(C)C)nn1
REMARK SMILES IDX 10 1 11 2 12 3 29 4 30 5 9 7 8 8 3 9 4 10 5 11 6 12 7 13
REMARK SMILES IDX 2 14 1 15 13 16 14 17 15 20 16 21 17 22 21 23 18 24 20 25
REMARK SMILES IDX 19 26 22 27 24 28 23 29 25 30 26 31 27 32 28 33
REMARK H PARENT 11 6 14 18 14 19
ROOT
ATOM     1   N3  UNL     1       0.910  -2.070  -1.871  1.00  0.00    -0.206 N   
ATOM     2   C7  UNL     1       0.892  -1.856  -0.519  1.00  0.00     0.046 A   
ATOM     3   C8  UNL     1      -0.448  -1.774  -0.212  1.00  0.00     0.127 A   
ATOM     4   N5  UNL     1      -1.184  -1.933  -1.363  1.00  0.00    -0.132 NA  
ATOM     5   N6  UNL     1      -0.344  -2.117  -2.367  1.00  0.00    -0.076 NA  
ATOM     6   H9  UNL     1       1.797  -1.773   0.070  1.00  0.00     0.083 HD  
ENDROOT
BRANCH   1   7
ATOM     7   C6  UNL     1       2.062  -2.151  -2.757  1.00  0.00     0.188 C   
BRANCH   7   8
ATOM     8   C5  UNL     1       2.474  -0.783  -3.182  1.00  0.00     0.068 A   
ATOM     9   N1  UNL     1       2.082  -0.153  -4.344  1.00  0.00    -0.291 N   
ATOM     10  C3  UNL     1       2.644   1.091  -4.349  1.00  0.00     0.190 A   
ATOM     11  N2  UNL     1       3.365   1.296  -3.270  1.00  0.00    -0.227 NA  
ATOM     12  C4  UNL     1       3.290   0.136  -2.549  1.00  0.00     0.149 A   
ATOM     13  CL1 UNL     1       4.093  -0.057  -1.060  1.00  0.00    -0.060 Cl  
BRANCH   9  14
ATOM     14  C2  UNL     1       1.217  -0.651  -5.400  1.00  0.00     0.109 C   
ATOM     15  C1  UNL     1       1.978  -1.452  -6.444  1.00  0.00     0.025 C   
ENDBRANCH   9  14
ENDBRANCH   7   8
ENDBRANCH   1   7
BRANCH   3  16
ATOM     16  C9  UNL     1      -1.153  -1.465   1.077  1.00  0.00     0.120 C   
BRANCH  16  17
ATOM     17  N4  UNL     1      -2.400  -0.659   0.766  1.00  0.00     0.250 N   
ATOM     18  H11 UNL     1      -2.888  -1.166   0.012  1.00  0.00     0.199 HD  
ATOM     19  H12 UNL     1      -3.029  -0.624   1.570  1.00  0.00     0.199 HD  
BRANCH  17  20
ATOM     20  C10 UNL     1      -2.176   0.736   0.276  1.00  0.00     0.164 C   
BRANCH  20  21
ATOM     21  C11 UNL     1      -1.626   1.652   1.333  1.00  0.00    -0.002 A   
ATOM     22  C12 UNL     1      -0.297   2.133   1.242  1.00  0.00     0.012 A   
ATOM     23  C16 UNL     1      -2.425   2.035   2.423  1.00  0.00     0.045 A   
ATOM     24  C13 UNL     1       0.228   2.987   2.220  1.00  0.00     0.037 A   
ATOM     25  C15 UNL     1      -1.877   2.876   3.369  1.00  0.00     0.109 A   
ATOM     26  C14 UNL     1      -0.588   3.341   3.272  1.00  0.00     0.108 A   
ATOM     27  O1  UNL     1      -2.519   3.346   4.468  1.00  0.00    -0.316 OA  
ATOM     28  O2  UNL     1      -0.255   4.165   4.299  1.00  0.00    -0.316 OA  
ATOM     29  C17 UNL     1      -1.501   4.213   5.026  1.00  0.00     0.337 C   
ENDBRANCH  20  21
ENDBRANCH  17  20
ENDBRANCH  16  17
BRANCH  16  30
ATOM     30  C18 UNL     1      -1.520  -2.735   1.924  1.00  0.00     0.010 C   
ATOM     31  C19 UNL     1      -2.178  -2.325   3.262  1.00  0.00     0.017 C   
ATOM     32  C20 UNL     1      -0.235  -3.515   2.283  1.00  0.00     0.017 C   
ATOM     33  C21 UNL     1      -2.476  -3.691   1.186  1.00  0.00     0.017 C   
ENDBRANCH  16  30
ENDBRANCH   3  16
TORSDOF 8
