REMARK SMILES CC(C)[C@H]([NH2+]Cc1ccc2c(c1)OCO2)c1cn(Cc2ccc(O)cc2O)nn1
REMARK SMILES IDX 16 1 17 2 18 3 28 4 29 5 4 7 2 8 1 9 3 10 5 11 6 14 7 15
REMARK SMILES IDX 8 16 12 17 9 18 11 19 10 20 13 21 15 22 14 23 19 24 20 25
REMARK SMILES IDX 21 26 26 27 22 28 25 29 23 30 27 31 24 33
REMARK H PARENT 17 6 5 12 5 13 27 32 24 34
ROOT
ATOM     1   C13 UNL     1      -1.015  -0.217  -0.279  1.00  0.00     0.127 A   
ATOM     2   C14 UNL     1      -1.349  -1.395  -0.910  1.00  0.00     0.046 A   
ATOM     3   N2  UNL     1      -1.291  -2.333   0.086  1.00  0.00    -0.208 N   
ATOM     4   N3  UNL     1      -1.002  -1.756   1.271  1.00  0.00    -0.076 NA  
ATOM     5   N4  UNL     1      -0.807  -0.464   1.056  1.00  0.00    -0.132 NA  
ATOM     6   H18 UNL     1      -1.587  -1.657  -1.932  1.00  0.00     0.083 HD  
ENDROOT
BRANCH   1   7
ATOM     7   C4  UNL     1      -0.874   1.176  -0.807  1.00  0.00     0.117 C   
BRANCH   7   8
ATOM     8   C2  UNL     1       0.415   1.351  -1.653  1.00  0.00     0.037 C   
ATOM     9   C1  UNL     1       0.388   2.647  -2.469  1.00  0.00     0.014 C   
ATOM     10  C3  UNL     1       1.709   1.278  -0.834  1.00  0.00     0.014 C   
ENDBRANCH   7   8
BRANCH   7  11
ATOM     11  N1  UNL     1      -0.895   2.173   0.321  1.00  0.00     0.249 N   
ATOM     12  H9  UNL     1      -0.474   3.067   0.058  1.00  0.00     0.199 HD  
ATOM     13  H10 UNL     1      -0.302   1.782   1.068  1.00  0.00     0.199 HD  
BRANCH  11  14
ATOM     14  C5  UNL     1      -2.236   2.429   0.918  1.00  0.00     0.164 C   
BRANCH  14  15
ATOM     15  C6  UNL     1      -2.106   3.299   2.137  1.00  0.00    -0.002 A   
ATOM     16  C7  UNL     1      -1.758   2.721   3.383  1.00  0.00     0.012 A   
ATOM     17  C11 UNL     1      -2.274   4.690   2.040  1.00  0.00     0.045 A   
ATOM     18  C8  UNL     1      -1.580   3.517   4.520  1.00  0.00     0.037 A   
ATOM     19  C10 UNL     1      -2.107   5.444   3.184  1.00  0.00     0.109 A   
ATOM     20  C9  UNL     1      -1.762   4.876   4.387  1.00  0.00     0.108 A   
ATOM     21  O1  UNL     1      -2.233   6.795   3.266  1.00  0.00    -0.316 OA  
ATOM     22  O2  UNL     1      -1.631   5.796   5.378  1.00  0.00    -0.316 OA  
ATOM     23  C12 UNL     1      -1.977   7.010   4.673  1.00  0.00     0.337 C   
ENDBRANCH  14  15
ENDBRANCH  11  14
ENDBRANCH   7  11
ENDBRANCH   1   7
BRANCH   3  24
ATOM     24  C15 UNL     1      -1.558  -3.758  -0.006  1.00  0.00     0.172 C   
BRANCH  24  25
ATOM     25  C16 UNL     1      -0.303  -4.528  -0.324  1.00  0.00     0.002 A   
ATOM     26  C17 UNL     1       0.488  -5.045   0.717  1.00  0.00     0.011 A   
ATOM     27  C21 UNL     1       0.115  -4.728  -1.644  1.00  0.00     0.079 A   
ATOM     28  C18 UNL     1       1.659  -5.755   0.437  1.00  0.00     0.034 A   
ATOM     29  C20 UNL     1       1.282  -5.434  -1.931  1.00  0.00     0.066 A   
ATOM     30  C19 UNL     1       2.043  -5.944  -0.886  1.00  0.00     0.074 A   
BRANCH  27  31
ATOM     31  O4  UNL     1      -0.639  -4.211  -2.661  1.00  0.00    -0.361 OA  
ATOM     32  H25 UNL     1      -0.299  -4.573  -3.499  1.00  0.00     0.218 HD  
ENDBRANCH  27  31
BRANCH  30  33
ATOM     33  O3  UNL     1       3.181  -6.625  -1.206  1.00  0.00    -0.361 OA  
ATOM     34  H23 UNL     1       3.568  -6.997  -0.395  1.00  0.00     0.218 HD  
ENDBRANCH  30  33
ENDBRANCH  24  25
ENDBRANCH   3  24
TORSDOF 9
