REMARK SMILES COc1cc(Cn2cc([C@@H]([NH2+]Cc3ccc4c(c3)OCO4)C(C)C)nn2)cc(OC)c1
REMARK SMILES IDX 7 1 8 2 9 3 25 4 26 5 6 7 5 8 3 9 4 10 31 11 28 12 27 13
REMARK SMILES IDX 2 14 1 15 29 16 30 17 10 18 11 19 12 22 13 23 14 24 18 25
REMARK SMILES IDX 15 26 17 27 16 28 19 29 21 30 20 31 22 32 23 33 24 34
REMARK H PARENT 8 6 11 20 11 21
ROOT
ATOM     1   N1  UNL     1       1.416   1.873   0.570  1.00  0.00    -0.208 N   
ATOM     2   C6  UNL     1       0.138   1.681   1.020  1.00  0.00     0.046 A   
ATOM     3   C7  UNL     1       0.152   0.399   1.523  1.00  0.00     0.127 A   
ATOM     4   N3  UNL     1       1.415  -0.122   1.391  1.00  0.00    -0.132 NA  
ATOM     5   N4  UNL     1       2.177   0.787   0.808  1.00  0.00    -0.076 NA  
ATOM     6   H7  UNL     1      -0.633   2.431   0.910  1.00  0.00     0.083 HD  
ENDROOT
BRANCH   1   7
ATOM     7   C5  UNL     1       1.965   3.029  -0.123  1.00  0.00     0.169 C   
BRANCH   7   8
ATOM     8   C4  UNL     1       1.357   3.176  -1.496  1.00  0.00    -0.023 A   
ATOM     9   C2  UNL     1       1.008   2.307  -3.747  1.00  0.00     0.077 A   
ATOM     10  C3  UNL     1       1.584   2.200  -2.479  1.00  0.00     0.039 A   
ATOM     11  C23 UNL     1       0.198   3.404  -4.036  1.00  0.00     0.066 A   
ATOM     12  C21 UNL     1      -0.025   4.398  -3.077  1.00  0.00     0.077 A   
ATOM     13  C20 UNL     1       0.550   4.282  -1.810  1.00  0.00     0.039 A   
BRANCH   9  14
ATOM     14  O1  UNL     1       1.298   1.273  -4.593  1.00  0.00    -0.349 OA  
ATOM     15  C1  UNL     1       0.900   1.430  -5.952  1.00  0.00     0.203 C   
ENDBRANCH   9  14
BRANCH  12  16
ATOM     16  O4  UNL     1      -0.837   5.417  -3.495  1.00  0.00    -0.349 OA  
ATOM     17  C22 UNL     1      -0.899   6.576  -2.674  1.00  0.00     0.203 C   
ENDBRANCH  12  16
ENDBRANCH   7   8
ENDBRANCH   1   7
BRANCH   3  18
ATOM     18  C8  UNL     1      -0.937  -0.456   2.088  1.00  0.00     0.117 C   
BRANCH  18  19
ATOM     19  N2  UNL     1      -0.630  -1.909   1.843  1.00  0.00     0.249 N   
ATOM     20  H9  UNL     1       0.372  -2.037   2.052  1.00  0.00     0.199 HD  
ATOM     21  H10 UNL     1      -1.137  -2.530   2.479  1.00  0.00     0.199 HD  
BRANCH  19  22
ATOM     22  C9  UNL     1      -0.841  -2.370   0.441  1.00  0.00     0.164 C   
BRANCH  22  23
ATOM     23  C10 UNL     1      -0.355  -3.782   0.275  1.00  0.00    -0.002 A   
ATOM     24  C11 UNL     1       0.988  -4.029  -0.099  1.00  0.00     0.012 A   
ATOM     25  C15 UNL     1      -1.212  -4.864   0.540  1.00  0.00     0.045 A   
ATOM     26  C12 UNL     1       1.469  -5.337  -0.226  1.00  0.00     0.037 A   
ATOM     27  C14 UNL     1      -0.704  -6.140   0.410  1.00  0.00     0.109 A   
ATOM     28  C13 UNL     1       0.597  -6.371   0.035  1.00  0.00     0.108 A   
ATOM     29  O2  UNL     1      -1.392  -7.291   0.631  1.00  0.00    -0.316 OA  
ATOM     30  O3  UNL     1       0.889  -7.696  -0.036  1.00  0.00    -0.316 OA  
ATOM     31  C16 UNL     1      -0.380  -8.279   0.329  1.00  0.00     0.337 C   
ENDBRANCH  22  23
ENDBRANCH  19  22
ENDBRANCH  18  19
BRANCH  18  32
ATOM     32  C17 UNL     1      -1.165  -0.198   3.599  1.00  0.00     0.037 C   
ATOM     33  C18 UNL     1      -2.477  -0.824   4.087  1.00  0.00     0.014 C   
ATOM     34  C19 UNL     1      -0.009  -0.661   4.493  1.00  0.00     0.014 C   
ENDBRANCH  18  32
ENDBRANCH   3  18
TORSDOF 9
