REMARK SMILES Cc1ccccc1Cn1cc([C@@H]([NH2+]Cc2ccc3c(c2)OCO3)C2CCCC2)nn1
REMARK SMILES IDX 9 1 10 2 11 3 29 4 30 5 8 7 7 8 2 9 3 10 4 11 6 12 5 13 1 14
REMARK SMILES IDX 12 15 13 16 14 19 15 20 16 21 20 22 17 23 19 24 18 25 21 26
REMARK SMILES IDX 23 27 22 28 24 29 25 30 28 31 26 32 27 33
REMARK H PARENT 10 6 13 17 13 18
ROOT
ATOM     1   N1  UNL     1       1.428   0.063   2.729  1.00  0.00    -0.208 N   
ATOM     2   C9  UNL     1       2.075  -0.123   1.536  1.00  0.00     0.046 A   
ATOM     3   C10 UNL     1       1.425   0.724   0.668  1.00  0.00     0.127 A   
ATOM     4   N3  UNL     1       0.438   1.392   1.345  1.00  0.00    -0.132 NA  
ATOM     5   N4  UNL     1       0.450   0.981   2.602  1.00  0.00    -0.076 NA  
ATOM     6   H10 UNL     1       2.891  -0.824   1.424  1.00  0.00     0.083 HD  
ENDROOT
BRANCH   1   7
ATOM     7   C8  UNL     1       1.689  -0.571   4.012  1.00  0.00     0.169 C   
BRANCH   7   8
ATOM     8   C7  UNL     1       1.599  -2.078   3.920  1.00  0.00    -0.026 A   
ATOM     9   C2  UNL     1       0.365  -2.760   3.821  1.00  0.00    -0.046 A   
ATOM     10  C3  UNL     1       0.364  -4.159   3.702  1.00  0.00     0.004 A   
ATOM     11  C4  UNL     1       1.558  -4.880   3.699  1.00  0.00     0.000 A   
ATOM     12  C6  UNL     1       2.793  -2.824   3.920  1.00  0.00     0.006 A   
ATOM     13  C5  UNL     1       2.771  -4.214   3.811  1.00  0.00     0.000 A   
ATOM     14  C1  UNL     1      -0.956  -2.038   3.819  1.00  0.00     0.044 C   
ENDBRANCH   7   8
ENDBRANCH   1   7
BRANCH   3  15
ATOM     15  C11 UNL     1       1.595   0.957  -0.799  1.00  0.00     0.117 C   
BRANCH  15  16
ATOM     16  N2  UNL     1       0.245   1.199  -1.429  1.00  0.00     0.249 N   
ATOM     17  H12 UNL     1      -0.228   1.909  -0.850  1.00  0.00     0.199 HD  
ATOM     18  H13 UNL     1       0.325   1.599  -2.368  1.00  0.00     0.199 HD  
BRANCH  16  19
ATOM     19  C12 UNL     1      -0.650   0.010  -1.493  1.00  0.00     0.164 C   
BRANCH  19  20
ATOM     20  C13 UNL     1      -1.963   0.376  -2.125  1.00  0.00    -0.002 A   
ATOM     21  C14 UNL     1      -2.174   0.180  -3.510  1.00  0.00     0.012 A   
ATOM     22  C18 UNL     1      -2.974   0.966  -1.346  1.00  0.00     0.045 A   
ATOM     23  C15 UNL     1      -3.380   0.554  -4.113  1.00  0.00     0.037 A   
ATOM     24  C17 UNL     1      -4.150   1.324  -1.972  1.00  0.00     0.109 A   
ATOM     25  C16 UNL     1      -4.348   1.124  -3.316  1.00  0.00     0.108 A   
ATOM     26  O1  UNL     1      -5.222   1.902  -1.370  1.00  0.00    -0.316 OA  
ATOM     27  O2  UNL     1      -5.571   1.547  -3.729  1.00  0.00    -0.316 OA  
ATOM     28  C19 UNL     1      -6.132   2.023  -2.487  1.00  0.00     0.337 C   
ENDBRANCH  19  20
ENDBRANCH  16  19
ENDBRANCH  15  16
BRANCH  15  29
ATOM     29  C20 UNL     1       2.499   2.171  -1.088  1.00  0.00     0.043 C   
ATOM     30  C21 UNL     1       3.937   1.988  -0.589  1.00  0.00     0.010 C   
ATOM     31  C24 UNL     1       2.727   2.454  -2.576  1.00  0.00     0.010 C   
ATOM     32  C22 UNL     1       4.736   3.054  -1.328  1.00  0.00     0.001 C   
ATOM     33  C23 UNL     1       3.966   3.341  -2.615  1.00  0.00     0.001 C   
ENDBRANCH  15  29
ENDBRANCH   3  15
TORSDOF 7
