REMARK SMILES CC(C)(C)[C@H]([NH2+]Cc1ccc2c(c1)OCO2)c1cn(Cc2cc(O)ccc2O)nn1
REMARK SMILES IDX 17 1 18 2 19 3 29 4 30 5 5 7 2 8 1 9 3 10 4 11 6 12 7 15
REMARK SMILES IDX 8 16 9 17 13 18 10 19 12 20 11 21 14 22 16 23 15 24 20 25
REMARK SMILES IDX 21 26 22 27 27 28 23 29 26 30 25 31 28 32 24 34
REMARK H PARENT 18 6 6 13 6 14 28 33 24 35
ROOT
ATOM     1   C14 UNL     1       0.575  -0.738   0.969  1.00  0.00     0.127 A   
ATOM     2   C15 UNL     1       0.962   0.545   0.655  1.00  0.00     0.046 A   
ATOM     3   N2  UNL     1       1.927   0.374  -0.300  1.00  0.00    -0.208 N   
ATOM     4   N3  UNL     1       2.130  -0.935  -0.550  1.00  0.00    -0.076 NA  
ATOM     5   N4  UNL     1       1.301  -1.626   0.213  1.00  0.00    -0.132 NA  
ATOM     6   H20 UNL     1       0.639   1.525   0.977  1.00  0.00     0.083 HD  
ENDROOT
BRANCH   1   7
ATOM     7   C5  UNL     1      -0.508  -1.268   1.856  1.00  0.00     0.120 C   
BRANCH   7   8
ATOM     8   C2  UNL     1      -0.037  -1.642   3.303  1.00  0.00     0.010 C   
ATOM     9   C1  UNL     1      -1.243  -2.113   4.148  1.00  0.00     0.017 C   
ATOM     10  C3  UNL     1       1.036  -2.749   3.320  1.00  0.00     0.017 C   
ATOM     11  C4  UNL     1       0.547  -0.395   4.005  1.00  0.00     0.017 C   
ENDBRANCH   7   8
BRANCH   7  12
ATOM     12  N1  UNL     1      -1.118  -2.474   1.160  1.00  0.00     0.250 N   
ATOM     13  H11 UNL     1      -1.153  -3.289   1.778  1.00  0.00     0.199 HD  
ATOM     14  H12 UNL     1      -0.442  -2.739   0.423  1.00  0.00     0.199 HD  
BRANCH  12  15
ATOM     15  C6  UNL     1      -2.448  -2.276   0.523  1.00  0.00     0.164 C   
BRANCH  15  16
ATOM     16  C7  UNL     1      -2.487  -1.198  -0.524  1.00  0.00    -0.002 A   
ATOM     17  C8  UNL     1      -1.731  -1.314  -1.715  1.00  0.00     0.012 A   
ATOM     18  C12 UNL     1      -3.283  -0.057  -0.325  1.00  0.00     0.045 A   
ATOM     19  C9  UNL     1      -1.763  -0.311  -2.691  1.00  0.00     0.037 A   
ATOM     20  C11 UNL     1      -3.295   0.911  -1.308  1.00  0.00     0.109 A   
ATOM     21  C10 UNL     1      -2.559   0.787  -2.459  1.00  0.00     0.108 A   
ATOM     22  O1  UNL     1      -4.012   2.066  -1.270  1.00  0.00    -0.316 OA  
ATOM     23  O2  UNL     1      -2.727   1.845  -3.296  1.00  0.00    -0.316 OA  
ATOM     24  C13 UNL     1      -3.673   2.638  -2.552  1.00  0.00     0.337 C   
ENDBRANCH  15  16
ENDBRANCH  12  15
ENDBRANCH   7  12
ENDBRANCH   1   7
BRANCH   3  25
ATOM     25  C16 UNL     1       2.682   1.391  -1.009  1.00  0.00     0.172 C   
BRANCH  25  26
ATOM     26  C17 UNL     1       1.868   1.978  -2.131  1.00  0.00     0.004 A   
ATOM     27  C18 UNL     1       1.774   1.299  -3.355  1.00  0.00     0.041 A   
ATOM     28  C22 UNL     1       1.174   3.184  -1.982  1.00  0.00     0.076 A   
ATOM     29  C19 UNL     1       1.014   1.827  -4.393  1.00  0.00     0.072 A   
ATOM     30  C21 UNL     1       0.421   3.717  -3.029  1.00  0.00     0.036 A   
ATOM     31  C20 UNL     1       0.342   3.034  -4.243  1.00  0.00     0.036 A   
BRANCH  28  32
ATOM     32  O4  UNL     1       1.236   3.834  -0.783  1.00  0.00    -0.361 OA  
ATOM     33  H27 UNL     1       0.855   4.724  -0.895  1.00  0.00     0.218 HD  
ENDBRANCH  28  32
BRANCH  29  34
ATOM     34  O3  UNL     1       0.941   1.112  -5.550  1.00  0.00    -0.361 OA  
ATOM     35  H24 UNL     1       0.461   1.635  -6.215  1.00  0.00     0.218 HD  
ENDBRANCH  29  34
ENDBRANCH  25  26
ENDBRANCH   3  25
TORSDOF 9
