REMARK SMILES Oc1cccc(-n2cc([C@@H]([NH2+]Cc3ccc4c(c3)OCO4)C3CCCCC3)nn2)c1
REMARK SMILES IDX 7 1 8 2 9 3 28 4 29 5 6 6 2 7 3 8 30 9 4 10 5 11 1 12 10 14
REMARK SMILES IDX 11 15 12 18 13 19 14 20 18 21 15 22 17 23 16 24 19 25 21 26
REMARK SMILES IDX 20 27 22 28 23 29 27 30 24 31 26 32 25 33
REMARK H PARENT 1 13 11 16 11 17
ROOT
ATOM     1   N1  UNL     1      -3.114  -0.139  -1.280  1.00  0.00    -0.181 N   
ATOM     2   C6  UNL     1      -2.106  -0.448  -0.386  1.00  0.00     0.135 A   
ATOM     3   C7  UNL     1      -1.331   0.689  -0.311  1.00  0.00     0.127 A   
ATOM     4   N3  UNL     1      -1.847   1.635  -1.149  1.00  0.00    -0.131 NA  
ATOM     5   N4  UNL     1      -2.915   1.125  -1.737  1.00  0.00    -0.071 NA  
ENDROOT
BRANCH   1   6
ATOM     6   C5  UNL     1      -4.191  -0.943  -1.727  1.00  0.00     0.060 A   
ATOM     7   C1  UNL     1      -6.146  -1.211  -3.122  1.00  0.00     0.073 A   
ATOM     8   C2  UNL     1      -6.331  -2.503  -2.648  1.00  0.00     0.033 A   
ATOM     9   C23 UNL     1      -5.088  -0.427  -2.672  1.00  0.00     0.059 A   
ATOM     10  C3  UNL     1      -5.441  -3.021  -1.708  1.00  0.00     0.005 A   
ATOM     11  C4  UNL     1      -4.372  -2.247  -1.244  1.00  0.00     0.026 A   
BRANCH   7  12
ATOM     12  O1  UNL     1      -6.985  -0.666  -4.047  1.00  0.00    -0.361 OA  
ATOM     13  H1  UNL     1      -7.682  -1.308  -4.263  1.00  0.00     0.218 HD  
ENDBRANCH   7  12
ENDBRANCH   1   6
BRANCH   3  14
ATOM     14  C8  UNL     1      -0.076   0.984   0.445  1.00  0.00     0.117 C   
BRANCH  14  15
ATOM     15  N2  UNL     1       0.804   1.927  -0.352  1.00  0.00     0.249 N   
ATOM     16  H7  UNL     1       1.536   2.320   0.247  1.00  0.00     0.199 HD  
ATOM     17  H8  UNL     1       0.200   2.705  -0.650  1.00  0.00     0.199 HD  
BRANCH  15  18
ATOM     18  C9  UNL     1       1.430   1.370  -1.589  1.00  0.00     0.164 C   
BRANCH  18  19
ATOM     19  C10 UNL     1       2.452   0.306  -1.300  1.00  0.00    -0.002 A   
ATOM     20  C11 UNL     1       3.712   0.650  -0.754  1.00  0.00     0.012 A   
ATOM     21  C15 UNL     1       2.149  -1.045  -1.542  1.00  0.00     0.045 A   
ATOM     22  C12 UNL     1       4.655  -0.337  -0.448  1.00  0.00     0.037 A   
ATOM     23  C14 UNL     1       3.100  -1.992  -1.226  1.00  0.00     0.109 A   
ATOM     24  C13 UNL     1       4.318  -1.649  -0.693  1.00  0.00     0.108 A   
ATOM     25  O2  UNL     1       2.963  -3.334  -1.386  1.00  0.00    -0.316 OA  
ATOM     26  O3  UNL     1       5.103  -2.731  -0.454  1.00  0.00    -0.316 OA  
ATOM     27  C16 UNL     1       4.255  -3.798  -0.931  1.00  0.00     0.337 C   
ENDBRANCH  18  19
ENDBRANCH  15  18
ENDBRANCH  14  15
BRANCH  14  28
ATOM     28  C17 UNL     1      -0.306   1.607   1.849  1.00  0.00     0.043 C   
ATOM     29  C18 UNL     1      -1.002   0.616   2.803  1.00  0.00     0.010 C   
ATOM     30  C22 UNL     1      -1.063   2.950   1.834  1.00  0.00     0.010 C   
ATOM     31  C19 UNL     1      -1.152   1.197   4.208  1.00  0.00     0.001 C   
ATOM     32  C21 UNL     1      -1.222   3.523   3.242  1.00  0.00     0.001 C   
ATOM     33  C20 UNL     1      -1.891   2.530   4.186  1.00  0.00     0.000 C   
ENDBRANCH  14  28
ENDBRANCH   3  14
TORSDOF 7
