REMARK SMILES COc1cc(Cn2cc([C@@H]([NH2+]Cc3ccc4c(c3)OCO4)C3CCCC3)nn2)ccn1
REMARK SMILES IDX 7 1 8 2 9 3 27 4 28 5 6 7 5 8 3 9 4 10 31 11 30 12 29 13
REMARK SMILES IDX 2 14 1 15 10 16 11 17 12 20 13 21 14 22 18 23 15 24 17 25
REMARK SMILES IDX 16 26 19 27 21 28 20 29 22 30 23 31 26 32 24 33 25 34
REMARK H PARENT 8 6 11 18 11 19
ROOT
ATOM     1   N1  UNL     1      -2.036  -0.425  -0.159  1.00  0.00    -0.208 N   
ATOM     2   C6  UNL     1      -1.054  -1.248  -0.640  1.00  0.00     0.046 A   
ATOM     3   C7  UNL     1      -0.732  -2.042   0.437  1.00  0.00     0.127 A   
ATOM     4   N3  UNL     1      -1.518  -1.693   1.507  1.00  0.00    -0.132 NA  
ATOM     5   N4  UNL     1      -2.311  -0.705   1.130  1.00  0.00    -0.076 NA  
ATOM     6   H7  UNL     1      -0.684  -1.179  -1.653  1.00  0.00     0.083 HD  
ENDROOT
BRANCH   1   7
ATOM     7   C5  UNL     1      -2.770   0.610  -0.868  1.00  0.00     0.169 C   
BRANCH   7   8
ATOM     8   C4  UNL     1      -1.924   1.839  -1.069  1.00  0.00    -0.023 A   
ATOM     9   C2  UNL     1      -0.570   3.256  -2.449  1.00  0.00     0.166 A   
ATOM     10  C3  UNL     1      -1.348   2.116  -2.313  1.00  0.00     0.060 A   
ATOM     11  N5  UNL     1      -0.322   4.117  -1.443  1.00  0.00    -0.233 NA  
ATOM     12  C23 UNL     1      -0.891   3.839  -0.251  1.00  0.00     0.114 A   
ATOM     13  C22 UNL     1      -1.685   2.727  -0.016  1.00  0.00     0.026 A   
BRANCH   9  14
ATOM     14  O1  UNL     1      -0.018   3.469  -3.696  1.00  0.00    -0.333 OA  
ATOM     15  C1  UNL     1       0.665   4.715  -3.798  1.00  0.00     0.205 C   
ENDBRANCH   9  14
ENDBRANCH   7   8
ENDBRANCH   1   7
BRANCH   3  16
ATOM     16  C8  UNL     1       0.294  -3.116   0.607  1.00  0.00     0.117 C   
BRANCH  16  17
ATOM     17  N2  UNL     1       0.759  -3.152   2.046  1.00  0.00     0.249 N   
ATOM     18  H9  UNL     1       0.800  -4.111   2.401  1.00  0.00     0.199 HD  
ATOM     19  H10 UNL     1       0.013  -2.689   2.591  1.00  0.00     0.199 HD  
BRANCH  17  20
ATOM     20  C9  UNL     1       2.044  -2.461   2.342  1.00  0.00     0.164 C   
BRANCH  20  21
ATOM     21  C10 UNL     1       2.015  -0.981   2.083  1.00  0.00    -0.002 A   
ATOM     22  C11 UNL     1       1.290  -0.118   2.940  1.00  0.00     0.012 A   
ATOM     23  C15 UNL     1       2.689  -0.444   0.973  1.00  0.00     0.045 A   
ATOM     24  C12 UNL     1       1.237   1.259   2.697  1.00  0.00     0.037 A   
ATOM     25  C14 UNL     1       2.614   0.917   0.762  1.00  0.00     0.109 A   
ATOM     26  C13 UNL     1       1.912   1.746   1.601  1.00  0.00     0.108 A   
ATOM     27  O2  UNL     1       3.206   1.590  -0.259  1.00  0.00    -0.316 OA  
ATOM     28  O3  UNL     1       1.979   3.047   1.220  1.00  0.00    -0.316 OA  
ATOM     29  C16 UNL     1       2.815   2.949   0.046  1.00  0.00     0.337 C   
ENDBRANCH  20  21
ENDBRANCH  17  20
ENDBRANCH  16  17
BRANCH  16  30
ATOM     30  C17 UNL     1      -0.247  -4.495   0.178  1.00  0.00     0.043 C   
ATOM     31  C18 UNL     1      -1.380  -5.081   1.042  1.00  0.00     0.010 C   
ATOM     32  C21 UNL     1       0.815  -5.599   0.129  1.00  0.00     0.010 C   
ATOM     33  C19 UNL     1      -1.110  -6.583   1.136  1.00  0.00     0.001 C   
ATOM     34  C20 UNL     1      -0.019  -6.870   0.117  1.00  0.00     0.001 C   
ENDBRANCH  16  30
ENDBRANCH   3  16
TORSDOF 8
