REMARK SMILES Cc1ccc2c(n1)OCC[C@H]2n1cc([C@@H]([NH2+]Cc2ccc3c(c2)OCO3)C2CCCC2)nn1
REMARK SMILES IDX 15 1 14 2 12 3 13 4 33 5 32 6 11 8 2 9 3 10 7 11 4 12 6 13
REMARK SMILES IDX 5 14 8 15 9 16 10 17 1 18 16 19 17 22 18 23 19 24 23 25
REMARK SMILES IDX 20 26 22 27 21 28 24 29 26 30 25 31 27 32 28 33 31 34 29 35
REMARK SMILES IDX 30 36
REMARK H PARENT 13 7 16 20 16 21
ROOT
ATOM     1   C12 UNL     1       1.649  -0.077   1.503  1.00  0.00     0.117 C   
ENDROOT
BRANCH   1   2
ATOM     2   C11 UNL     1       0.623  -1.145   1.697  1.00  0.00     0.127 A   
ATOM     3   N2  UNL     1      -0.905  -2.672   1.528  1.00  0.00    -0.204 N   
ATOM     4   C10 UNL     1       0.025  -1.988   0.789  1.00  0.00     0.046 A   
ATOM     5   N5  UNL     1      -0.879  -2.268   2.813  1.00  0.00    -0.075 NA  
ATOM     6   N4  UNL     1       0.061  -1.343   2.932  1.00  0.00    -0.132 NA  
ATOM     7   H11 UNL     1       0.145  -2.139  -0.277  1.00  0.00     0.083 HD  
BRANCH   3   8
ATOM     8   C9  UNL     1      -1.914  -3.624   1.060  1.00  0.00     0.136 C   
ATOM     9   C2  UNL     1      -4.326  -1.681  -1.860  1.00  0.00     0.040 A   
ATOM     10  C3  UNL     1      -4.419  -1.240  -0.545  1.00  0.00     0.024 A   
ATOM     11  N1  UNL     1      -3.534  -2.716  -2.224  1.00  0.00    -0.229 NA  
ATOM     12  C4  UNL     1      -3.653  -1.873   0.430  1.00  0.00     0.012 A   
ATOM     13  C6  UNL     1      -2.835  -3.340  -1.260  1.00  0.00     0.172 A   
ATOM     14  C5  UNL     1      -2.821  -2.939   0.069  1.00  0.00     0.024 A   
ATOM     15  O1  UNL     1      -2.098  -4.413  -1.689  1.00  0.00    -0.329 OA  
ATOM     16  C7  UNL     1      -2.026  -5.424  -0.683  1.00  0.00     0.172 C   
ATOM     17  C8  UNL     1      -1.250  -4.895   0.509  1.00  0.00     0.059 C   
ATOM     18  C1  UNL     1      -5.129  -1.019  -2.939  1.00  0.00     0.067 C   
ENDBRANCH   3   8
ENDBRANCH   1   2
BRANCH   1  19
ATOM     19  N3  UNL     1       1.258   1.176   2.261  1.00  0.00     0.249 N   
ATOM     20  H13 UNL     1       1.203   0.914   3.253  1.00  0.00     0.199 HD  
ATOM     21  H14 UNL     1       1.992   1.883   2.170  1.00  0.00     0.199 HD  
BRANCH  19  22
ATOM     22  C13 UNL     1      -0.051   1.801   1.897  1.00  0.00     0.164 C   
BRANCH  22  23
ATOM     23  C14 UNL     1      -0.123   2.247   0.464  1.00  0.00    -0.002 A   
ATOM     24  C15 UNL     1      -0.893   1.515  -0.473  1.00  0.00     0.012 A   
ATOM     25  C19 UNL     1       0.592   3.379   0.037  1.00  0.00     0.045 A   
ATOM     26  C16 UNL     1      -0.947   1.898  -1.817  1.00  0.00     0.037 A   
ATOM     27  C18 UNL     1       0.514   3.732  -1.294  1.00  0.00     0.109 A   
ATOM     28  C17 UNL     1      -0.232   3.012  -2.195  1.00  0.00     0.108 A   
ATOM     29  O2  UNL     1       1.138   4.794  -1.867  1.00  0.00    -0.316 OA  
ATOM     30  O3  UNL     1      -0.174   3.532  -3.448  1.00  0.00    -0.316 OA  
ATOM     31  C20 UNL     1       0.667   4.686  -3.230  1.00  0.00     0.337 C   
ENDBRANCH  22  23
ENDBRANCH  19  22
ENDBRANCH   1  19
BRANCH   1  32
ATOM     32  C21 UNL     1       3.040  -0.523   1.995  1.00  0.00     0.043 C   
ATOM     33  C22 UNL     1       4.148   0.514   1.789  1.00  0.00     0.010 C   
ATOM     34  C25 UNL     1       3.602  -1.725   1.226  1.00  0.00     0.010 C   
ATOM     35  C23 UNL     1       5.444  -0.281   1.907  1.00  0.00     0.001 C   
ATOM     36  C24 UNL     1       5.087  -1.728   1.569  1.00  0.00     0.001 C   
ENDBRANCH   1  32
TORSDOF 6
