REMARK SMILES Cc1ccc2c(n1)OCC[C@@H]2n1cc([C@@H]([NH2+]Cc2ccc3c(c2)OCO3)C2CCCC2)nn1
REMARK SMILES IDX 15 1 14 2 12 3 13 4 33 5 32 6 11 8 2 9 3 10 7 11 4 12 6 13
REMARK SMILES IDX 5 14 8 15 9 16 10 17 1 18 16 19 17 22 18 23 19 24 23 25
REMARK SMILES IDX 20 26 22 27 21 28 24 29 26 30 25 31 27 32 28 33 31 34 29 35
REMARK SMILES IDX 30 36
REMARK H PARENT 13 7 16 20 16 21
ROOT
ATOM     1   C12 UNL     1       1.140   1.474   1.024  1.00  0.00     0.117 C   
ENDROOT
BRANCH   1   2
ATOM     2   C11 UNL     1       1.191  -0.012   0.864  1.00  0.00     0.127 A   
ATOM     3   N2  UNL     1       0.928  -2.116   0.416  1.00  0.00    -0.204 N   
ATOM     4   C10 UNL     1       0.454  -0.874   0.084  1.00  0.00     0.046 A   
ATOM     5   N5  UNL     1       1.881  -2.019   1.367  1.00  0.00    -0.075 NA  
ATOM     6   N4  UNL     1       2.057  -0.737   1.641  1.00  0.00    -0.132 NA  
ATOM     7   H11 UNL     1      -0.332  -0.722  -0.643  1.00  0.00     0.083 HD  
BRANCH   3   8
ATOM     8   C9  UNL     1       0.533  -3.438  -0.077  1.00  0.00     0.136 C   
ATOM     9   C2  UNL     1      -0.630  -3.305  -4.163  1.00  0.00     0.040 A   
ATOM     10  C3  UNL     1       0.723  -3.201  -3.866  1.00  0.00     0.024 A   
ATOM     11  N1  UNL     1      -1.574  -3.447  -3.204  1.00  0.00    -0.229 NA  
ATOM     12  C4  UNL     1       1.118  -3.242  -2.533  1.00  0.00     0.012 A   
ATOM     13  C6  UNL     1      -1.177  -3.498  -1.919  1.00  0.00     0.172 A   
ATOM     14  C5  UNL     1       0.153  -3.395  -1.529  1.00  0.00     0.024 A   
ATOM     15  O1  UNL     1      -2.205  -3.696  -1.042  1.00  0.00    -0.329 OA  
ATOM     16  C7  UNL     1      -1.920  -3.451   0.331  1.00  0.00     0.172 C   
ATOM     17  C8  UNL     1      -0.591  -4.042   0.762  1.00  0.00     0.059 C   
ATOM     18  C1  UNL     1      -1.095  -3.284  -5.589  1.00  0.00     0.067 C   
ENDBRANCH   3   8
ENDBRANCH   1   2
BRANCH   1  19
ATOM     19  N3  UNL     1       1.370   1.809   2.486  1.00  0.00     0.249 N   
ATOM     20  H13 UNL     1       2.012   2.599   2.590  1.00  0.00     0.199 HD  
ATOM     21  H14 UNL     1       1.874   0.999   2.882  1.00  0.00     0.199 HD  
BRANCH  19  22
ATOM     22  C13 UNL     1       0.152   2.054   3.309  1.00  0.00     0.164 C   
BRANCH  22  23
ATOM     23  C14 UNL     1      -0.810   0.900   3.346  1.00  0.00    -0.002 A   
ATOM     24  C15 UNL     1      -0.473  -0.298   4.021  1.00  0.00     0.012 A   
ATOM     25  C19 UNL     1      -2.046   0.992   2.682  1.00  0.00     0.045 A   
ATOM     26  C16 UNL     1      -1.345  -1.393   4.026  1.00  0.00     0.037 A   
ATOM     27  C18 UNL     1      -2.883  -0.104   2.709  1.00  0.00     0.109 A   
ATOM     28  C17 UNL     1      -2.543  -1.264   3.360  1.00  0.00     0.108 A   
ATOM     29  O2  UNL     1      -4.099  -0.183   2.108  1.00  0.00    -0.316 OA  
ATOM     30  O3  UNL     1      -3.500  -2.221   3.245  1.00  0.00    -0.316 OA  
ATOM     31  C20 UNL     1      -4.517  -1.508   2.506  1.00  0.00     0.337 C   
ENDBRANCH  22  23
ENDBRANCH  19  22
ENDBRANCH   1  19
BRANCH   1  32
ATOM     32  C21 UNL     1       2.212   2.187   0.177  1.00  0.00     0.043 C   
ATOM     33  C22 UNL     1       2.051   1.949  -1.330  1.00  0.00     0.010 C   
ATOM     34  C25 UNL     1       2.155   3.716   0.253  1.00  0.00     0.010 C   
ATOM     35  C23 UNL     1       2.830   3.080  -1.997  1.00  0.00     0.001 C   
ATOM     36  C24 UNL     1       2.981   4.173  -0.943  1.00  0.00     0.001 C   
ENDBRANCH   1  32
TORSDOF 6
