REMARK SMILES CC(=O)c1ccccc1-n1cc([C@@H]([NH2+]Cc2ccc3c(c2)OCO3)C(C)(C)C)nn1
REMARK SMILES IDX 10 1 11 2 12 3 29 4 30 5 9 6 4 7 5 8 6 9 8 10 7 11 2 12 1 13
REMARK SMILES IDX 3 14 13 15 14 16 15 19 16 20 17 21 21 22 18 23 20 24 19 25
REMARK SMILES IDX 22 26 24 27 23 28 25 29 26 30 27 31 28 32
REMARK H PARENT 14 17 14 18
ROOT
ATOM     1   N1  UNL     1       1.003  -1.187  -2.338  1.00  0.00    -0.180 N   
ATOM     2   C9  UNL     1       1.301  -0.554  -1.148  1.00  0.00     0.135 A   
ATOM     3   C10 UNL     1       1.223  -1.538  -0.190  1.00  0.00     0.128 A   
ATOM     4   N3  UNL     1       1.004  -2.738  -0.800  1.00  0.00    -0.131 NA  
ATOM     5   N4  UNL     1       0.948  -2.527  -2.104  1.00  0.00    -0.071 NA  
ENDROOT
BRANCH   1   6
ATOM     6   C8  UNL     1       0.805  -0.657  -3.639  1.00  0.00     0.068 A   
ATOM     7   C3  UNL     1       0.394   0.668  -3.890  1.00  0.00     0.041 A   
ATOM     8   C4  UNL     1       0.286   1.116  -5.220  1.00  0.00     0.014 A   
ATOM     9   C5  UNL     1       0.571   0.263  -6.287  1.00  0.00     0.001 A   
ATOM     10  C7  UNL     1       1.049  -1.516  -4.729  1.00  0.00     0.027 A   
ATOM     11  C6  UNL     1       0.942  -1.054  -6.042  1.00  0.00     0.002 A   
BRANCH   7  12
ATOM     12  C2  UNL     1      -0.110   1.588  -2.833  1.00  0.00     0.161 C   
ATOM     13  C1  UNL     1       0.208   3.058  -2.943  1.00  0.00     0.093 C   
ATOM     14  O1  UNL     1      -0.784   1.142  -1.906  1.00  0.00    -0.294 OA  
ENDBRANCH   7  12
ENDBRANCH   1   6
BRANCH   3  15
ATOM     15  C11 UNL     1       1.226  -1.444   1.304  1.00  0.00     0.120 C   
BRANCH  15  16
ATOM     16  N2  UNL     1       0.062  -2.256   1.837  1.00  0.00     0.250 N   
ATOM     17  H10 UNL     1       0.112  -3.174   1.373  1.00  0.00     0.199 HD  
ATOM     18  H11 UNL     1       0.153  -2.420   2.842  1.00  0.00     0.199 HD  
BRANCH  16  19
ATOM     19  C12 UNL     1      -1.302  -1.699   1.568  1.00  0.00     0.164 C   
BRANCH  19  20
ATOM     20  C13 UNL     1      -1.576  -0.437   2.337  1.00  0.00    -0.002 A   
ATOM     21  C14 UNL     1      -1.652   0.805   1.663  1.00  0.00     0.012 A   
ATOM     22  C18 UNL     1      -1.733  -0.475   3.734  1.00  0.00     0.045 A   
ATOM     23  C15 UNL     1      -1.873   1.995   2.366  1.00  0.00     0.037 A   
ATOM     24  C17 UNL     1      -1.950   0.715   4.396  1.00  0.00     0.109 A   
ATOM     25  C16 UNL     1      -2.017   1.916   3.732  1.00  0.00     0.108 A   
ATOM     26  O2  UNL     1      -2.122   0.852   5.737  1.00  0.00    -0.316 OA  
ATOM     27  O3  UNL     1      -2.235   2.960   4.573  1.00  0.00    -0.316 OA  
ATOM     28  C19 UNL     1      -2.348   2.276   5.839  1.00  0.00     0.337 C   
ENDBRANCH  19  20
ENDBRANCH  16  19
ENDBRANCH  15  16
BRANCH  15  29
ATOM     29  C20 UNL     1       2.568  -1.893   1.982  1.00  0.00     0.010 C   
ATOM     30  C21 UNL     1       2.529  -1.581   3.497  1.00  0.00     0.017 C   
ATOM     31  C22 UNL     1       2.861  -3.397   1.809  1.00  0.00     0.017 C   
ATOM     32  C23 UNL     1       3.751  -1.095   1.387  1.00  0.00     0.017 C   
ENDBRANCH  15  29
ENDBRANCH   3  15
TORSDOF 7
