REMARK SMILES CC(C)[C@H]([NH2+]Cc1ccc2c(c1)OCO2)c1cn(CC(=O)c2ccccc2O)nn1
REMARK SMILES IDX 16 1 17 2 18 3 29 4 30 5 4 7 2 8 1 9 3 10 5 11 6 14 7 15
REMARK SMILES IDX 8 16 12 17 9 18 11 19 10 20 13 21 15 22 14 23 19 24 20 25
REMARK SMILES IDX 21 26 22 27 23 28 27 29 24 30 26 31 25 32 28 33
REMARK H PARENT 17 6 5 12 5 13 28 34
ROOT
ATOM     1   C13 UNL     1       0.668  -0.482   1.546  1.00  0.00     0.127 A   
ATOM     2   C14 UNL     1       1.575  -0.066   0.597  1.00  0.00     0.046 A   
ATOM     3   N2  UNL     1       1.845  -1.202  -0.113  1.00  0.00    -0.204 N   
ATOM     4   N3  UNL     1       1.217  -2.267   0.421  1.00  0.00    -0.076 NA  
ATOM     5   N4  UNL     1       0.486  -1.836   1.437  1.00  0.00    -0.132 NA  
ATOM     6   H18 UNL     1       1.962   0.903   0.310  1.00  0.00     0.083 HD  
ENDROOT
BRANCH   1   7
ATOM     7   C4  UNL     1      -0.179   0.300   2.493  1.00  0.00     0.117 C   
BRANCH   7   8
ATOM     8   C2  UNL     1       0.218   0.064   3.977  1.00  0.00     0.037 C   
ATOM     9   C1  UNL     1      -0.682   0.824   4.961  1.00  0.00     0.014 C   
ATOM     10  C3  UNL     1       1.674   0.483   4.233  1.00  0.00     0.014 C   
ENDBRANCH   7   8
BRANCH   7  11
ATOM     11  N1  UNL     1      -1.628  -0.105   2.292  1.00  0.00     0.249 N   
ATOM     12  H9  UNL     1      -1.663  -1.124   2.433  1.00  0.00     0.199 HD  
ATOM     13  H10 UNL     1      -2.228   0.329   2.995  1.00  0.00     0.199 HD  
BRANCH  11  14
ATOM     14  C5  UNL     1      -2.214   0.172   0.941  1.00  0.00     0.164 C   
BRANCH  14  15
ATOM     15  C6  UNL     1      -2.301   1.641   0.629  1.00  0.00    -0.002 A   
ATOM     16  C7  UNL     1      -3.221   2.469   1.318  1.00  0.00     0.012 A   
ATOM     17  C11 UNL     1      -1.448   2.207  -0.334  1.00  0.00     0.045 A   
ATOM     18  C8  UNL     1      -3.283   3.842   1.061  1.00  0.00     0.037 A   
ATOM     19  C10 UNL     1      -1.533   3.564  -0.561  1.00  0.00     0.109 A   
ATOM     20  C9  UNL     1      -2.423   4.359   0.117  1.00  0.00     0.108 A   
ATOM     21  O1  UNL     1      -0.777   4.268  -1.444  1.00  0.00    -0.316 OA  
ATOM     22  O2  UNL     1      -2.344   5.663  -0.257  1.00  0.00    -0.316 OA  
ATOM     23  C12 UNL     1      -1.323   5.595  -1.276  1.00  0.00     0.337 C   
ENDBRANCH  14  15
ENDBRANCH  11  14
ENDBRANCH   7  11
ENDBRANCH   1   7
BRANCH   3  24
ATOM     24  C15 UNL     1       2.591  -1.324  -1.353  1.00  0.00     0.215 C   
BRANCH  24  25
ATOM     25  C16 UNL     1       1.731  -0.915  -2.530  1.00  0.00     0.184 C   
ATOM     26  O3  UNL     1       0.703  -0.247  -2.390  1.00  0.00    -0.292 OA  
BRANCH  25  27
ATOM     27  C17 UNL     1       2.134  -1.332  -3.906  1.00  0.00     0.049 A   
ATOM     28  C18 UNL     1       1.139  -1.328  -4.898  1.00  0.00     0.014 A   
ATOM     29  C22 UNL     1       3.437  -1.709  -4.256  1.00  0.00     0.082 A   
ATOM     30  C19 UNL     1       1.438  -1.712  -6.207  1.00  0.00     0.001 A   
ATOM     31  C21 UNL     1       3.735  -2.096  -5.567  1.00  0.00     0.034 A   
ATOM     32  C20 UNL     1       2.734  -2.099  -6.538  1.00  0.00     0.003 A   
BRANCH  29  33
ATOM     33  O4  UNL     1       4.445  -1.683  -3.334  1.00  0.00    -0.360 OA  
ATOM     34  H25 UNL     1       5.280  -1.932  -3.772  1.00  0.00     0.218 HD  
ENDBRANCH  29  33
ENDBRANCH  25  27
ENDBRANCH  24  25
ENDBRANCH   3  24
TORSDOF 9
