REMARK SMILES COc1c(C)cccc1Cn1cc([C@@H]([NH2+]Cc2ccc3c(c2)OCO3)C(C)(C)C)nn1
REMARK SMILES IDX 11 1 12 2 13 3 30 4 31 5 10 7 9 8 3 9 4 10 6 11 8 12 7 13
REMARK SMILES IDX 5 14 2 15 1 16 14 17 15 18 16 21 17 22 18 23 22 24 19 25
REMARK SMILES IDX 21 26 20 27 23 28 25 29 24 30 26 31 27 32 28 33 29 34
REMARK H PARENT 12 6 15 19 15 20
ROOT
ATOM     1   N1  UNL     1       1.974   2.385  -0.105  1.00  0.00    -0.208 N   
ATOM     2   C10 UNL     1       1.472   1.493   0.803  1.00  0.00     0.046 A   
ATOM     3   C11 UNL     1       2.187   0.341   0.565  1.00  0.00     0.127 A   
ATOM     4   N3  UNL     1       3.123   0.582  -0.406  1.00  0.00    -0.132 NA  
ATOM     5   N4  UNL     1       2.996   1.840  -0.796  1.00  0.00    -0.076 NA  
ATOM     6   H12 UNL     1       0.638   1.732   1.450  1.00  0.00     0.083 HD  
ENDROOT
BRANCH   1   7
ATOM     7   C9  UNL     1       1.516   3.734  -0.401  1.00  0.00     0.172 C   
BRANCH   7   8
ATOM     8   C8  UNL     1       0.018   3.805  -0.596  1.00  0.00     0.002 A   
ATOM     9   C2  UNL     1      -0.646   3.055  -1.588  1.00  0.00     0.082 A   
ATOM     10  C3  UNL     1      -2.046   3.074  -1.702  1.00  0.00    -0.020 A   
ATOM     11  C5  UNL     1      -2.775   3.932  -0.869  1.00  0.00     0.006 A   
ATOM     12  C7  UNL     1      -0.743   4.648   0.229  1.00  0.00     0.008 A   
ATOM     13  C6  UNL     1      -2.128   4.716   0.088  1.00  0.00     0.001 A   
ATOM     14  C4  UNL     1      -2.780   2.243  -2.717  1.00  0.00     0.047 C   
BRANCH   9  15
ATOM     15  O1  UNL     1       0.086   2.213  -2.390  1.00  0.00    -0.349 OA  
ATOM     16  C1  UNL     1       0.418   2.864  -3.622  1.00  0.00     0.203 C   
ENDBRANCH   9  15
ENDBRANCH   7   8
ENDBRANCH   1   7
BRANCH   3  17
ATOM     17  C12 UNL     1       1.989  -1.049   1.080  1.00  0.00     0.120 C   
BRANCH  17  18
ATOM     18  N2  UNL     1       2.040  -2.020  -0.086  1.00  0.00     0.250 N   
ATOM     19  H14 UNL     1       2.941  -1.863  -0.555  1.00  0.00     0.199 HD  
ATOM     20  H15 UNL     1       2.025  -2.987   0.245  1.00  0.00     0.199 HD  
BRANCH  18  21
ATOM     21  C13 UNL     1       0.981  -1.857  -1.133  1.00  0.00     0.164 C   
BRANCH  21  22
ATOM     22  C14 UNL     1      -0.414  -2.048  -0.605  1.00  0.00    -0.002 A   
ATOM     23  C15 UNL     1      -1.280  -0.936  -0.474  1.00  0.00     0.012 A   
ATOM     24  C19 UNL     1      -0.856  -3.319  -0.202  1.00  0.00     0.045 A   
ATOM     25  C16 UNL     1      -2.564  -1.080   0.061  1.00  0.00     0.037 A   
ATOM     26  C18 UNL     1      -2.129  -3.427   0.320  1.00  0.00     0.109 A   
ATOM     27  C17 UNL     1      -2.958  -2.340   0.451  1.00  0.00     0.108 A   
ATOM     28  O2  UNL     1      -2.704  -4.575   0.764  1.00  0.00    -0.316 OA  
ATOM     29  O3  UNL     1      -4.159  -2.666   0.994  1.00  0.00    -0.316 OA  
ATOM     30  C20 UNL     1      -4.009  -4.093   1.159  1.00  0.00     0.337 C   
ENDBRANCH  21  22
ENDBRANCH  18  21
ENDBRANCH  17  18
BRANCH  17  31
ATOM     31  C21 UNL     1       3.005  -1.477   2.198  1.00  0.00     0.010 C   
ATOM     32  C22 UNL     1       4.462  -1.547   1.698  1.00  0.00     0.017 C   
ATOM     33  C23 UNL     1       2.625  -2.864   2.766  1.00  0.00     0.017 C   
ATOM     34  C24 UNL     1       2.944  -0.475   3.375  1.00  0.00     0.017 C   
ENDBRANCH  17  31
ENDBRANCH   3  17
TORSDOF 8
