REMARK SMILES COc1ccc(O)c(CCn2cc([C@@H]([NH2+]Cc3ccc4c(c3)OCO4)C(C)(C)C)nn2)c1
REMARK SMILES IDX 11 1 12 2 13 3 30 4 31 5 10 7 9 8 8 9 3 10 4 11 32 12 5 13
REMARK SMILES IDX 6 14 2 15 1 16 7 17 14 19 15 20 16 23 17 24 18 25 22 26
REMARK SMILES IDX 19 27 21 28 20 29 23 30 25 31 24 32 26 33 27 34 28 35 29 36
REMARK H PARENT 12 6 7 18 15 21 15 22
ROOT
ATOM     1   N1  UNL     1       1.285   1.714   3.093  1.00  0.00    -0.212 N   
ATOM     2   C9  UNL     1       1.195   0.350   3.052  1.00  0.00     0.045 A   
ATOM     3   C10 UNL     1       1.954  -0.001   1.959  1.00  0.00     0.127 A   
ATOM     4   N3  UNL     1       2.485   1.131   1.401  1.00  0.00    -0.132 NA  
ATOM     5   N4  UNL     1       2.080   2.171   2.110  1.00  0.00    -0.076 NA  
ATOM     6   H11 UNL     1       0.581  -0.209   3.744  1.00  0.00     0.083 HD  
ENDROOT
BRANCH   1   7
ATOM     7   C8  UNL     1       0.526   2.628   3.923  1.00  0.00     0.139 C   
BRANCH   7   8
ATOM     8   C7  UNL     1      -0.468   3.475   3.123  1.00  0.00     0.060 C   
BRANCH   8   9
ATOM     9   C6  UNL     1      -1.478   2.646   2.358  1.00  0.00    -0.014 A   
ATOM     10  C2  UNL     1      -2.193   1.637   0.252  1.00  0.00     0.075 A   
ATOM     11  C3  UNL     1      -3.304   1.089   0.891  1.00  0.00     0.036 A   
ATOM     12  C24 UNL     1      -1.288   2.411   0.986  1.00  0.00     0.040 A   
ATOM     13  C4  UNL     1      -3.506   1.313   2.258  1.00  0.00     0.036 A   
ATOM     14  C5  UNL     1      -2.591   2.077   2.982  1.00  0.00     0.075 A   
BRANCH  10  15
ATOM     15  O1  UNL     1      -1.858   1.440  -1.061  1.00  0.00    -0.349 OA  
ATOM     16  C1  UNL     1      -2.939   1.127  -1.937  1.00  0.00     0.203 C   
ENDBRANCH  10  15
BRANCH  14  17
ATOM     17  O2  UNL     1      -2.759   2.272   4.323  1.00  0.00    -0.361 OA  
ATOM     18  H6  UNL     1      -3.659   2.001   4.574  1.00  0.00     0.218 HD  
ENDBRANCH  14  17
ENDBRANCH   8   9
ENDBRANCH   7   8
ENDBRANCH   1   7
BRANCH   3  19
ATOM     19  C11 UNL     1       2.146  -1.325   1.289  1.00  0.00     0.120 C   
BRANCH  19  20
ATOM     20  N2  UNL     1       1.974  -1.171  -0.205  1.00  0.00     0.250 N   
ATOM     21  H13 UNL     1       2.671  -0.486  -0.529  1.00  0.00     0.199 HD  
ATOM     22  H14 UNL     1       2.169  -2.045  -0.701  1.00  0.00     0.199 HD  
BRANCH  20  23
ATOM     23  C12 UNL     1       0.641  -0.657  -0.643  1.00  0.00     0.164 C   
BRANCH  23  24
ATOM     24  C13 UNL     1       0.405  -0.941  -2.100  1.00  0.00    -0.002 A   
ATOM     25  C14 UNL     1      -0.046  -2.217  -2.515  1.00  0.00     0.012 A   
ATOM     26  C18 UNL     1       0.646   0.056  -3.060  1.00  0.00     0.045 A   
ATOM     27  C15 UNL     1      -0.269  -2.494  -3.868  1.00  0.00     0.037 A   
ATOM     28  C17 UNL     1       0.409  -0.248  -4.385  1.00  0.00     0.109 A   
ATOM     29  C16 UNL     1      -0.037  -1.486  -4.777  1.00  0.00     0.108 A   
ATOM     30  O3  UNL     1       0.569   0.601  -5.432  1.00  0.00    -0.316 OA  
ATOM     31  O4  UNL     1      -0.213  -1.571  -6.122  1.00  0.00    -0.316 OA  
ATOM     32  C19 UNL     1       0.137  -0.232  -6.532  1.00  0.00     0.337 C   
ENDBRANCH  23  24
ENDBRANCH  20  23
ENDBRANCH  19  20
BRANCH  19  33
ATOM     33  C20 UNL     1       3.515  -2.020   1.620  1.00  0.00     0.010 C   
ATOM     34  C21 UNL     1       4.735  -1.220   1.122  1.00  0.00     0.017 C   
ATOM     35  C22 UNL     1       3.652  -2.211   3.150  1.00  0.00     0.017 C   
ATOM     36  C23 UNL     1       3.574  -3.429   0.984  1.00  0.00     0.017 C   
ENDBRANCH  19  33
ENDBRANCH   3  19
TORSDOF 10
