REMARK SMILES CC(C)[C@H]([NH2+]Cc1ccc2c(c1)OCO2)c1cn(-c2cccc3[nH]ncc23)nn1
REMARK SMILES IDX 4 1 2 2 1 3 3 4 5 5 6 8 7 9 8 10 12 11 9 12 11 13 10 14
REMARK SMILES IDX 13 15 15 16 14 17 16 18 17 19 29 20 18 21 28 22 19 23 20 24
REMARK SMILES IDX 27 25 21 26 23 27 26 28 22 29 24 30 25 31
REMARK H PARENT 5 6 5 7 24 32
ROOT
ATOM     1   C4  UNL     1       1.417  -0.829   0.376  1.00  0.00     0.117 C   
ENDROOT
BRANCH   1   2
ATOM     2   C2  UNL     1       1.839  -2.217   0.926  1.00  0.00     0.037 C   
ATOM     3   C1  UNL     1       2.669  -3.004  -0.093  1.00  0.00     0.014 C   
ATOM     4   C3  UNL     1       0.669  -3.079   1.417  1.00  0.00     0.014 C   
ENDBRANCH   1   2
BRANCH   1   5
ATOM     5   N1  UNL     1       0.796  -0.043   1.506  1.00  0.00     0.249 N   
ATOM     6   H9  UNL     1       1.249  -0.249   2.402  1.00  0.00     0.199 HD  
ATOM     7   H10 UNL     1      -0.180  -0.364   1.596  1.00  0.00     0.199 HD  
BRANCH   5   8
ATOM     8   C5  UNL     1       0.752   1.433   1.313  1.00  0.00     0.164 C   
BRANCH   8   9
ATOM     9   C6  UNL     1       0.037   2.088   2.461  1.00  0.00    -0.002 A   
ATOM     10  C7  UNL     1      -1.368   2.253   2.420  1.00  0.00     0.012 A   
ATOM     11  C11 UNL     1       0.749   2.482   3.606  1.00  0.00     0.045 A   
ATOM     12  C8  UNL     1      -2.057   2.816   3.500  1.00  0.00     0.037 A   
ATOM     13  C10 UNL     1       0.039   3.031   4.654  1.00  0.00     0.109 A   
ATOM     14  C9  UNL     1      -1.324   3.194   4.603  1.00  0.00     0.108 A   
ATOM     15  O1  UNL     1       0.570   3.459   5.830  1.00  0.00    -0.316 OA  
ATOM     16  O2  UNL     1      -1.822   3.749   5.738  1.00  0.00    -0.316 OA  
ATOM     17  C12 UNL     1      -0.616   3.933   6.509  1.00  0.00     0.337 C   
ENDBRANCH   8   9
ENDBRANCH   5   8
ENDBRANCH   1   5
BRANCH   1  18
ATOM     18  C13 UNL     1       0.473  -0.890  -0.784  1.00  0.00     0.127 A   
ATOM     19  C14 UNL     1       0.693  -0.993  -2.140  1.00  0.00     0.135 A   
ATOM     20  N6  UNL     1      -0.869  -0.787  -0.559  1.00  0.00    -0.131 NA  
ATOM     21  N2  UNL     1      -0.566  -0.978  -2.715  1.00  0.00    -0.180 N   
ATOM     22  N5  UNL     1      -1.484  -0.828  -1.728  1.00  0.00    -0.071 NA  
BRANCH  21  23
ATOM     23  C15 UNL     1      -0.925  -1.076  -4.082  1.00  0.00     0.068 A   
ATOM     24  C16 UNL     1       0.069  -1.230  -5.072  1.00  0.00     0.027 A   
ATOM     25  C21 UNL     1      -2.280  -1.024  -4.496  1.00  0.00     0.041 A   
ATOM     26  C17 UNL     1      -0.268  -1.326  -6.425  1.00  0.00     0.004 A   
ATOM     27  C19 UNL     1      -2.573  -1.122  -5.856  1.00  0.00     0.058 A   
ATOM     28  C20 UNL     1      -3.556  -0.890  -3.891  1.00  0.00     0.143 A   
ATOM     29  C18 UNL     1      -1.597  -1.273  -6.844  1.00  0.00     0.026 A   
ATOM     30  N3  UNL     1      -3.939  -1.043  -5.951  1.00  0.00    -0.238 N   
ATOM     31  N4  UNL     1      -4.559  -0.896  -4.771  1.00  0.00    -0.192 NA  
ATOM     32  H22 UNL     1      -4.506  -1.081  -6.791  1.00  0.00     0.176 HD  
ENDBRANCH  21  23
ENDBRANCH   1  18
TORSDOF 6
