REMARK SMILES CC(C)C[C@H]([NH2+]Cc1ccc2c(c1)OCO2)c1cn(C[C@@H](O)c2ccc(F)cn2)nn1
REMARK SMILES IDX 17 1 18 2 19 3 30 4 31 5 5 7 4 8 2 9 1 10 3 11 6 12 7 15
REMARK SMILES IDX 8 16 9 17 13 18 10 19 12 20 11 21 14 22 16 23 15 24 20 25
REMARK SMILES IDX 21 26 22 27 23 29 24 30 29 31 25 32 28 33 26 34 27 35
REMARK H PARENT 18 6 6 13 6 14 22 28
ROOT
ATOM     1   C14 UNL     1       0.103   1.357  -0.564  1.00  0.00     0.127 A   
ATOM     2   C15 UNL     1      -1.225   0.996  -0.530  1.00  0.00     0.045 A   
ATOM     3   N2  UNL     1      -1.801   1.768  -1.500  1.00  0.00    -0.209 N   
ATOM     4   N4  UNL     1      -0.889   2.564  -2.090  1.00  0.00    -0.076 NA  
ATOM     5   N5  UNL     1       0.286   2.316  -1.529  1.00  0.00    -0.132 NA  
ATOM     6   H20 UNL     1      -1.788   0.268   0.041  1.00  0.00     0.083 HD  
ENDROOT
BRANCH   1   7
ATOM     7   C5  UNL     1       1.283   0.817   0.175  1.00  0.00     0.114 C   
BRANCH   7   8
ATOM     8   C4  UNL     1       1.847   1.815   1.202  1.00  0.00     0.064 C   
BRANCH   8   9
ATOM     9   C2  UNL     1       0.866   2.219   2.324  1.00  0.00    -0.012 C   
ATOM     10  C1  UNL     1       0.455   1.032   3.196  1.00  0.00     0.007 C   
ATOM     11  C3  UNL     1       1.504   3.301   3.200  1.00  0.00     0.007 C   
ENDBRANCH   8   9
ENDBRANCH   7   8
BRANCH   7  12
ATOM     12  N1  UNL     1       2.356   0.514  -0.850  1.00  0.00     0.249 N   
ATOM     13  H11 UNL     1       1.875   0.122  -1.671  1.00  0.00     0.199 HD  
ATOM     14  H12 UNL     1       2.728   1.413  -1.188  1.00  0.00     0.199 HD  
BRANCH  12  15
ATOM     15  C6  UNL     1       3.454  -0.409  -0.465  1.00  0.00     0.164 C   
BRANCH  15  16
ATOM     16  C7  UNL     1       2.981  -1.824  -0.276  1.00  0.00    -0.002 A   
ATOM     17  C8  UNL     1       2.576  -2.597  -1.395  1.00  0.00     0.012 A   
ATOM     18  C12 UNL     1       2.909  -2.382   1.012  1.00  0.00     0.045 A   
ATOM     19  C9  UNL     1       2.091  -3.897  -1.232  1.00  0.00     0.037 A   
ATOM     20  C11 UNL     1       2.433  -3.670   1.135  1.00  0.00     0.109 A   
ATOM     21  C10 UNL     1       2.030  -4.405   0.046  1.00  0.00     0.108 A   
ATOM     22  O1  UNL     1       2.298  -4.355   2.300  1.00  0.00    -0.316 OA  
ATOM     23  O2  UNL     1       1.588  -5.641   0.390  1.00  0.00    -0.316 OA  
ATOM     24  C13 UNL     1       1.821  -5.631   1.815  1.00  0.00     0.337 C   
ENDBRANCH  15  16
ENDBRANCH  12  15
ENDBRANCH   7  12
ENDBRANCH   1   7
BRANCH   3  25
ATOM     25  C16 UNL     1      -3.179   1.766  -1.951  1.00  0.00     0.172 C   
BRANCH  25  26
ATOM     26  C17 UNL     1      -3.324   0.963  -3.241  1.00  0.00     0.182 C   
BRANCH  26  27
ATOM     27  O3  UNL     1      -3.133  -0.436  -2.947  1.00  0.00    -0.385 OA  
ATOM     28  H24 UNL     1      -4.014  -0.856  -3.069  1.00  0.00     0.211 HD  
ENDBRANCH  26  27
BRANCH  26  29
ATOM     29  C18 UNL     1      -4.705   1.160  -3.829  1.00  0.00     0.071 A   
ATOM     30  C19 UNL     1      -4.931   2.092  -4.843  1.00  0.00     0.030 A   
ATOM     31  N3  UNL     1      -5.691   0.367  -3.320  1.00  0.00    -0.255 NA  
ATOM     32  C20 UNL     1      -6.218   2.213  -5.366  1.00  0.00     0.043 A   
ATOM     33  C22 UNL     1      -6.932   0.522  -3.845  1.00  0.00     0.150 A   
ATOM     34  C21 UNL     1      -7.229   1.418  -4.856  1.00  0.00     0.141 A   
ATOM     35  F1  UNL     1      -8.471   1.511  -5.343  1.00  0.00    -0.205 F   
ENDBRANCH  26  29
ENDBRANCH  25  26
ENDBRANCH   3  25
TORSDOF 10
