REMARK SMILES CC(C)C[C@H]([NH2+]Cc1ccc2c(c1)OCO2)c1cn(C[C@H](O)c2ccc(F)cn2)nn1
REMARK SMILES IDX 17 1 18 2 19 3 30 4 31 5 5 7 4 8 2 9 1 10 3 11 6 12 7 15
REMARK SMILES IDX 8 16 9 17 13 18 10 19 12 20 11 21 14 22 16 23 15 24 20 25
REMARK SMILES IDX 21 26 22 27 23 29 24 30 29 31 25 32 28 33 26 34 27 35
REMARK H PARENT 18 6 6 13 6 14 22 28
ROOT
ATOM     1   C14 UNL     1       1.036   1.082  -0.154  1.00  0.00     0.127 A   
ATOM     2   C15 UNL     1       2.197   0.370  -0.353  1.00  0.00     0.045 A   
ATOM     3   N2  UNL     1       2.420  -0.237   0.850  1.00  0.00    -0.209 N   
ATOM     4   N4  UNL     1       1.511   0.155   1.764  1.00  0.00    -0.076 NA  
ATOM     5   N5  UNL     1       0.648   0.952   1.156  1.00  0.00    -0.132 NA  
ATOM     6   H20 UNL     1       2.812   0.172  -1.221  1.00  0.00     0.083 HD  
ENDROOT
BRANCH   1   7
ATOM     7   C5  UNL     1       0.155   1.810  -1.113  1.00  0.00     0.114 C   
BRANCH   7   8
ATOM     8   C4  UNL     1       0.814   3.008  -1.819  1.00  0.00     0.064 C   
BRANCH   8   9
ATOM     9   C2  UNL     1       0.960   4.339  -1.048  1.00  0.00    -0.012 C   
ATOM     10  C1  UNL     1       1.599   5.388  -1.967  1.00  0.00     0.007 C   
ATOM     11  C3  UNL     1       1.786   4.218   0.232  1.00  0.00     0.007 C   
ENDBRANCH   8   9
ENDBRANCH   7   8
BRANCH   7  12
ATOM     12  N1  UNL     1      -1.122   2.211  -0.424  1.00  0.00     0.249 N   
ATOM     13  H11 UNL     1      -1.299   1.467   0.270  1.00  0.00     0.199 HD  
ATOM     14  H12 UNL     1      -0.952   3.035   0.161  1.00  0.00     0.199 HD  
BRANCH  12  15
ATOM     15  C6  UNL     1      -2.336   2.377  -1.261  1.00  0.00     0.164 C   
BRANCH  15  16
ATOM     16  C7  UNL     1      -2.840   1.071  -1.812  1.00  0.00    -0.002 A   
ATOM     17  C8  UNL     1      -2.763   0.798  -3.197  1.00  0.00     0.012 A   
ATOM     18  C12 UNL     1      -3.364   0.094  -0.946  1.00  0.00     0.045 A   
ATOM     19  C9  UNL     1      -3.183  -0.433  -3.713  1.00  0.00     0.037 A   
ATOM     20  C11 UNL     1      -3.768  -1.108  -1.487  1.00  0.00     0.109 A   
ATOM     21  C10 UNL     1      -3.676  -1.367  -2.831  1.00  0.00     0.108 A   
ATOM     22  O1  UNL     1      -4.284  -2.152  -0.789  1.00  0.00    -0.316 OA  
ATOM     23  O2  UNL     1      -4.115  -2.611  -3.149  1.00  0.00    -0.316 OA  
ATOM     24  C13 UNL     1      -4.530  -3.098  -1.854  1.00  0.00     0.337 C   
ENDBRANCH  15  16
ENDBRANCH  12  15
ENDBRANCH   7  12
ENDBRANCH   1   7
BRANCH   3  25
ATOM     25  C16 UNL     1       3.395  -1.258   1.178  1.00  0.00     0.172 C   
BRANCH  25  26
ATOM     26  C17 UNL     1       3.138  -2.588   0.464  1.00  0.00     0.182 C   
BRANCH  26  27
ATOM     27  O3  UNL     1       3.532  -2.466  -0.916  1.00  0.00    -0.385 OA  
ATOM     28  H24 UNL     1       2.758  -2.775  -1.433  1.00  0.00     0.211 HD  
ENDBRANCH  26  27
BRANCH  26  29
ATOM     29  C18 UNL     1       1.697  -3.070   0.545  1.00  0.00     0.071 A   
ATOM     30  C19 UNL     1       1.173  -3.579   1.734  1.00  0.00     0.030 A   
ATOM     31  N3  UNL     1       0.961  -2.959  -0.600  1.00  0.00    -0.255 NA  
ATOM     32  C20 UNL     1      -0.157  -3.997   1.754  1.00  0.00     0.043 A   
ATOM     33  C22 UNL     1      -0.327  -3.382  -0.543  1.00  0.00     0.150 A   
ATOM     34  C21 UNL     1      -0.914  -3.896   0.598  1.00  0.00     0.141 A   
ATOM     35  F1  UNL     1      -2.195  -4.289   0.586  1.00  0.00    -0.205 F   
ENDBRANCH  26  29
ENDBRANCH  25  26
ENDBRANCH   3  25
TORSDOF 10
