REMARK SMILES CC(C)(C)[C@H]([NH2+]Cc1ccc2c(c1)OCO2)c1cn(CCCOc2ccccc2)nn1
REMARK SMILES IDX 17 1 18 2 19 3 30 4 31 5 5 7 2 8 1 9 3 10 4 11 6 12 7 15
REMARK SMILES IDX 8 16 9 17 13 18 10 19 12 20 11 21 14 22 16 23 15 24 20 25
REMARK SMILES IDX 21 26 22 27 23 28 24 29 25 30 29 31 26 32 28 33 27 34
REMARK H PARENT 18 6 6 13 6 14
ROOT
ATOM     1   C14 UNL     1      -0.631   0.123   0.203  1.00  0.00     0.127 A   
ATOM     2   C15 UNL     1      -0.725  -1.005   0.987  1.00  0.00     0.045 A   
ATOM     3   N2  UNL     1      -0.006  -0.692   2.105  1.00  0.00    -0.212 N   
ATOM     4   N3  UNL     1       0.442   0.575   2.052  1.00  0.00    -0.076 NA  
ATOM     5   N4  UNL     1       0.085   1.079   0.883  1.00  0.00    -0.132 NA  
ATOM     6   H20 UNL     1      -1.181  -1.976   0.844  1.00  0.00     0.083 HD  
ENDROOT
BRANCH   1   7
ATOM     7   C5  UNL     1      -1.194   0.453  -1.149  1.00  0.00     0.120 C   
BRANCH   7   8
ATOM     8   C2  UNL     1      -0.317  -0.046  -2.351  1.00  0.00     0.010 C   
ATOM     9   C1  UNL     1       1.079   0.608  -2.374  1.00  0.00     0.017 C   
ATOM     10  C3  UNL     1      -0.132  -1.580  -2.281  1.00  0.00     0.017 C   
ATOM     11  C4  UNL     1      -1.018   0.253  -3.697  1.00  0.00     0.017 C   
ENDBRANCH   7   8
BRANCH   7  12
ATOM     12  N1  UNL     1      -1.390   1.952  -1.228  1.00  0.00     0.250 N   
ATOM     13  H11 UNL     1      -0.543   2.372  -0.816  1.00  0.00     0.199 HD  
ATOM     14  H12 UNL     1      -1.439   2.301  -2.188  1.00  0.00     0.199 HD  
BRANCH  12  15
ATOM     15  C6  UNL     1      -2.554   2.483  -0.463  1.00  0.00     0.164 C   
BRANCH  15  16
ATOM     16  C7  UNL     1      -2.543   3.986  -0.462  1.00  0.00    -0.002 A   
ATOM     17  C8  UNL     1      -3.391   4.714  -1.329  1.00  0.00     0.012 A   
ATOM     18  C12 UNL     1      -1.654   4.678   0.381  1.00  0.00     0.045 A   
ATOM     19  C9  UNL     1      -3.365   6.113  -1.348  1.00  0.00     0.037 A   
ATOM     20  C11 UNL     1      -1.650   6.056   0.332  1.00  0.00     0.109 A   
ATOM     21  C10 UNL     1      -2.483   6.754  -0.506  1.00  0.00     0.108 A   
ATOM     22  O1  UNL     1      -0.856   6.871   1.073  1.00  0.00    -0.316 OA  
ATOM     23  O2  UNL     1      -2.325   8.097  -0.390  1.00  0.00    -0.316 OA  
ATOM     24  C13 UNL     1      -1.306   8.170   0.630  1.00  0.00     0.337 C   
ENDBRANCH  15  16
ENDBRANCH  12  15
ENDBRANCH   7  12
ENDBRANCH   1   7
BRANCH   3  25
ATOM     25  C16 UNL     1       0.327  -1.551   3.221  1.00  0.00     0.136 C   
BRANCH  25  26
ATOM     26  C17 UNL     1       1.830  -1.782   3.400  1.00  0.00     0.050 C   
BRANCH  26  27
ATOM     27  C18 UNL     1       2.538  -2.241   2.125  1.00  0.00     0.169 C   
BRANCH  27  28
ATOM     28  O3  UNL     1       1.817  -3.343   1.576  1.00  0.00    -0.346 OA  
BRANCH  28  29
ATOM     29  C19 UNL     1       2.203  -3.779   0.338  1.00  0.00     0.075 A   
ATOM     30  C20 UNL     1       3.301  -3.317  -0.389  1.00  0.00     0.033 A   
ATOM     31  C24 UNL     1       1.394  -4.779  -0.208  1.00  0.00     0.033 A   
ATOM     32  C21 UNL     1       3.574  -3.840  -1.657  1.00  0.00     0.003 A   
ATOM     33  C23 UNL     1       1.668  -5.305  -1.472  1.00  0.00     0.003 A   
ATOM     34  C22 UNL     1       2.758  -4.831  -2.198  1.00  0.00     0.000 A   
ENDBRANCH  28  29
ENDBRANCH  27  28
ENDBRANCH  26  27
ENDBRANCH  25  26
ENDBRANCH   3  25
TORSDOF 10
