REMARK SMILES Cc1ccccc1[C@H](O)Cn1cc([C@@H]([NH2+]Cc2ccc3c(c2)OCO3)C2CCCC2)nn1
REMARK SMILES IDX 11 1 12 2 13 3 31 4 32 5 10 7 8 8 7 9 2 10 3 11 4 12 6 13
REMARK SMILES IDX 5 14 1 15 9 16 14 18 15 19 16 22 17 23 18 24 22 25 19 26
REMARK SMILES IDX 21 27 20 28 23 29 25 30 24 31 26 32 27 33 30 34 28 35 29 36
REMARK H PARENT 12 6 9 17 15 20 15 21
ROOT
ATOM     1   N1  UNL     1      -1.836   0.195   0.402  1.00  0.00    -0.209 N   
ATOM     2   C10 UNL     1      -0.799   0.581  -0.400  1.00  0.00     0.045 A   
ATOM     3   C11 UNL     1       0.157   1.017   0.487  1.00  0.00     0.127 A   
ATOM     4   N3  UNL     1      -0.328   0.904   1.766  1.00  0.00    -0.132 NA  
ATOM     5   N4  UNL     1      -1.550   0.404   1.699  1.00  0.00    -0.076 NA  
ATOM     6   H12 UNL     1      -0.839   0.505  -1.478  1.00  0.00     0.083 HD  
ENDROOT
BRANCH   1   7
ATOM     7   C9  UNL     1      -3.105  -0.370   0.008  1.00  0.00     0.170 C   
BRANCH   7   8
ATOM     8   C8  UNL     1      -3.136  -1.898   0.125  1.00  0.00     0.164 C   
BRANCH   8   9
ATOM     9   C7  UNL     1      -2.151  -2.585  -0.810  1.00  0.00    -0.015 A   
ATOM     10  C2  UNL     1      -0.995  -3.248  -0.339  1.00  0.00    -0.045 A   
ATOM     11  C3  UNL     1      -0.118  -3.838  -1.265  1.00  0.00     0.004 A   
ATOM     12  C4  UNL     1      -0.370  -3.778  -2.635  1.00  0.00     0.000 A   
ATOM     13  C6  UNL     1      -2.388  -2.540  -2.199  1.00  0.00     0.007 A   
ATOM     14  C5  UNL     1      -1.506  -3.130  -3.102  1.00  0.00     0.000 A   
ATOM     15  C1  UNL     1      -0.674  -3.368   1.127  1.00  0.00     0.045 C   
ENDBRANCH   8   9
BRANCH   8  16
ATOM     16  O1  UNL     1      -4.460  -2.350  -0.179  1.00  0.00    -0.387 OA  
ATOM     17  H9  UNL     1      -4.406  -3.309  -0.347  1.00  0.00     0.211 HD  
ENDBRANCH   8  16
ENDBRANCH   7   8
ENDBRANCH   1   7
BRANCH   3  18
ATOM     18  C12 UNL     1       1.510   1.608   0.271  1.00  0.00     0.117 C   
BRANCH  18  19
ATOM     19  N2  UNL     1       1.718   2.752   1.238  1.00  0.00     0.249 N   
ATOM     20  H14 UNL     1       1.110   2.546   2.047  1.00  0.00     0.199 HD  
ATOM     21  H15 UNL     1       2.673   2.758   1.607  1.00  0.00     0.199 HD  
BRANCH  19  22
ATOM     22  C13 UNL     1       1.376   4.114   0.735  1.00  0.00     0.164 C   
BRANCH  22  23
ATOM     23  C14 UNL     1      -0.061   4.275   0.325  1.00  0.00    -0.002 A   
ATOM     24  C15 UNL     1      -0.409   4.375  -1.044  1.00  0.00     0.012 A   
ATOM     25  C19 UNL     1      -1.077   4.287   1.297  1.00  0.00     0.045 A   
ATOM     26  C16 UNL     1      -1.747   4.467  -1.442  1.00  0.00     0.037 A   
ATOM     27  C18 UNL     1      -2.386   4.379   0.871  1.00  0.00     0.109 A   
ATOM     28  C17 UNL     1      -2.712   4.462  -0.460  1.00  0.00     0.108 A   
ATOM     29  O2  UNL     1      -3.480   4.393   1.675  1.00  0.00    -0.316 OA  
ATOM     30  O3  UNL     1      -4.054   4.533  -0.661  1.00  0.00    -0.316 OA  
ATOM     31  C20 UNL     1      -4.538   4.515   0.699  1.00  0.00     0.337 C   
ENDBRANCH  22  23
ENDBRANCH  19  22
ENDBRANCH  18  19
BRANCH  18  32
ATOM     32  C21 UNL     1       2.620   0.549   0.425  1.00  0.00     0.043 C   
ATOM     33  C22 UNL     1       4.012   1.026  -0.002  1.00  0.00     0.010 C   
ATOM     34  C25 UNL     1       2.829  -0.024   1.839  1.00  0.00     0.010 C   
ATOM     35  C23 UNL     1       4.926  -0.028   0.601  1.00  0.00     0.001 C   
ATOM     36  C24 UNL     1       4.333  -0.266   1.982  1.00  0.00     0.001 C   
ENDBRANCH  18  32
ENDBRANCH   3  18
TORSDOF 9
