REMARK SMILES Cc1ccccc1[C@@H](O)Cn1cc([C@@H]([NH2+]Cc2ccc3c(c2)OCO3)C2CCCC2)nn1
REMARK SMILES IDX 11 1 12 2 13 3 31 4 32 5 10 7 8 8 7 9 2 10 3 11 4 12 6 13
REMARK SMILES IDX 5 14 1 15 9 16 14 18 15 19 16 22 17 23 18 24 22 25 19 26
REMARK SMILES IDX 21 27 20 28 23 29 25 30 24 31 26 32 27 33 30 34 28 35 29 36
REMARK H PARENT 12 6 9 17 15 20 15 21
ROOT
ATOM     1   N1  UNL     1      -0.071   1.320   0.035  1.00  0.00    -0.209 N   
ATOM     2   C10 UNL     1       0.510   0.178   0.511  1.00  0.00     0.045 A   
ATOM     3   C11 UNL     1      -0.548  -0.563   0.985  1.00  0.00     0.127 A   
ATOM     4   N3  UNL     1      -1.703   0.162   0.838  1.00  0.00    -0.132 NA  
ATOM     5   N4  UNL     1      -1.398   1.312   0.259  1.00  0.00    -0.076 NA  
ATOM     6   H12 UNL     1       1.576   0.005   0.445  1.00  0.00     0.083 HD  
ENDROOT
BRANCH   1   7
ATOM     7   C9  UNL     1       0.573   2.469  -0.569  1.00  0.00     0.170 C   
BRANCH   7   8
ATOM     8   C8  UNL     1       0.902   2.224  -2.043  1.00  0.00     0.164 C   
BRANCH   8   9
ATOM     9   C7  UNL     1       1.307   3.516  -2.732  1.00  0.00    -0.015 A   
ATOM     10  C2  UNL     1       0.455   4.181  -3.641  1.00  0.00    -0.045 A   
ATOM     11  C3  UNL     1       0.886   5.381  -4.232  1.00  0.00     0.004 A   
ATOM     12  C4  UNL     1       2.131   5.931  -3.921  1.00  0.00     0.000 A   
ATOM     13  C6  UNL     1       2.562   4.087  -2.434  1.00  0.00     0.007 A   
ATOM     14  C5  UNL     1       2.969   5.282  -3.024  1.00  0.00     0.000 A   
ATOM     15  C1  UNL     1      -0.901   3.646  -4.016  1.00  0.00     0.045 C   
ENDBRANCH   8   9
BRANCH   8  16
ATOM     16  O1  UNL     1       1.975   1.275  -2.147  1.00  0.00    -0.387 OA  
ATOM     17  H9  UNL     1       2.390   1.414  -3.019  1.00  0.00     0.211 HD  
ENDBRANCH   8  16
ENDBRANCH   7   8
ENDBRANCH   1   7
BRANCH   3  18
ATOM     18  C12 UNL     1      -0.592  -1.896   1.657  1.00  0.00     0.117 C   
BRANCH  18  19
ATOM     19  N2  UNL     1      -1.624  -1.881   2.767  1.00  0.00     0.249 N   
ATOM     20  H14 UNL     1      -1.819  -2.835   3.083  1.00  0.00     0.199 HD  
ATOM     21  H15 UNL     1      -2.488  -1.514   2.344  1.00  0.00     0.199 HD  
BRANCH  19  22
ATOM     22  C13 UNL     1      -1.315  -1.022   3.948  1.00  0.00     0.164 C   
BRANCH  22  23
ATOM     23  C14 UNL     1      -0.170  -1.547   4.769  1.00  0.00    -0.002 A   
ATOM     24  C15 UNL     1      -0.361  -2.634   5.655  1.00  0.00     0.012 A   
ATOM     25  C19 UNL     1       1.111  -0.982   4.638  1.00  0.00     0.045 A   
ATOM     26  C16 UNL     1       0.705  -3.149   6.401  1.00  0.00     0.037 A   
ATOM     27  C18 UNL     1       2.140  -1.519   5.381  1.00  0.00     0.109 A   
ATOM     28  C17 UNL     1       1.944  -2.571   6.240  1.00  0.00     0.108 A   
ATOM     29  O2  UNL     1       3.432  -1.099   5.361  1.00  0.00    -0.316 OA  
ATOM     30  O3  UNL     1       3.085  -2.941   6.875  1.00  0.00    -0.316 OA  
ATOM     31  C20 UNL     1       4.025  -1.988   6.334  1.00  0.00     0.337 C   
ENDBRANCH  22  23
ENDBRANCH  19  22
ENDBRANCH  18  19
BRANCH  18  32
ATOM     32  C21 UNL     1      -0.928  -3.075   0.720  1.00  0.00     0.043 C   
ATOM     33  C22 UNL     1       0.093  -3.315  -0.410  1.00  0.00     0.010 C   
ATOM     34  C25 UNL     1      -2.290  -3.024   0.017  1.00  0.00     0.010 C   
ATOM     35  C23 UNL     1      -0.724  -3.670  -1.653  1.00  0.00     0.001 C   
ATOM     36  C24 UNL     1      -2.116  -3.997  -1.138  1.00  0.00     0.001 C   
ENDBRANCH  18  32
ENDBRANCH   3  18
TORSDOF 9
