REMARK SMILES CC(F)(F)c1cncc(Cn2cc([C@@H]([NH2+]Cc3ccc4c(c3)OCO4)C(C)(C)C)nn2)c1
REMARK SMILES IDX 11 1 12 2 13 3 30 4 31 5 10 7 9 8 5 9 6 10 32 11 7 12 8 13
REMARK SMILES IDX 2 14 1 15 3 16 4 17 14 18 15 19 16 22 17 23 18 24 22 25
REMARK SMILES IDX 19 26 21 27 20 28 23 29 25 30 24 31 26 32 27 33 28 34 29 35
REMARK H PARENT 12 6 15 20 15 21
ROOT
ATOM     1   N2  UNL     1      -1.611  -0.735   1.934  1.00  0.00    -0.208 N   
ATOM     2   C8  UNL     1      -1.081   0.521   2.043  1.00  0.00     0.046 A   
ATOM     3   C9  UNL     1      -1.421   1.127   0.852  1.00  0.00     0.127 A   
ATOM     4   N4  UNL     1      -2.128   0.239   0.080  1.00  0.00    -0.132 NA  
ATOM     5   N5  UNL     1      -2.247  -0.891   0.756  1.00  0.00    -0.076 NA  
ATOM     6   H8  UNL     1      -0.513   0.840   2.906  1.00  0.00     0.083 HD  
ENDROOT
BRANCH   1   7
ATOM     7   C7  UNL     1      -1.490  -1.849   2.860  1.00  0.00     0.171 C   
BRANCH   7   8
ATOM     8   C6  UNL     1      -0.256  -2.650   2.549  1.00  0.00    -0.010 A   
ATOM     9   C3  UNL     1       2.081  -3.208   2.903  1.00  0.00     0.039 A   
ATOM     10  C4  UNL     1       1.978  -4.073   1.819  1.00  0.00     0.120 A   
ATOM     11  C23 UNL     1       0.936  -2.487   3.268  1.00  0.00     0.018 A   
ATOM     12  N1  UNL     1       0.843  -4.255   1.106  1.00  0.00    -0.264 NA  
ATOM     13  C5  UNL     1      -0.244  -3.548   1.483  1.00  0.00     0.116 A   
BRANCH   9  14
ATOM     14  C2  UNL     1       3.387  -3.061   3.638  1.00  0.00     0.272 C   
ATOM     15  C1  UNL     1       3.565  -4.131   4.703  1.00  0.00     0.093 C   
ATOM     16  F1  UNL     1       3.490  -1.844   4.249  1.00  0.00    -0.202 F   
ATOM     17  F2  UNL     1       4.454  -3.127   2.791  1.00  0.00    -0.202 F   
ENDBRANCH   9  14
ENDBRANCH   7   8
ENDBRANCH   1   7
BRANCH   3  18
ATOM     18  C10 UNL     1      -1.067   2.466   0.277  1.00  0.00     0.120 C   
BRANCH  18  19
ATOM     19  N3  UNL     1      -0.731   2.274  -1.186  1.00  0.00     0.250 N   
ATOM     20  H10 UNL     1      -0.842   3.131  -1.732  1.00  0.00     0.199 HD  
ATOM     21  H11 UNL     1      -1.420   1.606  -1.567  1.00  0.00     0.199 HD  
BRANCH  19  22
ATOM     22  C11 UNL     1       0.622   1.705  -1.448  1.00  0.00     0.164 C   
BRANCH  22  23
ATOM     23  C12 UNL     1       0.858   1.517  -2.919  1.00  0.00    -0.002 A   
ATOM     24  C13 UNL     1       0.866   0.219  -3.479  1.00  0.00     0.012 A   
ATOM     25  C17 UNL     1       1.052   2.635  -3.755  1.00  0.00     0.045 A   
ATOM     26  C14 UNL     1       1.074   0.029  -4.850  1.00  0.00     0.037 A   
ATOM     27  C16 UNL     1       1.250   2.412  -5.101  1.00  0.00     0.109 A   
ATOM     28  C15 UNL     1       1.265   1.147  -5.634  1.00  0.00     0.108 A   
ATOM     29  O1  UNL     1       1.449   3.374  -6.038  1.00  0.00    -0.316 OA  
ATOM     30  O2  UNL     1       1.480   1.155  -6.973  1.00  0.00    -0.316 OA  
ATOM     31  C18 UNL     1       1.611   2.569  -7.226  1.00  0.00     0.337 C   
ENDBRANCH  22  23
ENDBRANCH  19  22
ENDBRANCH  18  19
BRANCH  18  32
ATOM     32  C19 UNL     1      -2.181   3.557   0.451  1.00  0.00     0.010 C   
ATOM     33  C20 UNL     1      -2.491   3.761   1.954  1.00  0.00     0.017 C   
ATOM     34  C21 UNL     1      -3.493   3.189  -0.272  1.00  0.00     0.017 C   
ATOM     35  C22 UNL     1      -1.691   4.921  -0.095  1.00  0.00     0.017 C   
ENDBRANCH  18  32
ENDBRANCH   3  18
TORSDOF 8
