REMARK SMILES CC(C)C[C@H]([NH2+]Cc1ccc2c(c1)OCO2)c1cn(-c2ccccc2CO)nn1
REMARK SMILES IDX 17 1 18 2 19 3 28 4 29 5 5 6 4 7 2 8 1 9 3 10 6 11 7 14 8 15
REMARK SMILES IDX 9 16 13 17 10 18 12 19 11 20 14 21 16 22 15 23 20 24 21 25
REMARK SMILES IDX 25 26 22 27 24 28 23 29 26 30 27 31
REMARK H PARENT 6 12 6 13 27 32
ROOT
ATOM     1   C14 UNL     1      -1.723   0.218  -0.423  1.00  0.00     0.127 A   
ATOM     2   C15 UNL     1      -2.393   0.893  -1.418  1.00  0.00     0.135 A   
ATOM     3   N2  UNL     1      -1.443   1.169  -2.391  1.00  0.00    -0.180 N   
ATOM     4   N3  UNL     1      -0.263   0.640  -1.976  1.00  0.00    -0.071 NA  
ATOM     5   N4  UNL     1      -0.419   0.072  -0.794  1.00  0.00    -0.131 NA  
ENDROOT
BRANCH   1   6
ATOM     6   C5  UNL     1      -2.199  -0.345   0.877  1.00  0.00     0.114 C   
BRANCH   6   7
ATOM     7   C4  UNL     1      -2.689   0.721   1.879  1.00  0.00     0.064 C   
BRANCH   7   8
ATOM     8   C2  UNL     1      -1.635   1.558   2.641  1.00  0.00    -0.012 C   
ATOM     9   C1  UNL     1      -2.346   2.438   3.677  1.00  0.00     0.007 C   
ATOM     10  C3  UNL     1      -0.779   2.441   1.735  1.00  0.00     0.007 C   
ENDBRANCH   7   8
ENDBRANCH   6   7
BRANCH   6  11
ATOM     11  N1  UNL     1      -1.160  -1.206   1.537  1.00  0.00     0.249 N   
ATOM     12  H11 UNL     1      -1.337  -1.304   2.542  1.00  0.00     0.199 HD  
ATOM     13  H12 UNL     1      -0.257  -0.719   1.446  1.00  0.00     0.199 HD  
BRANCH  11  14
ATOM     14  C6  UNL     1      -0.989  -2.566   0.951  1.00  0.00     0.164 C   
BRANCH  14  15
ATOM     15  C7  UNL     1       0.152  -3.280   1.616  1.00  0.00    -0.002 A   
ATOM     16  C8  UNL     1       1.474  -3.101   1.142  1.00  0.00     0.012 A   
ATOM     17  C12 UNL     1      -0.075  -4.083   2.746  1.00  0.00     0.045 A   
ATOM     18  C9  UNL     1       2.555  -3.722   1.776  1.00  0.00     0.037 A   
ATOM     19  C11 UNL     1       1.013  -4.680   3.348  1.00  0.00     0.109 A   
ATOM     20  C10 UNL     1       2.291  -4.505   2.877  1.00  0.00     0.108 A   
ATOM     21  O1  UNL     1       0.968  -5.482   4.444  1.00  0.00    -0.316 OA  
ATOM     22  O2  UNL     1       3.211  -5.178   3.615  1.00  0.00    -0.316 OA  
ATOM     23  C13 UNL     1       2.366  -5.818   4.596  1.00  0.00     0.337 C   
ENDBRANCH  14  15
ENDBRANCH  11  14
ENDBRANCH   6  11
ENDBRANCH   1   6
BRANCH   3  24
ATOM     24  C16 UNL     1      -1.603   1.867  -3.627  1.00  0.00     0.063 A   
ATOM     25  C17 UNL     1      -2.885   2.370  -3.944  1.00  0.00     0.026 A   
ATOM     26  C21 UNL     1      -0.533   2.072  -4.539  1.00  0.00     0.001 A   
ATOM     27  C18 UNL     1      -3.117   3.062  -5.133  1.00  0.00     0.002 A   
ATOM     28  C20 UNL     1      -0.807   2.777  -5.732  1.00  0.00     0.008 A   
ATOM     29  C19 UNL     1      -2.079   3.265  -6.027  1.00  0.00     0.001 A   
BRANCH  26  30
ATOM     30  C22 UNL     1       0.884   1.583  -4.303  1.00  0.00     0.193 C   
BRANCH  30  31
ATOM     31  O3  UNL     1       1.766   1.916  -5.372  1.00  0.00    -0.392 OA  
ATOM     32  H27 UNL     1       2.642   1.568  -5.134  1.00  0.00     0.211 HD  
ENDBRANCH  30  31
ENDBRANCH  26  30
ENDBRANCH   3  24
TORSDOF 9
