REMARK SMILES O[C@H](Cn1cc([C@@H]([NH2+]Cc2ccc3c(c2)OCO3)C2CCCC2)nn1)c1cncc(F)c1
REMARK SMILES IDX 4 1 5 2 6 3 24 4 25 5 3 7 2 8 1 9 26 11 27 12 32 13 28 14
REMARK SMILES IDX 30 15 29 16 31 17 7 18 8 19 9 22 10 23 11 24 15 25 12 26
REMARK SMILES IDX 14 27 13 28 16 29 18 30 17 31 19 32 20 33 23 34 21 35 22 36
REMARK H PARENT 5 6 1 10 8 20 8 21
ROOT
ATOM     1   N1  UNL     1       3.756  -0.564   1.118  1.00  0.00    -0.209 N   
ATOM     2   C3  UNL     1       2.444  -0.259   1.352  1.00  0.00     0.045 A   
ATOM     3   C4  UNL     1       1.770  -1.404   0.987  1.00  0.00     0.127 A   
ATOM     4   N3  UNL     1       2.675  -2.354   0.593  1.00  0.00    -0.132 NA  
ATOM     5   N4  UNL     1       3.887  -1.834   0.697  1.00  0.00    -0.076 NA  
ATOM     6   H5  UNL     1       2.122   0.716   1.693  1.00  0.00     0.083 HD  
ENDROOT
BRANCH   1   7
ATOM     7   C2  UNL     1       4.910   0.310   1.209  1.00  0.00     0.170 C   
BRANCH   7   8
ATOM     8   C1  UNL     1       5.372   0.877  -0.148  1.00  0.00     0.165 C   
BRANCH   8   9
ATOM     9   O1  UNL     1       5.947  -0.132  -0.976  1.00  0.00    -0.387 OA  
ATOM     10  H1  UNL     1       6.731  -0.496  -0.527  1.00  0.00     0.211 HD  
ENDBRANCH   8   9
BRANCH   8  11
ATOM     11  C19 UNL     1       4.264   1.568  -0.908  1.00  0.00     0.003 A   
ATOM     12  C20 UNL     1       3.461   0.871  -1.815  1.00  0.00     0.117 A   
ATOM     13  C23 UNL     1       3.959   2.915  -0.687  1.00  0.00     0.049 A   
ATOM     14  N5  UNL     1       2.382   1.395  -2.446  1.00  0.00    -0.261 NA  
ATOM     15  C22 UNL     1       2.895   3.491  -1.368  1.00  0.00     0.141 A   
ATOM     16  C21 UNL     1       2.142   2.712  -2.228  1.00  0.00     0.150 A   
ATOM     17  F1  UNL     1       2.591   4.779  -1.172  1.00  0.00    -0.205 F   
ENDBRANCH   8  11
ENDBRANCH   7   8
ENDBRANCH   1   7
BRANCH   3  18
ATOM     18  C5  UNL     1       0.309  -1.699   0.885  1.00  0.00     0.117 C   
BRANCH  18  19
ATOM     19  N2  UNL     1       0.030  -2.361  -0.448  1.00  0.00     0.249 N   
ATOM     20  H7  UNL     1       0.770  -3.068  -0.575  1.00  0.00     0.199 HD  
ATOM     21  H8  UNL     1      -0.862  -2.861  -0.433  1.00  0.00     0.199 HD  
BRANCH  19  22
ATOM     22  C6  UNL     1       0.053  -1.461  -1.641  1.00  0.00     0.164 C   
BRANCH  22  23
ATOM     23  C7  UNL     1      -1.159  -0.572  -1.704  1.00  0.00    -0.002 A   
ATOM     24  C8  UNL     1      -2.411  -1.091  -2.114  1.00  0.00     0.012 A   
ATOM     25  C12 UNL     1      -1.063   0.776  -1.320  1.00  0.00     0.045 A   
ATOM     26  C9  UNL     1      -3.550  -0.280  -2.141  1.00  0.00     0.037 A   
ATOM     27  C11 UNL     1      -2.204   1.548  -1.358  1.00  0.00     0.109 A   
ATOM     28  C10 UNL     1      -3.414   1.036  -1.756  1.00  0.00     0.108 A   
ATOM     29  O2  UNL     1      -2.281   2.862  -1.020  1.00  0.00    -0.316 OA  
ATOM     30  O3  UNL     1      -4.405   1.963  -1.722  1.00  0.00    -0.316 OA  
ATOM     31  C13 UNL     1      -3.679   3.128  -1.276  1.00  0.00     0.337 C   
ENDBRANCH  22  23
ENDBRANCH  19  22
ENDBRANCH  18  19
BRANCH  18  32
ATOM     32  C14 UNL     1      -0.174  -2.639   2.007  1.00  0.00     0.043 C   
ATOM     33  C15 UNL     1      -1.681  -2.943   1.964  1.00  0.00     0.010 C   
ATOM     34  C18 UNL     1       0.014  -2.057   3.412  1.00  0.00     0.010 C   
ATOM     35  C16 UNL     1      -2.114  -3.173   3.413  1.00  0.00     0.001 C   
ATOM     36  C17 UNL     1      -0.877  -2.941   4.269  1.00  0.00     0.001 C   
ENDBRANCH  18  32
ENDBRANCH   3  18
TORSDOF 9
