REMARK SMILES O[C@@H](Cn1cc([C@@H]([NH2+]Cc2ccc3c(c2)OCO3)C2CCCC2)nn1)c1cncc(F)c1
REMARK SMILES IDX 4 1 5 2 6 3 24 4 25 5 3 7 2 8 1 9 26 11 27 12 32 13 28 14
REMARK SMILES IDX 30 15 29 16 31 17 7 18 8 19 9 22 10 23 11 24 15 25 12 26
REMARK SMILES IDX 14 27 13 28 16 29 18 30 17 31 19 32 20 33 23 34 21 35 22 36
REMARK H PARENT 5 6 1 10 8 20 8 21
ROOT
ATOM     1   N1  UNL     1      -1.715   3.082   0.843  1.00  0.00    -0.209 N   
ATOM     2   C3  UNL     1      -1.411   1.852   1.355  1.00  0.00     0.045 A   
ATOM     3   C4  UNL     1      -0.038   1.871   1.473  1.00  0.00     0.127 A   
ATOM     4   N3  UNL     1       0.431   3.092   1.059  1.00  0.00    -0.132 NA  
ATOM     5   N4  UNL     1      -0.604   3.825   0.682  1.00  0.00    -0.076 NA  
ATOM     6   H5  UNL     1      -2.162   1.095   1.537  1.00  0.00     0.083 HD  
ENDROOT
BRANCH   1   7
ATOM     7   C2  UNL     1      -2.987   3.544   0.335  1.00  0.00     0.170 C   
BRANCH   7   8
ATOM     8   C1  UNL     1      -2.988   3.745  -1.190  1.00  0.00     0.165 C   
BRANCH   8   9
ATOM     9   O1  UNL     1      -4.296   4.159  -1.589  1.00  0.00    -0.387 OA  
ATOM     10  H1  UNL     1      -4.284   4.290  -2.555  1.00  0.00     0.211 HD  
ENDBRANCH   8   9
BRANCH   8  11
ATOM     11  C19 UNL     1      -2.604   2.491  -1.942  1.00  0.00     0.003 A   
ATOM     12  C20 UNL     1      -1.276   2.281  -2.325  1.00  0.00     0.117 A   
ATOM     13  C23 UNL     1      -3.520   1.469  -2.219  1.00  0.00     0.049 A   
ATOM     14  N5  UNL     1      -0.815   1.146  -2.905  1.00  0.00    -0.261 NA  
ATOM     15  C22 UNL     1      -3.082   0.318  -2.861  1.00  0.00     0.141 A   
ATOM     16  C21 UNL     1      -1.743   0.197  -3.186  1.00  0.00     0.150 A   
ATOM     17  F1  UNL     1      -3.943  -0.668  -3.138  1.00  0.00    -0.205 F   
ENDBRANCH   8  11
ENDBRANCH   7   8
ENDBRANCH   1   7
BRANCH   3  18
ATOM     18  C5  UNL     1       0.931   0.803   1.867  1.00  0.00     0.117 C   
BRANCH  18  19
ATOM     19  N2  UNL     1       2.147   0.863   0.975  1.00  0.00     0.249 N   
ATOM     20  H7  UNL     1       2.421   1.855   0.930  1.00  0.00     0.199 HD  
ATOM     21  H8  UNL     1       2.933   0.350   1.382  1.00  0.00     0.199 HD  
BRANCH  19  22
ATOM     22  C6  UNL     1       1.948   0.401  -0.435  1.00  0.00     0.164 C   
BRANCH  22  23
ATOM     23  C7  UNL     1       1.793  -1.091  -0.534  1.00  0.00    -0.002 A   
ATOM     24  C8  UNL     1       2.923  -1.938  -0.434  1.00  0.00     0.012 A   
ATOM     25  C12 UNL     1       0.516  -1.657  -0.695  1.00  0.00     0.045 A   
ATOM     26  C9  UNL     1       2.785  -3.330  -0.493  1.00  0.00     0.037 A   
ATOM     27  C11 UNL     1       0.415  -3.031  -0.749  1.00  0.00     0.109 A   
ATOM     28  C10 UNL     1       1.517  -3.844  -0.651  1.00  0.00     0.108 A   
ATOM     29  O2  UNL     1      -0.739  -3.733  -0.897  1.00  0.00    -0.316 OA  
ATOM     30  O3  UNL     1       1.197  -5.162  -0.728  1.00  0.00    -0.316 OA  
ATOM     31  C13 UNL     1      -0.235  -5.088  -0.909  1.00  0.00     0.337 C   
ENDBRANCH  22  23
ENDBRANCH  19  22
ENDBRANCH  18  19
BRANCH  18  32
ATOM     32  C14 UNL     1       1.329   0.915   3.351  1.00  0.00     0.043 C   
ATOM     33  C15 UNL     1       2.250   2.076   3.733  1.00  0.00     0.010 C   
ATOM     34  C18 UNL     1       2.088  -0.301   3.895  1.00  0.00     0.010 C   
ATOM     35  C16 UNL     1       2.683   1.717   5.149  1.00  0.00     0.001 C   
ATOM     36  C17 UNL     1       2.756   0.192   5.180  1.00  0.00     0.001 C   
ENDBRANCH  18  32
ENDBRANCH   3  18
TORSDOF 9
