REMARK SMILES Cc1cccc(CCn2cc([C@@H]([NH2+]Cc3ccc4c(c3)OCO4)C3CCCCC3)nn2)c1F
REMARK SMILES IDX 9 1 10 2 11 3 30 4 31 5 8 7 7 8 6 9 2 10 3 11 32 12 4 13
REMARK SMILES IDX 5 14 1 15 33 16 12 17 13 18 14 21 15 22 16 23 20 24 17 25
REMARK SMILES IDX 19 26 18 27 21 28 23 29 22 30 24 31 25 32 29 33 26 34 28 35
REMARK SMILES IDX 27 36
REMARK H PARENT 10 6 13 19 13 20
ROOT
ATOM     1   N1  UNL     1      -1.138   1.999  -1.607  1.00  0.00    -0.212 N   
ATOM     2   C9  UNL     1      -1.208   1.410  -0.378  1.00  0.00     0.045 A   
ATOM     3   C10 UNL     1       0.099   1.405   0.058  1.00  0.00     0.127 A   
ATOM     4   N3  UNL     1       0.896   1.985  -0.893  1.00  0.00    -0.132 NA  
ATOM     5   N4  UNL     1       0.126   2.349  -1.905  1.00  0.00    -0.076 NA  
ATOM     6   H11 UNL     1      -2.134   1.042   0.041  1.00  0.00     0.083 HD  
ENDROOT
BRANCH   1   7
ATOM     7   C8  UNL     1      -2.213   2.251  -2.541  1.00  0.00     0.139 C   
BRANCH   7   8
ATOM     8   C7  UNL     1      -2.153   1.368  -3.788  1.00  0.00     0.060 C   
BRANCH   8   9
ATOM     9   C6  UNL     1      -2.293  -0.107  -3.497  1.00  0.00    -0.010 A   
ATOM     10  C2  UNL     1      -1.291  -2.338  -3.381  1.00  0.00    -0.015 A   
ATOM     11  C3  UNL     1      -2.531  -2.861  -2.999  1.00  0.00     0.006 A   
ATOM     12  C26 UNL     1      -1.187  -0.962  -3.607  1.00  0.00     0.129 A   
ATOM     13  C4  UNL     1      -3.642  -2.024  -2.872  1.00  0.00     0.001 A   
ATOM     14  C5  UNL     1      -3.528  -0.656  -3.125  1.00  0.00     0.007 A   
ATOM     15  C1  UNL     1      -0.093  -3.224  -3.550  1.00  0.00     0.047 C   
ATOM     16  F1  UNL     1       0.014  -0.448  -3.920  1.00  0.00    -0.206 F   
ENDBRANCH   8   9
ENDBRANCH   7   8
ENDBRANCH   1   7
BRANCH   3  17
ATOM     17  C11 UNL     1       0.722   0.830   1.287  1.00  0.00     0.117 C   
BRANCH  17  18
ATOM     18  N2  UNL     1       2.052   0.193   0.957  1.00  0.00     0.249 N   
ATOM     19  H13 UNL     1       2.565  -0.043   1.810  1.00  0.00     0.199 HD  
ATOM     20  H14 UNL     1       2.593   0.911   0.457  1.00  0.00     0.199 HD  
BRANCH  18  21
ATOM     21  C12 UNL     1       2.007  -1.001   0.057  1.00  0.00     0.164 C   
BRANCH  21  22
ATOM     22  C13 UNL     1       1.288  -2.173   0.665  1.00  0.00    -0.002 A   
ATOM     23  C14 UNL     1       1.917  -2.976   1.647  1.00  0.00     0.012 A   
ATOM     24  C18 UNL     1      -0.036  -2.457   0.285  1.00  0.00     0.045 A   
ATOM     25  C15 UNL     1       1.233  -4.040   2.248  1.00  0.00     0.037 A   
ATOM     26  C17 UNL     1      -0.681  -3.511   0.897  1.00  0.00     0.109 A   
ATOM     27  C16 UNL     1      -0.066  -4.279   1.853  1.00  0.00     0.108 A   
ATOM     28  O1  UNL     1      -1.961  -3.899   0.662  1.00  0.00    -0.316 OA  
ATOM     29  O2  UNL     1      -0.879  -5.251   2.342  1.00  0.00    -0.316 OA  
ATOM     30  C19 UNL     1      -2.072  -5.029   1.558  1.00  0.00     0.337 C   
ENDBRANCH  21  22
ENDBRANCH  18  21
ENDBRANCH  17  18
BRANCH  17  31
ATOM     31  C20 UNL     1       0.887   1.892   2.411  1.00  0.00     0.043 C   
ATOM     32  C21 UNL     1       1.157   1.233   3.779  1.00  0.00     0.010 C   
ATOM     33  C25 UNL     1       1.951   2.972   2.127  1.00  0.00     0.010 C   
ATOM     34  C22 UNL     1       1.211   2.270   4.898  1.00  0.00     0.001 C   
ATOM     35  C24 UNL     1       2.004   4.008   3.249  1.00  0.00     0.001 C   
ATOM     36  C23 UNL     1       2.240   3.358   4.609  1.00  0.00     0.000 C   
ENDBRANCH  17  31
ENDBRANCH   3  17
TORSDOF 8
