REMARK SMILES Cc1ccc2c(c1)C[C@H](Cn1cc([C@@H]([NH2+]Cc3ccc4c(c3)OCO4)C3CCCCC3)nn1)O2
REMARK SMILES IDX 11 1 12 2 13 3 32 4 33 5 10 7 9 8 2 9 3 10 7 11 4 12 6 13
REMARK SMILES IDX 5 14 8 15 34 16 1 17 14 18 15 19 16 22 17 23 18 24 22 25
REMARK SMILES IDX 19 26 21 27 20 28 23 29 25 30 24 31 26 32 27 33 31 34 28 35
REMARK SMILES IDX 30 36 29 37
REMARK H PARENT 12 6 15 20 15 21
ROOT
ATOM     1   N1  UNL     1      -1.174  -0.511   2.528  1.00  0.00    -0.210 N   
ATOM     2   C11 UNL     1       0.096  -0.335   2.057  1.00  0.00     0.045 A   
ATOM     3   C12 UNL     1       0.010   0.797   1.279  1.00  0.00     0.127 A   
ATOM     4   N3  UNL     1      -1.287   1.248   1.288  1.00  0.00    -0.132 NA  
ATOM     5   N4  UNL     1      -1.997   0.447   2.065  1.00  0.00    -0.076 NA  
ATOM     6   H12 UNL     1       0.901  -1.016   2.299  1.00  0.00     0.083 HD  
ENDROOT
BRANCH   1   7
ATOM     7   C10 UNL     1      -1.664  -1.532   3.430  1.00  0.00     0.166 C   
BRANCH   7   8
ATOM     8   C9  UNL     1      -2.018  -2.856   2.748  1.00  0.00     0.149 C   
ATOM     9   C2  UNL     1      -1.710  -3.653  -1.812  1.00  0.00    -0.051 A   
ATOM     10  C3  UNL     1      -0.447  -4.106  -1.376  1.00  0.00     0.006 A   
ATOM     11  C7  UNL     1      -2.639  -3.175  -0.874  1.00  0.00     0.010 A   
ATOM     12  C4  UNL     1      -0.095  -4.053  -0.024  1.00  0.00     0.034 A   
ATOM     13  C6  UNL     1      -2.274  -3.135   0.462  1.00  0.00    -0.015 A   
ATOM     14  C5  UNL     1      -1.023  -3.562   0.870  1.00  0.00     0.079 A   
ATOM     15  C8  UNL     1      -3.083  -2.755   1.640  1.00  0.00     0.072 C   
ATOM     16  O3  UNL     1      -0.807  -3.465   2.219  1.00  0.00    -0.341 OA  
ATOM     17  C1  UNL     1      -2.091  -3.773  -3.261  1.00  0.00     0.044 C   
ENDBRANCH   7   8
ENDBRANCH   1   7
BRANCH   3  18
ATOM     18  C13 UNL     1       1.013   1.470   0.406  1.00  0.00     0.117 C   
BRANCH  18  19
ATOM     19  N2  UNL     1       0.324   1.976  -0.852  1.00  0.00     0.249 N   
ATOM     20  H14 UNL     1      -0.520   2.470  -0.530  1.00  0.00     0.199 HD  
ATOM     21  H15 UNL     1       0.914   2.656  -1.339  1.00  0.00     0.199 HD  
BRANCH  19  22
ATOM     22  C14 UNL     1      -0.134   0.936  -1.819  1.00  0.00     0.164 C   
BRANCH  22  23
ATOM     23  C15 UNL     1       1.000   0.269  -2.545  1.00  0.00    -0.002 A   
ATOM     24  C16 UNL     1       1.667   0.928  -3.606  1.00  0.00     0.012 A   
ATOM     25  C20 UNL     1       1.419  -1.015  -2.160  1.00  0.00     0.045 A   
ATOM     26  C17 UNL     1       2.729   0.313  -4.279  1.00  0.00     0.037 A   
ATOM     27  C19 UNL     1       2.462  -1.597  -2.848  1.00  0.00     0.109 A   
ATOM     28  C18 UNL     1       3.100  -0.952  -3.877  1.00  0.00     0.108 A   
ATOM     29  O1  UNL     1       2.976  -2.832  -2.608  1.00  0.00    -0.316 OA  
ATOM     30  O2  UNL     1       4.096  -1.701  -4.418  1.00  0.00    -0.316 OA  
ATOM     31  C21 UNL     1       3.983  -2.914  -3.642  1.00  0.00     0.337 C   
ENDBRANCH  22  23
ENDBRANCH  19  22
ENDBRANCH  18  19
BRANCH  18  32
ATOM     32  C22 UNL     1       1.787   2.663   1.042  1.00  0.00     0.043 C   
ATOM     33  C23 UNL     1       2.813   2.224   2.107  1.00  0.00     0.010 C   
ATOM     34  C27 UNL     1       0.931   3.853   1.524  1.00  0.00     0.010 C   
ATOM     35  C24 UNL     1       2.284   2.156   3.536  1.00  0.00     0.001 C   
ATOM     36  C26 UNL     1       0.424   3.742   2.959  1.00  0.00     0.001 C   
ATOM     37  C25 UNL     1       1.550   3.428   3.934  1.00  0.00     0.000 C   
ENDBRANCH  18  32
ENDBRANCH   3  18
TORSDOF 7
