REMARK SMILES CC(C)[C@H]([NH2+]Cc1ccc2c(c1)OCO2)c1cn(CCc2ccc(Cl)nc2)nn1
REMARK SMILES IDX 16 1 17 2 18 3 28 4 29 5 4 7 2 8 1 9 3 10 5 11 6 14 7 15
REMARK SMILES IDX 8 16 12 17 9 18 11 19 10 20 13 21 15 22 14 23 19 24 20 25
REMARK SMILES IDX 21 26 22 27 27 28 23 29 26 30 24 31 25 32
REMARK H PARENT 17 6 5 12 5 13
ROOT
ATOM     1   C13 UNL     1       1.656   1.957  -0.017  1.00  0.00     0.127 A   
ATOM     2   C14 UNL     1       2.318   1.373   1.043  1.00  0.00     0.045 A   
ATOM     3   N2  UNL     1       3.579   1.138   0.564  1.00  0.00    -0.212 N   
ATOM     4   N4  UNL     1       3.730   1.673  -0.657  1.00  0.00    -0.076 NA  
ATOM     5   N5  UNL     1       2.563   2.179  -1.024  1.00  0.00    -0.132 NA  
ATOM     6   H18 UNL     1       2.004   0.998   2.007  1.00  0.00     0.083 HD  
ENDROOT
BRANCH   1   7
ATOM     7   C4  UNL     1       0.209   2.243  -0.284  1.00  0.00     0.117 C   
BRANCH   7   8
ATOM     8   C2  UNL     1      -0.734   2.388   0.939  1.00  0.00     0.037 C   
ATOM     9   C1  UNL     1      -1.068   1.084   1.671  1.00  0.00     0.014 C   
ATOM     10  C3  UNL     1      -0.247   3.454   1.927  1.00  0.00     0.014 C   
ENDBRANCH   7   8
BRANCH   7  11
ATOM     11  N1  UNL     1      -0.382   1.218  -1.230  1.00  0.00     0.249 N   
ATOM     12  H9  UNL     1      -1.407   1.246  -1.195  1.00  0.00     0.199 HD  
ATOM     13  H10 UNL     1      -0.117   0.260  -0.932  1.00  0.00     0.199 HD  
BRANCH  11  14
ATOM     14  C5  UNL     1       0.028   1.349  -2.659  1.00  0.00     0.164 C   
BRANCH  14  15
ATOM     15  C6  UNL     1      -0.964   0.666  -3.564  1.00  0.00    -0.002 A   
ATOM     16  C7  UNL     1      -1.961   1.420  -4.225  1.00  0.00     0.012 A   
ATOM     17  C11 UNL     1      -0.938  -0.731  -3.721  1.00  0.00     0.045 A   
ATOM     18  C8  UNL     1      -2.911   0.796  -5.040  1.00  0.00     0.037 A   
ATOM     19  C10 UNL     1      -1.888  -1.315  -4.532  1.00  0.00     0.109 A   
ATOM     20  C9  UNL     1      -2.848  -0.573  -5.173  1.00  0.00     0.108 A   
ATOM     21  O1  UNL     1      -1.996  -2.645  -4.796  1.00  0.00    -0.316 OA  
ATOM     22  O2  UNL     1      -3.685  -1.341  -5.918  1.00  0.00    -0.316 OA  
ATOM     23  C12 UNL     1      -3.124  -2.653  -5.700  1.00  0.00     0.337 C   
ENDBRANCH  14  15
ENDBRANCH  11  14
ENDBRANCH   7  11
ENDBRANCH   1   7
BRANCH   3  24
ATOM     24  C15 UNL     1       4.521   0.147   1.055  1.00  0.00     0.139 C   
BRANCH  24  25
ATOM     25  C16 UNL     1       4.429  -1.194   0.294  1.00  0.00     0.058 C   
BRANCH  25  26
ATOM     26  C17 UNL     1       3.018  -1.735   0.241  1.00  0.00    -0.028 A   
ATOM     27  C18 UNL     1       2.487  -2.522   1.261  1.00  0.00     0.008 A   
ATOM     28  C21 UNL     1       2.159  -1.339  -0.785  1.00  0.00     0.116 A   
ATOM     29  C19 UNL     1       1.135  -2.861   1.228  1.00  0.00     0.041 A   
ATOM     30  N3  UNL     1       0.823  -1.548  -0.788  1.00  0.00    -0.244 NA  
ATOM     31  C20 UNL     1       0.362  -2.350   0.199  1.00  0.00     0.129 A   
ATOM     32  CL1 UNL     1      -1.325  -2.619   0.135  1.00  0.00    -0.062 Cl  
ENDBRANCH  25  26
ENDBRANCH  24  25
ENDBRANCH   3  24
TORSDOF 8
