REMARK SMILES CC(C)C[C@H]([NH2+]Cc1ccc2c(c1)OCO2)c1cn(Cc2ccnc(F)c2F)nn1
REMARK SMILES IDX 17 1 18 2 19 3 29 4 30 5 5 7 4 8 2 9 1 10 3 11 6 12 7 15
REMARK SMILES IDX 8 16 9 17 13 18 10 19 12 20 11 21 14 22 16 23 15 24 20 25
REMARK SMILES IDX 21 26 22 27 27 28 23 29 25 30 24 31 28 32 26 33
REMARK H PARENT 18 6 6 13 6 14
ROOT
ATOM     1   C14 UNL     1       1.708  -0.468   1.000  1.00  0.00     0.127 A   
ATOM     2   C15 UNL     1       0.832  -0.016   1.961  1.00  0.00     0.046 A   
ATOM     3   N2  UNL     1       1.414   1.130   2.426  1.00  0.00    -0.208 N   
ATOM     4   N4  UNL     1       2.584   1.362   1.801  1.00  0.00    -0.076 NA  
ATOM     5   N5  UNL     1       2.774   0.390   0.922  1.00  0.00    -0.132 NA  
ATOM     6   H20 UNL     1      -0.125  -0.369   2.322  1.00  0.00     0.083 HD  
ENDROOT
BRANCH   1   7
ATOM     7   C5  UNL     1       1.616  -1.617   0.054  1.00  0.00     0.114 C   
BRANCH   7   8
ATOM     8   C4  UNL     1       2.540  -2.786   0.451  1.00  0.00     0.064 C   
BRANCH   8   9
ATOM     9   C2  UNL     1       2.207  -3.453   1.803  1.00  0.00    -0.012 C   
ATOM     10  C1  UNL     1       3.239  -4.543   2.108  1.00  0.00     0.007 C   
ATOM     11  C3  UNL     1       0.801  -4.055   1.827  1.00  0.00     0.007 C   
ENDBRANCH   8   9
ENDBRANCH   7   8
BRANCH   7  12
ATOM     12  N1  UNL     1       2.034  -1.183  -1.339  1.00  0.00     0.249 N   
ATOM     13  H11 UNL     1       2.975  -0.777  -1.247  1.00  0.00     0.199 HD  
ATOM     14  H12 UNL     1       2.110  -2.002  -1.949  1.00  0.00     0.199 HD  
BRANCH  12  15
ATOM     15  C6  UNL     1       1.172  -0.157  -2.002  1.00  0.00     0.164 C   
BRANCH  15  16
ATOM     16  C7  UNL     1      -0.236  -0.630  -2.233  1.00  0.00    -0.002 A   
ATOM     17  C8  UNL     1      -0.517  -1.591  -3.234  1.00  0.00     0.012 A   
ATOM     18  C12 UNL     1      -1.281  -0.147  -1.426  1.00  0.00     0.045 A   
ATOM     19  C9  UNL     1      -1.818  -2.070  -3.424  1.00  0.00     0.037 A   
ATOM     20  C11 UNL     1      -2.550  -0.643  -1.637  1.00  0.00     0.109 A   
ATOM     21  C10 UNL     1      -2.812  -1.579  -2.607  1.00  0.00     0.108 A   
ATOM     22  O1  UNL     1      -3.661  -0.294  -0.938  1.00  0.00    -0.316 OA  
ATOM     23  O2  UNL     1      -4.123  -1.933  -2.644  1.00  0.00    -0.316 OA  
ATOM     24  C13 UNL     1      -4.669  -1.082  -1.613  1.00  0.00     0.337 C   
ENDBRANCH  15  16
ENDBRANCH  12  15
ENDBRANCH   7  12
ENDBRANCH   1   7
BRANCH   3  25
ATOM     25  C16 UNL     1       0.905   2.060   3.422  1.00  0.00     0.172 C   
BRANCH  25  26
ATOM     26  C17 UNL     1       0.366   3.309   2.783  1.00  0.00     0.014 A   
ATOM     27  C18 UNL     1       0.984   4.551   2.973  1.00  0.00     0.029 A   
ATOM     28  C21 UNL     1      -0.766   3.265   1.967  1.00  0.00     0.182 A   
ATOM     29  C19 UNL     1       0.452   5.670   2.343  1.00  0.00     0.115 A   
ATOM     30  C20 UNL     1      -1.225   4.432   1.376  1.00  0.00     0.249 A   
ATOM     31  N3  UNL     1      -0.636   5.636   1.543  1.00  0.00    -0.226 NA  
ATOM     32  F2  UNL     1      -1.388   2.097   1.743  1.00  0.00    -0.202 F   
ATOM     33  F1  UNL     1      -2.297   4.372   0.573  1.00  0.00    -0.182 F   
ENDBRANCH  25  26
ENDBRANCH   3  25
TORSDOF 8
