REMARK SMILES CC(C)C[C@H]([NH2+]Cc1ccc2c(c1)OCO2)c1cn(C(=O)c2ccc(Cl)nc2)nn1
REMARK SMILES IDX 17 1 18 2 19 3 29 4 30 5 5 6 4 7 2 8 1 9 3 10 6 11 7 14 8 15
REMARK SMILES IDX 9 16 13 17 10 18 12 19 11 20 14 21 16 22 15 23 20 24 21 25
REMARK SMILES IDX 22 26 23 27 28 28 24 29 27 30 25 31 26 32
REMARK H PARENT 6 12 6 13
ROOT
ATOM     1   C14 UNL     1      -1.578  -0.193   1.397  1.00  0.00     0.127 A   
ATOM     2   C15 UNL     1      -1.838  -0.509   2.709  1.00  0.00     0.139 A   
ATOM     3   N2  UNL     1      -0.991  -1.564   3.002  1.00  0.00    -0.143 N   
ATOM     4   N4  UNL     1      -0.249  -1.849   1.904  1.00  0.00    -0.068 NA  
ATOM     5   N5  UNL     1      -0.596  -1.024   0.928  1.00  0.00    -0.131 NA  
ENDROOT
BRANCH   1   6
ATOM     6   C5  UNL     1      -2.169   0.843   0.496  1.00  0.00     0.114 C   
BRANCH   6   7
ATOM     7   C4  UNL     1      -3.614   0.523   0.062  1.00  0.00     0.064 C   
BRANCH   7   8
ATOM     8   C2  UNL     1      -3.917  -0.872  -0.532  1.00  0.00    -0.012 C   
ATOM     9   C1  UNL     1      -3.235  -1.140  -1.872  1.00  0.00     0.007 C   
ATOM     10  C3  UNL     1      -5.434  -1.024  -0.703  1.00  0.00     0.007 C   
ENDBRANCH   7   8
ENDBRANCH   6   7
BRANCH   6  11
ATOM     11  N1  UNL     1      -1.310   1.078  -0.713  1.00  0.00     0.249 N   
ATOM     12  H11 UNL     1      -0.937   0.165  -1.008  1.00  0.00     0.199 HD  
ATOM     13  H12 UNL     1      -1.856   1.437  -1.504  1.00  0.00     0.199 HD  
BRANCH  11  14
ATOM     14  C6  UNL     1      -0.132   1.964  -0.496  1.00  0.00     0.164 C   
BRANCH  14  15
ATOM     15  C7  UNL     1       0.707   2.028  -1.740  1.00  0.00    -0.002 A   
ATOM     16  C8  UNL     1       1.704   1.050  -1.975  1.00  0.00     0.012 A   
ATOM     17  C12 UNL     1       0.468   3.019  -2.707  1.00  0.00     0.045 A   
ATOM     18  C9  UNL     1       2.464   1.067  -3.150  1.00  0.00     0.037 A   
ATOM     19  C11 UNL     1       1.234   3.006  -3.854  1.00  0.00     0.109 A   
ATOM     20  C10 UNL     1       2.204   2.058  -4.070  1.00  0.00     0.108 A   
ATOM     21  O1  UNL     1       1.132   3.888  -4.882  1.00  0.00    -0.316 OA  
ATOM     22  O2  UNL     1       2.836   2.224  -5.260  1.00  0.00    -0.316 OA  
ATOM     23  C13 UNL     1       2.171   3.403  -5.764  1.00  0.00     0.337 C   
ENDBRANCH  14  15
ENDBRANCH  11  14
ENDBRANCH   6  11
ENDBRANCH   1   6
BRANCH   3  24
ATOM     24  C16 UNL     1      -0.884  -2.293   4.197  1.00  0.00     0.272 C   
ATOM     25  O3  UNL     1      -1.679  -1.982   5.082  1.00  0.00    -0.269 OA  
BRANCH  24  26
ATOM     26  C17 UNL     1       0.075  -3.393   4.467  1.00  0.00     0.058 A   
ATOM     27  C18 UNL     1      -0.252  -4.366   5.420  1.00  0.00     0.018 A   
ATOM     28  C21 UNL     1       1.318  -3.489   3.853  1.00  0.00     0.126 A   
ATOM     29  C19 UNL     1       0.648  -5.395   5.697  1.00  0.00     0.042 A   
ATOM     30  N3  UNL     1       2.210  -4.479   4.102  1.00  0.00    -0.244 NA  
ATOM     31  C20 UNL     1       1.851  -5.406   5.014  1.00  0.00     0.129 A   
ATOM     32  CL1 UNL     1       3.015  -6.632   5.288  1.00  0.00    -0.062 Cl  
ENDBRANCH  24  26
ENDBRANCH   3  24
TORSDOF 8
