REMARK SMILES OCc1ccccc1-n1cc([C@@H]([NH2+]Cc2ccc3c(c2)OCO3)C2CCCCC2)nn1
REMARK SMILES IDX 9 1 10 2 11 3 30 4 31 5 8 6 3 7 4 8 5 9 7 10 6 11 2 12 1 13
REMARK SMILES IDX 12 15 13 16 14 19 15 20 16 21 20 22 17 23 19 24 18 25 21 26
REMARK SMILES IDX 23 27 22 28 24 29 25 30 29 31 26 32 28 33 27 34
REMARK H PARENT 1 14 13 17 13 18
ROOT
ATOM     1   N1  UNL     1       1.315  -0.047  -2.852  1.00  0.00    -0.180 N   
ATOM     2   C8  UNL     1       0.401   0.536  -1.998  1.00  0.00     0.135 A   
ATOM     3   C9  UNL     1       0.792   0.180  -0.727  1.00  0.00     0.127 A   
ATOM     4   N3  UNL     1       1.862  -0.655  -0.808  1.00  0.00    -0.131 NA  
ATOM     5   N4  UNL     1       2.166  -0.797  -2.087  1.00  0.00    -0.071 NA  
ENDROOT
BRANCH   1   6
ATOM     6   C7  UNL     1       1.483   0.017  -4.273  1.00  0.00     0.063 A   
ATOM     7   C2  UNL     1       0.594   0.650  -5.174  1.00  0.00     0.001 A   
ATOM     8   C3  UNL     1       0.929   0.667  -6.550  1.00  0.00     0.008 A   
ATOM     9   C4  UNL     1       2.086   0.063  -7.035  1.00  0.00     0.001 A   
ATOM     10  C6  UNL     1       2.645  -0.602  -4.793  1.00  0.00     0.026 A   
ATOM     11  C5  UNL     1       2.943  -0.577  -6.156  1.00  0.00     0.002 A   
BRANCH   7  12
ATOM     12  C1  UNL     1      -0.708   1.316  -4.819  1.00  0.00     0.193 C   
BRANCH  12  13
ATOM     13  O1  UNL     1      -0.453   2.555  -4.176  1.00  0.00    -0.392 OA  
ATOM     14  H1  UNL     1       0.099   3.081  -4.787  1.00  0.00     0.211 HD  
ENDBRANCH  12  13
ENDBRANCH   7  12
ENDBRANCH   1   6
BRANCH   3  15
ATOM     15  C10 UNL     1       0.219   0.529   0.612  1.00  0.00     0.117 C   
BRANCH  15  16
ATOM     16  N2  UNL     1       0.259  -0.709   1.489  1.00  0.00     0.249 N   
ATOM     17  H10 UNL     1       1.216  -1.083   1.417  1.00  0.00     0.199 HD  
ATOM     18  H11 UNL     1       0.104  -0.473   2.470  1.00  0.00     0.199 HD  
BRANCH  16  19
ATOM     19  C11 UNL     1      -0.686  -1.808   1.124  1.00  0.00     0.164 C   
BRANCH  19  20
ATOM     20  C12 UNL     1      -2.127  -1.415   1.305  1.00  0.00    -0.002 A   
ATOM     21  C13 UNL     1      -2.960  -1.221   0.178  1.00  0.00     0.012 A   
ATOM     22  C17 UNL     1      -2.647  -1.198   2.593  1.00  0.00     0.045 A   
ATOM     23  C14 UNL     1      -4.288  -0.806   0.327  1.00  0.00     0.037 A   
ATOM     24  C16 UNL     1      -3.958  -0.785   2.705  1.00  0.00     0.109 A   
ATOM     25  C15 UNL     1      -4.755  -0.593   1.605  1.00  0.00     0.108 A   
ATOM     26  O2  UNL     1      -4.605  -0.519   3.869  1.00  0.00    -0.316 OA  
ATOM     27  O3  UNL     1      -6.006  -0.184   1.938  1.00  0.00    -0.316 OA  
ATOM     28  C18 UNL     1      -5.917  -0.161   3.378  1.00  0.00     0.337 C   
ENDBRANCH  19  20
ENDBRANCH  16  19
ENDBRANCH  15  16
BRANCH  15  29
ATOM     29  C19 UNL     1       1.008   1.677   1.317  1.00  0.00     0.043 C   
ATOM     30  C20 UNL     1       0.438   2.076   2.698  1.00  0.00     0.010 C   
ATOM     31  C24 UNL     1       1.084   2.963   0.461  1.00  0.00     0.010 C   
ATOM     32  C21 UNL     1      -0.928   2.756   2.598  1.00  0.00     0.001 C   
ATOM     33  C23 UNL     1      -0.269   3.662   0.323  1.00  0.00     0.001 C   
ATOM     34  C22 UNL     1      -0.880   3.978   1.685  1.00  0.00     0.000 C   
ENDBRANCH  15  29
ENDBRANCH   3  15
TORSDOF 8
