REMARK SMILES c1ccc2[nH]c(Cn3cc([C@@H]([NH2+]Cc4ccc5c(c4)OCO5)C4CCCCC4)nn3)nc2c1
REMARK SMILES IDX 8 1 9 2 10 3 29 4 30 5 7 7 6 8 1 9 2 10 33 11 3 12 32 13
REMARK SMILES IDX 4 14 31 15 5 16 11 18 12 19 13 22 14 23 15 24 19 25 16 26
REMARK SMILES IDX 18 27 17 28 20 29 22 30 21 31 23 32 24 33 28 34 25 35 27 36
REMARK SMILES IDX 26 37
REMARK H PARENT 9 6 5 17 12 20 12 21
ROOT
ATOM     1   N2  UNL     1      -1.072  -2.513  -1.886  1.00  0.00    -0.205 N   
ATOM     2   C7  UNL     1      -0.135  -2.118  -0.970  1.00  0.00     0.046 A   
ATOM     3   C8  UNL     1      -0.746  -1.084  -0.298  1.00  0.00     0.127 A   
ATOM     4   N4  UNL     1      -2.017  -0.913  -0.789  1.00  0.00    -0.132 NA  
ATOM     5   N5  UNL     1      -2.205  -1.794  -1.759  1.00  0.00    -0.076 NA  
ATOM     6   H7  UNL     1       0.852  -2.556  -0.930  1.00  0.00     0.083 HD  
ENDROOT
BRANCH   1   7
ATOM     7   C6  UNL     1      -0.929  -3.498  -2.941  1.00  0.00     0.206 C   
BRANCH   7   8
ATOM     8   C5  UNL     1      -0.433  -2.822  -4.173  1.00  0.00     0.118 A   
ATOM     9   C1  UNL     1       1.503  -0.733  -7.666  1.00  0.00     0.002 A   
ATOM     10  C2  UNL     1       0.247  -0.946  -8.241  1.00  0.00     0.002 A   
ATOM     11  C25 UNL     1       1.776  -1.157  -6.358  1.00  0.00     0.030 A   
ATOM     12  C3  UNL     1      -0.778  -1.587  -7.537  1.00  0.00     0.026 A   
ATOM     13  C24 UNL     1       0.761  -1.800  -5.637  1.00  0.00     0.086 A   
ATOM     14  C4  UNL     1      -0.478  -2.000  -6.238  1.00  0.00     0.057 A   
ATOM     15  N6  UNL     1       0.768  -2.300  -4.356  1.00  0.00    -0.234 NA  
ATOM     16  N1  UNL     1      -1.222  -2.649  -5.287  1.00  0.00    -0.300 N   
ATOM     17  H4  UNL     1      -2.182  -2.944  -5.393  1.00  0.00     0.154 HD  
ENDBRANCH   7   8
ENDBRANCH   1   7
BRANCH   3  18
ATOM     18  C9  UNL     1      -0.211  -0.129   0.717  1.00  0.00     0.117 C   
BRANCH  18  19
ATOM     19  N3  UNL     1      -0.655   1.278   0.376  1.00  0.00     0.249 N   
ATOM     20  H9  UNL     1      -1.675   1.236   0.249  1.00  0.00     0.199 HD  
ATOM     21  H10 UNL     1      -0.462   1.913   1.157  1.00  0.00     0.199 HD  
BRANCH  19  22
ATOM     22  C10 UNL     1      -0.093   1.855  -0.884  1.00  0.00     0.164 C   
BRANCH  22  23
ATOM     23  C11 UNL     1       1.384   2.136  -0.800  1.00  0.00    -0.002 A   
ATOM     24  C12 UNL     1       2.312   1.286  -1.450  1.00  0.00     0.012 A   
ATOM     25  C16 UNL     1       1.851   3.230  -0.057  1.00  0.00     0.045 A   
ATOM     26  C13 UNL     1       3.684   1.526  -1.367  1.00  0.00     0.037 A   
ATOM     27  C15 UNL     1       3.213   3.442  -0.002  1.00  0.00     0.109 A   
ATOM     28  C14 UNL     1       4.105   2.616  -0.639  1.00  0.00     0.108 A   
ATOM     29  O1  UNL     1       3.830   4.451   0.666  1.00  0.00    -0.316 OA  
ATOM     30  O2  UNL     1       5.389   3.010  -0.462  1.00  0.00    -0.316 OA  
ATOM     31  C17 UNL     1       5.207   4.214   0.314  1.00  0.00     0.337 C   
ENDBRANCH  22  23
ENDBRANCH  19  22
ENDBRANCH  18  19
BRANCH  18  32
ATOM     32  C18 UNL     1      -0.627  -0.443   2.180  1.00  0.00     0.043 C   
ATOM     33  C19 UNL     1      -0.058  -1.799   2.648  1.00  0.00     0.010 C   
ATOM     34  C23 UNL     1      -2.145  -0.384   2.447  1.00  0.00     0.010 C   
ATOM     35  C20 UNL     1      -0.397  -2.086   4.111  1.00  0.00     0.001 C   
ATOM     36  C22 UNL     1      -2.470  -0.666   3.916  1.00  0.00     0.001 C   
ATOM     37  C21 UNL     1      -1.898  -2.005   4.370  1.00  0.00     0.000 C   
ENDBRANCH  18  32
ENDBRANCH   3  18
TORSDOF 7
