REMARK SMILES CC(C)[C@H]([NH2+]Cc1ccc2c(c1)OCO2)c1cn(CCc2ncccn2)nn1
REMARK SMILES IDX 16 1 17 2 18 3 27 4 28 5 4 7 2 8 1 9 3 10 5 11 6 14 7 15
REMARK SMILES IDX 8 16 12 17 9 18 11 19 10 20 13 21 15 22 14 23 19 24 20 25
REMARK SMILES IDX 21 26 22 27 26 28 23 29 25 30 24 31
REMARK H PARENT 17 6 5 12 5 13
ROOT
ATOM     1   C13 UNL     1       0.167  -1.051   0.675  1.00  0.00     0.127 A   
ATOM     2   C14 UNL     1       0.289  -1.681   1.893  1.00  0.00     0.045 A   
ATOM     3   N2  UNL     1       0.992  -0.790   2.653  1.00  0.00    -0.212 N   
ATOM     4   N5  UNL     1       1.218   0.350   1.976  1.00  0.00    -0.076 NA  
ATOM     5   N6  UNL     1       0.737   0.196   0.755  1.00  0.00    -0.132 NA  
ATOM     6   H18 UNL     1      -0.001  -2.656   2.262  1.00  0.00     0.083 HD  
ENDROOT
BRANCH   1   7
ATOM     7   C4  UNL     1      -0.443  -1.500  -0.615  1.00  0.00     0.117 C   
BRANCH   7   8
ATOM     8   C2  UNL     1       0.427  -2.567  -1.330  1.00  0.00     0.037 C   
ATOM     9   C1  UNL     1       1.772  -2.032  -1.837  1.00  0.00     0.014 C   
ATOM     10  C3  UNL     1      -0.330  -3.240  -2.481  1.00  0.00     0.014 C   
ENDBRANCH   7   8
BRANCH   7  11
ATOM     11  N1  UNL     1      -0.672  -0.321  -1.522  1.00  0.00     0.249 N   
ATOM     12  H9  UNL     1       0.162   0.279  -1.436  1.00  0.00     0.199 HD  
ATOM     13  H10 UNL     1      -0.731  -0.590  -2.508  1.00  0.00     0.199 HD  
BRANCH  11  14
ATOM     14  C5  UNL     1      -1.849   0.524  -1.178  1.00  0.00     0.164 C   
BRANCH  14  15
ATOM     15  C6  UNL     1      -1.902   1.733  -2.068  1.00  0.00    -0.002 A   
ATOM     16  C7  UNL     1      -1.171   2.897  -1.727  1.00  0.00     0.012 A   
ATOM     17  C11 UNL     1      -2.629   1.699  -3.270  1.00  0.00     0.045 A   
ATOM     18  C8  UNL     1      -1.172   4.017  -2.564  1.00  0.00     0.037 A   
ATOM     19  C10 UNL     1      -2.608   2.821  -4.073  1.00  0.00     0.109 A   
ATOM     20  C9  UNL     1      -1.901   3.947  -3.731  1.00  0.00     0.108 A   
ATOM     21  O1  UNL     1      -3.252   2.953  -5.262  1.00  0.00    -0.316 OA  
ATOM     22  O2  UNL     1      -2.013   4.931  -4.660  1.00  0.00    -0.316 OA  
ATOM     23  C12 UNL     1      -2.892   4.307  -5.620  1.00  0.00     0.337 C   
ENDBRANCH  14  15
ENDBRANCH  11  14
ENDBRANCH   7  11
ENDBRANCH   1   7
BRANCH   3  24
ATOM     24  C15 UNL     1       1.478  -0.951   4.007  1.00  0.00     0.142 C   
BRANCH  24  25
ATOM     25  C16 UNL     1       2.921  -1.432   4.053  1.00  0.00     0.098 C   
BRANCH  25  26
ATOM     26  C17 UNL     1       3.029  -2.859   3.594  1.00  0.00     0.129 A   
ATOM     27  N3  UNL     1       2.590  -3.812   4.435  1.00  0.00    -0.241 NA  
ATOM     28  N4  UNL     1       3.511  -3.092   2.359  1.00  0.00    -0.241 NA  
ATOM     29  C18 UNL     1       2.724  -5.087   4.021  1.00  0.00     0.115 A   
ATOM     30  C20 UNL     1       3.628  -4.385   1.998  1.00  0.00     0.115 A   
ATOM     31  C19 UNL     1       3.246  -5.435   2.799  1.00  0.00     0.040 A   
ENDBRANCH  25  26
ENDBRANCH  24  25
ENDBRANCH   3  24
TORSDOF 8
