REMARK SMILES Oc1ccc(CCn2cc([C@@H]([NH2+]Cc3ccc4c(c3)OCO4)C3CCCCC3)nn2)c(Cl)c1
REMARK SMILES IDX 8 1 9 2 10 3 29 4 30 5 7 7 6 8 5 9 2 10 3 11 33 12 4 13
REMARK SMILES IDX 31 14 32 15 1 16 11 18 12 19 13 22 14 23 15 24 19 25 16 26
REMARK SMILES IDX 18 27 17 28 20 29 22 30 21 31 23 32 24 33 28 34 25 35 27 36
REMARK SMILES IDX 26 37
REMARK H PARENT 9 6 1 17 12 20 12 21
ROOT
ATOM     1   N1  UNL     1       1.369   0.180   2.310  1.00  0.00    -0.212 N   
ATOM     2   C7  UNL     1       0.071  -0.078   1.969  1.00  0.00     0.045 A   
ATOM     3   C8  UNL     1       0.180  -0.837   0.824  1.00  0.00     0.127 A   
ATOM     4   N3  UNL     1       1.506  -1.068   0.561  1.00  0.00    -0.132 NA  
ATOM     5   N4  UNL     1       2.221  -0.455   1.488  1.00  0.00    -0.076 NA  
ATOM     6   H8  UNL     1      -0.767   0.359   2.494  1.00  0.00     0.083 HD  
ENDROOT
BRANCH   1   7
ATOM     7   C6  UNL     1       1.859   1.109   3.305  1.00  0.00     0.139 C   
BRANCH   7   8
ATOM     8   C5  UNL     1       1.761   2.572   2.855  1.00  0.00     0.058 C   
BRANCH   8   9
ATOM     9   C4  UNL     1       2.681   2.925   1.704  1.00  0.00    -0.028 A   
ATOM     10  C1  UNL     1       4.498   3.552  -0.338  1.00  0.00     0.073 A   
ATOM     11  C2  UNL     1       4.942   3.489   0.975  1.00  0.00     0.033 A   
ATOM     12  C25 UNL     1       3.167   3.310  -0.651  1.00  0.00     0.054 A   
ATOM     13  C3  UNL     1       4.036   3.176   1.991  1.00  0.00     0.008 A   
ATOM     14  C24 UNL     1       2.260   2.995   0.363  1.00  0.00     0.046 A   
ATOM     15  CL1 UNL     1       0.625   2.689  -0.118  1.00  0.00    -0.084 Cl  
BRANCH  10  16
ATOM     16  O1  UNL     1       5.343   3.850  -1.365  1.00  0.00    -0.361 OA  
ATOM     17  H1  UNL     1       6.226   4.042  -1.006  1.00  0.00     0.218 HD  
ENDBRANCH  10  16
ENDBRANCH   8   9
ENDBRANCH   7   8
ENDBRANCH   1   7
BRANCH   3  18
ATOM     18  C9  UNL     1      -0.850  -1.256  -0.176  1.00  0.00     0.117 C   
BRANCH  18  19
ATOM     19  N2  UNL     1      -0.280  -0.944  -1.542  1.00  0.00     0.249 N   
ATOM     20  H10 UNL     1       0.073   0.022  -1.486  1.00  0.00     0.199 HD  
ATOM     21  H11 UNL     1       0.578  -1.501  -1.657  1.00  0.00     0.199 HD  
BRANCH  19  22
ATOM     22  C10 UNL     1      -1.153  -1.052  -2.735  1.00  0.00     0.164 C   
BRANCH  22  23
ATOM     23  C11 UNL     1      -2.347  -0.142  -2.677  1.00  0.00    -0.002 A   
ATOM     24  C12 UNL     1      -2.185   1.261  -2.783  1.00  0.00     0.012 A   
ATOM     25  C16 UNL     1      -3.633  -0.675  -2.483  1.00  0.00     0.045 A   
ATOM     26  C13 UNL     1      -3.284   2.122  -2.690  1.00  0.00     0.037 A   
ATOM     27  C15 UNL     1      -4.695   0.201  -2.397  1.00  0.00     0.109 A   
ATOM     28  C14 UNL     1      -4.526   1.560  -2.494  1.00  0.00     0.108 A   
ATOM     29  O2  UNL     1      -5.993  -0.149  -2.205  1.00  0.00    -0.316 OA  
ATOM     30  O3  UNL     1      -5.697   2.238  -2.378  1.00  0.00    -0.316 OA  
ATOM     31  C17 UNL     1      -6.632   1.149  -2.223  1.00  0.00     0.337 C   
ENDBRANCH  22  23
ENDBRANCH  19  22
ENDBRANCH  18  19
BRANCH  18  32
ATOM     32  C18 UNL     1      -1.288  -2.737  -0.067  1.00  0.00     0.043 C   
ATOM     33  C19 UNL     1      -0.164  -3.763  -0.305  1.00  0.00     0.010 C   
ATOM     34  C23 UNL     1      -1.982  -3.014   1.283  1.00  0.00     0.010 C   
ATOM     35  C20 UNL     1      -0.682  -5.198  -0.210  1.00  0.00     0.001 C   
ATOM     36  C22 UNL     1      -2.499  -4.449   1.369  1.00  0.00     0.001 C   
ATOM     37  C21 UNL     1      -1.386  -5.460   1.117  1.00  0.00     0.000 C   
ENDBRANCH  18  32
ENDBRANCH   3  18
TORSDOF 9
