REMARK SMILES c1cc2[nH]cnc2c(-n2cc([C@@H]([NH2+]Cc3ccc4c(c3)OCO4)C3CCCCC3)nn2)n1
REMARK SMILES IDX 12 1 11 2 9 3 10 4 31 5 30 6 8 7 1 8 2 9 32 10 3 11 4 12
REMARK SMILES IDX 7 13 5 14 6 15 13 17 14 20 15 21 16 22 20 23 17 24 19 25
REMARK SMILES IDX 18 26 21 27 23 28 22 29 24 30 25 31 29 32 26 33 28 34 27 35
REMARK H PARENT 4 16 13 18 13 19
ROOT
ATOM     1   C9  UNL     1       0.746   0.448   0.357  1.00  0.00     0.117 C   
ENDROOT
BRANCH   1   2
ATOM     2   C8  UNL     1      -0.704   0.382   0.714  1.00  0.00     0.128 A   
ATOM     3   N3  UNL     1      -2.767  -0.127   1.251  1.00  0.00    -0.160 N   
ATOM     4   C7  UNL     1      -1.516  -0.681   1.028  1.00  0.00     0.137 A   
ATOM     5   N6  UNL     1      -2.690   1.213   1.049  1.00  0.00    -0.069 NA  
ATOM     6   N5  UNL     1      -1.445   1.531   0.736  1.00  0.00    -0.131 NA  
BRANCH   3   7
ATOM     7   C6  UNL     1      -3.937  -0.827   1.615  1.00  0.00     0.173 A   
ATOM     8   C1  UNL     1      -4.962  -2.884   2.131  1.00  0.00     0.115 A   
ATOM     9   C2  UNL     1      -6.213  -2.329   2.351  1.00  0.00     0.046 A   
ATOM     10  N7  UNL     1      -3.855  -2.191   1.777  1.00  0.00    -0.237 NA  
ATOM     11  C3  UNL     1      -6.273  -0.950   2.177  1.00  0.00     0.062 A   
ATOM     12  N1  UNL     1      -7.306  -0.053   2.298  1.00  0.00    -0.304 N   
ATOM     13  C5  UNL     1      -5.169  -0.177   1.813  1.00  0.00     0.128 A   
ATOM     14  C4  UNL     1      -6.818   1.189   2.013  1.00  0.00     0.187 A   
ATOM     15  N2  UNL     1      -5.540   1.148   1.715  1.00  0.00    -0.236 NA  
ATOM     16  H3  UNL     1      -8.259  -0.269   2.554  1.00  0.00     0.154 HD  
ENDBRANCH   3   7
ENDBRANCH   1   2
BRANCH   1  17
ATOM     17  N4  UNL     1       1.034   1.714  -0.415  1.00  0.00     0.249 N   
ATOM     18  H7  UNL     1       0.502   2.461   0.057  1.00  0.00     0.199 HD  
ATOM     19  H8  UNL     1       2.022   1.970  -0.357  1.00  0.00     0.199 HD  
BRANCH  17  20
ATOM     20  C10 UNL     1       0.611   1.718  -1.847  1.00  0.00     0.164 C   
BRANCH  20  21
ATOM     21  C11 UNL     1       1.464   0.823  -2.702  1.00  0.00    -0.002 A   
ATOM     22  C12 UNL     1       0.932  -0.376  -3.235  1.00  0.00     0.012 A   
ATOM     23  C16 UNL     1       2.807   1.156  -2.957  1.00  0.00     0.045 A   
ATOM     24  C13 UNL     1       1.725  -1.237  -4.002  1.00  0.00     0.037 A   
ATOM     25  C15 UNL     1       3.560   0.284  -3.715  1.00  0.00     0.109 A   
ATOM     26  C14 UNL     1       3.036  -0.879  -4.222  1.00  0.00     0.108 A   
ATOM     27  O1  UNL     1       4.867   0.452  -4.045  1.00  0.00    -0.316 OA  
ATOM     28  O2  UNL     1       3.947  -1.590  -4.935  1.00  0.00    -0.316 OA  
ATOM     29  C17 UNL     1       5.102  -0.729  -4.846  1.00  0.00     0.337 C   
ENDBRANCH  20  21
ENDBRANCH  17  20
ENDBRANCH   1  17
BRANCH   1  30
ATOM     30  C18 UNL     1       1.662   0.358   1.608  1.00  0.00     0.043 C   
ATOM     31  C19 UNL     1       3.128   0.074   1.219  1.00  0.00     0.010 C   
ATOM     32  C23 UNL     1       1.584   1.589   2.533  1.00  0.00     0.010 C   
ATOM     33  C20 UNL     1       4.016  -0.085   2.451  1.00  0.00     0.001 C   
ATOM     34  C22 UNL     1       2.479   1.425   3.761  1.00  0.00     0.001 C   
ATOM     35  C21 UNL     1       3.923   1.127   3.372  1.00  0.00     0.000 C   
ENDBRANCH   1  30
TORSDOF 6
