REMARK SMILES CC(C)[C@H]([NH2+]Cc1ccc2c(c1)OCO2)c1cn(-c2ccccc2N)nn1
REMARK SMILES IDX 16 1 17 2 18 3 26 4 27 5 4 6 2 7 1 8 3 9 5 10 6 13 7 14 8 15
REMARK SMILES IDX 12 16 9 17 11 18 10 19 13 20 15 21 14 22 19 23 20 24 24 25
REMARK SMILES IDX 21 26 23 27 22 28 25 29
REMARK H PARENT 5 11 5 12 25 30 25 31
ROOT
ATOM     1   C13 UNL     1       0.858   0.192   0.454  1.00  0.00     0.127 A   
ATOM     2   C14 UNL     1       1.607   0.013   1.593  1.00  0.00     0.135 A   
ATOM     3   N2  UNL     1       2.461   1.098   1.653  1.00  0.00    -0.179 N   
ATOM     4   N4  UNL     1       2.172   1.917   0.599  1.00  0.00    -0.071 NA  
ATOM     5   N5  UNL     1       1.223   1.366  -0.138  1.00  0.00    -0.131 NA  
ENDROOT
BRANCH   1   6
ATOM     6   C4  UNL     1      -0.259  -0.612  -0.127  1.00  0.00     0.117 C   
BRANCH   6   7
ATOM     7   C2  UNL     1       0.196  -1.689  -1.146  1.00  0.00     0.037 C   
ATOM     8   C1  UNL     1       0.940  -1.129  -2.364  1.00  0.00     0.014 C   
ATOM     9   C3  UNL     1       1.042  -2.778  -0.478  1.00  0.00     0.014 C   
ENDBRANCH   6   7
BRANCH   6  10
ATOM     10  N1  UNL     1      -1.249   0.301  -0.808  1.00  0.00     0.249 N   
ATOM     11  H9  UNL     1      -0.703   0.971  -1.371  1.00  0.00     0.199 HD  
ATOM     12  H10 UNL     1      -1.844  -0.213  -1.466  1.00  0.00     0.199 HD  
BRANCH  10  13
ATOM     13  C5  UNL     1      -2.110   1.099   0.108  1.00  0.00     0.164 C   
BRANCH  13  14
ATOM     14  C6  UNL     1      -2.995   2.024  -0.679  1.00  0.00    -0.002 A   
ATOM     15  C7  UNL     1      -2.521   3.303  -1.062  1.00  0.00     0.012 A   
ATOM     16  C11 UNL     1      -4.274   1.609  -1.086  1.00  0.00     0.045 A   
ATOM     17  C8  UNL     1      -3.315   4.162  -1.829  1.00  0.00     0.037 A   
ATOM     18  C10 UNL     1      -5.029   2.481  -1.841  1.00  0.00     0.109 A   
ATOM     19  C9  UNL     1      -4.565   3.721  -2.202  1.00  0.00     0.108 A   
ATOM     20  O1  UNL     1      -6.281   2.238  -2.311  1.00  0.00    -0.316 OA  
ATOM     21  O2  UNL     1      -5.466   4.417  -2.942  1.00  0.00    -0.316 OA  
ATOM     22  C12 UNL     1      -6.563   3.480  -2.996  1.00  0.00     0.337 C   
ENDBRANCH  13  14
ENDBRANCH  10  13
ENDBRANCH   6  10
ENDBRANCH   1   6
BRANCH   3  23
ATOM     23  C15 UNL     1       3.452   1.446   2.612  1.00  0.00     0.078 A   
ATOM     24  C16 UNL     1       4.014   2.738   2.532  1.00  0.00     0.028 A   
ATOM     25  C20 UNL     1       3.856   0.580   3.648  1.00  0.00     0.047 A   
ATOM     26  C17 UNL     1       4.960   3.169   3.462  1.00  0.00     0.002 A   
ATOM     27  C19 UNL     1       4.839   1.025   4.551  1.00  0.00     0.025 A   
ATOM     28  C18 UNL     1       5.370   2.312   4.474  1.00  0.00     0.002 A   
BRANCH  25  29
ATOM     29  N3  UNL     1       3.534  -0.798   3.678  1.00  0.00    -0.357 N   
ATOM     30  H23 UNL     1       4.207  -1.310   3.104  1.00  0.00     0.143 HD  
ATOM     31  H24 UNL     1       3.612  -1.168   4.627  1.00  0.00     0.143 HD  
ENDBRANCH  25  29
ENDBRANCH   3  23
TORSDOF 7
