REMARK SMILES CC(C)[C@H]([NH2+]Cc1ccc2c(c1)OCO2)c1cn(CCc2cc(F)ccc2O)nn1
REMARK SMILES IDX 16 1 17 2 18 3 29 4 30 5 4 7 2 8 1 9 3 10 5 11 6 14 7 15
REMARK SMILES IDX 8 16 12 17 9 18 11 19 10 20 13 21 15 22 14 23 19 24 20 25
REMARK SMILES IDX 21 26 22 27 27 28 23 29 26 30 25 31 24 32 28 33
REMARK H PARENT 17 6 5 12 5 13 28 34
ROOT
ATOM     1   C13 UNL     1       0.361  -1.227  -1.667  1.00  0.00     0.127 A   
ATOM     2   C14 UNL     1      -0.434  -0.135  -1.939  1.00  0.00     0.045 A   
ATOM     3   N2  UNL     1      -1.596  -0.683  -2.406  1.00  0.00    -0.212 N   
ATOM     4   N3  UNL     1      -1.519  -2.026  -2.433  1.00  0.00    -0.076 NA  
ATOM     5   N4  UNL     1      -0.329  -2.373  -1.972  1.00  0.00    -0.132 NA  
ATOM     6   H18 UNL     1      -0.303   0.931  -1.819  1.00  0.00     0.083 HD  
ENDROOT
BRANCH   1   7
ATOM     7   C4  UNL     1       1.712  -1.329  -1.039  1.00  0.00     0.117 C   
BRANCH   7   8
ATOM     8   C2  UNL     1       2.873  -1.520  -2.049  1.00  0.00     0.037 C   
ATOM     9   C1  UNL     1       3.031  -0.296  -2.959  1.00  0.00     0.014 C   
ATOM     10  C3  UNL     1       2.773  -2.789  -2.904  1.00  0.00     0.014 C   
ENDBRANCH   7   8
BRANCH   7  11
ATOM     11  N1  UNL     1       1.732  -2.479  -0.055  1.00  0.00     0.249 N   
ATOM     12  H9  UNL     1       1.324  -3.286  -0.549  1.00  0.00     0.199 HD  
ATOM     13  H10 UNL     1       2.696  -2.725   0.188  1.00  0.00     0.199 HD  
BRANCH  11  14
ATOM     14  C5  UNL     1       0.939  -2.287   1.197  1.00  0.00     0.164 C   
BRANCH  14  15
ATOM     15  C6  UNL     1       1.547  -1.263   2.115  1.00  0.00    -0.002 A   
ATOM     16  C7  UNL     1       0.979   0.030   2.219  1.00  0.00     0.012 A   
ATOM     17  C11 UNL     1       2.704  -1.570   2.852  1.00  0.00     0.045 A   
ATOM     18  C8  UNL     1       1.552   1.005   3.042  1.00  0.00     0.037 A   
ATOM     19  C10 UNL     1       3.244  -0.586   3.653  1.00  0.00     0.109 A   
ATOM     20  C9  UNL     1       2.686   0.665   3.746  1.00  0.00     0.108 A   
ATOM     21  O1  UNL     1       4.357  -0.717   4.422  1.00  0.00    -0.316 OA  
ATOM     22  O2  UNL     1       3.375   1.479   4.586  1.00  0.00    -0.316 OA  
ATOM     23  C12 UNL     1       4.419   0.590   5.039  1.00  0.00     0.337 C   
ENDBRANCH  14  15
ENDBRANCH  11  14
ENDBRANCH   7  11
ENDBRANCH   1   7
BRANCH   3  24
ATOM     24  C15 UNL     1      -2.832  -0.005  -2.741  1.00  0.00     0.139 C   
BRANCH  24  25
ATOM     25  C16 UNL     1      -3.962  -0.312  -1.755  1.00  0.00     0.060 C   
BRANCH  25  26
ATOM     26  C17 UNL     1      -3.632   0.081  -0.332  1.00  0.00    -0.013 A   
ATOM     27  C18 UNL     1      -3.249  -0.903   0.591  1.00  0.00     0.045 A   
ATOM     28  C22 UNL     1      -3.670   1.415   0.090  1.00  0.00     0.075 A   
ATOM     29  C19 UNL     1      -2.915  -0.544   1.893  1.00  0.00     0.123 A   
ATOM     30  C21 UNL     1      -3.352   1.770   1.402  1.00  0.00     0.036 A   
ATOM     31  C20 UNL     1      -2.970   0.781   2.308  1.00  0.00     0.042 A   
ATOM     32  F1  UNL     1      -2.494  -1.488   2.744  1.00  0.00    -0.207 F   
BRANCH  28  33
ATOM     33  O3  UNL     1      -4.011   2.374  -0.819  1.00  0.00    -0.361 OA  
ATOM     34  H26 UNL     1      -4.215   3.201  -0.347  1.00  0.00     0.218 HD  
ENDBRANCH  28  33
ENDBRANCH  25  26
ENDBRANCH  24  25
ENDBRANCH   3  24
TORSDOF 9
