REMARK SMILES Cn1ccc2c(Cn3cc([C@@H]([NH2+]Cc4ccc5c(c4)OCO5)C4CCCC4)nn3)cccc21
REMARK SMILES IDX 8 1 9 2 10 3 28 4 29 5 7 7 6 8 2 9 3 10 33 11 4 12 5 13
REMARK SMILES IDX 32 14 31 15 30 16 1 17 11 18 12 19 13 22 14 23 15 24 19 25
REMARK SMILES IDX 16 26 18 27 17 28 20 29 22 30 21 31 23 32 24 33 27 34 25 35
REMARK SMILES IDX 26 36
REMARK H PARENT 9 6 12 20 12 21
ROOT
ATOM     1   N2  UNL     1       0.435   3.072   1.399  1.00  0.00    -0.208 N   
ATOM     2   C7  UNL     1      -0.053   1.816   1.651  1.00  0.00     0.046 A   
ATOM     3   C8  UNL     1       1.025   0.991   1.422  1.00  0.00     0.127 A   
ATOM     4   N4  UNL     1       2.122   1.754   1.110  1.00  0.00    -0.132 NA  
ATOM     5   N5  UNL     1       1.751   3.024   1.107  1.00  0.00    -0.076 NA  
ATOM     6   H8  UNL     1      -1.091   1.636   1.892  1.00  0.00     0.083 HD  
ENDROOT
BRANCH   1   7
ATOM     7   C6  UNL     1      -0.284   4.338   1.370  1.00  0.00     0.170 C   
BRANCH   7   8
ATOM     8   C5  UNL     1      -1.559   4.237   0.563  1.00  0.00    -0.019 A   
ATOM     9   N1  UNL     1      -2.528   3.454  -2.793  1.00  0.00    -0.310 N   
ATOM     10  C2  UNL     1      -1.180   3.288  -2.966  1.00  0.00     0.075 A   
ATOM     11  C26 UNL     1      -2.804   3.804  -1.486  1.00  0.00     0.040 A   
ATOM     12  C3  UNL     1      -0.566   3.561  -1.766  1.00  0.00     0.026 A   
ATOM     13  C4  UNL     1      -1.580   3.883  -0.814  1.00  0.00     0.002 A   
ATOM     14  C25 UNL     1      -4.025   4.070  -0.850  1.00  0.00     0.024 A   
ATOM     15  C24 UNL     1      -3.997   4.430   0.498  1.00  0.00     0.002 A   
ATOM     16  C23 UNL     1      -2.792   4.514   1.191  1.00  0.00     0.006 A   
ATOM     17  C1  UNL     1      -3.519   3.309  -3.839  1.00  0.00     0.136 C   
ENDBRANCH   7   8
ENDBRANCH   1   7
BRANCH   3  18
ATOM     18  C9  UNL     1       1.140  -0.498   1.402  1.00  0.00     0.117 C   
BRANCH  18  19
ATOM     19  N3  UNL     1       2.236  -0.910   0.448  1.00  0.00     0.249 N   
ATOM     20  H10 UNL     1       3.028  -0.279   0.639  1.00  0.00     0.199 HD  
ATOM     21  H11 UNL     1       2.557  -1.863   0.632  1.00  0.00     0.199 HD  
BRANCH  19  22
ATOM     22  C10 UNL     1       1.920  -0.764  -1.006  1.00  0.00     0.164 C   
BRANCH  22  23
ATOM     23  C11 UNL     1       0.925  -1.783  -1.491  1.00  0.00    -0.002 A   
ATOM     24  C12 UNL     1      -0.394  -1.392  -1.827  1.00  0.00     0.012 A   
ATOM     25  C16 UNL     1       1.295  -3.136  -1.597  1.00  0.00     0.045 A   
ATOM     26  C13 UNL     1      -1.335  -2.337  -2.254  1.00  0.00     0.037 A   
ATOM     27  C15 UNL     1       0.344  -4.040  -2.023  1.00  0.00     0.109 A   
ATOM     28  C14 UNL     1      -0.935  -3.653  -2.343  1.00  0.00     0.108 A   
ATOM     29  O1  UNL     1       0.536  -5.378  -2.176  1.00  0.00    -0.316 OA  
ATOM     30  O2  UNL     1      -1.709  -4.697  -2.741  1.00  0.00    -0.316 OA  
ATOM     31  C17 UNL     1      -0.753  -5.780  -2.694  1.00  0.00     0.337 C   
ENDBRANCH  22  23
ENDBRANCH  19  22
ENDBRANCH  18  19
BRANCH  18  32
ATOM     32  C18 UNL     1       1.393  -1.068   2.812  1.00  0.00     0.043 C   
ATOM     33  C19 UNL     1       2.739  -0.717   3.467  1.00  0.00     0.010 C   
ATOM     34  C22 UNL     1       1.318  -2.594   2.913  1.00  0.00     0.010 C   
ATOM     35  C20 UNL     1       3.095  -1.905   4.365  1.00  0.00     0.001 C   
ATOM     36  C21 UNL     1       1.911  -2.860   4.289  1.00  0.00     0.001 C   
ENDBRANCH  18  32
ENDBRANCH   3  18
TORSDOF 7
