REMARK SMILES CC(C)(C)[C@H]([NH2+]Cc1ccc2c(c1)OCO2)c1cn(CCc2cc(F)ccc2O)nn1
REMARK SMILES IDX 17 1 18 2 19 3 30 4 31 5 5 7 2 8 1 9 3 10 4 11 6 12 7 15
REMARK SMILES IDX 8 16 9 17 13 18 10 19 12 20 11 21 14 22 16 23 15 24 20 25
REMARK SMILES IDX 21 26 22 27 23 28 28 29 24 30 27 31 26 32 25 33 29 34
REMARK H PARENT 18 6 6 13 6 14 29 35
ROOT
ATOM     1   C14 UNL     1      -1.388   0.549  -1.233  1.00  0.00     0.127 A   
ATOM     2   C15 UNL     1      -1.931  -0.626  -1.709  1.00  0.00     0.045 A   
ATOM     3   N2  UNL     1      -1.219  -0.878  -2.849  1.00  0.00    -0.212 N   
ATOM     4   N3  UNL     1      -0.303   0.085  -3.071  1.00  0.00    -0.076 NA  
ATOM     5   N4  UNL     1      -0.403   0.970  -2.095  1.00  0.00    -0.132 NA  
ATOM     6   H20 UNL     1      -2.689  -1.306  -1.339  1.00  0.00     0.083 HD  
ENDROOT
BRANCH   1   7
ATOM     7   C5  UNL     1      -1.618   1.301   0.044  1.00  0.00     0.120 C   
BRANCH   7   8
ATOM     8   C2  UNL     1      -2.695   2.436  -0.059  1.00  0.00     0.010 C   
ATOM     9   C1  UNL     1      -2.943   3.065   1.334  1.00  0.00     0.017 C   
ATOM     10  C3  UNL     1      -2.276   3.559  -1.029  1.00  0.00     0.017 C   
ATOM     11  C4  UNL     1      -4.043   1.853  -0.542  1.00  0.00     0.017 C   
ENDBRANCH   7   8
BRANCH   7  12
ATOM     12  N1  UNL     1      -0.293   1.872   0.498  1.00  0.00     0.250 N   
ATOM     13  H11 UNL     1      -0.393   2.649   1.154  1.00  0.00     0.199 HD  
ATOM     14  H12 UNL     1       0.149   2.264  -0.347  1.00  0.00     0.199 HD  
BRANCH  12  15
ATOM     15  C6  UNL     1       0.670   0.884   1.064  1.00  0.00     0.164 C   
BRANCH  15  16
ATOM     16  C7  UNL     1       2.025   1.513   1.222  1.00  0.00    -0.002 A   
ATOM     17  C8  UNL     1       2.929   1.528   0.129  1.00  0.00     0.012 A   
ATOM     18  C12 UNL     1       2.383   2.143   2.425  1.00  0.00     0.045 A   
ATOM     19  C9  UNL     1       4.176   2.150   0.236  1.00  0.00     0.037 A   
ATOM     20  C11 UNL     1       3.623   2.746   2.495  1.00  0.00     0.109 A   
ATOM     21  C10 UNL     1       4.494   2.749   1.434  1.00  0.00     0.108 A   
ATOM     22  O1  UNL     1       4.123   3.397   3.578  1.00  0.00    -0.316 OA  
ATOM     23  O2  UNL     1       5.654   3.395   1.715  1.00  0.00    -0.316 OA  
ATOM     24  C13 UNL     1       5.429   3.776   3.091  1.00  0.00     0.337 C   
ENDBRANCH  15  16
ENDBRANCH  12  15
ENDBRANCH   7  12
ENDBRANCH   1   7
BRANCH   3  25
ATOM     25  C16 UNL     1      -1.273  -2.056  -3.692  1.00  0.00     0.139 C   
BRANCH  25  26
ATOM     26  C17 UNL     1      -0.199  -3.084  -3.330  1.00  0.00     0.060 C   
BRANCH  26  27
ATOM     27  C18 UNL     1      -0.318  -3.587  -1.909  1.00  0.00    -0.013 A   
ATOM     28  C19 UNL     1       0.552  -3.102  -0.923  1.00  0.00     0.045 A   
ATOM     29  C23 UNL     1      -1.318  -4.493  -1.536  1.00  0.00     0.075 A   
ATOM     30  C20 UNL     1       0.399  -3.507   0.399  1.00  0.00     0.123 A   
ATOM     31  C22 UNL     1      -1.454  -4.917  -0.214  1.00  0.00     0.036 A   
ATOM     32  C21 UNL     1      -0.592  -4.412   0.760  1.00  0.00     0.042 A   
ATOM     33  F1  UNL     1       1.195  -2.982   1.339  1.00  0.00    -0.207 F   
BRANCH  29  34
ATOM     34  O3  UNL     1      -2.180  -4.937  -2.495  1.00  0.00    -0.361 OA  
ATOM     35  H28 UNL     1      -2.682  -5.697  -2.150  1.00  0.00     0.218 HD  
ENDBRANCH  29  34
ENDBRANCH  26  27
ENDBRANCH  25  26
ENDBRANCH   3  25
TORSDOF 9
