REMARK SMILES Cc1ccc2c(c1)C[C@@H](Cn1cc([C@@H]([NH2+]Cc3ccc4c(c3)OCO4)C3CCCC3)nn1)O2
REMARK SMILES IDX 11 1 12 2 13 3 31 4 32 5 10 7 9 8 2 9 3 10 7 11 4 12 6 13
REMARK SMILES IDX 5 14 8 15 33 16 1 17 14 18 15 19 16 22 17 23 18 24 22 25
REMARK SMILES IDX 19 26 21 27 20 28 23 29 25 30 24 31 26 32 27 33 30 34 28 35
REMARK SMILES IDX 29 36
REMARK H PARENT 12 6 15 20 15 21
ROOT
ATOM     1   N1  UNL     1       0.775   2.382  -0.802  1.00  0.00    -0.210 N   
ATOM     2   C11 UNL     1       1.478   1.213  -0.890  1.00  0.00     0.045 A   
ATOM     3   C12 UNL     1       0.796   0.352  -0.059  1.00  0.00     0.127 A   
ATOM     4   N3  UNL     1      -0.233   1.034   0.544  1.00  0.00    -0.132 NA  
ATOM     5   N4  UNL     1      -0.222   2.278   0.096  1.00  0.00    -0.076 NA  
ATOM     6   H12 UNL     1       2.338   1.105  -1.536  1.00  0.00     0.083 HD  
ENDROOT
BRANCH   1   7
ATOM     7   C10 UNL     1       1.035   3.643  -1.465  1.00  0.00     0.166 C   
BRANCH   7   8
ATOM     8   C9  UNL     1       0.490   3.736  -2.893  1.00  0.00     0.149 C   
ATOM     9   C2  UNL     1      -1.705   0.180  -4.886  1.00  0.00    -0.051 A   
ATOM     10  C3  UNL     1      -0.383  -0.049  -5.318  1.00  0.00     0.006 A   
ATOM     11  C7  UNL     1      -1.998   1.312  -4.110  1.00  0.00     0.010 A   
ATOM     12  C4  UNL     1       0.650   0.820  -4.959  1.00  0.00     0.034 A   
ATOM     13  C6  UNL     1      -0.963   2.166  -3.767  1.00  0.00    -0.015 A   
ATOM     14  C5  UNL     1       0.332   1.914  -4.181  1.00  0.00     0.079 A   
ATOM     15  C8  UNL     1      -1.015   3.452  -3.038  1.00  0.00     0.072 C   
ATOM     16  O3  UNL     1       1.245   2.842  -3.758  1.00  0.00    -0.341 OA  
ATOM     17  C1  UNL     1      -2.814  -0.739  -5.315  1.00  0.00     0.044 C   
ENDBRANCH   7   8
ENDBRANCH   1   7
BRANCH   3  18
ATOM     18  C13 UNL     1       1.034  -1.076   0.308  1.00  0.00     0.117 C   
BRANCH  18  19
ATOM     19  N2  UNL     1       0.546  -1.320   1.719  1.00  0.00     0.249 N   
ATOM     20  H14 UNL     1       0.340  -2.310   1.882  1.00  0.00     0.199 HD  
ATOM     21  H15 UNL     1      -0.352  -0.818   1.811  1.00  0.00     0.199 HD  
BRANCH  19  22
ATOM     22  C14 UNL     1       1.446  -0.824   2.796  1.00  0.00     0.164 C   
BRANCH  22  23
ATOM     23  C15 UNL     1       0.794  -0.977   4.141  1.00  0.00    -0.002 A   
ATOM     24  C16 UNL     1       0.856  -2.210   4.837  1.00  0.00     0.012 A   
ATOM     25  C20 UNL     1       0.070   0.095   4.692  1.00  0.00     0.045 A   
ATOM     26  C17 UNL     1       0.216  -2.370   6.072  1.00  0.00     0.037 A   
ATOM     27  C19 UNL     1      -0.546  -0.096   5.912  1.00  0.00     0.109 A   
ATOM     28  C18 UNL     1      -0.476  -1.293   6.583  1.00  0.00     0.108 A   
ATOM     29  O1  UNL     1      -1.279   0.832   6.581  1.00  0.00    -0.316 OA  
ATOM     30  O2  UNL     1      -1.151  -1.268   7.761  1.00  0.00    -0.316 OA  
ATOM     31  C21 UNL     1      -1.643   0.090   7.768  1.00  0.00     0.337 C   
ENDBRANCH  22  23
ENDBRANCH  19  22
ENDBRANCH  18  19
BRANCH  18  32
ATOM     32  C22 UNL     1       0.346  -2.108  -0.602  1.00  0.00     0.043 C   
ATOM     33  C23 UNL     1      -1.172  -1.983  -0.759  1.00  0.00     0.010 C   
ATOM     34  C26 UNL     1       0.818  -2.108  -2.055  1.00  0.00     0.010 C   
ATOM     35  C24 UNL     1      -1.499  -2.855  -1.971  1.00  0.00     0.001 C   
ATOM     36  C25 UNL     1      -0.191  -3.019  -2.746  1.00  0.00     0.001 C   
ENDBRANCH  18  32
ENDBRANCH   3  18
TORSDOF 7
