REMARK SMILES Cc1ccc2c(c1)C[C@H](Cn1cc([C@@H]([NH2+]Cc3ccc4c(c3)OCO4)C3CCCC3)nn1)O2
REMARK SMILES IDX 11 1 12 2 13 3 31 4 32 5 10 7 9 8 2 9 3 10 7 11 4 12 6 13
REMARK SMILES IDX 5 14 8 15 33 16 1 17 14 18 15 19 16 22 17 23 18 24 22 25
REMARK SMILES IDX 19 26 21 27 20 28 23 29 25 30 24 31 26 32 27 33 30 34 28 35
REMARK SMILES IDX 29 36
REMARK H PARENT 12 6 15 20 15 21
ROOT
ATOM     1   N1  UNL     1       1.443  -1.143   2.304  1.00  0.00    -0.210 N   
ATOM     2   C11 UNL     1       1.534  -0.165   1.356  1.00  0.00     0.045 A   
ATOM     3   C12 UNL     1       0.300   0.444   1.390  1.00  0.00     0.127 A   
ATOM     4   N3  UNL     1      -0.467  -0.149   2.361  1.00  0.00    -0.132 NA  
ATOM     5   N4  UNL     1       0.252  -1.103   2.927  1.00  0.00    -0.076 NA  
ATOM     6   H12 UNL     1       2.410  -0.042   0.734  1.00  0.00     0.083 HD  
ENDROOT
BRANCH   1   7
ATOM     7   C10 UNL     1       2.414  -2.165   2.634  1.00  0.00     0.166 C   
BRANCH   7   8
ATOM     8   C9  UNL     1       2.310  -3.427   1.768  1.00  0.00     0.149 C   
ATOM     9   C2  UNL     1      -1.010  -3.784  -1.445  1.00  0.00    -0.051 A   
ATOM     10  C3  UNL     1       0.040  -3.231  -2.207  1.00  0.00     0.006 A   
ATOM     11  C7  UNL     1      -0.803  -4.082  -0.089  1.00  0.00     0.010 A   
ATOM     12  C4  UNL     1       1.289  -2.982  -1.633  1.00  0.00     0.034 A   
ATOM     13  C6  UNL     1       0.444  -3.833   0.462  1.00  0.00    -0.015 A   
ATOM     14  C5  UNL     1       1.462  -3.290  -0.300  1.00  0.00     0.079 A   
ATOM     15  C8  UNL     1       0.948  -4.143   1.819  1.00  0.00     0.072 C   
ATOM     16  O3  UNL     1       2.631  -3.096   0.386  1.00  0.00    -0.341 OA  
ATOM     17  C1  UNL     1      -2.345  -4.037  -2.084  1.00  0.00     0.044 C   
ENDBRANCH   7   8
ENDBRANCH   1   7
BRANCH   3  18
ATOM     18  C13 UNL     1      -0.312   1.478   0.503  1.00  0.00     0.117 C   
BRANCH  18  19
ATOM     19  N2  UNL     1      -1.751   1.103   0.225  1.00  0.00     0.249 N   
ATOM     20  H14 UNL     1      -2.152   0.847   1.139  1.00  0.00     0.199 HD  
ATOM     21  H15 UNL     1      -2.280   1.907  -0.127  1.00  0.00     0.199 HD  
BRANCH  19  22
ATOM     22  C14 UNL     1      -1.949  -0.063  -0.687  1.00  0.00     0.164 C   
BRANCH  22  23
ATOM     23  C15 UNL     1      -1.912   0.341  -2.135  1.00  0.00    -0.002 A   
ATOM     24  C16 UNL     1      -3.082   0.824  -2.768  1.00  0.00     0.012 A   
ATOM     25  C20 UNL     1      -0.712   0.278  -2.861  1.00  0.00     0.045 A   
ATOM     26  C17 UNL     1      -3.061   1.231  -4.107  1.00  0.00     0.037 A   
ATOM     27  C19 UNL     1      -0.723   0.689  -4.177  1.00  0.00     0.109 A   
ATOM     28  C18 UNL     1      -1.864   1.152  -4.783  1.00  0.00     0.108 A   
ATOM     29  O1  UNL     1       0.348   0.694  -5.013  1.00  0.00    -0.316 OA  
ATOM     30  O2  UNL     1      -1.657   1.504  -6.078  1.00  0.00    -0.316 OA  
ATOM     31  C21 UNL     1      -0.253   1.205  -6.225  1.00  0.00     0.337 C   
ENDBRANCH  22  23
ENDBRANCH  19  22
ENDBRANCH  18  19
BRANCH  18  32
ATOM     32  C22 UNL     1      -0.288   2.912   1.062  1.00  0.00     0.043 C   
ATOM     33  C23 UNL     1      -1.072   3.168   2.359  1.00  0.00     0.010 C   
ATOM     34  C26 UNL     1       1.111   3.459   1.356  1.00  0.00     0.010 C   
ATOM     35  C24 UNL     1      -0.309   4.267   3.104  1.00  0.00     0.001 C   
ATOM     36  C25 UNL     1       0.814   4.706   2.173  1.00  0.00     0.001 C   
ENDBRANCH  18  32
ENDBRANCH   3  18
TORSDOF 7
