REMARK SMILES COc1cccnc1Cn1cc([C@@H]([NH2+]Cc2ccc3c(c2)OCO3)C2CCCC2)nn1
REMARK SMILES IDX 10 1 11 2 12 3 30 4 31 5 9 7 8 8 3 9 4 10 5 11 7 12 6 13
REMARK SMILES IDX 2 14 1 15 13 16 14 17 15 20 16 21 17 22 21 23 18 24 20 25
REMARK SMILES IDX 19 26 22 27 24 28 23 29 25 30 26 31 29 32 27 33 28 34
REMARK H PARENT 11 6 14 18 14 19
ROOT
ATOM     1   N2  UNL     1      -2.591   1.720  -0.199  1.00  0.00    -0.206 N   
ATOM     2   C8  UNL     1      -2.089   1.866   1.067  1.00  0.00     0.046 A   
ATOM     3   C9  UNL     1      -0.797   1.406   0.969  1.00  0.00     0.127 A   
ATOM     4   N4  UNL     1      -0.554   1.017  -0.323  1.00  0.00    -0.132 NA  
ATOM     5   N5  UNL     1      -1.656   1.215  -1.028  1.00  0.00    -0.076 NA  
ATOM     6   H9  UNL     1      -2.691   2.250   1.880  1.00  0.00     0.083 HD  
ENDROOT
BRANCH   1   7
ATOM     7   C7  UNL     1      -3.911   2.083  -0.684  1.00  0.00     0.192 C   
BRANCH   7   8
ATOM     8   C6  UNL     1      -4.916   1.027  -0.303  1.00  0.00     0.090 A   
ATOM     9   C2  UNL     1      -5.307   0.037  -1.213  1.00  0.00     0.098 A   
ATOM     10  C3  UNL     1      -6.249  -0.900  -0.787  1.00  0.00     0.037 A   
ATOM     11  C4  UNL     1      -6.763  -0.829   0.506  1.00  0.00     0.023 A   
ATOM     12  N1  UNL     1      -5.397   1.096   0.973  1.00  0.00    -0.257 NA  
ATOM     13  C5  UNL     1      -6.313   0.175   1.341  1.00  0.00     0.111 A   
BRANCH   9  14
ATOM     14  O1  UNL     1      -4.733   0.073  -2.451  1.00  0.00    -0.347 OA  
ATOM     15  C1  UNL     1      -5.111  -0.939  -3.380  1.00  0.00     0.203 C   
ENDBRANCH   9  14
ENDBRANCH   7   8
ENDBRANCH   1   7
BRANCH   3  16
ATOM     16  C10 UNL     1       0.272   1.243   1.999  1.00  0.00     0.117 C   
BRANCH  16  17
ATOM     17  N3  UNL     1       1.162   0.087   1.631  1.00  0.00     0.249 N   
ATOM     18  H11 UNL     1       1.352   0.175   0.621  1.00  0.00     0.199 HD  
ATOM     19  H12 UNL     1       2.072   0.130   2.098  1.00  0.00     0.199 HD  
BRANCH  17  20
ATOM     20  C11 UNL     1       0.567  -1.261   1.844  1.00  0.00     0.164 C   
BRANCH  20  21
ATOM     21  C12 UNL     1       1.526  -2.332   1.407  1.00  0.00    -0.002 A   
ATOM     22  C13 UNL     1       2.361  -2.976   2.352  1.00  0.00     0.012 A   
ATOM     23  C17 UNL     1       1.640  -2.660   0.044  1.00  0.00     0.045 A   
ATOM     24  C14 UNL     1       3.291  -3.940   1.949  1.00  0.00     0.037 A   
ATOM     25  C16 UNL     1       2.571  -3.610  -0.320  1.00  0.00     0.109 A   
ATOM     26  C15 UNL     1       3.374  -4.231   0.606  1.00  0.00     0.108 A   
ATOM     27  O2  UNL     1       2.815  -4.035  -1.587  1.00  0.00    -0.316 OA  
ATOM     28  O3  UNL     1       4.223  -5.127   0.037  1.00  0.00    -0.316 OA  
ATOM     29  C18 UNL     1       3.857  -5.011  -1.354  1.00  0.00     0.337 C   
ENDBRANCH  20  21
ENDBRANCH  17  20
ENDBRANCH  16  17
BRANCH  16  30
ATOM     30  C19 UNL     1       1.097   2.534   2.171  1.00  0.00     0.043 C   
ATOM     31  C20 UNL     1       2.037   2.534   3.386  1.00  0.00     0.010 C   
ATOM     32  C23 UNL     1       2.023   2.909   1.010  1.00  0.00     0.010 C   
ATOM     33  C21 UNL     1       3.156   3.522   3.047  1.00  0.00     0.001 C   
ATOM     34  C22 UNL     1       2.897   3.994   1.620  1.00  0.00     0.001 C   
ENDBRANCH  16  30
ENDBRANCH   3  16
TORSDOF 8
