REMARK SMILES Cc1cc(F)ccc1CCn1cc([C@H](CC(C)C)[NH2+]Cc2ccc3c(c2)OCO3)nn1
REMARK SMILES IDX 11 1 12 2 13 3 30 4 31 5 10 7 9 8 8 9 2 10 3 11 4 12 7 13
REMARK SMILES IDX 6 14 1 15 5 16 14 17 15 18 16 19 17 20 18 21 19 22 20 25
REMARK SMILES IDX 21 26 22 27 26 28 23 29 25 30 24 31 27 32 29 33 28 34
REMARK H PARENT 12 6 19 23 19 24
ROOT
ATOM     1   N1  UNL     1       2.736  -1.307   0.204  1.00  0.00    -0.212 N   
ATOM     2   C10 UNL     1       1.730  -0.644   0.850  1.00  0.00     0.045 A   
ATOM     3   C11 UNL     1       0.630  -1.452   0.665  1.00  0.00     0.127 A   
ATOM     4   N3  UNL     1       0.994  -2.544  -0.081  1.00  0.00    -0.132 NA  
ATOM     5   N4  UNL     1       2.286  -2.446  -0.351  1.00  0.00    -0.076 NA  
ATOM     6   H11 UNL     1       1.880   0.312   1.331  1.00  0.00     0.083 HD  
ENDROOT
BRANCH   1   7
ATOM     7   C9  UNL     1       4.105  -0.877   0.014  1.00  0.00     0.139 C   
BRANCH   7   8
ATOM     8   C8  UNL     1       4.413  -0.444  -1.422  1.00  0.00     0.057 C   
BRANCH   8   9
ATOM     9   C7  UNL     1       3.469   0.612  -1.969  1.00  0.00    -0.043 A   
ATOM     10  C2  UNL     1       3.490   1.958  -1.542  1.00  0.00    -0.045 A   
ATOM     11  C3  UNL     1       2.527   2.849  -2.050  1.00  0.00     0.043 A   
ATOM     12  C4  UNL     1       1.597   2.423  -2.991  1.00  0.00     0.123 A   
ATOM     13  C6  UNL     1       2.521   0.212  -2.935  1.00  0.00     0.007 A   
ATOM     14  C5  UNL     1       1.594   1.116  -3.449  1.00  0.00     0.039 A   
ATOM     15  C1  UNL     1       4.477   2.484  -0.535  1.00  0.00     0.045 C   
ATOM     16  F1  UNL     1       0.679   3.283  -3.450  1.00  0.00    -0.207 F   
ENDBRANCH   8   9
ENDBRANCH   7   8
ENDBRANCH   1   7
BRANCH   3  17
ATOM     17  C12 UNL     1      -0.807  -1.243   1.003  1.00  0.00     0.114 C   
BRANCH  17  18
ATOM     18  C13 UNL     1      -1.376  -2.275   1.997  1.00  0.00     0.064 C   
BRANCH  18  19
ATOM     19  C14 UNL     1      -0.979  -2.059   3.475  1.00  0.00    -0.012 C   
ATOM     20  C15 UNL     1       0.466  -2.455   3.781  1.00  0.00     0.007 C   
ATOM     21  C16 UNL     1      -1.916  -2.873   4.377  1.00  0.00     0.007 C   
ENDBRANCH  18  19
ENDBRANCH  17  18
BRANCH  17  22
ATOM     22  N2  UNL     1      -1.615  -1.372  -0.271  1.00  0.00     0.249 N   
ATOM     23  H22 UNL     1      -1.320  -2.254  -0.718  1.00  0.00     0.199 HD  
ATOM     24  H23 UNL     1      -2.616  -1.471  -0.075  1.00  0.00     0.199 HD  
BRANCH  22  25
ATOM     25  C17 UNL     1      -1.425  -0.276  -1.262  1.00  0.00     0.164 C   
BRANCH  25  26
ATOM     26  C18 UNL     1      -2.142  -0.593  -2.543  1.00  0.00    -0.002 A   
ATOM     27  C19 UNL     1      -1.529  -1.429  -3.508  1.00  0.00     0.012 A   
ATOM     28  C23 UNL     1      -3.440  -0.107  -2.770  1.00  0.00     0.045 A   
ATOM     29  C20 UNL     1      -2.194  -1.765  -4.692  1.00  0.00     0.037 A   
ATOM     30  C22 UNL     1      -4.067  -0.459  -3.947  1.00  0.00     0.109 A   
ATOM     31  C21 UNL     1      -3.462  -1.263  -4.881  1.00  0.00     0.108 A   
ATOM     32  O1  UNL     1      -5.316  -0.077  -4.321  1.00  0.00    -0.316 OA  
ATOM     33  O2  UNL     1      -4.253  -1.486  -5.963  1.00  0.00    -0.316 OA  
ATOM     34  C24 UNL     1      -5.421  -0.713  -5.615  1.00  0.00     0.337 C   
ENDBRANCH  25  26
ENDBRANCH  22  25
ENDBRANCH  17  22
ENDBRANCH   3  17
TORSDOF 9
