REMARK SMILES Oc1ccc(Cn2cc([C@@H]([NH2+]Cc3ccc4c(c3)OCO4)C3CCCC3)nn2)c(Cl)c1
REMARK SMILES IDX 7 1 8 2 9 3 27 4 28 5 6 7 5 8 2 9 3 10 31 11 4 12 29 13
REMARK SMILES IDX 30 14 1 15 10 17 11 18 12 21 13 22 14 23 18 24 15 25 17 26
REMARK SMILES IDX 16 27 19 28 21 29 20 30 22 31 23 32 26 33 24 34 25 35
REMARK H PARENT 8 6 1 16 11 19 11 20
ROOT
ATOM     1   N1  UNL     1      -1.530   1.488  -0.179  1.00  0.00    -0.208 N   
ATOM     2   C6  UNL     1      -1.453   0.169   0.173  1.00  0.00     0.046 A   
ATOM     3   C7  UNL     1      -0.565   0.157   1.224  1.00  0.00     0.127 A   
ATOM     4   N3  UNL     1      -0.157   1.441   1.485  1.00  0.00    -0.132 NA  
ATOM     5   N4  UNL     1      -0.763   2.247   0.631  1.00  0.00    -0.076 NA  
ATOM     6   H6  UNL     1      -1.993  -0.606  -0.353  1.00  0.00     0.083 HD  
ENDROOT
BRANCH   1   7
ATOM     7   C5  UNL     1      -2.329   2.099  -1.228  1.00  0.00     0.171 C   
BRANCH   7   8
ATOM     8   C4  UNL     1      -1.483   2.473  -2.420  1.00  0.00    -0.010 A   
ATOM     9   C1  UNL     1       0.119   3.253  -4.583  1.00  0.00     0.073 A   
ATOM     10  C2  UNL     1      -0.157   4.167  -3.575  1.00  0.00     0.033 A   
ATOM     11  C23 UNL     1      -0.383   1.959  -4.529  1.00  0.00     0.054 A   
ATOM     12  C3  UNL     1      -0.954   3.776  -2.497  1.00  0.00     0.009 A   
ATOM     13  C22 UNL     1      -1.179   1.568  -3.451  1.00  0.00     0.048 A   
ATOM     14  CL1 UNL     1      -1.765  -0.058  -3.436  1.00  0.00    -0.084 Cl  
BRANCH   9  15
ATOM     15  O1  UNL     1       0.891   3.587  -5.655  1.00  0.00    -0.361 OA  
ATOM     16  H1  UNL     1       1.141   4.525  -5.593  1.00  0.00     0.218 HD  
ENDBRANCH   9  15
ENDBRANCH   7   8
ENDBRANCH   1   7
BRANCH   3  17
ATOM     17  C8  UNL     1       0.025  -0.963   2.018  1.00  0.00     0.117 C   
BRANCH  17  18
ATOM     18  N2  UNL     1       1.461  -0.622   2.353  1.00  0.00     0.249 N   
ATOM     19  H8  UNL     1       1.664  -0.793   3.343  1.00  0.00     0.199 HD  
ATOM     20  H9  UNL     1       1.536   0.402   2.237  1.00  0.00     0.199 HD  
BRANCH  18  21
ATOM     21  C9  UNL     1       2.511  -1.264   1.516  1.00  0.00     0.164 C   
BRANCH  21  22
ATOM     22  C10 UNL     1       2.367  -1.026   0.039  1.00  0.00    -0.002 A   
ATOM     23  C11 UNL     1       2.534   0.270  -0.508  1.00  0.00     0.012 A   
ATOM     24  C15 UNL     1       2.046  -2.097  -0.814  1.00  0.00     0.045 A   
ATOM     25  C12 UNL     1       2.379   0.497  -1.881  1.00  0.00     0.037 A   
ATOM     26  C14 UNL     1       1.902  -1.839  -2.161  1.00  0.00     0.109 A   
ATOM     27  C13 UNL     1       2.066  -0.579  -2.681  1.00  0.00     0.108 A   
ATOM     28  O2  UNL     1       1.590  -2.759  -3.111  1.00  0.00    -0.316 OA  
ATOM     29  O3  UNL     1       1.887  -0.548  -4.027  1.00  0.00    -0.316 OA  
ATOM     30  C16 UNL     1       1.603  -1.937  -4.301  1.00  0.00     0.337 C   
ENDBRANCH  21  22
ENDBRANCH  18  21
ENDBRANCH  17  18
BRANCH  17  31
ATOM     31  C17 UNL     1      -0.789  -1.250   3.293  1.00  0.00     0.043 C   
ATOM     32  C18 UNL     1      -0.812  -0.143   4.358  1.00  0.00     0.010 C   
ATOM     33  C21 UNL     1      -0.332  -2.485   4.073  1.00  0.00     0.010 C   
ATOM     34  C19 UNL     1      -1.051  -0.853   5.693  1.00  0.00     0.001 C   
ATOM     35  C20 UNL     1      -1.085  -2.346   5.386  1.00  0.00     0.001 C   
ENDBRANCH  17  31
ENDBRANCH   3  17
TORSDOF 8
