REMARK SMILES CC(C)[C@H]([NH2+]Cc1ccc2c(c1)OCO2)c1cn(Cc2c[nH]nc2-c2ccccc2)nn1
REMARK SMILES IDX 16 1 17 2 18 3 31 4 32 5 4 7 2 8 1 9 3 10 5 11 6 14 7 15
REMARK SMILES IDX 8 16 12 17 9 18 11 19 10 20 13 21 15 22 14 23 19 24 20 25
REMARK SMILES IDX 21 26 24 27 22 28 23 29 25 31 26 32 30 33 27 34 29 35 28 36
REMARK H PARENT 17 6 5 12 5 13 22 30
ROOT
ATOM     1   C13 UNL     1       2.044   1.442   0.469  1.00  0.00     0.127 A   
ATOM     2   C14 UNL     1       1.498   2.642   0.070  1.00  0.00     0.046 A   
ATOM     3   N2  UNL     1       1.788   2.708  -1.266  1.00  0.00    -0.208 N   
ATOM     4   N5  UNL     1       2.521   1.643  -1.648  1.00  0.00    -0.076 NA  
ATOM     5   N6  UNL     1       2.677   0.858  -0.596  1.00  0.00    -0.132 NA  
ATOM     6   H18 UNL     1       0.913   3.397   0.575  1.00  0.00     0.083 HD  
ENDROOT
BRANCH   1   7
ATOM     7   C4  UNL     1       1.952   0.703   1.765  1.00  0.00     0.117 C   
BRANCH   7   8
ATOM     8   C2  UNL     1       3.280   0.746   2.571  1.00  0.00     0.037 C   
ATOM     9   C1  UNL     1       3.196  -0.036   3.890  1.00  0.00     0.014 C   
ATOM     10  C3  UNL     1       3.692   2.191   2.893  1.00  0.00     0.014 C   
ENDBRANCH   7   8
BRANCH   7  11
ATOM     11  N1  UNL     1       1.590  -0.735   1.477  1.00  0.00     0.249 N   
ATOM     12  H9  UNL     1       2.294  -1.094   0.815  1.00  0.00     0.199 HD  
ATOM     13  H10 UNL     1       1.646  -1.322   2.313  1.00  0.00     0.199 HD  
BRANCH  11  14
ATOM     14  C5  UNL     1       0.253  -0.943   0.847  1.00  0.00     0.164 C   
BRANCH  14  15
ATOM     15  C6  UNL     1      -0.022  -2.410   0.674  1.00  0.00    -0.002 A   
ATOM     16  C7  UNL     1      -0.672  -3.143   1.696  1.00  0.00     0.012 A   
ATOM     17  C11 UNL     1       0.411  -3.074  -0.488  1.00  0.00     0.045 A   
ATOM     18  C8  UNL     1      -0.898  -4.517   1.560  1.00  0.00     0.037 A   
ATOM     19  C10 UNL     1       0.166  -4.426  -0.593  1.00  0.00     0.109 A   
ATOM     20  C9  UNL     1      -0.467  -5.129   0.403  1.00  0.00     0.108 A   
ATOM     21  O1  UNL     1       0.504  -5.212  -1.649  1.00  0.00    -0.316 OA  
ATOM     22  O2  UNL     1      -0.603  -6.446   0.101  1.00  0.00    -0.316 OA  
ATOM     23  C12 UNL     1      -0.003  -6.493  -1.212  1.00  0.00     0.337 C   
ENDBRANCH  14  15
ENDBRANCH  11  14
ENDBRANCH   7  11
ENDBRANCH   1   7
BRANCH   3  24
ATOM     24  C15 UNL     1       1.408   3.720  -2.243  1.00  0.00     0.173 C   
BRANCH  24  25
ATOM     25  C16 UNL     1      -0.007   4.170  -2.084  1.00  0.00     0.015 A   
ATOM     26  C17 UNL     1      -0.425   5.483  -1.970  1.00  0.00     0.099 A   
ATOM     27  C18 UNL     1      -1.217   3.401  -2.011  1.00  0.00     0.095 A   
ATOM     28  N3  UNL     1      -1.778   5.445  -1.825  1.00  0.00    -0.245 N   
ATOM     29  N4  UNL     1      -2.268   4.205  -1.782  1.00  0.00    -0.184 NA  
ATOM     30  H22 UNL     1      -2.426   6.222  -1.729  1.00  0.00     0.175 HD  
BRANCH  27  31
ATOM     31  C19 UNL     1      -1.421   1.950  -2.102  1.00  0.00     0.002 A   
ATOM     32  C20 UNL     1      -2.388   1.329  -1.292  1.00  0.00     0.010 A   
ATOM     33  C24 UNL     1      -0.709   1.164  -3.015  1.00  0.00     0.010 A   
ATOM     34  C21 UNL     1      -2.631  -0.042  -1.390  1.00  0.00     0.001 A   
ATOM     35  C23 UNL     1      -0.946  -0.211  -3.107  1.00  0.00     0.001 A   
ATOM     36  C22 UNL     1      -1.908  -0.812  -2.297  1.00  0.00     0.000 A   
ENDBRANCH  27  31
ENDBRANCH  24  25
ENDBRANCH   3  24
TORSDOF 8
