REMARK SMILES CC(C)C[C@H]([NH2+]Cc1ccc2c(c1)OCO2)c1cn(C[C@H](O)c2ccc(Cl)cn2)nn1
REMARK SMILES IDX 17 1 18 2 19 3 30 4 31 5 5 7 4 8 2 9 1 10 3 11 6 12 7 15
REMARK SMILES IDX 8 16 9 17 13 18 10 19 12 20 11 21 14 22 16 23 15 24 20 25
REMARK SMILES IDX 21 26 22 27 23 29 24 30 29 31 25 32 28 33 26 34 27 35
REMARK H PARENT 18 6 6 13 6 14 22 28
ROOT
ATOM     1   C14 UNL     1       0.900   1.335  -1.228  1.00  0.00     0.127 A   
ATOM     2   C15 UNL     1       1.865   2.287  -0.983  1.00  0.00     0.045 A   
ATOM     3   N2  UNL     1       1.150   3.415  -0.699  1.00  0.00    -0.209 N   
ATOM     4   N4  UNL     1      -0.171   3.186  -0.794  1.00  0.00    -0.076 NA  
ATOM     5   N5  UNL     1      -0.337   1.913  -1.114  1.00  0.00    -0.132 NA  
ATOM     6   H20 UNL     1       2.946   2.266  -0.945  1.00  0.00     0.083 HD  
ENDROOT
BRANCH   1   7
ATOM     7   C5  UNL     1       1.033  -0.131  -1.477  1.00  0.00     0.114 C   
BRANCH   7   8
ATOM     8   C4  UNL     1       0.127  -0.628  -2.620  1.00  0.00     0.064 C   
BRANCH   8   9
ATOM     9   C2  UNL     1       0.202  -2.134  -2.950  1.00  0.00    -0.012 C   
ATOM     10  C1  UNL     1      -0.760  -2.457  -4.098  1.00  0.00     0.007 C   
ATOM     11  C3  UNL     1       1.615  -2.583  -3.320  1.00  0.00     0.007 C   
ENDBRANCH   8   9
ENDBRANCH   7   8
BRANCH   7  12
ATOM     12  N1  UNL     1       0.819  -0.923  -0.216  1.00  0.00     0.249 N   
ATOM     13  H11 UNL     1       1.543  -0.641   0.455  1.00  0.00     0.199 HD  
ATOM     14  H12 UNL     1       0.981  -1.920  -0.391  1.00  0.00     0.199 HD  
BRANCH  12  15
ATOM     15  C6  UNL     1      -0.494  -0.762   0.480  1.00  0.00     0.164 C   
BRANCH  15  16
ATOM     16  C7  UNL     1      -0.579  -1.716   1.640  1.00  0.00    -0.002 A   
ATOM     17  C8  UNL     1      -0.054  -1.352   2.903  1.00  0.00     0.012 A   
ATOM     18  C12 UNL     1      -1.131  -2.996   1.461  1.00  0.00     0.045 A   
ATOM     19  C9  UNL     1      -0.094  -2.242   3.982  1.00  0.00     0.037 A   
ATOM     20  C11 UNL     1      -1.152  -3.849   2.545  1.00  0.00     0.109 A   
ATOM     21  C10 UNL     1      -0.650  -3.483   3.769  1.00  0.00     0.108 A   
ATOM     22  O1  UNL     1      -1.652  -5.113   2.545  1.00  0.00    -0.316 OA  
ATOM     23  O2  UNL     1      -0.774  -4.469   4.696  1.00  0.00    -0.316 OA  
ATOM     24  C13 UNL     1      -1.438  -5.493   3.924  1.00  0.00     0.337 C   
ENDBRANCH  15  16
ENDBRANCH  12  15
ENDBRANCH   7  12
ENDBRANCH   1   7
BRANCH   3  25
ATOM     25  C16 UNL     1       1.643   4.718  -0.303  1.00  0.00     0.172 C   
BRANCH  25  26
ATOM     26  C17 UNL     1       2.044   4.779   1.172  1.00  0.00     0.182 C   
BRANCH  26  27
ATOM     27  O3  UNL     1       3.225   3.979   1.376  1.00  0.00    -0.385 OA  
ATOM     28  H24 UNL     1       3.061   3.497   2.215  1.00  0.00     0.211 HD  
ENDBRANCH  26  27
BRANCH  26  29
ATOM     29  C18 UNL     1       0.956   4.354   2.148  1.00  0.00     0.071 A   
ATOM     30  C19 UNL     1      -0.225   5.086   2.271  1.00  0.00     0.028 A   
ATOM     31  N3  UNL     1       1.217   3.247   2.902  1.00  0.00    -0.257 NA  
ATOM     32  C20 UNL     1      -1.182   4.672   3.198  1.00  0.00     0.024 A   
ATOM     33  C22 UNL     1       0.274   2.891   3.812  1.00  0.00     0.131 A   
ATOM     34  C21 UNL     1      -0.928   3.557   3.985  1.00  0.00     0.059 A   
ATOM     35  CL1 UNL     1      -2.075   3.014   5.138  1.00  0.00    -0.083 Cl  
ENDBRANCH  26  29
ENDBRANCH  25  26
ENDBRANCH   3  25
TORSDOF 10
