REMARK SMILES CC(C)C[C@H]([NH2+]Cc1ccc2c(c1)OCO2)c1cn(C[C@@H](O)c2ccc(Cl)cn2)nn1
REMARK SMILES IDX 17 1 18 2 19 3 30 4 31 5 5 7 4 8 2 9 1 10 3 11 6 12 7 15
REMARK SMILES IDX 8 16 9 17 13 18 10 19 12 20 11 21 14 22 16 23 15 24 20 25
REMARK SMILES IDX 21 26 22 27 23 29 24 30 29 31 25 32 28 33 26 34 27 35
REMARK H PARENT 18 6 6 13 6 14 22 28
ROOT
ATOM     1   C14 UNL     1      -0.809   1.148   1.205  1.00  0.00     0.127 A   
ATOM     2   C15 UNL     1       0.324   0.377   1.071  1.00  0.00     0.045 A   
ATOM     3   N2  UNL     1       0.916   0.451   2.299  1.00  0.00    -0.209 N   
ATOM     4   N4  UNL     1       0.192   1.208   3.143  1.00  0.00    -0.076 NA  
ATOM     5   N5  UNL     1      -0.867   1.647   2.482  1.00  0.00    -0.132 NA  
ATOM     6   H20 UNL     1       0.738  -0.210   0.262  1.00  0.00     0.083 HD  
ENDROOT
BRANCH   1   7
ATOM     7   C5  UNL     1      -1.925   1.424   0.256  1.00  0.00     0.114 C   
BRANCH   7   8
ATOM     8   C4  UNL     1      -1.833   2.827  -0.376  1.00  0.00     0.064 C   
BRANCH   8   9
ATOM     9   C2  UNL     1      -0.591   3.066  -1.261  1.00  0.00    -0.012 C   
ATOM     10  C1  UNL     1      -0.596   4.508  -1.777  1.00  0.00     0.007 C   
ATOM     11  C3  UNL     1      -0.517   2.096  -2.442  1.00  0.00     0.007 C   
ENDBRANCH   8   9
ENDBRANCH   7   8
BRANCH   7  12
ATOM     12  N1  UNL     1      -3.249   1.360   0.994  1.00  0.00     0.249 N   
ATOM     13  H11 UNL     1      -3.993   1.769   0.423  1.00  0.00     0.199 HD  
ATOM     14  H12 UNL     1      -3.139   1.954   1.828  1.00  0.00     0.199 HD  
BRANCH  12  15
ATOM     15  C6  UNL     1      -3.674   0.007   1.461  1.00  0.00     0.164 C   
BRANCH  15  16
ATOM     16  C7  UNL     1      -4.048  -0.906   0.326  1.00  0.00    -0.002 A   
ATOM     17  C8  UNL     1      -5.264  -0.718  -0.373  1.00  0.00     0.012 A   
ATOM     18  C12 UNL     1      -3.171  -1.931  -0.072  1.00  0.00     0.045 A   
ATOM     19  C9  UNL     1      -5.602  -1.534  -1.458  1.00  0.00     0.037 A   
ATOM     20  C11 UNL     1      -3.534  -2.714  -1.147  1.00  0.00     0.109 A   
ATOM     21  C10 UNL     1      -4.714  -2.522  -1.821  1.00  0.00     0.108 A   
ATOM     22  O1  UNL     1      -2.799  -3.731  -1.668  1.00  0.00    -0.316 OA  
ATOM     23  O2  UNL     1      -4.874  -3.397  -2.847  1.00  0.00    -0.316 OA  
ATOM     24  C13 UNL     1      -3.668  -4.183  -2.731  1.00  0.00     0.337 C   
ENDBRANCH  15  16
ENDBRANCH  12  15
ENDBRANCH   7  12
ENDBRANCH   1   7
BRANCH   3  25
ATOM     25  C16 UNL     1       2.135  -0.193   2.748  1.00  0.00     0.172 C   
BRANCH  25  26
ATOM     26  C17 UNL     1       1.828  -1.519   3.437  1.00  0.00     0.182 C   
BRANCH  26  27
ATOM     27  O3  UNL     1       1.377  -2.462   2.446  1.00  0.00    -0.385 OA  
ATOM     28  H24 UNL     1       2.099  -3.125   2.372  1.00  0.00     0.211 HD  
ENDBRANCH  26  27
BRANCH  26  29
ATOM     29  C18 UNL     1       3.078  -2.058   4.106  1.00  0.00     0.071 A   
ATOM     30  C19 UNL     1       3.399  -1.712   5.417  1.00  0.00     0.028 A   
ATOM     31  N3  UNL     1       3.858  -2.876   3.347  1.00  0.00    -0.257 NA  
ATOM     32  C20 UNL     1       4.568  -2.226   5.979  1.00  0.00     0.024 A   
ATOM     33  C22 UNL     1       4.988  -3.359   3.926  1.00  0.00     0.131 A   
ATOM     34  C21 UNL     1       5.380  -3.062   5.221  1.00  0.00     0.059 A   
ATOM     35  CL1 UNL     1       6.825  -3.708   5.878  1.00  0.00    -0.083 Cl  
ENDBRANCH  26  29
ENDBRANCH  25  26
ENDBRANCH   3  25
TORSDOF 10
