REMARK SMILES CC(C)[C@H]([NH2+]Cc1ccc2c(c1)OCO2)c1cn(C[C@@H](O)c2c(F)cccc2F)nn1
REMARK SMILES IDX 16 1 17 2 18 3 30 4 31 5 4 7 2 8 1 9 3 10 5 11 6 14 7 15
REMARK SMILES IDX 8 16 12 17 9 18 11 19 10 20 13 21 15 22 14 23 19 24 20 25
REMARK SMILES IDX 21 26 22 28 23 29 28 30 25 31 27 32 26 33 24 34 29 35
REMARK H PARENT 17 6 5 12 5 13 21 27
ROOT
ATOM     1   C13 UNL     1      -0.768  -0.059  -0.230  1.00  0.00     0.127 A   
ATOM     2   C14 UNL     1      -1.698  -0.013   0.785  1.00  0.00     0.045 A   
ATOM     3   N2  UNL     1      -0.992  -0.379   1.896  1.00  0.00    -0.209 N   
ATOM     4   N3  UNL     1       0.294  -0.636   1.588  1.00  0.00    -0.076 NA  
ATOM     5   N4  UNL     1       0.441  -0.452   0.287  1.00  0.00    -0.132 NA  
ATOM     6   H18 UNL     1      -2.748   0.253   0.831  1.00  0.00     0.083 HD  
ENDROOT
BRANCH   1   7
ATOM     7   C4  UNL     1      -0.879   0.258  -1.689  1.00  0.00     0.117 C   
BRANCH   7   8
ATOM     8   C2  UNL     1      -1.600  -0.867  -2.480  1.00  0.00     0.037 C   
ATOM     9   C1  UNL     1      -0.810  -2.179  -2.553  1.00  0.00     0.014 C   
ATOM     10  C3  UNL     1      -1.980  -0.412  -3.896  1.00  0.00     0.014 C   
ENDBRANCH   7   8
BRANCH   7  11
ATOM     11  N1  UNL     1       0.486   0.510  -2.270  1.00  0.00     0.249 N   
ATOM     12  H9  UNL     1       0.512   0.376  -3.284  1.00  0.00     0.199 HD  
ATOM     13  H10 UNL     1       1.111  -0.205  -1.868  1.00  0.00     0.199 HD  
BRANCH  11  14
ATOM     14  C5  UNL     1       1.081   1.836  -1.942  1.00  0.00     0.164 C   
BRANCH  14  15
ATOM     15  C6  UNL     1       2.503   1.898  -2.424  1.00  0.00    -0.002 A   
ATOM     16  C7  UNL     1       3.559   1.505  -1.567  1.00  0.00     0.012 A   
ATOM     17  C11 UNL     1       2.788   2.278  -3.748  1.00  0.00     0.045 A   
ATOM     18  C8  UNL     1       4.885   1.502  -2.016  1.00  0.00     0.037 A   
ATOM     19  C10 UNL     1       4.105   2.257  -4.160  1.00  0.00     0.109 A   
ATOM     20  C9  UNL     1       5.124   1.882  -3.320  1.00  0.00     0.108 A   
ATOM     21  O1  UNL     1       4.550   2.589  -5.401  1.00  0.00    -0.316 OA  
ATOM     22  O2  UNL     1       6.340   1.936  -3.923  1.00  0.00    -0.316 OA  
ATOM     23  C12 UNL     1       5.970   2.364  -5.253  1.00  0.00     0.337 C   
ENDBRANCH  14  15
ENDBRANCH  11  14
ENDBRANCH   7  11
ENDBRANCH   1   7
BRANCH   3  24
ATOM     24  C15 UNL     1      -1.464  -0.499   3.264  1.00  0.00     0.170 C   
BRANCH  24  25
ATOM     25  C16 UNL     1      -1.288   0.819   4.027  1.00  0.00     0.170 C   
BRANCH  25  26
ATOM     26  O3  UNL     1      -2.257   1.763   3.541  1.00  0.00    -0.386 OA  
ATOM     27  H22 UNL     1      -2.294   2.504   4.175  1.00  0.00     0.211 HD  
ENDBRANCH  25  26
BRANCH  25  28
ATOM     28  C17 UNL     1      -1.405   0.729   5.530  1.00  0.00     0.054 A   
ATOM     29  C18 UNL     1      -0.758   1.684   6.323  1.00  0.00     0.132 A   
ATOM     30  C22 UNL     1      -2.158  -0.243   6.193  1.00  0.00     0.132 A   
ATOM     31  C19 UNL     1      -0.837   1.667   7.714  1.00  0.00     0.040 A   
ATOM     32  C21 UNL     1      -2.246  -0.278   7.585  1.00  0.00     0.040 A   
ATOM     33  C20 UNL     1      -1.584   0.679   8.349  1.00  0.00     0.006 A   
ATOM     34  F1  UNL     1      -0.052   2.660   5.733  1.00  0.00    -0.207 F   
ATOM     35  F2  UNL     1      -2.823  -1.174   5.497  1.00  0.00    -0.207 F   
ENDBRANCH  25  28
ENDBRANCH  24  25
ENDBRANCH   3  24
TORSDOF 9
