REMARK SMILES CC(C)[C@H]([NH2+]Cc1ccc2c(c1)OCO2)c1cn(C[C@H](O)c2c(F)cccc2F)nn1
REMARK SMILES IDX 16 1 17 2 18 3 30 4 31 5 4 7 2 8 1 9 3 10 5 11 6 14 7 15
REMARK SMILES IDX 8 16 12 17 9 18 11 19 10 20 13 21 15 22 14 23 19 24 20 25
REMARK SMILES IDX 21 26 22 28 23 29 28 30 25 31 27 32 26 33 24 34 29 35
REMARK H PARENT 17 6 5 12 5 13 21 27
ROOT
ATOM     1   C13 UNL     1      -0.888  -0.627   1.256  1.00  0.00     0.127 A   
ATOM     2   C14 UNL     1      -1.620   0.407   0.719  1.00  0.00     0.045 A   
ATOM     3   N2  UNL     1      -1.776   1.274   1.763  1.00  0.00    -0.209 N   
ATOM     4   N3  UNL     1      -1.205   0.791   2.882  1.00  0.00    -0.076 NA  
ATOM     5   N4  UNL     1      -0.650  -0.372   2.582  1.00  0.00    -0.132 NA  
ATOM     6   H18 UNL     1      -1.992   0.624  -0.273  1.00  0.00     0.083 HD  
ENDROOT
BRANCH   1   7
ATOM     7   C4  UNL     1      -0.285  -1.833   0.614  1.00  0.00     0.117 C   
BRANCH   7   8
ATOM     8   C2  UNL     1      -1.028  -3.143   1.006  1.00  0.00     0.037 C   
ATOM     9   C1  UNL     1      -0.389  -4.395   0.389  1.00  0.00     0.014 C   
ATOM     10  C3  UNL     1      -2.503  -3.095   0.576  1.00  0.00     0.014 C   
ENDBRANCH   7   8
BRANCH   7  11
ATOM     11  N1  UNL     1       1.167  -1.940   1.036  1.00  0.00     0.249 N   
ATOM     12  H9  UNL     1       1.165  -1.966   2.064  1.00  0.00     0.199 HD  
ATOM     13  H10 UNL     1       1.578  -2.814   0.702  1.00  0.00     0.199 HD  
BRANCH  11  14
ATOM     14  C5  UNL     1       2.062  -0.815   0.621  1.00  0.00     0.164 C   
BRANCH  14  15
ATOM     15  C6  UNL     1       2.237  -0.723  -0.869  1.00  0.00    -0.002 A   
ATOM     16  C7  UNL     1       3.024  -1.675  -1.561  1.00  0.00     0.012 A   
ATOM     17  C11 UNL     1       1.592   0.297  -1.592  1.00  0.00     0.045 A   
ATOM     18  C8  UNL     1       3.162  -1.619  -2.952  1.00  0.00     0.037 A   
ATOM     19  C10 UNL     1       1.748   0.323  -2.962  1.00  0.00     0.109 A   
ATOM     20  C9  UNL     1       2.510  -0.608  -3.623  1.00  0.00     0.108 A   
ATOM     21  O1  UNL     1       1.190   1.231  -3.804  1.00  0.00    -0.316 OA  
ATOM     22  O2  UNL     1       2.529  -0.403  -4.965  1.00  0.00    -0.316 OA  
ATOM     23  C12 UNL     1       1.711   0.781  -5.076  1.00  0.00     0.337 C   
ENDBRANCH  14  15
ENDBRANCH  11  14
ENDBRANCH   7  11
ENDBRANCH   1   7
BRANCH   3  24
ATOM     24  C15 UNL     1      -2.438   2.562   1.758  1.00  0.00     0.170 C   
BRANCH  24  25
ATOM     25  C16 UNL     1      -1.543   3.701   1.253  1.00  0.00     0.170 C   
BRANCH  25  26
ATOM     26  O3  UNL     1      -1.159   3.458  -0.106  1.00  0.00    -0.386 OA  
ATOM     27  H22 UNL     1      -0.501   4.135  -0.349  1.00  0.00     0.211 HD  
ENDBRANCH  25  26
BRANCH  25  28
ATOM     28  C17 UNL     1      -0.365   4.003   2.147  1.00  0.00     0.054 A   
ATOM     29  C18 UNL     1       0.906   3.456   1.961  1.00  0.00     0.132 A   
ATOM     30  C22 UNL     1      -0.548   4.841   3.251  1.00  0.00     0.132 A   
ATOM     31  C19 UNL     1       1.963   3.756   2.821  1.00  0.00     0.040 A   
ATOM     32  C21 UNL     1       0.494   5.150   4.123  1.00  0.00     0.040 A   
ATOM     33  C20 UNL     1       1.758   4.608   3.905  1.00  0.00     0.006 A   
ATOM     34  F1  UNL     1       1.141   2.615   0.943  1.00  0.00    -0.207 F   
ATOM     35  F2  UNL     1      -1.760   5.363   3.487  1.00  0.00    -0.207 F   
ENDBRANCH  25  28
ENDBRANCH  24  25
ENDBRANCH   3  24
TORSDOF 9
