REMARK SMILES c1cn2ncc(Cn3cc([C@@H]([NH2+]Cc4ccc5c(c4)OCO5)C4CCCCC4)nn3)c2[nH]1
REMARK SMILES IDX 8 1 9 2 10 3 29 4 30 5 7 7 6 8 1 9 2 10 32 11 3 12 31 13
REMARK SMILES IDX 4 14 5 15 11 17 12 18 13 21 14 22 15 23 19 24 16 25 18 26
REMARK SMILES IDX 17 27 20 28 22 29 21 30 23 31 24 32 28 33 25 34 27 35 26 36
REMARK H PARENT 9 6 32 16 12 19 12 20
ROOT
ATOM     1   N3  UNL     1       2.601   0.020   0.274  1.00  0.00    -0.208 N   
ATOM     2   C6  UNL     1       1.379  -0.262   0.820  1.00  0.00     0.046 A   
ATOM     3   C7  UNL     1       0.855  -1.222  -0.018  1.00  0.00     0.127 A   
ATOM     4   N5  UNL     1       1.772  -1.522  -0.991  1.00  0.00    -0.132 NA  
ATOM     5   N6  UNL     1       2.834  -0.752  -0.806  1.00  0.00    -0.076 NA  
ATOM     6   H6  UNL     1       0.989   0.268   1.678  1.00  0.00     0.083 HD  
ENDROOT
BRANCH   1   7
ATOM     7   C5  UNL     1       3.530   1.072   0.658  1.00  0.00     0.174 C   
BRANCH   7   8
ATOM     8   C4  UNL     1       2.937   2.397   0.359  1.00  0.00     0.030 A   
ATOM     9   C1  UNL     1       2.125   3.881  -2.796  1.00  0.00     0.091 A   
ATOM     10  C2  UNL     1       1.771   4.776  -1.850  1.00  0.00     0.118 A   
ATOM     11  N7  UNL     1       2.592   2.717  -2.183  1.00  0.00    -0.306 N   
ATOM     12  N1  UNL     1       2.061   4.194  -0.628  1.00  0.00    -0.185 N   
ATOM     13  C23 UNL     1       2.593   2.939  -0.845  1.00  0.00     0.120 A   
ATOM     14  N2  UNL     1       1.982   4.489   0.676  1.00  0.00    -0.184 NA  
ATOM     15  C3  UNL     1       2.538   3.421   1.270  1.00  0.00     0.140 A   
ATOM     16  H28 UNL     1       3.198   2.081  -2.695  1.00  0.00     0.154 HD  
ENDBRANCH   7   8
ENDBRANCH   1   7
BRANCH   3  17
ATOM     17  C8  UNL     1      -0.507  -1.839  -0.057  1.00  0.00     0.117 C   
BRANCH  17  18
ATOM     18  N4  UNL     1      -1.053  -1.782  -1.473  1.00  0.00     0.249 N   
ATOM     19  H8  UNL     1      -1.982  -2.204  -1.510  1.00  0.00     0.199 HD  
ATOM     20  H9  UNL     1      -0.425  -2.352  -2.055  1.00  0.00     0.199 HD  
BRANCH  18  21
ATOM     21  C9  UNL     1      -1.139  -0.429  -2.113  1.00  0.00     0.164 C   
BRANCH  21  22
ATOM     22  C10 UNL     1      -1.943   0.565  -1.322  1.00  0.00    -0.002 A   
ATOM     23  C11 UNL     1      -1.312   1.714  -0.785  1.00  0.00     0.012 A   
ATOM     24  C15 UNL     1      -3.314   0.360  -1.091  1.00  0.00     0.045 A   
ATOM     25  C12 UNL     1      -2.025   2.636  -0.012  1.00  0.00     0.037 A   
ATOM     26  C14 UNL     1      -3.988   1.288  -0.324  1.00  0.00     0.109 A   
ATOM     27  C13 UNL     1      -3.363   2.392   0.202  1.00  0.00     0.108 A   
ATOM     28  O1  UNL     1      -5.306   1.232   0.003  1.00  0.00    -0.316 OA  
ATOM     29  O2  UNL     1      -4.209   3.170   0.925  1.00  0.00    -0.316 OA  
ATOM     30  C16 UNL     1      -5.449   2.449   0.772  1.00  0.00     0.337 C   
ENDBRANCH  21  22
ENDBRANCH  18  21
ENDBRANCH  17  18
BRANCH  17  31
ATOM     31  C17 UNL     1      -0.492  -3.324   0.425  1.00  0.00     0.043 C   
ATOM     32  C18 UNL     1      -1.856  -4.040   0.324  1.00  0.00     0.010 C   
ATOM     33  C22 UNL     1       0.003  -3.460   1.884  1.00  0.00     0.010 C   
ATOM     34  C19 UNL     1      -2.885  -3.484   1.307  1.00  0.00     0.001 C   
ATOM     35  C21 UNL     1      -0.998  -2.909   2.901  1.00  0.00     0.001 C   
ATOM     36  C20 UNL     1      -2.374  -3.550   2.744  1.00  0.00     0.000 C   
ENDBRANCH  17  31
ENDBRANCH   3  17
TORSDOF 7
