REMARK SMILES CC(C)[C@H]([NH2+]Cc1ccc2c(c1)OCO2)c1cn(Cc2ccc(F)c(F)c2)nn1
REMARK SMILES IDX 16 1 17 2 18 3 28 4 29 5 4 7 2 8 1 9 3 10 5 11 6 14 7 15
REMARK SMILES IDX 8 16 12 17 9 18 11 19 10 20 13 21 15 22 14 23 19 24 20 25
REMARK SMILES IDX 21 26 27 27 22 28 25 29 23 30 26 31 24 32
REMARK H PARENT 17 6 5 12 5 13
ROOT
ATOM     1   C13 UNL     1       1.048   0.492   0.973  1.00  0.00     0.127 A   
ATOM     2   C14 UNL     1      -0.293   0.586   1.274  1.00  0.00     0.046 A   
ATOM     3   N2  UNL     1      -0.712   1.683   0.570  1.00  0.00    -0.208 N   
ATOM     4   N3  UNL     1       0.307   2.231  -0.120  1.00  0.00    -0.076 NA  
ATOM     5   N4  UNL     1       1.389   1.507   0.113  1.00  0.00    -0.132 NA  
ATOM     6   H18 UNL     1      -0.963  -0.003   1.883  1.00  0.00     0.083 HD  
ENDROOT
BRANCH   1   7
ATOM     7   C4  UNL     1       2.089  -0.509   1.361  1.00  0.00     0.117 C   
BRANCH   7   8
ATOM     8   C2  UNL     1       2.911  -0.111   2.614  1.00  0.00     0.037 C   
ATOM     9   C1  UNL     1       2.043  -0.110   3.878  1.00  0.00     0.014 C   
ATOM     10  C3  UNL     1       3.642   1.231   2.489  1.00  0.00     0.014 C   
ENDBRANCH   7   8
BRANCH   7  11
ATOM     11  N1  UNL     1       3.044  -0.710   0.198  1.00  0.00     0.249 N   
ATOM     12  H9  UNL     1       2.975   0.148  -0.374  1.00  0.00     0.199 HD  
ATOM     13  H10 UNL     1       4.013  -0.747   0.527  1.00  0.00     0.199 HD  
BRANCH  11  14
ATOM     14  C5  UNL     1       2.788  -1.886  -0.678  1.00  0.00     0.164 C   
BRANCH  14  15
ATOM     15  C6  UNL     1       1.428  -1.907  -1.317  1.00  0.00    -0.002 A   
ATOM     16  C7  UNL     1       1.081  -0.956  -2.307  1.00  0.00     0.012 A   
ATOM     17  C11 UNL     1       0.482  -2.872  -0.928  1.00  0.00     0.045 A   
ATOM     18  C8  UNL     1      -0.187  -0.961  -2.898  1.00  0.00     0.037 A   
ATOM     19  C10 UNL     1      -0.757  -2.851  -1.534  1.00  0.00     0.109 A   
ATOM     20  C9  UNL     1      -1.082  -1.925  -2.492  1.00  0.00     0.108 A   
ATOM     21  O1  UNL     1      -1.777  -3.712  -1.275  1.00  0.00    -0.316 OA  
ATOM     22  O2  UNL     1      -2.344  -2.090  -2.965  1.00  0.00    -0.316 OA  
ATOM     23  C12 UNL     1      -2.771  -3.251  -2.220  1.00  0.00     0.337 C   
ENDBRANCH  14  15
ENDBRANCH  11  14
ENDBRANCH   7  11
ENDBRANCH   1   7
BRANCH   3  24
ATOM     24  C15 UNL     1      -2.036   2.279   0.537  1.00  0.00     0.169 C   
BRANCH  24  25
ATOM     25  C16 UNL     1      -2.906   1.619  -0.503  1.00  0.00    -0.025 A   
ATOM     26  C17 UNL     1      -2.834   2.018  -1.850  1.00  0.00     0.008 A   
ATOM     27  C21 UNL     1      -3.788   0.586  -0.147  1.00  0.00     0.047 A   
ATOM     28  C18 UNL     1      -3.636   1.405  -2.817  1.00  0.00     0.043 A   
ATOM     29  C20 UNL     1      -4.579  -0.020  -1.120  1.00  0.00     0.159 A   
ATOM     30  C19 UNL     1      -4.506   0.388  -2.445  1.00  0.00     0.158 A   
ATOM     31  F2  UNL     1      -5.401  -1.016  -0.763  1.00  0.00    -0.204 F   
ATOM     32  F1  UNL     1      -5.265  -0.206  -3.376  1.00  0.00    -0.204 F   
ENDBRANCH  24  25
ENDBRANCH   3  24
TORSDOF 7
