REMARK SMILES Cc1ccc(F)c(Cn2cc([C@@H]([NH2+]Cc3ccc4c(c3)OCO4)C(C)(C)C)nn2)c1
REMARK SMILES IDX 9 1 10 2 11 3 28 4 29 5 8 7 7 8 2 9 3 10 30 11 4 12 5 13
REMARK SMILES IDX 1 14 6 15 12 16 13 17 14 20 15 21 16 22 20 23 17 24 19 25
REMARK SMILES IDX 18 26 21 27 23 28 22 29 24 30 25 31 26 32 27 33
REMARK H PARENT 10 6 13 18 13 19
ROOT
ATOM     1   N1  UNL     1       0.026   1.204   2.127  1.00  0.00    -0.208 N   
ATOM     2   C8  UNL     1      -0.292  -0.029   1.626  1.00  0.00     0.046 A   
ATOM     3   C9  UNL     1       0.378  -0.083   0.424  1.00  0.00     0.127 A   
ATOM     4   N3  UNL     1       1.008   1.117   0.207  1.00  0.00    -0.132 NA  
ATOM     5   N4  UNL     1       0.772   1.901   1.247  1.00  0.00    -0.076 NA  
ATOM     6   H8  UNL     1      -0.912  -0.730   2.169  1.00  0.00     0.083 HD  
ENDROOT
BRANCH   1   7
ATOM     7   C7  UNL     1      -0.383   1.796   3.390  1.00  0.00     0.172 C   
BRANCH   7   8
ATOM     8   C6  UNL     1       0.540   1.389   4.504  1.00  0.00     0.007 A   
ATOM     9   C2  UNL     1       2.474   1.810   5.926  1.00  0.00    -0.051 A   
ATOM     10  C3  UNL     1       2.255   0.587   6.574  1.00  0.00     0.006 A   
ATOM     11  C23 UNL     1       1.622   2.197   4.881  1.00  0.00     0.012 A   
ATOM     12  C4  UNL     1       1.189  -0.228   6.198  1.00  0.00     0.040 A   
ATOM     13  C5  UNL     1       0.346   0.177   5.170  1.00  0.00     0.128 A   
ATOM     14  C1  UNL     1       3.642   2.670   6.309  1.00  0.00     0.044 C   
ATOM     15  F1  UNL     1      -0.668  -0.623   4.806  1.00  0.00    -0.207 F   
ENDBRANCH   7   8
ENDBRANCH   1   7
BRANCH   3  16
ATOM     16  C10 UNL     1       0.452  -1.153  -0.625  1.00  0.00     0.120 C   
BRANCH  16  17
ATOM     17  N2  UNL     1       0.591  -0.491  -1.978  1.00  0.00     0.250 N   
ATOM     18  H10 UNL     1       0.968  -1.121  -2.690  1.00  0.00     0.199 HD  
ATOM     19  H11 UNL     1       1.289   0.261  -1.863  1.00  0.00     0.199 HD  
BRANCH  17  20
ATOM     20  C11 UNL     1      -0.646   0.146  -2.507  1.00  0.00     0.164 C   
BRANCH  20  21
ATOM     21  C12 UNL     1      -0.353   0.863  -3.795  1.00  0.00    -0.002 A   
ATOM     22  C13 UNL     1       0.063   2.216  -3.773  1.00  0.00     0.012 A   
ATOM     23  C17 UNL     1      -0.432   0.182  -5.020  1.00  0.00     0.045 A   
ATOM     24  C14 UNL     1       0.386   2.887  -4.958  1.00  0.00     0.037 A   
ATOM     25  C16 UNL     1      -0.105   0.873  -6.169  1.00  0.00     0.109 A   
ATOM     26  C15 UNL     1       0.291   2.188  -6.139  1.00  0.00     0.108 A   
ATOM     27  O1  UNL     1      -0.124   0.365  -7.429  1.00  0.00    -0.316 OA  
ATOM     28  O2  UNL     1       0.566   2.674  -7.377  1.00  0.00    -0.316 OA  
ATOM     29  C18 UNL     1       0.278   1.521  -8.198  1.00  0.00     0.337 C   
ENDBRANCH  20  21
ENDBRANCH  17  20
ENDBRANCH  16  17
BRANCH  16  30
ATOM     30  C19 UNL     1       1.611  -2.188  -0.406  1.00  0.00     0.010 C   
ATOM     31  C20 UNL     1       1.492  -2.842   0.990  1.00  0.00     0.017 C   
ATOM     32  C21 UNL     1       1.512  -3.331  -1.444  1.00  0.00     0.017 C   
ATOM     33  C22 UNL     1       3.008  -1.547  -0.522  1.00  0.00     0.017 C   
ENDBRANCH  16  30
ENDBRANCH   3  16
TORSDOF 7
