REMARK SMILES COc1c(F)cccc1Cn1cc([C@H](CC(C)C)[NH2+]Cc2ccc3c(c2)OCO3)nn1
REMARK SMILES IDX 11 1 12 2 13 3 30 4 31 5 10 7 9 8 3 9 4 10 6 11 8 12 7 13
REMARK SMILES IDX 5 14 2 15 1 16 14 17 15 18 16 19 17 20 18 21 19 22 20 25
REMARK SMILES IDX 21 26 22 27 26 28 23 29 25 30 24 31 27 32 29 33 28 34
REMARK H PARENT 12 6 19 23 19 24
ROOT
ATOM     1   N1  UNL     1      -0.931   2.890   0.322  1.00  0.00    -0.208 N   
ATOM     2   C9  UNL     1      -1.055   1.749  -0.424  1.00  0.00     0.046 A   
ATOM     3   C10 UNL     1      -1.998   1.010   0.253  1.00  0.00     0.127 A   
ATOM     4   N3  UNL     1      -2.454   1.730   1.325  1.00  0.00    -0.132 NA  
ATOM     5   N4  UNL     1      -1.802   2.881   1.352  1.00  0.00    -0.076 NA  
ATOM     6   H9  UNL     1      -0.446   1.555  -1.297  1.00  0.00     0.083 HD  
ENDROOT
BRANCH   1   7
ATOM     7   C8  UNL     1      -0.039   4.024   0.121  1.00  0.00     0.172 C   
BRANCH   7   8
ATOM     8   C7  UNL     1       1.351   3.600  -0.305  1.00  0.00     0.005 A   
ATOM     9   C2  UNL     1       2.210   2.914   0.578  1.00  0.00     0.115 A   
ATOM     10  C3  UNL     1       3.477   2.522   0.127  1.00  0.00     0.153 A   
ATOM     11  C4  UNL     1       3.902   2.814  -1.168  1.00  0.00     0.042 A   
ATOM     12  C6  UNL     1       1.794   3.895  -1.609  1.00  0.00     0.008 A   
ATOM     13  C5  UNL     1       3.063   3.505  -2.036  1.00  0.00     0.004 A   
ATOM     14  F1  UNL     1       4.316   1.833   0.912  1.00  0.00    -0.204 F   
BRANCH   9  15
ATOM     15  O1  UNL     1       1.694   2.657   1.822  1.00  0.00    -0.346 OA  
ATOM     16  C1  UNL     1       2.627   2.334   2.850  1.00  0.00     0.203 C   
ENDBRANCH   9  15
ENDBRANCH   7   8
ENDBRANCH   1   7
BRANCH   3  17
ATOM     17  C11 UNL     1      -2.479  -0.385   0.036  1.00  0.00     0.114 C   
BRANCH  17  18
ATOM     18  C12 UNL     1      -3.881  -0.388  -0.608  1.00  0.00     0.064 C   
BRANCH  18  19
ATOM     19  C13 UNL     1      -4.469  -1.771  -0.957  1.00  0.00    -0.012 C   
ATOM     20  C14 UNL     1      -5.864  -1.595  -1.567  1.00  0.00     0.007 C   
ATOM     21  C15 UNL     1      -3.582  -2.559  -1.921  1.00  0.00     0.007 C   
ENDBRANCH  18  19
ENDBRANCH  17  18
BRANCH  17  22
ATOM     22  N2  UNL     1      -2.540  -1.141   1.345  1.00  0.00     0.249 N   
ATOM     23  H20 UNL     1      -2.921  -2.077   1.194  1.00  0.00     0.199 HD  
ATOM     24  H21 UNL     1      -3.200  -0.629   1.947  1.00  0.00     0.199 HD  
BRANCH  22  25
ATOM     25  C16 UNL     1      -1.258  -1.265   2.108  1.00  0.00     0.164 C   
BRANCH  25  26
ATOM     26  C17 UNL     1      -0.150  -1.911   1.323  1.00  0.00    -0.002 A   
ATOM     27  C18 UNL     1      -0.216  -3.280   0.968  1.00  0.00     0.012 A   
ATOM     28  C22 UNL     1       0.950  -1.141   0.906  1.00  0.00     0.045 A   
ATOM     29  C19 UNL     1       0.792  -3.870   0.197  1.00  0.00     0.037 A   
ATOM     30  C21 UNL     1       1.925  -1.752   0.147  1.00  0.00     0.109 A   
ATOM     31  C20 UNL     1       1.847  -3.078  -0.200  1.00  0.00     0.108 A   
ATOM     32  O2  UNL     1       3.038  -1.150  -0.343  1.00  0.00    -0.316 OA  
ATOM     33  O3  UNL     1       2.904  -3.478  -0.952  1.00  0.00    -0.316 OA  
ATOM     34  C23 UNL     1       3.678  -2.260  -1.011  1.00  0.00     0.337 C   
ENDBRANCH  25  26
ENDBRANCH  22  25
ENDBRANCH  17  22
ENDBRANCH   3  17
TORSDOF 9
