REMARK SMILES CC(C)C[C@H]([NH2+]Cc1ccc2c(c1)OCO2)c1cn(CCc2cn3ccccc3n2)nn1
REMARK SMILES IDX 17 1 18 2 19 3 31 4 32 5 5 7 4 8 2 9 1 10 3 11 6 12 7 15
REMARK SMILES IDX 8 16 9 17 13 18 10 19 12 20 11 21 14 22 16 23 15 24 20 25
REMARK SMILES IDX 21 26 22 27 23 28 30 29 24 30 29 31 25 32 28 33 26 34 27 35
REMARK H PARENT 18 6 6 13 6 14
ROOT
ATOM     1   C14 UNL     1       2.557   0.978   0.464  1.00  0.00     0.127 A   
ATOM     2   C15 UNL     1       2.168   2.254   0.113  1.00  0.00     0.045 A   
ATOM     3   N2  UNL     1       2.125   2.899   1.314  1.00  0.00    -0.212 N   
ATOM     4   N5  UNL     1       2.704   2.163   2.281  1.00  0.00    -0.076 NA  
ATOM     5   N6  UNL     1       2.958   0.968   1.772  1.00  0.00    -0.132 NA  
ATOM     6   H20 UNL     1       1.719   2.674  -0.778  1.00  0.00     0.083 HD  
ENDROOT
BRANCH   1   7
ATOM     7   C5  UNL     1       2.312  -0.308  -0.250  1.00  0.00     0.114 C   
BRANCH   7   8
ATOM     8   C4  UNL     1       2.605  -0.220  -1.759  1.00  0.00     0.064 C   
BRANCH   8   9
ATOM     9   C2  UNL     1       2.489  -1.541  -2.552  1.00  0.00    -0.012 C   
ATOM     10  C1  UNL     1       2.803  -1.283  -4.029  1.00  0.00     0.007 C   
ATOM     11  C3  UNL     1       3.413  -2.634  -2.014  1.00  0.00     0.007 C   
ENDBRANCH   8   9
ENDBRANCH   7   8
BRANCH   7  12
ATOM     12  N1  UNL     1       0.862  -0.674  -0.037  1.00  0.00     0.249 N   
ATOM     13  H11 UNL     1       0.492  -1.246  -0.795  1.00  0.00     0.199 HD  
ATOM     14  H12 UNL     1       0.308   0.203  -0.032  1.00  0.00     0.199 HD  
BRANCH  12  15
ATOM     15  C6  UNL     1       0.577  -1.354   1.260  1.00  0.00     0.164 C   
BRANCH  15  16
ATOM     16  C7  UNL     1      -0.900  -1.596   1.418  1.00  0.00    -0.002 A   
ATOM     17  C8  UNL     1      -1.653  -0.810   2.322  1.00  0.00     0.012 A   
ATOM     18  C12 UNL     1      -1.553  -2.564   0.634  1.00  0.00     0.045 A   
ATOM     19  C9  UNL     1      -3.038  -0.975   2.439  1.00  0.00     0.037 A   
ATOM     20  C11 UNL     1      -2.920  -2.690   0.764  1.00  0.00     0.109 A   
ATOM     21  C10 UNL     1      -3.643  -1.918   1.639  1.00  0.00     0.108 A   
ATOM     22  O1  UNL     1      -3.703  -3.552   0.064  1.00  0.00    -0.316 OA  
ATOM     23  O2  UNL     1      -4.972  -2.196   1.601  1.00  0.00    -0.316 OA  
ATOM     24  C13 UNL     1      -5.005  -3.247   0.612  1.00  0.00     0.337 C   
ENDBRANCH  15  16
ENDBRANCH  12  15
ENDBRANCH   7  12
ENDBRANCH   1   7
BRANCH   3  25
ATOM     25  C16 UNL     1       1.300   4.040   1.652  1.00  0.00     0.140 C   
BRANCH  25  26
ATOM     26  C17 UNL     1       0.021   3.620   2.381  1.00  0.00     0.079 C   
BRANCH  26  27
ATOM     27  C18 UNL     1      -1.035   2.966   1.535  1.00  0.00     0.059 A   
ATOM     28  C19 UNL     1      -2.401   3.051   1.729  1.00  0.00     0.105 A   
ATOM     29  N4  UNL     1      -0.757   2.143   0.451  1.00  0.00    -0.236 NA  
ATOM     30  N3  UNL     1      -2.978   2.327   0.721  1.00  0.00    -0.266 N   
ATOM     31  C24 UNL     1      -1.936   1.832  -0.059  1.00  0.00     0.128 A   
ATOM     32  C20 UNL     1      -4.322   2.083   0.461  1.00  0.00     0.082 A   
ATOM     33  C23 UNL     1      -2.301   1.086  -1.219  1.00  0.00     0.045 A   
ATOM     34  C21 UNL     1      -4.657   1.345  -0.610  1.00  0.00     0.016 A   
ATOM     35  C22 UNL     1      -3.601   0.851  -1.481  1.00  0.00     0.005 A   
ENDBRANCH  26  27
ENDBRANCH  25  26
ENDBRANCH   3  25
TORSDOF 9
