REMARK SMILES Cc1ccc(F)cc1Cn1cc([C@@H]([NH2+]Cc2ccc3c(c2)OCO3)C2CCCC2)nn1
REMARK SMILES IDX 10 1 11 2 12 3 30 4 31 5 9 7 8 8 2 9 3 10 4 11 7 12 5 13
REMARK SMILES IDX 1 14 6 15 13 16 14 17 15 20 16 21 17 22 21 23 18 24 20 25
REMARK SMILES IDX 19 26 22 27 24 28 23 29 25 30 26 31 29 32 27 33 28 34
REMARK H PARENT 11 6 14 18 14 19
ROOT
ATOM     1   N1  UNL     1      -1.845  -0.555  -1.933  1.00  0.00    -0.208 N   
ATOM     2   C9  UNL     1      -0.501  -0.815  -1.969  1.00  0.00     0.046 A   
ATOM     3   C10 UNL     1      -0.283  -1.583  -0.846  1.00  0.00     0.127 A   
ATOM     4   N3  UNL     1      -1.473  -1.774  -0.191  1.00  0.00    -0.132 NA  
ATOM     5   N4  UNL     1      -2.419  -1.140  -0.863  1.00  0.00    -0.076 NA  
ATOM     6   H9  UNL     1       0.144  -0.419  -2.741  1.00  0.00     0.083 HD  
ENDROOT
BRANCH   1   7
ATOM     7   C8  UNL     1      -2.629   0.279  -2.832  1.00  0.00     0.169 C   
BRANCH   7   8
ATOM     8   C7  UNL     1      -2.342   1.746  -2.590  1.00  0.00    -0.023 A   
ATOM     9   C2  UNL     1      -1.661   2.560  -3.525  1.00  0.00    -0.046 A   
ATOM     10  C3  UNL     1      -1.420   3.912  -3.215  1.00  0.00     0.007 A   
ATOM     11  C4  UNL     1      -1.837   4.455  -2.000  1.00  0.00     0.039 A   
ATOM     12  C6  UNL     1      -2.766   2.318  -1.373  1.00  0.00     0.045 A   
ATOM     13  C5  UNL     1      -2.507   3.653  -1.089  1.00  0.00     0.123 A   
ATOM     14  C1  UNL     1      -1.217   2.042  -4.867  1.00  0.00     0.044 C   
ATOM     15  F1  UNL     1      -2.899   4.165   0.083  1.00  0.00    -0.207 F   
ENDBRANCH   7   8
ENDBRANCH   1   7
BRANCH   3  16
ATOM     16  C11 UNL     1       0.973  -2.126  -0.245  1.00  0.00     0.117 C   
BRANCH  16  17
ATOM     17  N2  UNL     1       0.922  -1.950   1.253  1.00  0.00     0.249 N   
ATOM     18  H11 UNL     1       0.006  -2.308   1.565  1.00  0.00     0.199 HD  
ATOM     19  H12 UNL     1       1.630  -2.516   1.731  1.00  0.00     0.199 HD  
BRANCH  17  20
ATOM     20  C12 UNL     1       1.035  -0.542   1.731  1.00  0.00     0.164 C   
BRANCH  20  21
ATOM     21  C13 UNL     1       0.974  -0.489   3.231  1.00  0.00    -0.002 A   
ATOM     22  C14 UNL     1       2.162  -0.531   4.000  1.00  0.00     0.012 A   
ATOM     23  C18 UNL     1      -0.272  -0.447   3.880  1.00  0.00     0.045 A   
ATOM     24  C15 UNL     1       2.111  -0.516   5.398  1.00  0.00     0.037 A   
ATOM     25  C17 UNL     1      -0.285  -0.433   5.260  1.00  0.00     0.109 A   
ATOM     26  C16 UNL     1       0.872  -0.465   5.998  1.00  0.00     0.108 A   
ATOM     27  O1  UNL     1      -1.398  -0.392   6.039  1.00  0.00    -0.316 OA  
ATOM     28  O2  UNL     1       0.634  -0.444   7.335  1.00  0.00    -0.316 OA  
ATOM     29  C19 UNL     1      -0.807  -0.363   7.359  1.00  0.00     0.337 C   
ENDBRANCH  20  21
ENDBRANCH  17  20
ENDBRANCH  16  17
BRANCH  16  30
ATOM     30  C20 UNL     1       1.164  -3.621  -0.562  1.00  0.00     0.043 C   
ATOM     31  C21 UNL     1       2.433  -4.240   0.032  1.00  0.00     0.010 C   
ATOM     32  C24 UNL     1       1.358  -3.897  -2.057  1.00  0.00     0.010 C   
ATOM     33  C22 UNL     1       2.661  -5.512  -0.780  1.00  0.00     0.001 C   
ATOM     34  C23 UNL     1       1.951  -5.300  -2.113  1.00  0.00     0.001 C   
ENDBRANCH  16  30
ENDBRANCH   3  16
TORSDOF 7
