REMARK SMILES c1cc2c(cc1C[NH2+][C@H](c1cn(-c3ccc4[nH]ncc4c3)nn1)C1CCCCC1)OCO2
REMARK SMILES IDX 9 1 8 2 7 5 6 6 1 7 2 8 3 9 5 10 4 11 32 12 30 13 31 14
REMARK SMILES IDX 10 15 11 16 23 17 12 18 22 19 13 20 14 21 21 22 15 23 20 24
REMARK SMILES IDX 16 25 19 26 17 27 18 28 24 30 25 31 29 32 26 33 28 34 27 35
REMARK H PARENT 8 3 8 4 17 29
ROOT
ATOM     1   C8  UNL     1       1.266  -1.127  -0.923  1.00  0.00     0.117 C   
ENDROOT
BRANCH   1   2
ATOM     2   N1  UNL     1       1.924  -2.384  -0.388  1.00  0.00     0.249 N   
ATOM     3   H6  UNL     1       2.833  -2.523  -0.840  1.00  0.00     0.199 HD  
ATOM     4   H7  UNL     1       1.321  -3.173  -0.662  1.00  0.00     0.199 HD  
BRANCH   2   5
ATOM     5   C7  UNL     1       2.096  -2.469   1.095  1.00  0.00     0.164 C   
BRANCH   5   6
ATOM     6   C6  UNL     1       2.994  -1.397   1.647  1.00  0.00    -0.002 A   
ATOM     7   C1  UNL     1       4.391  -1.444   1.427  1.00  0.00     0.012 A   
ATOM     8   C2  UNL     1       5.227  -0.427   1.901  1.00  0.00     0.037 A   
ATOM     9   C3  UNL     1       4.646   0.618   2.584  1.00  0.00     0.108 A   
ATOM     10  C5  UNL     1       2.441  -0.316   2.357  1.00  0.00     0.045 A   
ATOM     11  C4  UNL     1       3.293   0.672   2.806  1.00  0.00     0.109 A   
ATOM     12  O2  UNL     1       5.299   1.688   3.104  1.00  0.00    -0.316 OA  
ATOM     13  O1  UNL     1       2.922   1.786   3.489  1.00  0.00    -0.316 OA  
ATOM     14  C24 UNL     1       4.208   2.409   3.715  1.00  0.00     0.337 C   
ENDBRANCH   5   6
ENDBRANCH   2   5
ENDBRANCH   1   2
BRANCH   1  15
ATOM     15  C9  UNL     1      -0.159  -1.054  -0.482  1.00  0.00     0.127 A   
ATOM     16  C10 UNL     1      -0.935   0.014  -0.088  1.00  0.00     0.135 A   
ATOM     17  N6  UNL     1      -0.884  -2.204  -0.348  1.00  0.00    -0.131 NA  
ATOM     18  N2  UNL     1      -2.154  -0.533   0.262  1.00  0.00    -0.181 N   
ATOM     19  N5  UNL     1      -2.084  -1.881   0.104  1.00  0.00    -0.071 NA  
BRANCH  18  20
ATOM     20  C11 UNL     1      -3.321   0.109   0.747  1.00  0.00     0.058 A   
ATOM     21  C12 UNL     1      -3.350   1.499   0.939  1.00  0.00     0.028 A   
ATOM     22  C17 UNL     1      -4.457  -0.673   1.040  1.00  0.00     0.037 A   
ATOM     23  C13 UNL     1      -4.495   2.140   1.433  1.00  0.00     0.028 A   
ATOM     24  C16 UNL     1      -5.610  -0.037   1.534  1.00  0.00     0.019 A   
ATOM     25  C14 UNL     1      -5.603   1.339   1.719  1.00  0.00     0.056 A   
ATOM     26  C15 UNL     1      -6.901  -0.443   1.938  1.00  0.00     0.141 A   
ATOM     27  N3  UNL     1      -6.849   1.644   2.205  1.00  0.00    -0.238 N   
ATOM     28  N4  UNL     1      -7.655   0.578   2.350  1.00  0.00    -0.192 NA  
ATOM     29  H12 UNL     1      -7.213   2.558   2.456  1.00  0.00     0.176 HD  
ENDBRANCH  18  20
ENDBRANCH   1  15
BRANCH   1  30
ATOM     30  C18 UNL     1       1.462  -1.093  -2.464  1.00  0.00     0.043 C   
ATOM     31  C19 UNL     1       1.040   0.267  -3.056  1.00  0.00     0.010 C   
ATOM     32  C23 UNL     1       0.766  -2.240  -3.224  1.00  0.00     0.010 C   
ATOM     33  C20 UNL     1       1.313   0.337  -4.557  1.00  0.00     0.001 C   
ATOM     34  C22 UNL     1       1.034  -2.163  -4.727  1.00  0.00     0.001 C   
ATOM     35  C21 UNL     1       0.638  -0.808  -5.304  1.00  0.00     0.000 C   
ENDBRANCH   1  30
TORSDOF 6
