REMARK SMILES CC(C)(C)[C@H]([NH2+]Cc1ccc2c(c1)OCO2)c1cn(CCc2ccncc2Cl)nn1
REMARK SMILES IDX 17 1 18 2 19 3 29 4 30 5 5 7 2 8 1 9 3 10 4 11 6 12 7 15
REMARK SMILES IDX 8 16 9 17 13 18 10 19 12 20 11 21 14 22 16 23 15 24 20 25
REMARK SMILES IDX 21 26 22 27 23 28 27 29 24 30 26 31 25 32 28 33
REMARK H PARENT 18 6 6 13 6 14
ROOT
ATOM     1   C14 UNL     1      -1.932  -1.023   0.372  1.00  0.00     0.127 A   
ATOM     2   C15 UNL     1      -2.064  -2.392   0.442  1.00  0.00     0.045 A   
ATOM     3   N2  UNL     1      -1.827  -2.811  -0.838  1.00  0.00    -0.212 N   
ATOM     4   N4  UNL     1      -1.596  -1.767  -1.654  1.00  0.00    -0.076 NA  
ATOM     5   N5  UNL     1      -1.649  -0.665  -0.923  1.00  0.00    -0.132 NA  
ATOM     6   H20 UNL     1      -2.245  -3.081   1.255  1.00  0.00     0.083 HD  
ENDROOT
BRANCH   1   7
ATOM     7   C5  UNL     1      -1.919   0.020   1.450  1.00  0.00     0.120 C   
BRANCH   7   8
ATOM     8   C2  UNL     1      -3.277   0.783   1.626  1.00  0.00     0.010 C   
ATOM     9   C1  UNL     1      -4.419  -0.224   1.895  1.00  0.00     0.017 C   
ATOM     10  C3  UNL     1      -3.655   1.627   0.393  1.00  0.00     0.017 C   
ATOM     11  C4  UNL     1      -3.208   1.724   2.852  1.00  0.00     0.017 C   
ENDBRANCH   7   8
BRANCH   7  12
ATOM     12  N1  UNL     1      -0.798   0.989   1.162  1.00  0.00     0.250 N   
ATOM     13  H11 UNL     1      -0.880   1.861   1.690  1.00  0.00     0.199 HD  
ATOM     14  H12 UNL     1      -0.882   1.245   0.167  1.00  0.00     0.199 HD  
BRANCH  12  15
ATOM     15  C6  UNL     1       0.578   0.443   1.359  1.00  0.00     0.164 C   
BRANCH  15  16
ATOM     16  C7  UNL     1       1.603   1.407   0.833  1.00  0.00    -0.002 A   
ATOM     17  C8  UNL     1       1.872   1.464  -0.557  1.00  0.00     0.012 A   
ATOM     18  C12 UNL     1       2.264   2.288   1.703  1.00  0.00     0.045 A   
ATOM     19  C9  UNL     1       2.795   2.379  -1.073  1.00  0.00     0.037 A   
ATOM     20  C11 UNL     1       3.168   3.178   1.161  1.00  0.00     0.109 A   
ATOM     21  C10 UNL     1       3.427   3.222  -0.186  1.00  0.00     0.108 A   
ATOM     22  O1  UNL     1       3.889   4.094   1.859  1.00  0.00    -0.316 OA  
ATOM     23  O2  UNL     1       4.346   4.170  -0.507  1.00  0.00    -0.316 OA  
ATOM     24  C13 UNL     1       4.656   4.707   0.797  1.00  0.00     0.337 C   
ENDBRANCH  15  16
ENDBRANCH  12  15
ENDBRANCH   7  12
ENDBRANCH   1   7
BRANCH   3  25
ATOM     25  C16 UNL     1      -1.658  -4.172  -1.302  1.00  0.00     0.139 C   
BRANCH  25  26
ATOM     26  C17 UNL     1      -0.211  -4.519  -1.687  1.00  0.00     0.058 C   
BRANCH  26  27
ATOM     27  C18 UNL     1       0.849  -4.002  -0.735  1.00  0.00    -0.025 A   
ATOM     28  C19 UNL     1       1.701  -2.974  -1.174  1.00  0.00     0.025 A   
ATOM     29  C22 UNL     1       1.006  -4.463   0.577  1.00  0.00     0.062 A   
ATOM     30  C20 UNL     1       2.616  -2.423  -0.290  1.00  0.00     0.111 A   
ATOM     31  C21 UNL     1       1.943  -3.837   1.392  1.00  0.00     0.131 A   
ATOM     32  N3  UNL     1       2.720  -2.798   1.000  1.00  0.00    -0.263 NA  
ATOM     33  CL1 UNL     1       0.065  -5.746   1.230  1.00  0.00    -0.082 Cl  
ENDBRANCH  26  27
ENDBRANCH  25  26
ENDBRANCH   3  25
TORSDOF 8
