REMARK SMILES c1ccc2c(c1)CC(n1cc([C@@H]([NH2+]Cc3ccc4c(c3)OCO4)C3CCCC3)nn1)C2
REMARK SMILES IDX 12 1 11 2 9 3 10 4 30 5 29 6 8 8 1 9 2 10 6 11 3 12 5 13
REMARK SMILES IDX 4 14 7 15 31 16 13 17 14 20 15 21 16 22 20 23 17 24 19 25
REMARK SMILES IDX 18 26 21 27 23 28 22 29 24 30 25 31 28 32 26 33 27 34
REMARK H PARENT 10 7 13 18 13 19
ROOT
ATOM     1   C11 UNL     1      -0.448   0.154  -0.604  1.00  0.00     0.117 C   
ENDROOT
BRANCH   1   2
ATOM     2   C10 UNL     1      -0.940  -0.366   0.708  1.00  0.00     0.127 A   
ATOM     3   N1  UNL     1      -1.556  -0.744   2.751  1.00  0.00    -0.208 N   
ATOM     4   C9  UNL     1      -1.069   0.242   1.936  1.00  0.00     0.046 A   
ATOM     5   N4  UNL     1      -1.668  -1.903   2.071  1.00  0.00    -0.076 NA  
ATOM     6   N3  UNL     1      -1.311  -1.680   0.818  1.00  0.00    -0.132 NA  
ATOM     7   H8  UNL     1      -0.875   1.248   2.287  1.00  0.00     0.083 HD  
BRANCH   3   8
ATOM     8   C8  UNL     1      -1.904  -0.697   4.167  1.00  0.00     0.108 C   
ATOM     9   C1  UNL     1       0.208   3.057   5.992  1.00  0.00     0.000 A   
ATOM     10  C2  UNL     1      -1.030   3.642   5.683  1.00  0.00     0.000 A   
ATOM     11  C6  UNL     1       0.415   1.689   5.810  1.00  0.00     0.004 A   
ATOM     12  C3  UNL     1      -2.080   2.867   5.188  1.00  0.00     0.004 A   
ATOM     13  C5  UNL     1      -0.627   0.930   5.306  1.00  0.00    -0.043 A   
ATOM     14  C4  UNL     1      -1.863   1.513   5.000  1.00  0.00    -0.043 A   
ATOM     15  C7  UNL     1      -0.652  -0.548   5.056  1.00  0.00     0.061 C   
ATOM     16  C25 UNL     1      -2.838   0.484   4.512  1.00  0.00     0.061 C   
ENDBRANCH   3   8
ENDBRANCH   1   2
BRANCH   1  17
ATOM     17  N2  UNL     1       0.332  -0.923  -1.316  1.00  0.00     0.249 N   
ATOM     18  H10 UNL     1      -0.254  -1.772  -1.304  1.00  0.00     0.199 HD  
ATOM     19  H11 UNL     1       0.489  -0.693  -2.301  1.00  0.00     0.199 HD  
BRANCH  17  20
ATOM     20  C12 UNL     1       1.641  -1.277  -0.698  1.00  0.00     0.164 C   
BRANCH  20  21
ATOM     21  C13 UNL     1       2.333  -2.337  -1.508  1.00  0.00    -0.002 A   
ATOM     22  C14 UNL     1       3.302  -1.983  -2.477  1.00  0.00     0.012 A   
ATOM     23  C18 UNL     1       1.981  -3.689  -1.341  1.00  0.00     0.045 A   
ATOM     24  C15 UNL     1       3.922  -2.961  -3.262  1.00  0.00     0.037 A   
ATOM     25  C17 UNL     1       2.611  -4.626  -2.132  1.00  0.00     0.109 A   
ATOM     26  C16 UNL     1       3.555  -4.273  -3.065  1.00  0.00     0.108 A   
ATOM     27  O1  UNL     1       2.389  -5.966  -2.099  1.00  0.00    -0.316 OA  
ATOM     28  O2  UNL     1       4.048  -5.346  -3.735  1.00  0.00    -0.316 OA  
ATOM     29  C19 UNL     1       3.321  -6.424  -3.105  1.00  0.00     0.337 C   
ENDBRANCH  20  21
ENDBRANCH  17  20
ENDBRANCH   1  17
BRANCH   1  30
ATOM     30  C20 UNL     1      -1.609   0.603  -1.514  1.00  0.00     0.043 C   
ATOM     31  C21 UNL     1      -1.173   1.168  -2.869  1.00  0.00     0.010 C   
ATOM     32  C24 UNL     1      -2.412   1.775  -0.938  1.00  0.00     0.010 C   
ATOM     33  C22 UNL     1      -2.391   1.935  -3.371  1.00  0.00     0.001 C   
ATOM     34  C23 UNL     1      -3.183   2.334  -2.128  1.00  0.00     0.001 C   
ENDBRANCH   1  30
TORSDOF 6
