REMARK SMILES CC(C)(C)[C@H]([NH2+]Cc1ccc2c(c1)OCO2)c1cn(CCc2ccc(F)c(F)c2)nn1
REMARK SMILES IDX 17 1 18 2 19 3 30 4 31 5 5 7 2 8 1 9 3 10 4 11 6 12 7 15
REMARK SMILES IDX 8 16 9 17 13 18 10 19 12 20 11 21 14 22 16 23 15 24 20 25
REMARK SMILES IDX 21 26 22 27 23 28 29 29 24 30 27 31 25 32 28 33 26 34
REMARK H PARENT 18 6 6 13 6 14
ROOT
ATOM     1   C14 UNL     1       0.568   0.987  -0.354  1.00  0.00     0.127 A   
ATOM     2   C15 UNL     1       1.928   1.142  -0.508  1.00  0.00     0.045 A   
ATOM     3   N2  UNL     1       2.248   0.265  -1.506  1.00  0.00    -0.212 N   
ATOM     4   N3  UNL     1       1.147  -0.332  -1.996  1.00  0.00    -0.076 NA  
ATOM     5   N4  UNL     1       0.112   0.089  -1.288  1.00  0.00    -0.132 NA  
ATOM     6   H20 UNL     1       2.673   1.737   0.003  1.00  0.00     0.083 HD  
ENDROOT
BRANCH   1   7
ATOM     7   C5  UNL     1      -0.410   1.643   0.575  1.00  0.00     0.120 C   
BRANCH   7   8
ATOM     8   C2  UNL     1      -0.572   0.912   1.954  1.00  0.00     0.010 C   
ATOM     9   C1  UNL     1       0.793   0.819   2.674  1.00  0.00     0.017 C   
ATOM     10  C3  UNL     1      -1.511   1.715   2.885  1.00  0.00     0.017 C   
ATOM     11  C4  UNL     1      -1.139  -0.514   1.806  1.00  0.00     0.017 C   
ENDBRANCH   7   8
BRANCH   7  12
ATOM     12  N1  UNL     1      -1.746   1.743  -0.126  1.00  0.00     0.250 N   
ATOM     13  H11 UNL     1      -1.903   0.834  -0.588  1.00  0.00     0.199 HD  
ATOM     14  H12 UNL     1      -2.526   1.870   0.522  1.00  0.00     0.199 HD  
BRANCH  12  15
ATOM     15  C6  UNL     1      -1.834   2.788  -1.185  1.00  0.00     0.164 C   
BRANCH  15  16
ATOM     16  C7  UNL     1      -3.175   2.738  -1.859  1.00  0.00    -0.002 A   
ATOM     17  C8  UNL     1      -4.233   3.567  -1.418  1.00  0.00     0.012 A   
ATOM     18  C12 UNL     1      -3.401   1.822  -2.902  1.00  0.00     0.045 A   
ATOM     19  C9  UNL     1      -5.497   3.496  -2.014  1.00  0.00     0.037 A   
ATOM     20  C11 UNL     1      -4.658   1.777  -3.467  1.00  0.00     0.109 A   
ATOM     21  C10 UNL     1      -5.677   2.590  -3.036  1.00  0.00     0.108 A   
ATOM     22  O1  UNL     1      -5.042   0.955  -4.478  1.00  0.00    -0.316 OA  
ATOM     23  O2  UNL     1      -6.830   2.384  -3.723  1.00  0.00    -0.316 OA  
ATOM     24  C13 UNL     1      -6.419   1.359  -4.653  1.00  0.00     0.337 C   
ENDBRANCH  15  16
ENDBRANCH  12  15
ENDBRANCH   7  12
ENDBRANCH   1   7
BRANCH   3  25
ATOM     25  C16 UNL     1       3.561  -0.068  -2.018  1.00  0.00     0.139 C   
BRANCH  25  26
ATOM     26  C17 UNL     1       4.034  -1.460  -1.592  1.00  0.00     0.057 C   
BRANCH  26  27
ATOM     27  C18 UNL     1       4.128  -1.624  -0.091  1.00  0.00    -0.043 A   
ATOM     28  C19 UNL     1       3.182  -2.405   0.594  1.00  0.00     0.007 A   
ATOM     29  C23 UNL     1       5.138  -0.980   0.638  1.00  0.00     0.046 A   
ATOM     30  C20 UNL     1       3.241  -2.535   1.984  1.00  0.00     0.043 A   
ATOM     31  C22 UNL     1       5.184  -1.109   2.024  1.00  0.00     0.159 A   
ATOM     32  C21 UNL     1       4.242  -1.879   2.693  1.00  0.00     0.158 A   
ATOM     33  F2  UNL     1       6.139  -0.465   2.709  1.00  0.00    -0.204 F   
ATOM     34  F1  UNL     1       4.279  -1.985   4.027  1.00  0.00    -0.204 F   
ENDBRANCH  26  27
ENDBRANCH  25  26
ENDBRANCH   3  25
TORSDOF 8
