REMARK SMILES Cc1cnc(Cn2cc([C@H](CC(C)C)[NH2+]Cc3ccc4c(c3)OCO4)nn2)c(F)c1
REMARK SMILES IDX 7 1 8 2 9 3 26 4 27 5 6 7 5 8 2 9 3 10 30 11 4 12 28 13 1 14
REMARK SMILES IDX 29 15 10 16 11 17 12 18 13 19 14 20 15 21 16 24 17 25 18 26
REMARK SMILES IDX 22 27 19 28 21 29 20 30 23 31 25 32 24 33
REMARK H PARENT 8 6 15 22 15 23
ROOT
ATOM     1   N2  UNL     1      -1.351   1.381  -0.647  1.00  0.00    -0.206 N   
ATOM     2   C6  UNL     1      -1.554   0.210   0.033  1.00  0.00     0.046 A   
ATOM     3   C7  UNL     1      -1.374   0.557   1.352  1.00  0.00     0.127 A   
ATOM     4   N4  UNL     1      -1.073   1.893   1.431  1.00  0.00    -0.132 NA  
ATOM     5   N5  UNL     1      -1.065   2.386   0.204  1.00  0.00    -0.076 NA  
ATOM     6   H7  UNL     1      -1.786  -0.717  -0.475  1.00  0.00     0.083 HD  
ENDROOT
BRANCH   1   7
ATOM     7   C5  UNL     1      -1.492   1.632  -2.068  1.00  0.00     0.193 C   
BRANCH   7   8
ATOM     8   C4  UNL     1      -0.387   0.979  -2.845  1.00  0.00     0.095 A   
ATOM     9   C2  UNL     1       1.584  -0.214  -4.361  1.00  0.00    -0.030 A   
ATOM     10  C3  UNL     1       0.347  -0.807  -4.127  1.00  0.00     0.115 A   
ATOM     11  C22 UNL     1       1.830   1.023  -3.762  1.00  0.00     0.046 A   
ATOM     12  N1  UNL     1      -0.638  -0.246  -3.382  1.00  0.00    -0.256 NA  
ATOM     13  C21 UNL     1       0.835   1.622  -3.003  1.00  0.00     0.146 A   
ATOM     14  C1  UNL     1       2.633  -0.894  -5.182  1.00  0.00     0.046 C   
ATOM     15  F1  UNL     1       1.060   2.815  -2.438  1.00  0.00    -0.205 F   
ENDBRANCH   7   8
ENDBRANCH   1   7
BRANCH   3  16
ATOM     16  C8  UNL     1      -1.393  -0.249   2.608  1.00  0.00     0.114 C   
BRANCH  16  17
ATOM     17  C9  UNL     1      -2.734  -0.145   3.359  1.00  0.00     0.064 C   
BRANCH  17  18
ATOM     18  C10 UNL     1      -3.956  -0.712   2.605  1.00  0.00    -0.012 C   
ATOM     19  C11 UNL     1      -5.224  -0.487   3.435  1.00  0.00     0.007 C   
ATOM     20  C12 UNL     1      -3.807  -2.200   2.286  1.00  0.00     0.007 C   
ENDBRANCH  17  18
ENDBRANCH  16  17
BRANCH  16  21
ATOM     21  N3  UNL     1      -0.315   0.286   3.539  1.00  0.00     0.249 N   
ATOM     22  H18 UNL     1      -0.671   0.372   4.496  1.00  0.00     0.199 HD  
ATOM     23  H19 UNL     1      -0.134   1.254   3.226  1.00  0.00     0.199 HD  
BRANCH  21  24
ATOM     24  C13 UNL     1       0.975  -0.455   3.560  1.00  0.00     0.164 C   
BRANCH  24  25
ATOM     25  C14 UNL     1       1.638  -0.596   2.218  1.00  0.00    -0.002 A   
ATOM     26  C15 UNL     1       2.159   0.535   1.544  1.00  0.00     0.012 A   
ATOM     27  C19 UNL     1       1.731  -1.861   1.613  1.00  0.00     0.045 A   
ATOM     28  C16 UNL     1       2.755   0.411   0.284  1.00  0.00     0.037 A   
ATOM     29  C18 UNL     1       2.328  -1.949   0.373  1.00  0.00     0.109 A   
ATOM     30  C17 UNL     1       2.827  -0.846  -0.274  1.00  0.00     0.108 A   
ATOM     31  O1  UNL     1       2.495  -3.092  -0.342  1.00  0.00    -0.316 OA  
ATOM     32  O2  UNL     1       3.377  -1.156  -1.476  1.00  0.00    -0.316 OA  
ATOM     33  C20 UNL     1       3.186  -2.587  -1.505  1.00  0.00     0.337 C   
ENDBRANCH  24  25
ENDBRANCH  21  24
ENDBRANCH  16  21
ENDBRANCH   3  16
TORSDOF 8
