REMARK SMILES COc1cc(OC)cc(-n2cc([C@@H]([NH2+]Cc3ccc4c(c3)OCO4)C(C)(C)C)nn2)c1
REMARK SMILES IDX 10 1 11 2 12 3 29 4 30 5 9 6 3 7 4 8 31 9 5 10 8 11 2 12
REMARK SMILES IDX 1 13 6 14 7 15 13 16 14 17 15 20 16 21 17 22 21 23 18 24
REMARK SMILES IDX 20 25 19 26 22 27 24 28 23 29 25 30 26 31 27 32 28 33
REMARK H PARENT 14 18 14 19
ROOT
ATOM     1   N1  UNL     1      -0.774   0.238   0.353  1.00  0.00    -0.180 N   
ATOM     2   C8  UNL     1       0.073   0.554   1.398  1.00  0.00     0.135 A   
ATOM     3   C9  UNL     1       0.516   1.829   1.125  1.00  0.00     0.128 A   
ATOM     4   N3  UNL     1      -0.090   2.279  -0.013  1.00  0.00    -0.131 NA  
ATOM     5   N4  UNL     1      -0.888   1.323  -0.458  1.00  0.00    -0.071 NA  
ENDROOT
BRANCH   1   6
ATOM     6   C7  UNL     1      -1.410  -0.992   0.062  1.00  0.00     0.063 A   
ATOM     7   C2  UNL     1      -1.800  -3.337   0.558  1.00  0.00     0.079 A   
ATOM     8   C3  UNL     1      -2.630  -3.426  -0.559  1.00  0.00     0.067 A   
ATOM     9   C23 UNL     1      -1.194  -2.117   0.869  1.00  0.00     0.059 A   
ATOM     10  C4  UNL     1      -2.857  -2.309  -1.370  1.00  0.00     0.079 A   
ATOM     11  C6  UNL     1      -2.246  -1.092  -1.062  1.00  0.00     0.059 A   
BRANCH   7  12
ATOM     12  O1  UNL     1      -1.491  -4.356   1.416  1.00  0.00    -0.349 OA  
ATOM     13  C1  UNL     1      -2.132  -5.607   1.184  1.00  0.00     0.203 C   
ENDBRANCH   7  12
BRANCH  10  14
ATOM     14  O2  UNL     1      -3.691  -2.542  -2.430  1.00  0.00    -0.349 OA  
ATOM     15  C5  UNL     1      -3.971  -1.448  -3.294  1.00  0.00     0.203 C   
ENDBRANCH  10  14
ENDBRANCH   1   6
BRANCH   3  16
ATOM     16  C10 UNL     1       1.587   2.656   1.770  1.00  0.00     0.120 C   
BRANCH  16  17
ATOM     17  N2  UNL     1       2.484   3.212   0.676  1.00  0.00     0.250 N   
ATOM     18  H11 UNL     1       1.879   3.330  -0.153  1.00  0.00     0.199 HD  
ATOM     19  H12 UNL     1       2.818   4.150   0.907  1.00  0.00     0.199 HD  
BRANCH  17  20
ATOM     20  C11 UNL     1       3.657   2.371   0.283  1.00  0.00     0.164 C   
BRANCH  20  21
ATOM     21  C12 UNL     1       3.285   1.031  -0.288  1.00  0.00    -0.002 A   
ATOM     22  C13 UNL     1       2.734   0.936  -1.590  1.00  0.00     0.012 A   
ATOM     23  C17 UNL     1       3.416  -0.133   0.490  1.00  0.00     0.045 A   
ATOM     24  C14 UNL     1       2.297  -0.291  -2.099  1.00  0.00     0.037 A   
ATOM     25  C16 UNL     1       2.965  -1.325  -0.038  1.00  0.00     0.109 A   
ATOM     26  C15 UNL     1       2.419  -1.402  -1.295  1.00  0.00     0.108 A   
ATOM     27  O3  UNL     1       2.972  -2.524   0.599  1.00  0.00    -0.316 OA  
ATOM     28  O4  UNL     1       2.023  -2.662  -1.612  1.00  0.00    -0.316 OA  
ATOM     29  C18 UNL     1       2.399  -3.380  -0.418  1.00  0.00     0.337 C   
ENDBRANCH  20  21
ENDBRANCH  17  20
ENDBRANCH  16  17
BRANCH  16  30
ATOM     30  C19 UNL     1       1.048   3.809   2.686  1.00  0.00     0.010 C   
ATOM     31  C20 UNL     1       0.108   3.228   3.767  1.00  0.00     0.017 C   
ATOM     32  C21 UNL     1       2.222   4.490   3.428  1.00  0.00     0.017 C   
ATOM     33  C22 UNL     1       0.276   4.890   1.903  1.00  0.00     0.017 C   
ENDBRANCH  16  30
ENDBRANCH   3  16
TORSDOF 8
