REMARK SMILES Oc1cc(Cl)ccc1-n1cc([C@@H]([NH2+]Cc2ccc3c(c2)OCO3)C2CCCC2)nn1
REMARK SMILES IDX 9 1 10 2 11 3 29 4 30 5 8 6 2 7 3 8 4 9 7 10 6 11 5 12 1 13
REMARK SMILES IDX 12 15 13 16 14 19 15 20 16 21 20 22 17 23 19 24 18 25 21 26
REMARK SMILES IDX 23 27 22 28 24 29 25 30 28 31 26 32 27 33
REMARK H PARENT 1 14 13 17 13 18
ROOT
ATOM     1   N1  UNL     1      -1.124  -2.593   1.760  1.00  0.00    -0.178 N   
ATOM     2   C7  UNL     1      -1.274  -2.170   0.453  1.00  0.00     0.135 A   
ATOM     3   C8  UNL     1      -0.444  -1.080   0.319  1.00  0.00     0.127 A   
ATOM     4   N3  UNL     1       0.156  -0.826   1.517  1.00  0.00    -0.131 NA  
ATOM     5   N4  UNL     1      -0.266  -1.732   2.384  1.00  0.00    -0.071 NA  
ENDROOT
BRANCH   1   6
ATOM     6   C6  UNL     1      -1.698  -3.691   2.457  1.00  0.00     0.088 A   
ATOM     7   C1  UNL     1      -2.595  -4.593   1.867  1.00  0.00     0.096 A   
ATOM     8   C2  UNL     1      -3.115  -5.663   2.607  1.00  0.00     0.055 A   
ATOM     9   C3  UNL     1      -2.745  -5.836   3.939  1.00  0.00     0.043 A   
ATOM     10  C5  UNL     1      -1.338  -3.885   3.806  1.00  0.00     0.030 A   
ATOM     11  C4  UNL     1      -1.861  -4.951   4.542  1.00  0.00     0.023 A   
ATOM     12  CL1 UNL     1      -3.388  -7.151   4.841  1.00  0.00    -0.084 Cl  
BRANCH   7  13
ATOM     13  O1  UNL     1      -2.994  -4.464   0.566  1.00  0.00    -0.359 OA  
ATOM     14  H1  UNL     1      -3.593  -5.200   0.338  1.00  0.00     0.218 HD  
ENDBRANCH   7  13
ENDBRANCH   1   6
BRANCH   3  15
ATOM     15  C9  UNL     1      -0.167  -0.196  -0.853  1.00  0.00     0.117 C   
BRANCH  15  16
ATOM     16  N2  UNL     1      -0.017   1.232  -0.392  1.00  0.00     0.249 N   
ATOM     17  H7  UNL     1       0.374   1.827  -1.129  1.00  0.00     0.199 HD  
ATOM     18  H8  UNL     1       0.670   1.231   0.376  1.00  0.00     0.199 HD  
BRANCH  16  19
ATOM     19  C10 UNL     1      -1.260   1.878   0.119  1.00  0.00     0.164 C   
BRANCH  19  20
ATOM     20  C11 UNL     1      -0.992   3.314   0.473  1.00  0.00    -0.002 A   
ATOM     21  C12 UNL     1      -0.399   3.641   1.717  1.00  0.00     0.012 A   
ATOM     22  C16 UNL     1      -1.274   4.335  -0.450  1.00  0.00     0.045 A   
ATOM     23  C13 UNL     1      -0.096   4.969   2.041  1.00  0.00     0.037 A   
ATOM     24  C15 UNL     1      -0.967   5.633  -0.096  1.00  0.00     0.109 A   
ATOM     25  C14 UNL     1      -0.393   5.942   1.113  1.00  0.00     0.108 A   
ATOM     26  O2  UNL     1      -1.174   6.730  -0.870  1.00  0.00    -0.316 OA  
ATOM     27  O3  UNL     1      -0.167   7.274   1.253  1.00  0.00    -0.316 OA  
ATOM     28  C17 UNL     1      -0.694   7.777   0.006  1.00  0.00     0.337 C   
ENDBRANCH  19  20
ENDBRANCH  16  19
ENDBRANCH  15  16
BRANCH  15  29
ATOM     29  C18 UNL     1       1.125  -0.608  -1.587  1.00  0.00     0.043 C   
ATOM     30  C19 UNL     1       1.438   0.223  -2.835  1.00  0.00     0.010 C   
ATOM     31  C22 UNL     1       1.073  -2.026  -2.167  1.00  0.00     0.010 C   
ATOM     32  C20 UNL     1       2.470  -0.612  -3.583  1.00  0.00     0.001 C   
ATOM     33  C21 UNL     1       2.182  -2.064  -3.215  1.00  0.00     0.001 C   
ENDBRANCH  15  29
ENDBRANCH   3  15
TORSDOF 7
