REMARK SMILES CC(C)[C@H]([NH2+]Cc1ccc2c(c1)OCO2)c1cn(CCc2cccc(F)c2F)nn1
REMARK SMILES IDX 16 1 17 2 18 3 29 4 30 5 4 7 2 8 1 9 3 10 5 11 6 14 7 15
REMARK SMILES IDX 8 16 12 17 9 18 11 19 10 20 13 21 15 22 14 23 19 24 20 25
REMARK SMILES IDX 21 26 22 27 27 28 23 29 25 30 24 31 28 32 26 33
REMARK H PARENT 17 6 5 12 5 13
ROOT
ATOM     1   C13 UNL     1      -1.551  -1.492   0.219  1.00  0.00     0.127 A   
ATOM     2   C14 UNL     1      -2.542  -0.541   0.326  1.00  0.00     0.045 A   
ATOM     3   N2  UNL     1      -2.968  -0.656   1.619  1.00  0.00    -0.212 N   
ATOM     4   N3  UNL     1      -2.311  -1.641   2.257  1.00  0.00    -0.076 NA  
ATOM     5   N4  UNL     1      -1.439  -2.161   1.411  1.00  0.00    -0.132 NA  
ATOM     6   H18 UNL     1      -2.934   0.205  -0.351  1.00  0.00     0.083 HD  
ENDROOT
BRANCH   1   7
ATOM     7   C4  UNL     1      -0.597  -1.813  -0.888  1.00  0.00     0.117 C   
BRANCH   7   8
ATOM     8   C2  UNL     1      -0.997  -3.098  -1.666  1.00  0.00     0.037 C   
ATOM     9   C1  UNL     1      -2.416  -2.988  -2.245  1.00  0.00     0.014 C   
ATOM     10  C3  UNL     1      -0.035  -3.405  -2.824  1.00  0.00     0.014 C   
ENDBRANCH   7   8
BRANCH   7  11
ATOM     11  N1  UNL     1       0.781  -2.007  -0.284  1.00  0.00     0.249 N   
ATOM     12  H9  UNL     1       1.412  -2.482  -0.931  1.00  0.00     0.199 HD  
ATOM     13  H10 UNL     1       0.649  -2.633   0.524  1.00  0.00     0.199 HD  
BRANCH  11  14
ATOM     14  C5  UNL     1       1.462  -0.773   0.215  1.00  0.00     0.164 C   
BRANCH  14  15
ATOM     15  C6  UNL     1       1.911   0.125  -0.904  1.00  0.00    -0.002 A   
ATOM     16  C7  UNL     1       1.242   1.347  -1.154  1.00  0.00     0.012 A   
ATOM     17  C11 UNL     1       2.981  -0.257  -1.732  1.00  0.00     0.045 A   
ATOM     18  C8  UNL     1       1.623   2.173  -2.217  1.00  0.00     0.037 A   
ATOM     19  C10 UNL     1       3.332   0.581  -2.771  1.00  0.00     0.109 A   
ATOM     20  C9  UNL     1       2.671   1.760  -3.008  1.00  0.00     0.108 A   
ATOM     21  O1  UNL     1       4.332   0.356  -3.662  1.00  0.00    -0.316 OA  
ATOM     22  O2  UNL     1       3.172   2.429  -4.079  1.00  0.00    -0.316 OA  
ATOM     23  C12 UNL     1       4.250   1.552  -4.472  1.00  0.00     0.337 C   
ENDBRANCH  14  15
ENDBRANCH  11  14
ENDBRANCH   7  11
ENDBRANCH   1   7
BRANCH   3  24
ATOM     24  C15 UNL     1      -3.918   0.173   2.332  1.00  0.00     0.139 C   
BRANCH  24  25
ATOM     25  C16 UNL     1      -3.379   1.567   2.674  1.00  0.00     0.060 C   
BRANCH  25  26
ATOM     26  C17 UNL     1      -2.164   1.543   3.568  1.00  0.00    -0.008 A   
ATOM     27  C18 UNL     1      -2.291   1.502   4.963  1.00  0.00     0.007 A   
ATOM     28  C22 UNL     1      -0.878   1.510   3.017  1.00  0.00     0.162 A   
ATOM     29  C19 UNL     1      -1.155   1.429   5.778  1.00  0.00     0.004 A   
ATOM     30  C21 UNL     1       0.248   1.416   3.827  1.00  0.00     0.159 A   
ATOM     31  C20 UNL     1       0.119   1.380   5.209  1.00  0.00     0.042 A   
ATOM     32  F2  UNL     1      -0.724   1.538   1.683  1.00  0.00    -0.203 F   
ATOM     33  F1  UNL     1       1.463   1.329   3.267  1.00  0.00    -0.204 F   
ENDBRANCH  25  26
ENDBRANCH  24  25
ENDBRANCH   3  24
TORSDOF 8
