REMARK SMILES Cc1cc(-n2cc([C@@H]([NH2+]Cc3ccc4c(c3)OCO4)C(C)C)nn2)ccc1O
REMARK SMILES IDX 5 1 6 2 7 3 23 4 24 5 4 6 2 7 3 8 27 9 26 10 25 11 1 12
REMARK SMILES IDX 28 13 8 15 9 16 10 19 11 20 12 21 16 22 13 23 15 24 14 25
REMARK SMILES IDX 17 26 19 27 18 28 20 29 21 30 22 31
REMARK H PARENT 28 14 9 17 9 18
ROOT
ATOM     1   N1  UNL     1      -0.822  -0.031   1.654  1.00  0.00    -0.181 N   
ATOM     2   C5  UNL     1      -0.032  -1.048   1.152  1.00  0.00     0.135 A   
ATOM     3   C6  UNL     1       1.086  -0.420   0.649  1.00  0.00     0.127 A   
ATOM     4   N3  UNL     1       0.953   0.929   0.817  1.00  0.00    -0.131 NA  
ATOM     5   N4  UNL     1      -0.205   1.156   1.413  1.00  0.00    -0.071 NA  
ENDROOT
BRANCH   1   6
ATOM     6   C4  UNL     1      -2.079  -0.111   2.302  1.00  0.00     0.058 A   
ATOM     7   C2  UNL     1      -3.967   1.026   3.369  1.00  0.00    -0.019 A   
ATOM     8   C3  UNL     1      -2.718   1.069   2.725  1.00  0.00     0.032 A   
ATOM     9   C21 UNL     1      -4.560  -0.221   3.582  1.00  0.00     0.074 A   
ATOM     10  C20 UNL     1      -3.935  -1.395   3.166  1.00  0.00     0.035 A   
ATOM     11  C19 UNL     1      -2.695  -1.347   2.527  1.00  0.00     0.028 A   
ATOM     12  C1  UNL     1      -4.617   2.307   3.807  1.00  0.00     0.047 C   
BRANCH   9  13
ATOM     13  O3  UNL     1      -5.768  -0.377   4.197  1.00  0.00    -0.361 OA  
ATOM     14  H25 UNL     1      -6.116   0.486   4.470  1.00  0.00     0.218 HD  
ENDBRANCH   9  13
ENDBRANCH   1   6
BRANCH   3  15
ATOM     15  C7  UNL     1       2.297  -0.961  -0.043  1.00  0.00     0.117 C   
BRANCH  15  16
ATOM     16  N2  UNL     1       2.826   0.050  -1.041  1.00  0.00     0.249 N   
ATOM     17  H7  UNL     1       2.875   0.951  -0.546  1.00  0.00     0.199 HD  
ATOM     18  H8  UNL     1       3.780  -0.194  -1.321  1.00  0.00     0.199 HD  
BRANCH  16  19
ATOM     19  C8  UNL     1       1.998   0.271  -2.265  1.00  0.00     0.164 C   
BRANCH  19  20
ATOM     20  C9  UNL     1       1.948  -0.933  -3.164  1.00  0.00    -0.002 A   
ATOM     21  C10 UNL     1       0.749  -1.675  -3.297  1.00  0.00     0.012 A   
ATOM     22  C14 UNL     1       3.097  -1.347  -3.862  1.00  0.00     0.045 A   
ATOM     23  C11 UNL     1       0.695  -2.816  -4.104  1.00  0.00     0.037 A   
ATOM     24  C13 UNL     1       3.009  -2.477  -4.647  1.00  0.00     0.109 A   
ATOM     25  C12 UNL     1       1.843  -3.192  -4.764  1.00  0.00     0.108 A   
ATOM     26  O1  UNL     1       4.022  -3.012  -5.376  1.00  0.00    -0.316 OA  
ATOM     27  O2  UNL     1       1.975  -4.268  -5.583  1.00  0.00    -0.316 OA  
ATOM     28  C15 UNL     1       3.352  -4.134  -5.996  1.00  0.00     0.337 C   
ENDBRANCH  19  20
ENDBRANCH  16  19
ENDBRANCH  15  16
BRANCH  15  29
ATOM     29  C16 UNL     1       3.456  -1.347   0.915  1.00  0.00     0.037 C   
ATOM     30  C17 UNL     1       3.074  -2.525   1.819  1.00  0.00     0.014 C   
ATOM     31  C18 UNL     1       3.980  -0.188   1.770  1.00  0.00     0.014 C   
ENDBRANCH  15  29
ENDBRANCH   3  15
TORSDOF 7
