REMARK SMILES Fc1ccc(CCn2cc([C@@H]([NH2+]Cc3ccc4c(c3)OCO4)C3CCCC3)nn2)cc1F
REMARK SMILES IDX 8 1 9 2 10 3 28 4 29 5 7 7 6 8 5 9 2 10 3 11 31 12 4 13
REMARK SMILES IDX 30 14 1 15 32 16 11 17 12 18 13 21 14 22 15 23 19 24 16 25
REMARK SMILES IDX 18 26 17 27 20 28 22 29 21 30 23 31 24 32 27 33 25 34 26 35
REMARK H PARENT 9 6 12 19 12 20
ROOT
ATOM     1   N1  UNL     1      -1.087   1.660  -2.243  1.00  0.00    -0.212 N   
ATOM     2   C7  UNL     1      -0.180   1.369  -1.264  1.00  0.00     0.045 A   
ATOM     3   C8  UNL     1       0.038   0.016  -1.407  1.00  0.00     0.127 A   
ATOM     4   N3  UNL     1      -0.732  -0.459  -2.436  1.00  0.00    -0.132 NA  
ATOM     5   N4  UNL     1      -1.412   0.557  -2.943  1.00  0.00    -0.076 NA  
ATOM     6   H7  UNL     1       0.200   2.115  -0.579  1.00  0.00     0.083 HD  
ENDROOT
BRANCH   1   7
ATOM     7   C6  UNL     1      -1.691   2.940  -2.549  1.00  0.00     0.139 C   
BRANCH   7   8
ATOM     8   C5  UNL     1      -3.209   2.966  -2.355  1.00  0.00     0.057 C   
BRANCH   8   9
ATOM     9   C4  UNL     1      -3.660   2.569  -0.966  1.00  0.00    -0.043 A   
ATOM     10  C1  UNL     1      -4.495   1.797   1.593  1.00  0.00     0.158 A   
ATOM     11  C2  UNL     1      -4.774   0.977   0.505  1.00  0.00     0.043 A   
ATOM     12  C24 UNL     1      -3.812   2.994   1.413  1.00  0.00     0.159 A   
ATOM     13  C3  UNL     1      -4.354   1.361  -0.772  1.00  0.00     0.007 A   
ATOM     14  C23 UNL     1      -3.396   3.389   0.142  1.00  0.00     0.046 A   
ATOM     15  F1  UNL     1      -4.869   1.409   2.820  1.00  0.00    -0.204 F   
ATOM     16  F2  UNL     1      -3.525   3.771   2.467  1.00  0.00    -0.204 F   
ENDBRANCH   8   9
ENDBRANCH   7   8
ENDBRANCH   1   7
BRANCH   3  17
ATOM     17  C9  UNL     1       0.872  -0.930  -0.608  1.00  0.00     0.117 C   
BRANCH  17  18
ATOM     18  N2  UNL     1       0.105  -2.213  -0.355  1.00  0.00     0.249 N   
ATOM     19  H9  UNL     1      -0.176  -2.569  -1.279  1.00  0.00     0.199 HD  
ATOM     20  H10 UNL     1       0.717  -2.915   0.071  1.00  0.00     0.199 HD  
BRANCH  18  21
ATOM     21  C10 UNL     1      -1.133  -2.094   0.471  1.00  0.00     0.164 C   
BRANCH  21  22
ATOM     22  C11 UNL     1      -0.866  -1.613   1.869  1.00  0.00    -0.002 A   
ATOM     23  C12 UNL     1      -1.249  -0.307   2.256  1.00  0.00     0.012 A   
ATOM     24  C16 UNL     1      -0.211  -2.444   2.795  1.00  0.00     0.045 A   
ATOM     25  C13 UNL     1      -0.990   0.171   3.546  1.00  0.00     0.037 A   
ATOM     26  C15 UNL     1       0.035  -1.941   4.056  1.00  0.00     0.109 A   
ATOM     27  C14 UNL     1      -0.343  -0.672   4.422  1.00  0.00     0.108 A   
ATOM     28  O1  UNL     1       0.658  -2.608   5.062  1.00  0.00    -0.316 OA  
ATOM     29  O2  UNL     1      -0.005  -0.380   5.704  1.00  0.00    -0.316 OA  
ATOM     30  C17 UNL     1       0.605  -1.622   6.118  1.00  0.00     0.337 C   
ENDBRANCH  21  22
ENDBRANCH  18  21
ENDBRANCH  17  18
BRANCH  17  31
ATOM     31  C18 UNL     1       2.187  -1.294  -1.327  1.00  0.00     0.043 C   
ATOM     32  C19 UNL     1       3.107  -2.220  -0.518  1.00  0.00     0.010 C   
ATOM     33  C22 UNL     1       3.099  -0.089  -1.588  1.00  0.00     0.010 C   
ATOM     34  C20 UNL     1       4.518  -1.978  -1.055  1.00  0.00     0.001 C   
ATOM     35  C21 UNL     1       4.437  -0.729  -1.927  1.00  0.00     0.001 C   
ENDBRANCH  17  31
ENDBRANCH   3  17
TORSDOF 8
