REMARK SMILES CN(C)c1ccccc1Cn1cc([C@@H]([NH2+]Cc2ccc3c(c2)OCO3)C2CCCC2)nn1
REMARK SMILES IDX 11 1 12 2 13 3 31 4 32 5 10 7 9 8 4 9 5 10 6 11 8 12 7 13
REMARK SMILES IDX 2 14 1 15 3 16 14 17 15 18 16 21 17 22 18 23 22 24 19 25
REMARK SMILES IDX 21 26 20 27 23 28 25 29 24 30 26 31 27 32 30 33 28 34 29 35
REMARK H PARENT 12 6 15 19 15 20
ROOT
ATOM     1   N2  UNL     1      -0.590   2.282   0.952  1.00  0.00    -0.208 N   
ATOM     2   C10 UNL     1      -0.790   0.935   1.075  1.00  0.00     0.046 A   
ATOM     3   C11 UNL     1       0.418   0.459   1.528  1.00  0.00     0.127 A   
ATOM     4   N4  UNL     1       1.278   1.510   1.714  1.00  0.00    -0.132 NA  
ATOM     5   N5  UNL     1       0.652   2.620   1.359  1.00  0.00    -0.076 NA  
ATOM     6   H13 UNL     1      -1.719   0.465   0.782  1.00  0.00     0.083 HD  
ENDROOT
BRANCH   1   7
ATOM     7   C9  UNL     1      -1.495   3.279   0.407  1.00  0.00     0.171 C   
BRANCH   7   8
ATOM     8   C8  UNL     1      -1.430   3.277  -1.104  1.00  0.00    -0.007 A   
ATOM     9   C3  UNL     1      -2.298   2.478  -1.881  1.00  0.00     0.033 A   
ATOM     10  C4  UNL     1      -2.142   2.486  -3.278  1.00  0.00     0.024 A   
ATOM     11  C5  UNL     1      -1.151   3.255  -3.893  1.00  0.00     0.002 A   
ATOM     12  C7  UNL     1      -0.431   4.042  -1.737  1.00  0.00     0.007 A   
ATOM     13  C6  UNL     1      -0.296   4.032  -3.123  1.00  0.00     0.000 A   
BRANCH   9  14
ATOM     14  N1  UNL     1      -3.313   1.725  -1.239  1.00  0.00    -0.337 N   
ATOM     15  C1  UNL     1      -3.504   0.371  -1.779  1.00  0.00     0.129 C   
ATOM     16  C2  UNL     1      -4.568   2.502  -1.207  1.00  0.00     0.129 C   
ENDBRANCH   9  14
ENDBRANCH   7   8
ENDBRANCH   1   7
BRANCH   3  17
ATOM     17  C12 UNL     1       0.908  -0.935   1.720  1.00  0.00     0.117 C   
BRANCH  17  18
ATOM     18  N3  UNL     1       2.296  -1.071   1.124  1.00  0.00     0.249 N   
ATOM     19  H15 UNL     1       2.703  -1.978   1.363  1.00  0.00     0.199 HD  
ATOM     20  H16 UNL     1       2.871  -0.345   1.574  1.00  0.00     0.199 HD  
BRANCH  18  21
ATOM     21  C13 UNL     1       2.407  -0.862  -0.353  1.00  0.00     0.164 C   
BRANCH  21  22
ATOM     22  C14 UNL     1       1.650  -1.886  -1.153  1.00  0.00    -0.002 A   
ATOM     23  C15 UNL     1       2.112  -3.223  -1.228  1.00  0.00     0.012 A   
ATOM     24  C19 UNL     1       0.460  -1.527  -1.810  1.00  0.00     0.045 A   
ATOM     25  C16 UNL     1       1.396  -4.190  -1.940  1.00  0.00     0.037 A   
ATOM     26  C18 UNL     1      -0.221  -2.505  -2.505  1.00  0.00     0.109 A   
ATOM     27  C17 UNL     1       0.234  -3.799  -2.567  1.00  0.00     0.108 A   
ATOM     28  O1  UNL     1      -1.385  -2.330  -3.186  1.00  0.00    -0.316 OA  
ATOM     29  O2  UNL     1      -0.583  -4.601  -3.299  1.00  0.00    -0.316 OA  
ATOM     30  C20 UNL     1      -1.591  -3.659  -3.721  1.00  0.00     0.337 C   
ENDBRANCH  21  22
ENDBRANCH  18  21
ENDBRANCH  17  18
BRANCH  17  31
ATOM     31  C21 UNL     1       0.981  -1.326   3.209  1.00  0.00     0.043 C   
ATOM     32  C22 UNL     1      -0.378  -1.301   3.916  1.00  0.00     0.010 C   
ATOM     33  C25 UNL     1       1.468  -2.762   3.459  1.00  0.00     0.010 C   
ATOM     34  C23 UNL     1      -0.112  -2.083   5.191  1.00  0.00     0.001 C   
ATOM     35  C24 UNL     1       0.794  -3.226   4.752  1.00  0.00     0.001 C   
ENDBRANCH  17  31
ENDBRANCH   3  17
TORSDOF 8
