REMARK SMILES Cc1ccnc(-n2cc([C@H](CC(C)C)[NH2+]Cc3ccc4c(c3)OCO4)nn2)n1
REMARK SMILES IDX 10 1 9 2 7 3 8 4 27 5 26 6 6 7 2 8 3 9 28 10 4 11 5 12 1 13
REMARK SMILES IDX 11 14 12 15 13 16 14 17 15 18 16 21 17 22 18 23 22 24 19 25
REMARK SMILES IDX 21 26 20 27 23 28 25 29 24 30
REMARK H PARENT 15 19 15 20
ROOT
ATOM     1   C8  UNL     1      -0.910   0.598   0.504  1.00  0.00     0.114 C   
ENDROOT
BRANCH   1   2
ATOM     2   C7  UNL     1       0.349   1.228  -0.002  1.00  0.00     0.127 A   
ATOM     3   N2  UNL     1       1.928   2.418  -0.945  1.00  0.00    -0.146 N   
ATOM     4   C6  UNL     1       0.552   2.316  -0.820  1.00  0.00     0.138 A   
ATOM     5   N5  UNL     1       2.510   1.406  -0.245  1.00  0.00    -0.068 NA  
ATOM     6   N4  UNL     1       1.560   0.695   0.342  1.00  0.00    -0.131 NA  
BRANCH   3   7
ATOM     7   C5  UNL     1       2.660   3.397  -1.681  1.00  0.00     0.242 A   
ATOM     8   C2  UNL     1       2.637   5.284  -3.005  1.00  0.00     0.043 A   
ATOM     9   C3  UNL     1       4.017   5.289  -3.054  1.00  0.00     0.044 A   
ATOM     10  N6  UNL     1       1.941   4.344  -2.328  1.00  0.00    -0.219 NA  
ATOM     11  C4  UNL     1       4.655   4.279  -2.372  1.00  0.00     0.117 A   
ATOM     12  N1  UNL     1       4.006   3.323  -1.684  1.00  0.00    -0.222 NA  
ATOM     13  C1  UNL     1       1.853   6.342  -3.724  1.00  0.00     0.067 C   
ENDBRANCH   3   7
ENDBRANCH   1   2
BRANCH   1  14
ATOM     14  C9  UNL     1      -1.394   1.310   1.783  1.00  0.00     0.064 C   
BRANCH  14  15
ATOM     15  C10 UNL     1      -2.707   0.794   2.408  1.00  0.00    -0.012 C   
ATOM     16  C11 UNL     1      -3.067   1.649   3.627  1.00  0.00     0.007 C   
ATOM     17  C12 UNL     1      -3.871   0.793   1.416  1.00  0.00     0.007 C   
ENDBRANCH  14  15
ENDBRANCH   1  14
BRANCH   1  18
ATOM     18  N3  UNL     1      -0.690  -0.860   0.801  1.00  0.00     0.249 N   
ATOM     19  H17 UNL     1       0.158  -0.930   1.381  1.00  0.00     0.199 HD  
ATOM     20  H18 UNL     1      -1.453  -1.254   1.359  1.00  0.00     0.199 HD  
BRANCH  18  21
ATOM     21  C13 UNL     1      -0.488  -1.735  -0.389  1.00  0.00     0.164 C   
BRANCH  21  22
ATOM     22  C14 UNL     1      -0.357  -3.171   0.037  1.00  0.00    -0.002 A   
ATOM     23  C15 UNL     1       0.905  -3.690   0.412  1.00  0.00     0.012 A   
ATOM     24  C19 UNL     1      -1.497  -3.989   0.123  1.00  0.00     0.045 A   
ATOM     25  C16 UNL     1       1.035  -5.011   0.855  1.00  0.00     0.037 A   
ATOM     26  C18 UNL     1      -1.334  -5.285   0.567  1.00  0.00     0.109 A   
ATOM     27  C17 UNL     1      -0.104  -5.784   0.920  1.00  0.00     0.108 A   
ATOM     28  O1  UNL     1      -2.327  -6.198   0.717  1.00  0.00    -0.316 OA  
ATOM     29  O2  UNL     1      -0.168  -7.077   1.330  1.00  0.00    -0.316 OA  
ATOM     30  C20 UNL     1      -1.580  -7.342   1.192  1.00  0.00     0.337 C   
ENDBRANCH  21  22
ENDBRANCH  18  21
ENDBRANCH   1  18
TORSDOF 7
