REMARK SMILES CC(C)C[C@H]([NH2+]Cc1ccc2c(c1)OCO2)c1cn(Cc2ccc([S+]([O-])[O-])cc2)nn1
REMARK SMILES IDX 17 1 18 2 19 3 30 4 31 5 5 7 4 8 2 9 1 10 3 11 6 12 7 15
REMARK SMILES IDX 8 16 9 17 13 18 10 19 12 20 11 21 14 22 16 23 15 24 20 25
REMARK SMILES IDX 21 26 22 27 29 28 23 29 28 30 24 31 25 32 26 33 27 34
REMARK H PARENT 18 6 6 13 6 14
ROOT
ATOM     1   C14 UNL     1      -1.375  -2.230   0.292  1.00  0.00     0.127 A   
ATOM     2   C15 UNL     1      -0.496  -3.256   0.006  1.00  0.00     0.046 A   
ATOM     3   N2  UNL     1      -0.799  -4.220   0.943  1.00  0.00    -0.208 N   
ATOM     4   N3  UNL     1      -1.979  -3.931   1.533  1.00  0.00    -0.076 NA  
ATOM     5   N4  UNL     1      -2.317  -2.697   1.175  1.00  0.00    -0.132 NA  
ATOM     6   H20 UNL     1       0.407  -3.296  -0.586  1.00  0.00     0.083 HD  
ENDROOT
BRANCH   1   7
ATOM     7   C5  UNL     1      -1.353  -0.777  -0.096  1.00  0.00     0.114 C   
BRANCH   7   8
ATOM     8   C4  UNL     1      -0.590  -0.489  -1.405  1.00  0.00     0.064 C   
BRANCH   8   9
ATOM     9   C2  UNL     1      -1.238  -1.075  -2.679  1.00  0.00    -0.012 C   
ATOM     10  C1  UNL     1      -0.302  -0.864  -3.873  1.00  0.00     0.007 C   
ATOM     11  C3  UNL     1      -2.599  -0.444  -2.977  1.00  0.00     0.007 C   
ENDBRANCH   8   9
ENDBRANCH   7   8
BRANCH   7  12
ATOM     12  N1  UNL     1      -0.750   0.052   0.995  1.00  0.00     0.249 N   
ATOM     13  H11 UNL     1      -0.553  -0.518   1.831  1.00  0.00     0.199 HD  
ATOM     14  H12 UNL     1       0.236   0.340   0.781  1.00  0.00     0.199 HD  
BRANCH  12  15
ATOM     15  C6  UNL     1      -1.479   1.247   1.467  1.00  0.00     0.164 C   
BRANCH  15  16
ATOM     16  C7  UNL     1      -1.680   2.300   0.408  1.00  0.00    -0.002 A   
ATOM     17  C8  UNL     1      -2.957   2.510  -0.168  1.00  0.00     0.012 A   
ATOM     18  C12 UNL     1      -0.585   3.067  -0.032  1.00  0.00     0.045 A   
ATOM     19  C9  UNL     1      -3.143   3.462  -1.175  1.00  0.00     0.037 A   
ATOM     20  C11 UNL     1      -0.802   3.994  -1.030  1.00  0.00     0.109 A   
ATOM     21  C10 UNL     1      -2.045   4.187  -1.584  1.00  0.00     0.108 A   
ATOM     22  O1  UNL     1       0.141   4.801  -1.584  1.00  0.00    -0.316 OA  
ATOM     23  O2  UNL     1      -2.042   5.142  -2.553  1.00  0.00    -0.316 OA  
ATOM     24  C13 UNL     1      -0.650   5.523  -2.552  1.00  0.00     0.337 C   
ENDBRANCH  15  16
ENDBRANCH  12  15
ENDBRANCH   7  12
ENDBRANCH   1   7
BRANCH   3  25
ATOM     25  C16 UNL     1       0.184  -5.069   1.634  1.00  0.00     0.169 C   
BRANCH  25  26
ATOM     26  C17 UNL     1       1.168  -4.124   2.308  1.00  0.00    -0.028 A   
ATOM     27  C18 UNL     1       2.280  -3.667   1.579  1.00  0.00     0.010 A   
ATOM     28  C22 UNL     1       0.728  -3.405   3.432  1.00  0.00     0.010 A   
ATOM     29  C19 UNL     1       2.729  -2.363   1.776  1.00  0.00     0.063 A   
ATOM     30  C21 UNL     1       1.192  -2.110   3.633  1.00  0.00     0.063 A   
ATOM     31  C20 UNL     1       2.097  -1.558   2.724  1.00  0.00     0.167 A   
BRANCH  31  32
ATOM     32  S1  UNL     1       2.166   0.259   2.520  1.00  0.00     0.041 S   
ATOM     33  O3  UNL     1       1.824   0.481   1.056  1.00  0.00    -0.672 OA  
ATOM     34  O4  UNL     1       1.067   0.805   3.404  1.00  0.00    -0.672 OA  
ENDBRANCH  31  32
ENDBRANCH  25  26
ENDBRANCH   3  25
TORSDOF 9
