REMARK SMILES COc1ccc(F)cc1Cn1cc([C@@H]([NH2+]Cc2ccc3c(c2)OCO3)C(C)C)nn1
REMARK SMILES IDX 11 1 12 2 13 3 29 4 30 5 10 7 9 8 3 9 4 10 5 11 8 12 6 13
REMARK SMILES IDX 7 14 2 15 1 16 14 17 15 18 16 21 17 22 18 23 22 24 19 25
REMARK SMILES IDX 21 26 20 27 23 28 25 29 24 30 26 31 27 32 28 33
REMARK H PARENT 12 6 15 19 15 20
ROOT
ATOM     1   N1  UNL     1      -2.903   0.956  -0.002  1.00  0.00    -0.208 N   
ATOM     2   C9  UNL     1      -1.769   1.722   0.011  1.00  0.00     0.046 A   
ATOM     3   C10 UNL     1      -0.954   1.125  -0.924  1.00  0.00     0.127 A   
ATOM     4   N3  UNL     1      -1.608   0.049  -1.471  1.00  0.00    -0.132 NA  
ATOM     5   N4  UNL     1      -2.795  -0.046  -0.896  1.00  0.00    -0.076 NA  
ATOM     6   H9  UNL     1      -1.656   2.572   0.669  1.00  0.00     0.083 HD  
ENDROOT
BRANCH   1   7
ATOM     7   C8  UNL     1      -4.110   1.117   0.790  1.00  0.00     0.172 C   
BRANCH   7   8
ATOM     8   C7  UNL     1      -3.977   0.419   2.122  1.00  0.00     0.005 A   
ATOM     9   C2  UNL     1      -3.505   1.096   3.265  1.00  0.00     0.080 A   
ATOM     10  C3  UNL     1      -3.382   0.407   4.478  1.00  0.00     0.037 A   
ATOM     11  C4  UNL     1      -3.722  -0.945   4.560  1.00  0.00     0.042 A   
ATOM     12  C6  UNL     1      -4.312  -0.943   2.219  1.00  0.00     0.047 A   
ATOM     13  C5  UNL     1      -4.182  -1.607   3.432  1.00  0.00     0.123 A   
ATOM     14  F1  UNL     1      -4.498  -2.906   3.508  1.00  0.00    -0.207 F   
BRANCH   9  15
ATOM     15  O1  UNL     1      -3.171   2.413   3.084  1.00  0.00    -0.349 OA  
ATOM     16  C1  UNL     1      -2.972   3.195   4.261  1.00  0.00     0.203 C   
ENDBRANCH   9  15
ENDBRANCH   7   8
ENDBRANCH   1   7
BRANCH   3  17
ATOM     17  C11 UNL     1       0.443   1.433  -1.361  1.00  0.00     0.117 C   
BRANCH  17  18
ATOM     18  N2  UNL     1       1.097   0.196  -1.917  1.00  0.00     0.249 N   
ATOM     19  H11 UNL     1       1.891   0.414  -2.526  1.00  0.00     0.199 HD  
ATOM     20  H12 UNL     1       0.393  -0.266  -2.513  1.00  0.00     0.199 HD  
BRANCH  18  21
ATOM     21  C12 UNL     1       1.524  -0.805  -0.899  1.00  0.00     0.164 C   
BRANCH  21  22
ATOM     22  C13 UNL     1       2.047  -2.043  -1.571  1.00  0.00    -0.002 A   
ATOM     23  C14 UNL     1       1.164  -3.102  -1.893  1.00  0.00     0.012 A   
ATOM     24  C18 UNL     1       3.401  -2.134  -1.935  1.00  0.00     0.045 A   
ATOM     25  C15 UNL     1       1.625  -4.245  -2.554  1.00  0.00     0.037 A   
ATOM     26  C17 UNL     1       3.821  -3.274  -2.588  1.00  0.00     0.109 A   
ATOM     27  C16 UNL     1       2.960  -4.301  -2.888  1.00  0.00     0.108 A   
ATOM     28  O2  UNL     1       5.088  -3.520  -3.012  1.00  0.00    -0.316 OA  
ATOM     29  O3  UNL     1       3.578  -5.325  -3.531  1.00  0.00    -0.316 OA  
ATOM     30  C19 UNL     1       4.936  -4.838  -3.586  1.00  0.00     0.337 C   
ENDBRANCH  21  22
ENDBRANCH  18  21
ENDBRANCH  17  18
BRANCH  17  31
ATOM     31  C20 UNL     1       0.493   2.583  -2.402  1.00  0.00     0.037 C   
ATOM     32  C21 UNL     1      -0.112   2.217  -3.763  1.00  0.00     0.014 C   
ATOM     33  C22 UNL     1       1.919   3.110  -2.595  1.00  0.00     0.014 C   
ENDBRANCH  17  31
ENDBRANCH   3  17
TORSDOF 8
