REMARK SMILES COc1cccc(C)c1Cn1cc([C@@H]([NH2+]Cc2ccc3c(c2)OCO3)C(C)(C)C)nn1
REMARK SMILES IDX 11 1 12 2 13 3 30 4 31 5 10 7 9 8 3 9 4 10 5 11 7 12 6 13
REMARK SMILES IDX 8 14 2 15 1 16 14 17 15 18 16 21 17 22 18 23 22 24 19 25
REMARK SMILES IDX 21 26 20 27 23 28 25 29 24 30 26 31 27 32 28 33 29 34
REMARK H PARENT 12 6 15 19 15 20
ROOT
ATOM     1   N1  UNL     1      -0.841  -2.498   1.206  1.00  0.00    -0.208 N   
ATOM     2   C10 UNL     1      -0.492  -1.240   1.615  1.00  0.00     0.046 A   
ATOM     3   C11 UNL     1      -1.344  -0.414   0.917  1.00  0.00     0.127 A   
ATOM     4   N3  UNL     1      -2.193  -1.177   0.160  1.00  0.00    -0.132 NA  
ATOM     5   N4  UNL     1      -1.887  -2.449   0.356  1.00  0.00    -0.076 NA  
ATOM     6   H12 UNL     1       0.332  -1.061   2.292  1.00  0.00     0.083 HD  
ENDROOT
BRANCH   1   7
ATOM     7   C9  UNL     1      -0.224  -3.764   1.567  1.00  0.00     0.172 C   
BRANCH   7   8
ATOM     8   C8  UNL     1       0.768  -4.212   0.511  1.00  0.00     0.005 A   
ATOM     9   C2  UNL     1       2.064  -3.644   0.486  1.00  0.00     0.080 A   
ATOM     10  C3  UNL     1       2.983  -4.034  -0.492  1.00  0.00     0.034 A   
ATOM     11  C4  UNL     1       2.635  -4.992  -1.441  1.00  0.00     0.003 A   
ATOM     12  C6  UNL     1       0.420  -5.183  -0.460  1.00  0.00    -0.044 A   
ATOM     13  C5  UNL     1       1.366  -5.562  -1.424  1.00  0.00     0.004 A   
ATOM     14  C7  UNL     1      -0.932  -5.847  -0.489  1.00  0.00     0.045 C   
BRANCH   9  15
ATOM     15  O1  UNL     1       2.327  -2.698   1.447  1.00  0.00    -0.349 OA  
ATOM     16  C1  UNL     1       3.695  -2.355   1.655  1.00  0.00     0.203 C   
ENDBRANCH   9  15
ENDBRANCH   7   8
ENDBRANCH   1   7
BRANCH   3  17
ATOM     17  C12 UNL     1      -1.369   1.075   0.786  1.00  0.00     0.120 C   
BRANCH  17  18
ATOM     18  N2  UNL     1      -1.526   1.437  -0.680  1.00  0.00     0.250 N   
ATOM     19  H14 UNL     1      -1.685   2.438  -0.795  1.00  0.00     0.199 HD  
ATOM     20  H15 UNL     1      -2.369   0.946  -1.008  1.00  0.00     0.199 HD  
BRANCH  18  21
ATOM     21  C13 UNL     1      -0.411   1.020  -1.589  1.00  0.00     0.164 C   
BRANCH  21  22
ATOM     22  C14 UNL     1       0.903   1.668  -1.251  1.00  0.00    -0.002 A   
ATOM     23  C15 UNL     1       1.112   3.044  -1.508  1.00  0.00     0.012 A   
ATOM     24  C19 UNL     1       1.924   0.914  -0.643  1.00  0.00     0.045 A   
ATOM     25  C16 UNL     1       2.316   3.665  -1.159  1.00  0.00     0.037 A   
ATOM     26  C18 UNL     1       3.097   1.558  -0.309  1.00  0.00     0.109 A   
ATOM     27  C17 UNL     1       3.287   2.894  -0.559  1.00  0.00     0.108 A   
ATOM     28  O2  UNL     1       4.173   0.984   0.291  1.00  0.00    -0.316 OA  
ATOM     29  O3  UNL     1       4.508   3.330  -0.152  1.00  0.00    -0.316 OA  
ATOM     30  C20 UNL     1       5.081   2.108   0.359  1.00  0.00     0.337 C   
ENDBRANCH  21  22
ENDBRANCH  18  21
ENDBRANCH  17  18
BRANCH  17  31
ATOM     31  C21 UNL     1      -2.474   1.782   1.648  1.00  0.00     0.010 C   
ATOM     32  C22 UNL     1      -2.305   1.399   3.136  1.00  0.00     0.017 C   
ATOM     33  C23 UNL     1      -3.907   1.416   1.214  1.00  0.00     0.017 C   
ATOM     34  C24 UNL     1      -2.322   3.319   1.558  1.00  0.00     0.017 C   
ENDBRANCH  17  31
ENDBRANCH   3  17
TORSDOF 8
