REMARK SMILES CC(C)[C@H]([NH2+]Cc1ccc2c(c1)OCO2)c1cn(Cc2ncc[nH]2)nn1
REMARK SMILES IDX 16 1 17 2 18 3 25 4 26 5 4 7 2 8 1 9 3 10 5 11 6 14 7 15
REMARK SMILES IDX 8 16 12 17 9 18 11 19 10 20 13 21 15 22 14 23 19 24 20 25
REMARK SMILES IDX 21 26 24 27 22 28 23 29
REMARK H PARENT 17 6 5 12 5 13 24 30
ROOT
ATOM     1   C13 UNL     1       0.685  -0.372  -1.527  1.00  0.00     0.127 A   
ATOM     2   C14 UNL     1       0.496   0.555  -2.526  1.00  0.00     0.046 A   
ATOM     3   N2  UNL     1      -0.673   0.166  -3.123  1.00  0.00    -0.205 N   
ATOM     4   N5  UNL     1      -1.159  -0.952  -2.545  1.00  0.00    -0.076 NA  
ATOM     5   N6  UNL     1      -0.336  -1.290  -1.565  1.00  0.00    -0.132 NA  
ATOM     6   H18 UNL     1       1.028   1.446  -2.833  1.00  0.00     0.083 HD  
ENDROOT
BRANCH   1   7
ATOM     7   C4  UNL     1       1.725  -0.461  -0.457  1.00  0.00     0.117 C   
BRANCH   7   8
ATOM     8   C2  UNL     1       2.994  -1.217  -0.931  1.00  0.00     0.037 C   
ATOM     9   C1  UNL     1       4.165  -1.021   0.039  1.00  0.00     0.014 C   
ATOM     10  C3  UNL     1       2.773  -2.715  -1.177  1.00  0.00     0.014 C   
ENDBRANCH   7   8
BRANCH   7  11
ATOM     11  N1  UNL     1       1.152  -1.116   0.770  1.00  0.00     0.249 N   
ATOM     12  H9  UNL     1       1.880  -1.474   1.395  1.00  0.00     0.199 HD  
ATOM     13  H10 UNL     1       0.617  -1.935   0.447  1.00  0.00     0.199 HD  
BRANCH  11  14
ATOM     14  C5  UNL     1       0.214  -0.267   1.558  1.00  0.00     0.164 C   
BRANCH  14  15
ATOM     15  C6  UNL     1      -0.373  -1.055   2.694  1.00  0.00    -0.002 A   
ATOM     16  C7  UNL     1      -1.537  -1.835   2.489  1.00  0.00     0.012 A   
ATOM     17  C11 UNL     1       0.259  -1.071   3.949  1.00  0.00     0.045 A   
ATOM     18  C8  UNL     1      -2.072  -2.612   3.522  1.00  0.00     0.037 A   
ATOM     19  C10 UNL     1      -0.295  -1.847   4.945  1.00  0.00     0.109 A   
ATOM     20  C9  UNL     1      -1.428  -2.596   4.739  1.00  0.00     0.108 A   
ATOM     21  O1  UNL     1       0.189  -1.975   6.208  1.00  0.00    -0.316 OA  
ATOM     22  O2  UNL     1      -1.802  -3.286   5.847  1.00  0.00    -0.316 OA  
ATOM     23  C12 UNL     1      -0.785  -2.874   6.786  1.00  0.00     0.337 C   
ENDBRANCH  14  15
ENDBRANCH  11  14
ENDBRANCH   7  11
ENDBRANCH   1   7
BRANCH   3  24
ATOM     24  C15 UNL     1      -1.380   0.811  -4.213  1.00  0.00     0.206 C   
BRANCH  24  25
ATOM     25  C16 UNL     1      -2.139   1.980  -3.693  1.00  0.00     0.117 A   
ATOM     26  N3  UNL     1      -1.625   3.081  -3.176  1.00  0.00    -0.243 NA  
ATOM     27  N4  UNL     1      -3.512   2.040  -3.697  1.00  0.00    -0.307 N   
ATOM     28  C17 UNL     1      -2.696   3.875  -2.852  1.00  0.00     0.128 A   
ATOM     29  C18 UNL     1      -3.876   3.244  -3.161  1.00  0.00     0.093 A   
ATOM     30  H23 UNL     1      -4.144   1.327  -4.038  1.00  0.00     0.154 HD  
ENDBRANCH  24  25
ENDBRANCH   3  24
TORSDOF 7
