REMARK SMILES c1cc2c(cc1C[NH2+][C@H](c1cn(Cc3cn[nH]c3C3CCCC3)nn1)C1CCCCC1)OCO2
REMARK SMILES IDX 10 1 11 2 12 3 24 4 25 5 9 7 8 8 7 11 6 12 1 13 2 14 3 15
REMARK SMILES IDX 5 16 4 17 34 18 32 19 33 20 26 21 27 22 31 23 28 24 30 25
REMARK SMILES IDX 29 26 13 27 14 28 15 29 18 30 16 31 17 32 19 34 20 35 23 36
REMARK SMILES IDX 21 37 22 38
REMARK H PARENT 11 6 8 9 8 10 17 33
ROOT
ATOM     1   C9  UNL     1      -0.029  -1.107  -0.086  1.00  0.00     0.127 A   
ATOM     2   C10 UNL     1       0.160  -0.881  -1.431  1.00  0.00     0.046 A   
ATOM     3   N2  UNL     1      -1.031  -1.253  -1.997  1.00  0.00    -0.208 N   
ATOM     4   N5  UNL     1      -1.889  -1.699  -1.059  1.00  0.00    -0.076 NA  
ATOM     5   N6  UNL     1      -1.285  -1.620   0.115  1.00  0.00    -0.132 NA  
ATOM     6   H9  UNL     1       0.971  -0.465  -2.013  1.00  0.00     0.083 HD  
ENDROOT
BRANCH   1   7
ATOM     7   C8  UNL     1       0.828  -0.788   1.100  1.00  0.00     0.117 C   
BRANCH   7   8
ATOM     8   N1  UNL     1      -0.027  -0.082   2.127  1.00  0.00     0.249 N   
ATOM     9   H6  UNL     1       0.457   0.032   3.021  1.00  0.00     0.199 HD  
ATOM     10  H7  UNL     1      -0.840  -0.689   2.309  1.00  0.00     0.199 HD  
BRANCH   8  11
ATOM     11  C7  UNL     1      -0.553   1.255   1.721  1.00  0.00     0.164 C   
BRANCH  11  12
ATOM     12  C6  UNL     1      -1.398   1.840   2.818  1.00  0.00    -0.002 A   
ATOM     13  C1  UNL     1      -2.761   1.476   2.932  1.00  0.00     0.012 A   
ATOM     14  C2  UNL     1      -3.554   1.981   3.968  1.00  0.00     0.037 A   
ATOM     15  C3  UNL     1      -2.964   2.836   4.871  1.00  0.00     0.108 A   
ATOM     16  C5  UNL     1      -0.830   2.709   3.764  1.00  0.00     0.045 A   
ATOM     17  C4  UNL     1      -1.641   3.189   4.771  1.00  0.00     0.109 A   
ATOM     18  O2  UNL     1      -3.577   3.420   5.933  1.00  0.00    -0.316 OA  
ATOM     19  O1  UNL     1      -1.254   4.039   5.759  1.00  0.00    -0.316 OA  
ATOM     20  C26 UNL     1      -2.499   4.213   6.473  1.00  0.00     0.337 C   
ENDBRANCH  11  12
ENDBRANCH   8  11
ENDBRANCH   7   8
BRANCH   7  21
ATOM     21  C20 UNL     1       1.463  -2.061   1.735  1.00  0.00     0.043 C   
ATOM     22  C21 UNL     1       2.314  -1.740   2.983  1.00  0.00     0.010 C   
ATOM     23  C25 UNL     1       2.332  -2.814   0.699  1.00  0.00     0.010 C   
ATOM     24  C22 UNL     1       3.010  -2.973   3.556  1.00  0.00     0.001 C   
ATOM     25  C24 UNL     1       3.018  -4.044   1.289  1.00  0.00     0.001 C   
ATOM     26  C23 UNL     1       3.853  -3.687   2.510  1.00  0.00     0.000 C   
ENDBRANCH   7  21
ENDBRANCH   1   7
BRANCH   3  27
ATOM     27  C11 UNL     1      -1.458  -1.094  -3.380  1.00  0.00     0.172 C   
BRANCH  27  28
ATOM     28  C12 UNL     1      -1.762   0.340  -3.656  1.00  0.00     0.010 A   
ATOM     29  C13 UNL     1      -2.669   1.159  -2.944  1.00  0.00     0.138 A   
ATOM     30  C14 UNL     1      -1.247   1.174  -4.640  1.00  0.00     0.034 A   
ATOM     31  N3  UNL     1      -2.677   2.415  -3.384  1.00  0.00    -0.192 NA  
ATOM     32  N4  UNL     1      -1.847   2.393  -4.437  1.00  0.00    -0.242 N   
ATOM     33  H13 UNL     1      -1.734   3.249  -4.971  1.00  0.00     0.175 HD  
BRANCH  30  34
ATOM     34  C15 UNL     1      -0.257   0.907  -5.740  1.00  0.00     0.035 C   
ATOM     35  C16 UNL     1      -0.394   1.818  -6.963  1.00  0.00     0.010 C   
ATOM     36  C19 UNL     1       1.183   1.156  -5.289  1.00  0.00     0.010 C   
ATOM     37  C17 UNL     1       0.541   3.006  -6.722  1.00  0.00     0.001 C   
ATOM     38  C18 UNL     1       1.400   2.646  -5.513  1.00  0.00     0.001 C   
ENDBRANCH  30  34
ENDBRANCH  27  28
ENDBRANCH   3  27
TORSDOF 8
