REMARK SMILES CC(C)(C)[C@H]([NH2+]Cc1ccc2c(c1)OCO2)c1cn([C@@H](CCCNC(N)=[NH2+])C(=O)[O-])nn1
REMARK SMILES IDX 20 1 19 2 17 3 18 4 32 5 31 6 5 8 2 9 1 10 3 11 4 12 6 13
REMARK SMILES IDX 7 16 8 17 9 18 13 19 10 20 12 21 11 22 14 23 16 24 15 25
REMARK SMILES IDX 21 26 22 27 23 28 24 29 25 30 26 31 27 35 28 38 30 39 29 40
REMARK H PARENT 18 7 6 14 6 15 24 32 26 33 26 34 27 36 27 37
ROOT
ATOM     1   C16 UNL     1       0.332   1.348  -2.367  1.00  0.00     0.145 C   
ENDROOT
BRANCH   1   2
ATOM     2   N2  UNL     1       0.229   2.326  -1.289  1.00  0.00    -0.203 N   
ATOM     3   C14 UNL     1      -0.274   2.450   0.768  1.00  0.00     0.127 A   
ATOM     4   C15 UNL     1       0.825   2.242  -0.049  1.00  0.00     0.046 A   
ATOM     5   N7  UNL     1      -1.215   3.157   0.061  1.00  0.00    -0.132 NA  
ATOM     6   N6  UNL     1      -0.859   3.126  -1.214  1.00  0.00    -0.075 NA  
ATOM     7   H20 UNL     1       1.735   1.680   0.086  1.00  0.00     0.083 HD  
BRANCH   3   8
ATOM     8   C5  UNL     1      -0.708   1.703   1.994  1.00  0.00     0.120 C   
BRANCH   8   9
ATOM     9   C2  UNL     1       0.343   1.485   3.132  1.00  0.00     0.010 C   
ATOM     10  C1  UNL     1      -0.393   1.023   4.416  1.00  0.00     0.017 C   
ATOM     11  C3  UNL     1       1.415   0.427   2.811  1.00  0.00     0.017 C   
ATOM     12  C4  UNL     1       1.045   2.816   3.473  1.00  0.00     0.017 C   
ENDBRANCH   8   9
BRANCH   8  13
ATOM     13  N1  UNL     1      -1.301   0.380   1.544  1.00  0.00     0.250 N   
ATOM     14  H11 UNL     1      -0.719   0.007   0.740  1.00  0.00     0.199 HD  
ATOM     15  H12 UNL     1      -1.263  -0.349   2.255  1.00  0.00     0.199 HD  
BRANCH  13  16
ATOM     16  C6  UNL     1      -2.676   0.455   0.973  1.00  0.00     0.164 C   
BRANCH  16  17
ATOM     17  C7  UNL     1      -3.395  -0.869   1.060  1.00  0.00    -0.002 A   
ATOM     18  C8  UNL     1      -4.570  -0.992   1.840  1.00  0.00     0.012 A   
ATOM     19  C12 UNL     1      -2.910  -1.992   0.363  1.00  0.00     0.045 A   
ATOM     20  C9  UNL     1      -5.253  -2.210   1.928  1.00  0.00     0.037 A   
ATOM     21  C11 UNL     1      -3.607  -3.178   0.469  1.00  0.00     0.109 A   
ATOM     22  C10 UNL     1      -4.744  -3.285   1.232  1.00  0.00     0.108 A   
ATOM     23  O1  UNL     1      -3.283  -4.346  -0.147  1.00  0.00    -0.316 OA  
ATOM     24  O2  UNL     1      -5.278  -4.535   1.196  1.00  0.00    -0.316 OA  
ATOM     25  C13 UNL     1      -4.371  -5.192   0.286  1.00  0.00     0.337 C   
ENDBRANCH  16  17
ENDBRANCH  13  16
ENDBRANCH   8  13
ENDBRANCH   3   8
ENDBRANCH   1   2
BRANCH   1  26
ATOM     26  C17 UNL     1       1.288   1.808  -3.481  1.00  0.00     0.034 C   
BRANCH  26  27
ATOM     27  C18 UNL     1       2.782   1.885  -3.108  1.00  0.00     0.037 C   
BRANCH  27  28
ATOM     28  C19 UNL     1       3.657   0.940  -3.946  1.00  0.00     0.184 C   
BRANCH  28  29
ATOM     29  N3  UNL     1       3.263  -0.440  -3.699  1.00  0.00    -0.239 N   
ATOM     30  C20 UNL     1       3.648  -1.558  -4.290  1.00  0.00     0.316 C   
ATOM     31  N5  UNL     1       4.625  -1.575  -5.197  1.00  0.00    -0.252 N   
ATOM     32  H28 UNL     1       2.494  -0.606  -3.024  1.00  0.00     0.244 HD  
ATOM     33  H31 UNL     1       5.103  -0.720  -5.443  1.00  0.00     0.241 HD  
ATOM     34  H32 UNL     1       4.911  -2.432  -5.647  1.00  0.00     0.241 HD  
BRANCH  30  35
ATOM     35  N4  UNL     1       3.031  -2.693  -3.966  1.00  0.00    -0.252 N   
ATOM     36  H29 UNL     1       2.250  -2.633  -3.306  1.00  0.00     0.241 HD  
ATOM     37  H30 UNL     1       3.249  -3.583  -4.385  1.00  0.00     0.241 HD  
ENDBRANCH  30  35
ENDBRANCH  28  29
ENDBRANCH  27  28
ENDBRANCH  26  27
ENDBRANCH   1  26
BRANCH   1  38
ATOM     38  C21 UNL     1       0.489  -0.064  -1.746  1.00  0.00     0.064 C   
ATOM     39  O3  UNL     1       1.289  -0.848  -2.349  1.00  0.00    -0.548 OA  
ATOM     40  O4  UNL     1      -0.153  -0.318  -0.676  1.00  0.00    -0.548 OA  
ENDBRANCH   1  38
TORSDOF 12
