REMARK SMILES CC(C)(C)[C@H]([NH2+]Cc1ccc2c(c1)OCO2)c1cn([C@@H](CCCNC(N)=[NH2+])C(=O)O)nn1
REMARK SMILES IDX 20 1 19 2 17 3 18 4 32 5 31 6 5 8 2 9 1 10 3 11 4 12 6 13
REMARK SMILES IDX 7 16 8 17 9 18 13 19 10 20 12 21 11 22 14 23 16 24 15 25
REMARK SMILES IDX 21 26 22 27 23 28 24 29 25 30 26 31 27 35 28 38 29 39 30 40
REMARK H PARENT 18 7 6 14 6 15 24 32 26 33 26 34 27 36 27 37 30 41
ROOT
ATOM     1   C16 UNL     1       2.268  -0.391  -0.453  1.00  0.00     0.196 C   
ENDROOT
BRANCH   1   2
ATOM     2   N2  UNL     1       1.344  -0.177   0.652  1.00  0.00    -0.199 N   
ATOM     3   C14 UNL     1      -0.131   0.495   2.092  1.00  0.00     0.127 A   
ATOM     4   C15 UNL     1       0.507   0.869   0.928  1.00  0.00     0.046 A   
ATOM     5   N7  UNL     1       0.297  -0.756   2.450  1.00  0.00    -0.132 NA  
ATOM     6   N6  UNL     1       1.179  -1.163   1.556  1.00  0.00    -0.075 NA  
ATOM     7   H20 UNL     1       0.445   1.753   0.309  1.00  0.00     0.083 HD  
BRANCH   3   8
ATOM     8   C5  UNL     1      -1.196   1.164   2.918  1.00  0.00     0.120 C   
BRANCH   8   9
ATOM     9   C2  UNL     1      -0.657   2.191   3.971  1.00  0.00     0.010 C   
ATOM     10  C1  UNL     1       0.161   3.299   3.267  1.00  0.00     0.017 C   
ATOM     11  C3  UNL     1       0.241   1.533   5.039  1.00  0.00     0.017 C   
ATOM     12  C4  UNL     1      -1.840   2.892   4.681  1.00  0.00     0.017 C   
ENDBRANCH   8   9
BRANCH   8  13
ATOM     13  N1  UNL     1      -2.020   0.083   3.599  1.00  0.00     0.250 N   
ATOM     14  H11 UNL     1      -2.157   0.278   4.594  1.00  0.00     0.199 HD  
ATOM     15  H12 UNL     1      -1.439  -0.771   3.578  1.00  0.00     0.199 HD  
BRANCH  13  16
ATOM     16  C6  UNL     1      -3.341  -0.233   2.986  1.00  0.00     0.164 C   
BRANCH  16  17
ATOM     17  C7  UNL     1      -3.253  -0.763   1.581  1.00  0.00    -0.002 A   
ATOM     18  C8  UNL     1      -2.681  -2.036   1.330  1.00  0.00     0.012 A   
ATOM     19  C12 UNL     1      -3.731   0.001   0.502  1.00  0.00     0.045 A   
ATOM     20  C9  UNL     1      -2.586  -2.542   0.029  1.00  0.00     0.037 A   
ATOM     21  C11 UNL     1      -3.628  -0.531  -0.766  1.00  0.00     0.109 A   
ATOM     22  C10 UNL     1      -3.077  -1.767  -0.998  1.00  0.00     0.108 A   
ATOM     23  O1  UNL     1      -4.042   0.072  -1.913  1.00  0.00    -0.316 OA  
ATOM     24  O2  UNL     1      -3.070  -2.091  -2.318  1.00  0.00    -0.316 OA  
ATOM     25  C13 UNL     1      -3.824  -0.988  -2.868  1.00  0.00     0.337 C   
ENDBRANCH  16  17
ENDBRANCH  13  16
ENDBRANCH   8  13
ENDBRANCH   3   8
ENDBRANCH   1   2
BRANCH   1  26
ATOM     26  C17 UNL     1       1.624  -1.159  -1.624  1.00  0.00     0.039 C   
BRANCH  26  27
ATOM     27  C18 UNL     1       0.508  -0.397  -2.363  1.00  0.00     0.037 C   
BRANCH  27  28
ATOM     28  C19 UNL     1       0.663  -0.473  -3.884  1.00  0.00     0.184 C   
BRANCH  28  29
ATOM     29  N3  UNL     1       1.876   0.230  -4.324  1.00  0.00    -0.239 N   
ATOM     30  C20 UNL     1       2.338   0.260  -5.583  1.00  0.00     0.316 C   
ATOM     31  N5  UNL     1       1.700  -0.351  -6.585  1.00  0.00    -0.252 N   
ATOM     32  H28 UNL     1       2.429   0.738  -3.629  1.00  0.00     0.244 HD  
ATOM     33  H31 UNL     1       0.826  -0.835  -6.436  1.00  0.00     0.241 HD  
ATOM     34  H32 UNL     1       2.056  -0.326  -7.532  1.00  0.00     0.241 HD  
BRANCH  30  35
ATOM     35  N4  UNL     1       3.468   0.920  -5.849  1.00  0.00    -0.252 N   
ATOM     36  H29 UNL     1       3.839   0.980  -6.790  1.00  0.00     0.241 HD  
ATOM     37  H30 UNL     1       3.990   1.397  -5.126  1.00  0.00     0.241 HD  
ENDBRANCH  30  35
ENDBRANCH  28  29
ENDBRANCH  27  28
ENDBRANCH  26  27
ENDBRANCH   1  26
BRANCH   1  38
ATOM     38  C21 UNL     1       2.957   0.873  -0.929  1.00  0.00     0.281 C   
ATOM     39  O3  UNL     1       3.071   1.227  -2.100  1.00  0.00    -0.265 OA  
BRANCH  38  40
ATOM     40  O4  UNL     1       3.499   1.600   0.065  1.00  0.00    -0.330 OA  
ATOM     41  H33 UNL     1       3.987   2.355  -0.333  1.00  0.00     0.221 HD  
ENDBRANCH  38  40
ENDBRANCH   1  38
TORSDOF 13
