REMARK SMILES Clc1ncc(Cn2cc([C@@H]([NH2+]Cc3ccc4c(c3)OCO4)C3CCCC3)nn2)s1
REMARK SMILES IDX 7 1 8 2 9 3 27 4 28 5 6 7 5 8 2 9 3 10 29 11 4 12 1 13 10 14
REMARK SMILES IDX 11 15 12 18 13 19 14 20 18 21 15 22 17 23 16 24 19 25 21 26
REMARK SMILES IDX 20 27 22 28 23 29 26 30 24 31 25 32
REMARK H PARENT 8 6 11 16 11 17
ROOT
ATOM     1   N2  UNL     1       0.361   4.212  -0.146  1.00  0.00    -0.207 N   
ATOM     2   C5  UNL     1      -0.106   3.123   0.536  1.00  0.00     0.046 A   
ATOM     3   C6  UNL     1       1.025   2.376   0.783  1.00  0.00     0.127 A   
ATOM     4   N4  UNL     1       2.119   3.038   0.291  1.00  0.00    -0.132 NA  
ATOM     5   N5  UNL     1       1.700   4.152  -0.287  1.00  0.00    -0.076 NA  
ATOM     6   H4  UNL     1      -1.158   2.963   0.728  1.00  0.00     0.083 HD  
ENDROOT
BRANCH   1   7
ATOM     7   C4  UNL     1      -0.409   5.258  -0.802  1.00  0.00     0.178 C   
BRANCH   7   8
ATOM     8   C3  UNL     1      -0.950   4.731  -2.089  1.00  0.00     0.030 A   
ATOM     9   C1  UNL     1      -2.281   3.792  -3.853  1.00  0.00     0.167 A   
ATOM     10  N1  UNL     1      -1.048   3.914  -4.278  1.00  0.00    -0.237 NA  
ATOM     11  S1  UNL     1      -2.603   4.285  -2.259  1.00  0.00    -0.059 S   
ATOM     12  C2  UNL     1      -0.288   4.487  -3.279  1.00  0.00     0.126 A   
ATOM     13  CL1 UNL     1      -3.529   3.115  -4.812  1.00  0.00    -0.054 Cl  
ENDBRANCH   7   8
ENDBRANCH   1   7
BRANCH   3  14
ATOM     14  C7  UNL     1       1.182   1.017   1.383  1.00  0.00     0.117 C   
BRANCH  14  15
ATOM     15  N3  UNL     1       2.172   0.188   0.587  1.00  0.00     0.249 N   
ATOM     16  H6  UNL     1       3.076   0.675   0.641  1.00  0.00     0.199 HD  
ATOM     17  H7  UNL     1       2.292  -0.729   1.026  1.00  0.00     0.199 HD  
BRANCH  15  18
ATOM     18  C8  UNL     1       1.874  -0.015  -0.868  1.00  0.00     0.164 C   
BRANCH  18  19
ATOM     19  C9  UNL     1       0.505  -0.572  -1.141  1.00  0.00    -0.002 A   
ATOM     20  C10 UNL     1      -0.439   0.198  -1.865  1.00  0.00     0.012 A   
ATOM     21  C14 UNL     1       0.144  -1.847  -0.675  1.00  0.00     0.045 A   
ATOM     22  C11 UNL     1      -1.729  -0.285  -2.107  1.00  0.00     0.037 A   
ATOM     23  C13 UNL     1      -1.137  -2.291  -0.927  1.00  0.00     0.109 A   
ATOM     24  C12 UNL     1      -2.048  -1.533  -1.620  1.00  0.00     0.108 A   
ATOM     25  O1  UNL     1      -1.648  -3.488  -0.538  1.00  0.00    -0.316 OA  
ATOM     26  O2  UNL     1      -3.247  -2.156  -1.753  1.00  0.00    -0.316 OA  
ATOM     27  C15 UNL     1      -2.980  -3.414  -1.098  1.00  0.00     0.337 C   
ENDBRANCH  18  19
ENDBRANCH  15  18
ENDBRANCH  14  15
BRANCH  14  28
ATOM     28  C16 UNL     1       1.677   1.085   2.842  1.00  0.00     0.043 C   
ATOM     29  C17 UNL     1       0.697   1.793   3.784  1.00  0.00     0.010 C   
ATOM     30  C20 UNL     1       1.834  -0.281   3.520  1.00  0.00     0.010 C   
ATOM     31  C18 UNL     1       1.194   1.406   5.169  1.00  0.00     0.001 C   
ATOM     32  C19 UNL     1       1.750  -0.007   5.020  1.00  0.00     0.001 C   
ENDBRANCH  14  28
ENDBRANCH   3  14
TORSDOF 7
