REMARK SMILES CC(C)C[C@H]([NH2+]Cc1ccc2c(c1)OCO2)c1cn(Cc2cccc(O)c2)nn1
REMARK SMILES IDX 17 1 18 2 19 3 28 4 29 5 5 7 4 8 2 9 1 10 3 11 6 12 7 15
REMARK SMILES IDX 8 16 9 17 13 18 10 19 12 20 11 21 14 22 16 23 15 24 20 25
REMARK SMILES IDX 21 26 22 27 27 28 23 29 25 30 24 31 26 32
REMARK H PARENT 18 6 6 13 6 14 26 33
ROOT
ATOM     1   C14 UNL     1      -0.591  -0.465  -0.611  1.00  0.00     0.127 A   
ATOM     2   C15 UNL     1       0.634  -1.084  -0.710  1.00  0.00     0.046 A   
ATOM     3   N2  UNL     1       1.426  -0.150  -1.323  1.00  0.00    -0.208 N   
ATOM     4   N3  UNL     1       0.726   0.967  -1.597  1.00  0.00    -0.076 NA  
ATOM     5   N4  UNL     1      -0.512   0.786  -1.169  1.00  0.00    -0.132 NA  
ATOM     6   H20 UNL     1       1.010  -2.049  -0.403  1.00  0.00     0.083 HD  
ENDROOT
BRANCH   1   7
ATOM     7   C5  UNL     1      -1.869  -0.894   0.029  1.00  0.00     0.114 C   
BRANCH   7   8
ATOM     8   C4  UNL     1      -2.913  -1.379  -0.996  1.00  0.00     0.064 C   
BRANCH   8   9
ATOM     9   C2  UNL     1      -2.513  -2.641  -1.791  1.00  0.00    -0.012 C   
ATOM     10  C1  UNL     1      -3.590  -2.959  -2.833  1.00  0.00     0.007 C   
ATOM     11  C3  UNL     1      -2.299  -3.855  -0.885  1.00  0.00     0.007 C   
ENDBRANCH   8   9
ENDBRANCH   7   8
BRANCH   7  12
ATOM     12  N1  UNL     1      -2.479   0.282   0.756  1.00  0.00     0.249 N   
ATOM     13  H11 UNL     1      -3.469   0.121   0.969  1.00  0.00     0.199 HD  
ATOM     14  H12 UNL     1      -2.447   1.080   0.104  1.00  0.00     0.199 HD  
BRANCH  12  15
ATOM     15  C6  UNL     1      -1.772   0.698   2.000  1.00  0.00     0.164 C   
BRANCH  15  16
ATOM     16  C7  UNL     1      -2.348   1.982   2.525  1.00  0.00    -0.002 A   
ATOM     17  C8  UNL     1      -1.859   3.223   2.046  1.00  0.00     0.012 A   
ATOM     18  C12 UNL     1      -3.411   1.964   3.443  1.00  0.00     0.045 A   
ATOM     19  C9  UNL     1      -2.412   4.430   2.483  1.00  0.00     0.037 A   
ATOM     20  C11 UNL     1      -3.934   3.172   3.853  1.00  0.00     0.109 A   
ATOM     21  C10 UNL     1      -3.450   4.370   3.386  1.00  0.00     0.108 A   
ATOM     22  O1  UNL     1      -4.959   3.332   4.731  1.00  0.00    -0.316 OA  
ATOM     23  O2  UNL     1      -4.111   5.435   3.910  1.00  0.00    -0.316 OA  
ATOM     24  C13 UNL     1      -5.040   4.775   4.796  1.00  0.00     0.337 C   
ENDBRANCH  15  16
ENDBRANCH  12  15
ENDBRANCH   7  12
ENDBRANCH   1   7
BRANCH   3  25
ATOM     25  C16 UNL     1       2.838  -0.249  -1.653  1.00  0.00     0.169 C   
BRANCH  25  26
ATOM     26  C17 UNL     1       3.685   0.395  -0.586  1.00  0.00    -0.026 A   
ATOM     27  C18 UNL     1       4.100   1.729  -0.714  1.00  0.00     0.005 A   
ATOM     28  C22 UNL     1       4.045  -0.318   0.567  1.00  0.00     0.038 A   
ATOM     29  C19 UNL     1       4.869   2.332   0.283  1.00  0.00     0.003 A   
ATOM     30  C21 UNL     1       4.806   0.295   1.557  1.00  0.00     0.072 A   
ATOM     31  C20 UNL     1       5.226   1.614   1.425  1.00  0.00     0.033 A   
BRANCH  30  32
ATOM     32  O3  UNL     1       5.117  -0.442   2.662  1.00  0.00    -0.361 OA  
ATOM     33  H26 UNL     1       5.731   0.073   3.216  1.00  0.00     0.218 HD  
ENDBRANCH  30  32
ENDBRANCH  25  26
ENDBRANCH   3  25
TORSDOF 9
