REMARK SMILES CC(C)C[C@H]([NH2+]Cc1ccc2c(c1)OCO2)c1cn([C@@H](C)c2ccccn2)nn1
REMARK SMILES IDX 5 1 4 2 2 3 1 4 3 5 6 6 7 9 8 10 9 11 13 12 10 13 12 14
REMARK SMILES IDX 11 15 14 16 16 17 15 18 17 19 18 20 29 21 19 22 28 23 20 25
REMARK SMILES IDX 21 26 22 27 23 28 27 29 24 30 26 31 25 32
REMARK H PARENT 6 7 6 8 18 24
ROOT
ATOM     1   C5  UNL     1      -1.737   0.976   0.216  1.00  0.00     0.114 C   
ENDROOT
BRANCH   1   2
ATOM     2   C4  UNL     1      -3.246   0.663   0.256  1.00  0.00     0.064 C   
BRANCH   2   3
ATOM     3   C2  UNL     1      -3.611  -0.754   0.749  1.00  0.00    -0.012 C   
ATOM     4   C1  UNL     1      -3.125  -1.020   2.174  1.00  0.00     0.007 C   
ATOM     5   C3  UNL     1      -5.127  -0.950   0.676  1.00  0.00     0.007 C   
ENDBRANCH   2   3
ENDBRANCH   1   2
BRANCH   1   6
ATOM     6   N1  UNL     1      -1.604   2.430  -0.196  1.00  0.00     0.249 N   
ATOM     7   H11 UNL     1      -1.902   2.476  -1.181  1.00  0.00     0.199 HD  
ATOM     8   H12 UNL     1      -2.251   3.009   0.348  1.00  0.00     0.199 HD  
BRANCH   6   9
ATOM     9   C6  UNL     1      -0.234   3.020  -0.120  1.00  0.00     0.164 C   
BRANCH   9  10
ATOM     10  C7  UNL     1       0.283   3.119   1.288  1.00  0.00    -0.002 A   
ATOM     11  C8  UNL     1      -0.197   4.123   2.161  1.00  0.00     0.012 A   
ATOM     12  C12 UNL     1       1.226   2.187   1.758  1.00  0.00     0.045 A   
ATOM     13  C9  UNL     1       0.248   4.197   3.486  1.00  0.00     0.037 A   
ATOM     14  C11 UNL     1       1.639   2.284   3.070  1.00  0.00     0.109 A   
ATOM     15  C10 UNL     1       1.163   3.259   3.910  1.00  0.00     0.108 A   
ATOM     16  O1  UNL     1       2.529   1.458   3.681  1.00  0.00    -0.316 OA  
ATOM     17  O2  UNL     1       1.694   3.173   5.157  1.00  0.00    -0.316 OA  
ATOM     18  C13 UNL     1       2.578   2.041   5.004  1.00  0.00     0.337 C   
ENDBRANCH   9  10
ENDBRANCH   6   9
ENDBRANCH   1   6
BRANCH   1  19
ATOM     19  C14 UNL     1      -0.999   0.106  -0.743  1.00  0.00     0.127 A   
ATOM     20  C15 UNL     1      -0.182  -0.981  -0.533  1.00  0.00     0.046 A   
ATOM     21  N5  UNL     1      -1.028   0.394  -2.082  1.00  0.00    -0.132 NA  
ATOM     22  N2  UNL     1       0.223  -1.345  -1.790  1.00  0.00    -0.203 N   
ATOM     23  N4  UNL     1      -0.265  -0.486  -2.710  1.00  0.00    -0.075 NA  
ATOM     24  H20 UNL     1       0.126  -1.523   0.351  1.00  0.00     0.083 HD  
BRANCH  22  25
ATOM     25  C16 UNL     1       1.116  -2.428  -2.194  1.00  0.00     0.145 C   
ATOM     26  C17 UNL     1       2.551  -2.170  -1.730  1.00  0.00     0.038 C   
BRANCH  25  27
ATOM     27  C18 UNL     1       0.572  -3.760  -1.711  1.00  0.00     0.063 A   
ATOM     28  C19 UNL     1      -0.135  -4.585  -2.584  1.00  0.00     0.026 A   
ATOM     29  N3  UNL     1       0.778  -4.094  -0.408  1.00  0.00    -0.259 NA  
ATOM     30  C20 UNL     1      -0.625  -5.801  -2.115  1.00  0.00     0.004 A   
ATOM     31  C22 UNL     1       0.297  -5.285   0.015  1.00  0.00     0.111 A   
ATOM     32  C21 UNL     1      -0.403  -6.163  -0.792  1.00  0.00     0.020 A   
ENDBRANCH  25  27
ENDBRANCH  22  25
ENDBRANCH   1  19
TORSDOF 8
