REMARK SMILES CC(C)[C@H]([NH2+]Cc1ccc2c(c1)OCO2)c1cn(-c2ccnc(C(F)(F)F)n2)nn1
REMARK SMILES IDX 16 1 17 2 18 3 29 4 30 5 4 6 2 7 1 8 3 9 5 10 6 13 7 14 8 15
REMARK SMILES IDX 12 16 9 17 11 18 10 19 13 20 15 21 14 22 19 23 20 24 28 25
REMARK SMILES IDX 21 26 23 27 22 28 24 29 25 30 26 31 27 32
REMARK H PARENT 5 11 5 12
ROOT
ATOM     1   C13 UNL     1      -1.172  -0.588  -1.852  1.00  0.00     0.127 A   
ATOM     2   C14 UNL     1      -0.067  -0.769  -1.052  1.00  0.00     0.137 A   
ATOM     3   N2  UNL     1       0.865   0.132  -1.527  1.00  0.00    -0.162 N   
ATOM     4   N5  UNL     1       0.357   0.772  -2.611  1.00  0.00    -0.070 NA  
ATOM     5   N6  UNL     1      -0.886   0.357  -2.801  1.00  0.00    -0.131 NA  
ENDROOT
BRANCH   1   6
ATOM     6   C4  UNL     1      -2.557  -1.142  -1.748  1.00  0.00     0.117 C   
BRANCH   6   7
ATOM     7   C2  UNL     1      -2.870  -2.263  -2.773  1.00  0.00     0.037 C   
ATOM     8   C1  UNL     1      -2.754  -1.834  -4.240  1.00  0.00     0.014 C   
ATOM     9   C3  UNL     1      -2.003  -3.504  -2.527  1.00  0.00     0.014 C   
ENDBRANCH   6   7
BRANCH   6  10
ATOM     10  N1  UNL     1      -3.570  -0.025  -1.923  1.00  0.00     0.249 N   
ATOM     11  H9  UNL     1      -4.417  -0.382  -2.375  1.00  0.00     0.199 HD  
ATOM     12  H10 UNL     1      -3.150   0.645  -2.586  1.00  0.00     0.199 HD  
BRANCH  10  13
ATOM     13  C5  UNL     1      -3.968   0.717  -0.687  1.00  0.00     0.164 C   
BRANCH  13  14
ATOM     14  C6  UNL     1      -2.834   1.429  -0.006  1.00  0.00    -0.002 A   
ATOM     15  C7  UNL     1      -2.272   2.596  -0.579  1.00  0.00     0.012 A   
ATOM     16  C11 UNL     1      -2.278   0.906   1.175  1.00  0.00     0.045 A   
ATOM     17  C8  UNL     1      -1.157   3.216  -0.005  1.00  0.00     0.037 A   
ATOM     18  C10 UNL     1      -1.174   1.538   1.711  1.00  0.00     0.109 A   
ATOM     19  C9  UNL     1      -0.625   2.656   1.135  1.00  0.00     0.108 A   
ATOM     20  O1  UNL     1      -0.496   1.137   2.818  1.00  0.00    -0.316 OA  
ATOM     21  O2  UNL     1       0.468   3.101   1.807  1.00  0.00    -0.316 OA  
ATOM     22  C12 UNL     1       0.525   2.157   2.899  1.00  0.00     0.337 C   
ENDBRANCH  13  14
ENDBRANCH  10  13
ENDBRANCH   6  10
ENDBRANCH   1   6
BRANCH   3  23
ATOM     23  C15 UNL     1       2.140   0.415  -0.970  1.00  0.00     0.150 A   
ATOM     24  C16 UNL     1       2.947   1.360  -1.569  1.00  0.00     0.067 A   
ATOM     25  N4  UNL     1       2.492  -0.255   0.155  1.00  0.00    -0.207 NA  
ATOM     26  C17 UNL     1       4.149   1.591  -0.948  1.00  0.00     0.117 A   
ATOM     27  C18 UNL     1       3.703   0.031   0.697  1.00  0.00     0.236 A   
ATOM     28  N3  UNL     1       4.542   0.955   0.171  1.00  0.00    -0.233 NA  
BRANCH  27  29
ATOM     29  C19 UNL     1       4.101  -0.671   2.004  1.00  0.00     0.451 C   
ATOM     30  F1  UNL     1       3.591  -0.043   3.106  1.00  0.00    -0.163 F   
ATOM     31  F2  UNL     1       5.448  -0.751   2.208  1.00  0.00    -0.163 F   
ATOM     32  F3  UNL     1       3.644  -1.959   2.076  1.00  0.00    -0.163 F   
ENDBRANCH  27  29
ENDBRANCH   3  23
TORSDOF 7
