REMARK SMILES OCCc1ccccc1-n1cc([C@@H]([NH2+]Cc2ccc3c(c2)OCO3)C2CCCCC2)nn1
REMARK SMILES IDX 4 1 5 2 6 3 7 4 8 5 9 6 3 7 2 8 1 9 10 11 11 12 32 13 12 14
REMARK SMILES IDX 31 15 13 16 14 17 15 20 16 21 17 22 21 23 18 24 20 25 19 26
REMARK SMILES IDX 22 27 24 28 23 29 25 30 26 31 30 32 27 33 29 34 28 35
REMARK H PARENT 1 10 14 18 14 19
ROOT
ATOM     1   C3  UNL     1      -1.854   2.357  -4.479  1.00  0.00    -0.022 A   
ATOM     2   C4  UNL     1      -2.165   2.808  -5.785  1.00  0.00     0.006 A   
ATOM     3   C5  UNL     1      -2.468   1.926  -6.822  1.00  0.00     0.000 A   
ATOM     4   C6  UNL     1      -2.452   0.562  -6.588  1.00  0.00     0.002 A   
ATOM     5   C7  UNL     1      -2.159   0.085  -5.312  1.00  0.00     0.026 A   
ATOM     6   C8  UNL     1      -1.887   0.963  -4.237  1.00  0.00     0.061 A   
ENDROOT
BRANCH   1   7
ATOM     7   C2  UNL     1      -1.381   3.438  -3.523  1.00  0.00     0.065 C   
BRANCH   7   8
ATOM     8   C1  UNL     1       0.140   3.473  -3.369  1.00  0.00     0.161 C   
BRANCH   8   9
ATOM     9   O1  UNL     1       0.584   2.460  -2.473  1.00  0.00    -0.396 OA  
ATOM     10  H1  UNL     1       1.556   2.501  -2.479  1.00  0.00     0.210 HD  
ENDBRANCH   8   9
ENDBRANCH   7   8
ENDBRANCH   1   7
BRANCH   6  11
ATOM     11  N1  UNL     1      -1.660   0.348  -2.973  1.00  0.00    -0.180 N   
ATOM     12  C9  UNL     1      -1.830   0.826  -1.690  1.00  0.00     0.135 A   
ATOM     13  N4  UNL     1      -1.306  -0.970  -2.882  1.00  0.00    -0.071 NA  
ATOM     14  C10 UNL     1      -1.369  -0.172  -0.861  1.00  0.00     0.127 A   
ATOM     15  N3  UNL     1      -1.070  -1.270  -1.618  1.00  0.00    -0.131 NA  
BRANCH  14  16
ATOM     16  C11 UNL     1      -1.244  -0.256   0.631  1.00  0.00     0.117 C   
BRANCH  16  17
ATOM     17  N2  UNL     1      -1.115  -1.720   1.006  1.00  0.00     0.249 N   
ATOM     18  H12 UNL     1      -1.565  -2.240   0.235  1.00  0.00     0.199 HD  
ATOM     19  H13 UNL     1      -0.132  -2.010   0.940  1.00  0.00     0.199 HD  
BRANCH  17  20
ATOM     20  C12 UNL     1      -1.722  -2.181   2.281  1.00  0.00     0.164 C   
BRANCH  20  21
ATOM     21  C13 UNL     1      -0.849  -1.943   3.480  1.00  0.00    -0.002 A   
ATOM     22  C14 UNL     1      -1.224  -1.000   4.467  1.00  0.00     0.012 A   
ATOM     23  C18 UNL     1       0.359  -2.651   3.624  1.00  0.00     0.045 A   
ATOM     24  C15 UNL     1      -0.402  -0.752   5.573  1.00  0.00     0.037 A   
ATOM     25  C17 UNL     1       1.145  -2.384   4.725  1.00  0.00     0.109 A   
ATOM     26  C16 UNL     1       0.778  -1.459   5.671  1.00  0.00     0.108 A   
ATOM     27  O2  UNL     1       2.338  -2.973   5.007  1.00  0.00    -0.316 OA  
ATOM     28  O3  UNL     1       1.695  -1.349   6.669  1.00  0.00    -0.316 OA  
ATOM     29  C19 UNL     1       2.686  -2.310   6.244  1.00  0.00     0.337 C   
ENDBRANCH  20  21
ENDBRANCH  17  20
ENDBRANCH  16  17
BRANCH  16  30
ATOM     30  C20 UNL     1      -0.063   0.562   1.222  1.00  0.00     0.043 C   
ATOM     31  C21 UNL     1      -0.346   2.078   1.178  1.00  0.00     0.010 C   
ATOM     32  C25 UNL     1       1.310   0.258   0.589  1.00  0.00     0.010 C   
ATOM     33  C22 UNL     1       0.771   2.882   1.841  1.00  0.00     0.001 C   
ATOM     34  C24 UNL     1       2.424   1.072   1.248  1.00  0.00     0.001 C   
ATOM     35  C23 UNL     1       2.129   2.568   1.221  1.00  0.00     0.000 C   
ENDBRANCH  16  30
ENDBRANCH  14  16
ENDBRANCH   6  11
TORSDOF 9
