REMARK SMILES CC(C)C[C@H]([NH2+]Cc1ccc2c(c1)OCO2)c1cn(C(=O)c2nn[nH]c2Cl)nn1
REMARK SMILES IDX 17 1 18 2 19 3 28 4 29 5 5 6 4 7 2 8 1 9 3 10 6 11 7 14 8 15
REMARK SMILES IDX 9 16 13 17 10 18 12 19 11 20 14 21 16 22 15 23 20 24 21 25
REMARK SMILES IDX 22 26 23 27 26 28 24 29 25 30 27 31
REMARK H PARENT 6 12 6 13 25 32
ROOT
ATOM     1   C14 UNL     1      -0.591  -0.963   0.295  1.00  0.00     0.127 A   
ATOM     2   C15 UNL     1      -0.340  -0.397  -0.932  1.00  0.00     0.139 A   
ATOM     3   N2  UNL     1      -1.542   0.186  -1.311  1.00  0.00    -0.142 N   
ATOM     4   N6  UNL     1      -2.483  -0.116  -0.383  1.00  0.00    -0.068 NA  
ATOM     5   N7  UNL     1      -1.915  -0.803   0.596  1.00  0.00    -0.131 NA  
ENDROOT
BRANCH   1   6
ATOM     6   C5  UNL     1       0.322  -1.585   1.299  1.00  0.00     0.114 C   
BRANCH   6   7
ATOM     7   C4  UNL     1       0.155  -3.115   1.377  1.00  0.00     0.064 C   
BRANCH   7   8
ATOM     8   C2  UNL     1       0.495  -3.878   0.078  1.00  0.00    -0.012 C   
ATOM     9   C1  UNL     1       0.220  -5.372   0.272  1.00  0.00     0.007 C   
ATOM     10  C3  UNL     1       1.947  -3.674  -0.356  1.00  0.00     0.007 C   
ENDBRANCH   7   8
ENDBRANCH   6   7
BRANCH   6  11
ATOM     11  N1  UNL     1       0.017  -1.032   2.682  1.00  0.00     0.249 N   
ATOM     12  H11 UNL     1       0.255  -1.724   3.400  1.00  0.00     0.199 HD  
ATOM     13  H12 UNL     1      -1.008  -0.914   2.728  1.00  0.00     0.199 HD  
BRANCH  11  14
ATOM     14  C6  UNL     1       0.661   0.269   3.045  1.00  0.00     0.164 C   
BRANCH  14  15
ATOM     15  C7  UNL     1       0.152   1.441   2.255  1.00  0.00    -0.002 A   
ATOM     16  C8  UNL     1       0.956   2.040   1.254  1.00  0.00     0.012 A   
ATOM     17  C12 UNL     1      -1.154   1.916   2.464  1.00  0.00     0.045 A   
ATOM     18  C9  UNL     1       0.452   3.065   0.444  1.00  0.00     0.037 A   
ATOM     19  C11 UNL     1      -1.620   2.926   1.649  1.00  0.00     0.109 A   
ATOM     20  C10 UNL     1      -0.845   3.476   0.659  1.00  0.00     0.108 A   
ATOM     21  O1  UNL     1      -2.861   3.474   1.703  1.00  0.00    -0.316 OA  
ATOM     22  O2  UNL     1      -1.508   4.426  -0.050  1.00  0.00    -0.316 OA  
ATOM     23  C13 UNL     1      -2.787   4.433   0.626  1.00  0.00     0.337 C   
ENDBRANCH  14  15
ENDBRANCH  11  14
ENDBRANCH   6  11
ENDBRANCH   1   6
BRANCH   3  24
ATOM     24  C16 UNL     1      -1.804   0.973  -2.448  1.00  0.00     0.294 C   
ATOM     25  O3  UNL     1      -0.869   1.061  -3.244  1.00  0.00    -0.267 OA  
BRANCH  24  26
ATOM     26  C17 UNL     1      -3.066   1.654  -2.670  1.00  0.00     0.186 A   
ATOM     27  N3  UNL     1      -4.035   1.833  -1.707  1.00  0.00    -0.126 NA  
ATOM     28  C18 UNL     1      -3.505   2.268  -3.815  1.00  0.00     0.148 A   
ATOM     29  N4  UNL     1      -5.037   2.529  -2.233  1.00  0.00    -0.077 NA  
ATOM     30  N5  UNL     1      -4.722   2.785  -3.514  1.00  0.00    -0.206 N   
ATOM     31  CL1 UNL     1      -2.892   2.483  -5.375  1.00  0.00    -0.063 Cl  
ATOM     32  H21 UNL     1      -5.368   3.306  -4.096  1.00  0.00     0.178 HD  
ENDBRANCH  24  26
ENDBRANCH   3  24
TORSDOF 8
