REMARK SMILES Oc1ccc(CCn2cc([C@@H]([NH2+]Cc3ccc4c(c3)OCO4)C3CCCC3)nn2)c(F)c1
REMARK SMILES IDX 8 1 9 2 10 3 28 4 29 5 7 7 6 8 5 9 2 10 3 11 32 12 4 13
REMARK SMILES IDX 30 14 31 15 1 16 11 18 12 19 13 22 14 23 15 24 19 25 16 26
REMARK SMILES IDX 18 27 17 28 20 29 22 30 21 31 23 32 24 33 27 34 25 35 26 36
REMARK H PARENT 9 6 1 17 12 20 12 21
ROOT
ATOM     1   N1  UNL     1      -0.383   0.759   2.533  1.00  0.00    -0.212 N   
ATOM     2   C7  UNL     1      -0.672  -0.565   2.364  1.00  0.00     0.045 A   
ATOM     3   C8  UNL     1       0.317  -1.010   1.514  1.00  0.00     0.127 A   
ATOM     4   N3  UNL     1       1.179   0.020   1.246  1.00  0.00    -0.132 NA  
ATOM     5   N4  UNL     1       0.742   1.096   1.877  1.00  0.00    -0.076 NA  
ATOM     6   H8  UNL     1      -1.548  -1.029   2.795  1.00  0.00     0.083 HD  
ENDROOT
BRANCH   1   7
ATOM     7   C6  UNL     1      -1.163   1.768   3.219  1.00  0.00     0.139 C   
BRANCH   7   8
ATOM     8   C5  UNL     1      -2.458   2.130   2.486  1.00  0.00     0.060 C   
BRANCH   8   9
ATOM     9   C4  UNL     1      -2.235   2.722   1.117  1.00  0.00    -0.010 A   
ATOM     10  C1  UNL     1      -1.762   3.789  -1.423  1.00  0.00     0.074 A   
ATOM     11  C2  UNL     1      -1.679   4.613  -0.304  1.00  0.00     0.033 A   
ATOM     12  C24 UNL     1      -2.079   2.444  -1.297  1.00  0.00     0.072 A   
ATOM     13  C3  UNL     1      -1.915   4.079   0.966  1.00  0.00     0.009 A   
ATOM     14  C23 UNL     1      -2.309   1.921  -0.030  1.00  0.00     0.129 A   
ATOM     15  F1  UNL     1      -2.583   0.612   0.084  1.00  0.00    -0.207 F   
BRANCH  10  16
ATOM     16  O1  UNL     1      -1.528   4.265  -2.679  1.00  0.00    -0.361 OA  
ATOM     17  H1  UNL     1      -1.407   5.230  -2.636  1.00  0.00     0.218 HD  
ENDBRANCH  10  16
ENDBRANCH   8   9
ENDBRANCH   7   8
ENDBRANCH   1   7
BRANCH   3  18
ATOM     18  C9  UNL     1       0.504  -2.314   0.812  1.00  0.00     0.117 C   
BRANCH  18  19
ATOM     19  N2  UNL     1       0.870  -2.043  -0.627  1.00  0.00     0.249 N   
ATOM     20  H10 UNL     1       1.625  -1.340  -0.613  1.00  0.00     0.199 HD  
ATOM     21  H11 UNL     1       1.253  -2.870  -1.093  1.00  0.00     0.199 HD  
BRANCH  19  22
ATOM     22  C10 UNL     1      -0.234  -1.487  -1.461  1.00  0.00     0.164 C   
BRANCH  22  23
ATOM     23  C11 UNL     1       0.256  -1.164  -2.844  1.00  0.00    -0.002 A   
ATOM     24  C12 UNL     1       0.761   0.127  -3.133  1.00  0.00     0.012 A   
ATOM     25  C16 UNL     1       0.258  -2.150  -3.845  1.00  0.00     0.045 A   
ATOM     26  C13 UNL     1       1.248   0.439  -4.407  1.00  0.00     0.037 A   
ATOM     27  C15 UNL     1       0.748  -1.810  -5.089  1.00  0.00     0.109 A   
ATOM     28  C14 UNL     1       1.228  -0.552  -5.363  1.00  0.00     0.108 A   
ATOM     29  O2  UNL     1       0.820  -2.639  -6.163  1.00  0.00    -0.316 OA  
ATOM     30  O3  UNL     1       1.660  -0.431  -6.645  1.00  0.00    -0.316 OA  
ATOM     31  C17 UNL     1       1.381  -1.751  -7.157  1.00  0.00     0.337 C   
ENDBRANCH  22  23
ENDBRANCH  19  22
ENDBRANCH  18  19
BRANCH  18  32
ATOM     32  C18 UNL     1       1.613  -3.165   1.457  1.00  0.00     0.043 C   
ATOM     33  C19 UNL     1       1.834  -4.528   0.796  1.00  0.00     0.010 C   
ATOM     34  C22 UNL     1       1.296  -3.566   2.904  1.00  0.00     0.010 C   
ATOM     35  C20 UNL     1       2.634  -5.306   1.831  1.00  0.00     0.001 C   
ATOM     36  C21 UNL     1       2.165  -4.789   3.188  1.00  0.00     0.001 C   
ENDBRANCH  18  32
ENDBRANCH   3  18
TORSDOF 9
