REMARK SMILES CC(C)(C)[C@H]([NH2+]Cc1ccc2c(c1)OCO2)c1cn(Cc2ccc(Cl)o2)nn1
REMARK SMILES IDX 17 1 18 2 19 3 27 4 28 5 5 7 2 8 1 9 3 10 4 11 6 12 7 15
REMARK SMILES IDX 8 16 9 17 13 18 10 19 12 20 11 21 14 22 16 23 15 24 20 25
REMARK SMILES IDX 21 26 22 27 26 28 23 29 24 30 25 31
REMARK H PARENT 18 6 6 13 6 14
ROOT
ATOM     1   C14 UNL     1      -0.621   2.010   0.659  1.00  0.00     0.127 A   
ATOM     2   C15 UNL     1      -0.951   2.219  -0.661  1.00  0.00     0.046 A   
ATOM     3   N2  UNL     1       0.109   2.928  -1.159  1.00  0.00    -0.206 N   
ATOM     4   N3  UNL     1       1.036   3.142  -0.204  1.00  0.00    -0.076 NA  
ATOM     5   N4  UNL     1       0.601   2.584   0.913  1.00  0.00    -0.132 NA  
ATOM     6   H20 UNL     1      -1.788   1.922  -1.279  1.00  0.00     0.083 HD  
ENDROOT
BRANCH   1   7
ATOM     7   C5  UNL     1      -1.295   1.228   1.747  1.00  0.00     0.120 C   
BRANCH   7   8
ATOM     8   C2  UNL     1      -2.272   2.068   2.638  1.00  0.00     0.010 C   
ATOM     9   C1  UNL     1      -1.564   3.208   3.396  1.00  0.00     0.017 C   
ATOM     10  C3  UNL     1      -2.971   1.151   3.669  1.00  0.00     0.017 C   
ATOM     11  C4  UNL     1      -3.385   2.689   1.762  1.00  0.00     0.017 C   
ENDBRANCH   7   8
BRANCH   7  12
ATOM     12  N1  UNL     1      -0.207   0.591   2.598  1.00  0.00     0.250 N   
ATOM     13  H11 UNL     1       0.657   1.113   2.380  1.00  0.00     0.199 HD  
ATOM     14  H12 UNL     1      -0.365   0.756   3.595  1.00  0.00     0.199 HD  
BRANCH  12  15
ATOM     15  C6  UNL     1       0.052  -0.858   2.376  1.00  0.00     0.164 C   
BRANCH  15  16
ATOM     16  C7  UNL     1       0.427  -1.219   0.965  1.00  0.00    -0.002 A   
ATOM     17  C8  UNL     1       1.615  -0.719   0.378  1.00  0.00     0.012 A   
ATOM     18  C12 UNL     1      -0.407  -2.064   0.213  1.00  0.00     0.045 A   
ATOM     19  C9  UNL     1       1.959  -1.041  -0.940  1.00  0.00     0.037 A   
ATOM     20  C11 UNL     1      -0.034  -2.369  -1.079  1.00  0.00     0.109 A   
ATOM     21  C10 UNL     1       1.114  -1.871  -1.642  1.00  0.00     0.108 A   
ATOM     22  O1  UNL     1      -0.723  -3.175  -1.929  1.00  0.00    -0.316 OA  
ATOM     23  O2  UNL     1       1.292  -2.298  -2.919  1.00  0.00    -0.316 OA  
ATOM     24  C13 UNL     1       0.148  -3.165  -3.081  1.00  0.00     0.337 C   
ENDBRANCH  15  16
ENDBRANCH  12  15
ENDBRANCH   7  12
ENDBRANCH   1   7
BRANCH   3  25
ATOM     25  C16 UNL     1       0.298   3.437  -2.506  1.00  0.00     0.195 C   
BRANCH  25  26
ATOM     26  C17 UNL     1       0.671   2.333  -3.422  1.00  0.00     0.080 A   
ATOM     27  C18 UNL     1       1.875   1.797  -3.827  1.00  0.00     0.035 A   
ATOM     28  O3  UNL     1      -0.360   1.672  -4.023  1.00  0.00    -0.301 OA  
ATOM     29  C19 UNL     1       1.559   0.752  -4.730  1.00  0.00     0.049 A   
ATOM     30  C20 UNL     1       0.185   0.713  -4.824  1.00  0.00     0.147 A   
ATOM     31  CL1 UNL     1      -0.755  -0.355  -5.784  1.00  0.00    -0.056 Cl  
ENDBRANCH  25  26
ENDBRANCH   3  25
TORSDOF 7
