REMARK SMILES COCc1ccccc1-n1cc([C@@H]([NH2+]Cc2ccc3c(c2)OCO3)C2CCCC2)nn1
REMARK SMILES IDX 10 1 11 2 12 3 30 4 31 5 9 6 4 7 5 8 6 9 8 10 7 11 3 12 2 13
REMARK SMILES IDX 1 14 13 15 14 16 15 19 16 20 17 21 21 22 18 23 20 24 19 25
REMARK SMILES IDX 22 26 24 27 23 28 25 29 26 30 29 31 27 32 28 33
REMARK H PARENT 14 17 14 18
ROOT
ATOM     1   N1  UNL     1      -0.289   1.962   1.908  1.00  0.00    -0.180 N   
ATOM     2   C9  UNL     1      -0.513   0.977   0.968  1.00  0.00     0.135 A   
ATOM     3   C10 UNL     1       0.402  -0.013   1.240  1.00  0.00     0.127 A   
ATOM     4   N3  UNL     1       1.234   0.416   2.231  1.00  0.00    -0.131 NA  
ATOM     5   N4  UNL     1       0.845   1.627   2.592  1.00  0.00    -0.071 NA  
ENDROOT
BRANCH   1   6
ATOM     6   C8  UNL     1      -0.973   3.186   2.173  1.00  0.00     0.063 A   
ATOM     7   C3  UNL     1      -2.287   3.484   1.743  1.00  0.00     0.001 A   
ATOM     8   C4  UNL     1      -2.808   4.769   2.029  1.00  0.00     0.008 A   
ATOM     9   C5  UNL     1      -2.081   5.716   2.747  1.00  0.00     0.001 A   
ATOM     10  C7  UNL     1      -0.264   4.151   2.926  1.00  0.00     0.026 A   
ATOM     11  C6  UNL     1      -0.812   5.403   3.205  1.00  0.00     0.002 A   
BRANCH   7  12
ATOM     12  C2  UNL     1      -3.236   2.540   1.040  1.00  0.00     0.197 C   
BRANCH  12  13
ATOM     13  O1  UNL     1      -3.302   1.265   1.680  1.00  0.00    -0.380 OA  
ATOM     14  C1  UNL     1      -4.161   1.268   2.817  1.00  0.00     0.195 C   
ENDBRANCH  12  13
ENDBRANCH   7  12
ENDBRANCH   1   6
BRANCH   3  15
ATOM     15  C11 UNL     1       0.629  -1.343   0.601  1.00  0.00     0.117 C   
BRANCH  15  16
ATOM     16  N2  UNL     1       2.104  -1.694   0.631  1.00  0.00     0.249 N   
ATOM     17  H12 UNL     1       2.236  -2.683   0.404  1.00  0.00     0.199 HD  
ATOM     18  H13 UNL     1       2.413  -1.560   1.604  1.00  0.00     0.199 HD  
BRANCH  16  19
ATOM     19  C12 UNL     1       3.001  -0.869  -0.233  1.00  0.00     0.164 C   
BRANCH  19  20
ATOM     20  C13 UNL     1       2.724  -1.038  -1.701  1.00  0.00    -0.002 A   
ATOM     21  C14 UNL     1       2.140   0.018  -2.441  1.00  0.00     0.012 A   
ATOM     22  C18 UNL     1       3.017  -2.254  -2.344  1.00  0.00     0.045 A   
ATOM     23  C15 UNL     1       1.845  -0.133  -3.800  1.00  0.00     0.037 A   
ATOM     24  C17 UNL     1       2.710  -2.370  -3.684  1.00  0.00     0.109 A   
ATOM     25  C16 UNL     1       2.140  -1.341  -4.392  1.00  0.00     0.108 A   
ATOM     26  O2  UNL     1       2.920  -3.473  -4.449  1.00  0.00    -0.316 OA  
ATOM     27  O3  UNL     1       1.920  -1.665  -5.692  1.00  0.00    -0.316 OA  
ATOM     28  C19 UNL     1       2.440  -3.011  -5.733  1.00  0.00     0.337 C   
ENDBRANCH  19  20
ENDBRANCH  16  19
ENDBRANCH  15  16
BRANCH  15  29
ATOM     29  C20 UNL     1      -0.137  -2.507   1.264  1.00  0.00     0.043 C   
ATOM     30  C21 UNL     1       0.149  -2.751   2.750  1.00  0.00     0.010 C   
ATOM     31  C24 UNL     1      -1.670  -2.409   1.182  1.00  0.00     0.010 C   
ATOM     32  C22 UNL     1      -1.004  -3.647   3.170  1.00  0.00     0.001 C   
ATOM     33  C23 UNL     1      -2.208  -3.030   2.473  1.00  0.00     0.001 C   
ENDBRANCH  15  29
ENDBRANCH   3  15
TORSDOF 8
