REMARK SMILES CC(C)(C)[C@H]([NH2+]Cc1ccc2c(c1)OCO2)c1cn(-c2ccnc(C(F)(F)F)n2)nn1
REMARK SMILES IDX 17 1 18 2 19 3 30 4 31 5 5 6 2 7 1 8 3 9 4 10 6 11 7 14 8 15
REMARK SMILES IDX 9 16 13 17 10 18 12 19 11 20 14 21 16 22 15 23 20 24 21 25
REMARK SMILES IDX 29 26 22 27 24 28 23 29 25 30 26 31 27 32 28 33
REMARK H PARENT 6 12 6 13
ROOT
ATOM     1   C14 UNL     1       0.869   1.195   0.771  1.00  0.00     0.128 A   
ATOM     2   C15 UNL     1       1.310  -0.050   0.388  1.00  0.00     0.137 A   
ATOM     3   N2  UNL     1       0.849  -0.906   1.368  1.00  0.00    -0.162 N   
ATOM     4   N5  UNL     1       0.212  -0.187   2.327  1.00  0.00    -0.070 NA  
ATOM     5   N6  UNL     1       0.202   1.086   1.963  1.00  0.00    -0.131 NA  
ENDROOT
BRANCH   1   6
ATOM     6   C5  UNL     1       0.901   2.512   0.053  1.00  0.00     0.120 C   
BRANCH   6   7
ATOM     7   C2  UNL     1       2.001   3.502   0.574  1.00  0.00     0.010 C   
ATOM     8   C1  UNL     1       2.065   4.751  -0.336  1.00  0.00     0.017 C   
ATOM     9   C3  UNL     1       1.755   3.967   2.022  1.00  0.00     0.017 C   
ATOM     10  C4  UNL     1       3.391   2.829   0.510  1.00  0.00     0.017 C   
ENDBRANCH   6   7
BRANCH   6  11
ATOM     11  N1  UNL     1      -0.478   3.145   0.146  1.00  0.00     0.250 N   
ATOM     12  H11 UNL     1      -0.416   4.163   0.218  1.00  0.00     0.199 HD  
ATOM     13  H12 UNL     1      -0.877   2.828   1.043  1.00  0.00     0.199 HD  
BRANCH  11  14
ATOM     14  C6  UNL     1      -1.443   2.805  -0.945  1.00  0.00     0.164 C   
BRANCH  14  15
ATOM     15  C7  UNL     1      -1.786   1.343  -1.023  1.00  0.00    -0.002 A   
ATOM     16  C8  UNL     1      -2.612   0.747  -0.039  1.00  0.00     0.012 A   
ATOM     17  C12 UNL     1      -1.236   0.542  -2.039  1.00  0.00     0.045 A   
ATOM     18  C9  UNL     1      -2.861  -0.630  -0.046  1.00  0.00     0.037 A   
ATOM     19  C11 UNL     1      -1.497  -0.813  -2.012  1.00  0.00     0.109 A   
ATOM     20  C10 UNL     1      -2.282  -1.383  -1.042  1.00  0.00     0.108 A   
ATOM     21  O1  UNL     1      -1.010  -1.727  -2.891  1.00  0.00    -0.316 OA  
ATOM     22  O2  UNL     1      -2.388  -2.729  -1.187  1.00  0.00    -0.316 OA  
ATOM     23  C13 UNL     1      -1.611  -2.942  -2.385  1.00  0.00     0.337 C   
ENDBRANCH  14  15
ENDBRANCH  11  14
ENDBRANCH   6  11
ENDBRANCH   1   6
BRANCH   3  24
ATOM     24  C16 UNL     1       0.956  -2.321   1.385  1.00  0.00     0.150 A   
ATOM     25  C17 UNL     1       0.429  -3.029   2.445  1.00  0.00     0.067 A   
ATOM     26  N4  UNL     1       1.564  -2.914   0.327  1.00  0.00    -0.207 NA  
ATOM     27  C18 UNL     1       0.555  -4.394   2.368  1.00  0.00     0.117 A   
ATOM     28  C19 UNL     1       1.651  -4.269   0.338  1.00  0.00     0.236 A   
ATOM     29  N3  UNL     1       1.147  -5.028   1.338  1.00  0.00    -0.233 NA  
BRANCH  28  30
ATOM     30  C20 UNL     1       2.287  -4.967  -0.874  1.00  0.00     0.451 C   
ATOM     31  F1  UNL     1       1.403  -5.123  -1.906  1.00  0.00    -0.163 F   
ATOM     32  F2  UNL     1       3.337  -4.266  -1.401  1.00  0.00    -0.163 F   
ATOM     33  F3  UNL     1       2.776  -6.212  -0.609  1.00  0.00    -0.163 F   
ENDBRANCH  28  30
ENDBRANCH   3  24
TORSDOF 7
