REMARK SMILES Cc1n[nH]nc1Cn1cc([C@@H]([NH2+]Cc2ccc3c(c2)OCO3)C(C)C)nn1
REMARK SMILES IDX 8 1 9 2 10 3 26 4 27 5 7 7 6 8 2 9 3 10 4 11 5 12 1 13 11 15
REMARK SMILES IDX 12 16 13 19 14 20 15 21 19 22 16 23 18 24 17 25 20 26 22 27
REMARK SMILES IDX 21 28 23 29 24 30 25 31
REMARK H PARENT 9 6 4 14 12 17 12 18
ROOT
ATOM     1   N4  UNL     1       0.181  -3.021   0.254  1.00  0.00    -0.206 N   
ATOM     2   C5  UNL     1       0.839  -2.343  -0.737  1.00  0.00     0.046 A   
ATOM     3   C6  UNL     1       1.254  -1.181  -0.127  1.00  0.00     0.127 A   
ATOM     4   N6  UNL     1       0.844  -1.190   1.183  1.00  0.00    -0.132 NA  
ATOM     5   N7  UNL     1       0.188  -2.317   1.403  1.00  0.00    -0.076 NA  
ATOM     6   H7  UNL     1       0.922  -2.734  -1.742  1.00  0.00     0.083 HD  
ENDROOT
BRANCH   1   7
ATOM     7   C4  UNL     1      -0.484  -4.309   0.173  1.00  0.00     0.193 C   
BRANCH   7   8
ATOM     8   C3  UNL     1      -1.839  -4.135  -0.405  1.00  0.00     0.102 A   
ATOM     9   C2  UNL     1      -3.050  -3.787   0.242  1.00  0.00     0.082 A   
ATOM     10  N1  UNL     1      -4.030  -3.722  -0.667  1.00  0.00    -0.170 NA  
ATOM     11  N2  UNL     1      -3.393  -4.072  -1.793  1.00  0.00    -0.159 N   
ATOM     12  N3  UNL     1      -2.067  -4.289  -1.720  1.00  0.00    -0.168 NA  
ATOM     13  C1  UNL     1      -3.308  -3.498   1.671  1.00  0.00     0.071 C   
ATOM     14  H4  UNL     1      -3.897  -4.161  -2.674  1.00  0.00     0.199 HD  
ENDBRANCH   7   8
ENDBRANCH   1   7
BRANCH   3  15
ATOM     15  C7  UNL     1       1.964   0.019  -0.667  1.00  0.00     0.117 C   
BRANCH  15  16
ATOM     16  N5  UNL     1       1.500   1.257   0.060  1.00  0.00     0.249 N   
ATOM     17  H9  UNL     1       2.163   2.031  -0.050  1.00  0.00     0.199 HD  
ATOM     18  H10 UNL     1       1.487   1.026   1.065  1.00  0.00     0.199 HD  
BRANCH  16  19
ATOM     19  C8  UNL     1       0.133   1.730  -0.296  1.00  0.00     0.164 C   
BRANCH  19  20
ATOM     20  C9  UNL     1      -0.254   2.902   0.560  1.00  0.00    -0.002 A   
ATOM     21  C10 UNL     1      -0.851   2.688   1.826  1.00  0.00     0.012 A   
ATOM     22  C14 UNL     1       0.026   4.212   0.139  1.00  0.00     0.045 A   
ATOM     23  C11 UNL     1      -1.177   3.765   2.657  1.00  0.00     0.037 A   
ATOM     24  C13 UNL     1      -0.308   5.251   0.983  1.00  0.00     0.109 A   
ATOM     25  C12 UNL     1      -0.893   5.035   2.206  1.00  0.00     0.108 A   
ATOM     26  O1  UNL     1      -0.106   6.571   0.730  1.00  0.00    -0.316 OA  
ATOM     27  O2  UNL     1      -1.136   6.191   2.876  1.00  0.00    -0.316 OA  
ATOM     28  C15 UNL     1      -0.657   7.167   1.927  1.00  0.00     0.337 C   
ENDBRANCH  19  20
ENDBRANCH  16  19
ENDBRANCH  15  16
BRANCH  15  29
ATOM     29  C16 UNL     1       3.510  -0.057  -0.568  1.00  0.00     0.037 C   
ATOM     30  C17 UNL     1       4.041  -0.211   0.862  1.00  0.00     0.014 C   
ATOM     31  C18 UNL     1       4.080  -1.170  -1.454  1.00  0.00     0.014 C   
ENDBRANCH  15  29
ENDBRANCH   3  15
TORSDOF 7
