REMARK SMILES CC(C)(C)[C@H]([NH2+]Cc1ccc2c(c1)OCO2)c1cn([C@H](CO)c2cnc[nH]2)nn1
REMARK SMILES IDX 17 1 18 2 19 3 28 4 29 5 5 7 2 8 1 9 3 10 4 11 6 12 7 15
REMARK SMILES IDX 8 16 9 17 13 18 10 19 12 20 11 21 14 22 16 23 15 24 20 25
REMARK SMILES IDX 21 26 22 27 23 29 24 30 27 31 25 32 26 33
REMARK H PARENT 18 6 6 13 6 14 22 28 27 34
ROOT
ATOM     1   C14 UNL     1       1.167  -0.223  -0.745  1.00  0.00     0.127 A   
ATOM     2   C15 UNL     1       1.105  -0.398  -2.110  1.00  0.00     0.046 A   
ATOM     3   N2  UNL     1       0.025  -1.218  -2.296  1.00  0.00    -0.201 N   
ATOM     4   N5  UNL     1      -0.522  -1.556  -1.107  1.00  0.00    -0.075 NA  
ATOM     5   N6  UNL     1       0.168  -0.953  -0.155  1.00  0.00    -0.132 NA  
ATOM     6   H20 UNL     1       1.674  -0.003  -2.937  1.00  0.00     0.083 HD  
ENDROOT
BRANCH   1   7
ATOM     7   C5  UNL     1       2.014   0.679   0.103  1.00  0.00     0.120 C   
BRANCH   7   8
ATOM     8   C2  UNL     1       3.309   0.006   0.672  1.00  0.00     0.010 C   
ATOM     9   C1  UNL     1       4.165  -0.563  -0.483  1.00  0.00     0.017 C   
ATOM     10  C3  UNL     1       3.002  -1.137   1.660  1.00  0.00     0.017 C   
ATOM     11  C4  UNL     1       4.182   1.058   1.400  1.00  0.00     0.017 C   
ENDBRANCH   7   8
BRANCH   7  12
ATOM     12  N1  UNL     1       1.155   1.211   1.228  1.00  0.00     0.250 N   
ATOM     13  H11 UNL     1       0.603   0.410   1.574  1.00  0.00     0.199 HD  
ATOM     14  H12 UNL     1       1.699   1.546   2.027  1.00  0.00     0.199 HD  
BRANCH  12  15
ATOM     15  C6  UNL     1       0.177   2.263   0.831  1.00  0.00     0.164 C   
BRANCH  15  16
ATOM     16  C7  UNL     1      -0.760   2.567   1.965  1.00  0.00    -0.002 A   
ATOM     17  C8  UNL     1      -0.415   3.526   2.947  1.00  0.00     0.012 A   
ATOM     18  C12 UNL     1      -1.965   1.851   2.085  1.00  0.00     0.045 A   
ATOM     19  C9  UNL     1      -1.265   3.782   4.028  1.00  0.00     0.037 A   
ATOM     20  C11 UNL     1      -2.781   2.131   3.159  1.00  0.00     0.109 A   
ATOM     21  C10 UNL     1      -2.442   3.067   4.104  1.00  0.00     0.108 A   
ATOM     22  O1  UNL     1      -3.973   1.536   3.423  1.00  0.00    -0.316 OA  
ATOM     23  O2  UNL     1      -3.375   3.180   5.083  1.00  0.00    -0.316 OA  
ATOM     24  C13 UNL     1      -4.361   2.224   4.634  1.00  0.00     0.337 C   
ENDBRANCH  15  16
ENDBRANCH  12  15
ENDBRANCH   7  12
ENDBRANCH   1   7
BRANCH   3  25
ATOM     25  C16 UNL     1      -0.624  -1.622  -3.544  1.00  0.00     0.171 C   
BRANCH  25  26
ATOM     26  C17 UNL     1       0.265  -2.572  -4.372  1.00  0.00     0.187 C   
BRANCH  26  27
ATOM     27  O3  UNL     1       1.391  -1.901  -4.955  1.00  0.00    -0.394 OA  
ATOM     28  H24 UNL     1       1.938  -2.592  -5.379  1.00  0.00     0.210 HD  
ENDBRANCH  26  27
ENDBRANCH  25  26
BRANCH  25  29
ATOM     29  C18 UNL     1      -1.101  -0.401  -4.277  1.00  0.00     0.052 A   
ATOM     30  C19 UNL     1      -2.159   0.449  -4.029  1.00  0.00     0.133 A   
ATOM     31  N4  UNL     1      -0.484   0.131  -5.388  1.00  0.00    -0.306 N   
ATOM     32  N3  UNL     1      -2.171   1.484  -4.925  1.00  0.00    -0.248 NA  
ATOM     33  C20 UNL     1      -1.168   1.258  -5.742  1.00  0.00     0.185 A   
ATOM     34  H27 UNL     1       0.343  -0.240  -5.846  1.00  0.00     0.154 HD  
ENDBRANCH  25  29
ENDBRANCH   3  25
TORSDOF 9
