REMARK SMILES CC(C)(C)[C@H]([NH2+]Cc1ccc2c(c1)OCO2)c1cn([C@@H](CO)c2cnc[nH]2)nn1
REMARK SMILES IDX 17 1 18 2 19 3 28 4 29 5 5 7 2 8 1 9 3 10 4 11 6 12 7 15
REMARK SMILES IDX 8 16 9 17 13 18 10 19 12 20 11 21 14 22 16 23 15 24 20 25
REMARK SMILES IDX 21 26 22 27 23 29 24 30 27 31 25 32 26 33
REMARK H PARENT 18 6 6 13 6 14 22 28 27 34
ROOT
ATOM     1   C14 UNL     1       0.128  -0.324  -1.385  1.00  0.00     0.127 A   
ATOM     2   C15 UNL     1       1.140  -1.229  -1.613  1.00  0.00     0.046 A   
ATOM     3   N2  UNL     1       2.284  -0.475  -1.564  1.00  0.00    -0.201 N   
ATOM     4   N5  UNL     1       1.989   0.820  -1.325  1.00  0.00    -0.075 NA  
ATOM     5   N6  UNL     1       0.675   0.924  -1.218  1.00  0.00    -0.132 NA  
ATOM     6   H20 UNL     1       1.163  -2.300  -1.761  1.00  0.00     0.083 HD  
ENDROOT
BRANCH   1   7
ATOM     7   C5  UNL     1      -1.350  -0.514  -1.201  1.00  0.00     0.120 C   
BRANCH   7   8
ATOM     8   C2  UNL     1      -2.186  -0.398  -2.523  1.00  0.00     0.010 C   
ATOM     9   C1  UNL     1      -2.138   1.014  -3.135  1.00  0.00     0.017 C   
ATOM     10  C3  UNL     1      -3.665  -0.762  -2.254  1.00  0.00     0.017 C   
ATOM     11  C4  UNL     1      -1.661  -1.403  -3.573  1.00  0.00     0.017 C   
ENDBRANCH   7   8
BRANCH   7  12
ATOM     12  N1  UNL     1      -1.838   0.486  -0.177  1.00  0.00     0.250 N   
ATOM     13  H11 UNL     1      -1.411   1.393  -0.425  1.00  0.00     0.199 HD  
ATOM     14  H12 UNL     1      -2.850   0.629  -0.212  1.00  0.00     0.199 HD  
BRANCH  12  15
ATOM     15  C6  UNL     1      -1.450   0.193   1.234  1.00  0.00     0.164 C   
BRANCH  15  16
ATOM     16  C7  UNL     1      -1.841   1.334   2.131  1.00  0.00    -0.002 A   
ATOM     17  C8  UNL     1      -0.985   2.456   2.262  1.00  0.00     0.012 A   
ATOM     18  C12 UNL     1      -3.075   1.319   2.803  1.00  0.00     0.045 A   
ATOM     19  C9  UNL     1      -1.349   3.545   3.059  1.00  0.00     0.037 A   
ATOM     20  C11 UNL     1      -3.401   2.411   3.582  1.00  0.00     0.109 A   
ATOM     21  C10 UNL     1      -2.565   3.492   3.706  1.00  0.00     0.108 A   
ATOM     22  O1  UNL     1      -4.548   2.554   4.298  1.00  0.00    -0.316 OA  
ATOM     23  O2  UNL     1      -3.078   4.454   4.516  1.00  0.00    -0.316 OA  
ATOM     24  C13 UNL     1      -4.319   3.837   4.924  1.00  0.00     0.337 C   
ENDBRANCH  15  16
ENDBRANCH  12  15
ENDBRANCH   7  12
ENDBRANCH   1   7
BRANCH   3  25
ATOM     25  C16 UNL     1       3.662  -0.950  -1.653  1.00  0.00     0.171 C   
BRANCH  25  26
ATOM     26  C17 UNL     1       4.626   0.088  -2.254  1.00  0.00     0.187 C   
BRANCH  26  27
ATOM     27  O3  UNL     1       5.830  -0.562  -2.679  1.00  0.00    -0.394 OA  
ATOM     28  H24 UNL     1       6.427   0.136  -3.006  1.00  0.00     0.210 HD  
ENDBRANCH  26  27
ENDBRANCH  25  26
BRANCH  25  29
ATOM     29  C18 UNL     1       4.133  -1.434  -0.311  1.00  0.00     0.052 A   
ATOM     30  C19 UNL     1       3.747  -1.157   0.984  1.00  0.00     0.133 A   
ATOM     31  N4  UNL     1       5.183  -2.318  -0.176  1.00  0.00    -0.306 N   
ATOM     32  N3  UNL     1       4.476  -1.892   1.878  1.00  0.00    -0.248 NA  
ATOM     33  C20 UNL     1       5.341  -2.568   1.157  1.00  0.00     0.185 A   
ATOM     34  H27 UNL     1       5.762  -2.686  -0.922  1.00  0.00     0.154 HD  
ENDBRANCH  25  29
ENDBRANCH   3  25
TORSDOF 9
