REMARK SMILES CC(C)C[C@H]([NH2+]Cc1ccc2c(c1)OCO2)c1cn(C(=O)c2ccc3[nH]ncc3c2)nn1
REMARK SMILES IDX 17 1 18 2 19 3 31 4 32 5 5 6 4 7 2 8 1 9 3 10 6 11 7 14 8 15
REMARK SMILES IDX 9 16 13 17 10 18 12 19 11 20 14 21 16 22 15 23 20 24 21 25
REMARK SMILES IDX 22 26 23 27 30 28 24 29 29 30 25 31 28 32 26 33 27 34
REMARK H PARENT 6 12 6 13 26 35
ROOT
ATOM     1   C14 UNL     1       0.028  -1.224   1.130  1.00  0.00     0.127 A   
ATOM     2   C15 UNL     1       1.224  -0.607   0.849  1.00  0.00     0.139 A   
ATOM     3   N2  UNL     1       2.103  -1.637   0.561  1.00  0.00    -0.143 N   
ATOM     4   N5  UNL     1       1.432  -2.815   0.623  1.00  0.00    -0.068 NA  
ATOM     5   N6  UNL     1       0.180  -2.575   0.983  1.00  0.00    -0.131 NA  
ENDROOT
BRANCH   1   6
ATOM     6   C5  UNL     1      -1.306  -0.658   1.491  1.00  0.00     0.114 C   
BRANCH   6   7
ATOM     7   C4  UNL     1      -1.601  -0.760   3.001  1.00  0.00     0.064 C   
BRANCH   7   8
ATOM     8   C2  UNL     1      -0.650   0.046   3.913  1.00  0.00    -0.012 C   
ATOM     9   C1  UNL     1      -1.011  -0.202   5.380  1.00  0.00     0.007 C   
ATOM     10  C3  UNL     1      -0.693   1.546   3.619  1.00  0.00     0.007 C   
ENDBRANCH   7   8
ENDBRANCH   6   7
BRANCH   6  11
ATOM     11  N1  UNL     1      -2.410  -1.420   0.782  1.00  0.00     0.249 N   
ATOM     12  H11 UNL     1      -2.261  -2.417   0.991  1.00  0.00     0.199 HD  
ATOM     13  H12 UNL     1      -3.319  -1.160   1.175  1.00  0.00     0.199 HD  
BRANCH  11  14
ATOM     14  C6  UNL     1      -2.471  -1.276  -0.704  1.00  0.00     0.164 C   
BRANCH  14  15
ATOM     15  C7  UNL     1      -2.821   0.118  -1.142  1.00  0.00    -0.002 A   
ATOM     16  C8  UNL     1      -4.143   0.605  -0.998  1.00  0.00     0.012 A   
ATOM     17  C12 UNL     1      -1.827   0.963  -1.666  1.00  0.00     0.045 A   
ATOM     18  C9  UNL     1      -4.470   1.916  -1.364  1.00  0.00     0.037 A   
ATOM     19  C11 UNL     1      -2.183   2.249  -2.015  1.00  0.00     0.109 A   
ATOM     20  C10 UNL     1      -3.466   2.713  -1.868  1.00  0.00     0.108 A   
ATOM     21  O1  UNL     1      -1.345   3.189  -2.524  1.00  0.00    -0.316 OA  
ATOM     22  O2  UNL     1      -3.600   4.004  -2.268  1.00  0.00    -0.316 OA  
ATOM     23  C13 UNL     1      -2.257   4.296  -2.712  1.00  0.00     0.337 C   
ENDBRANCH  14  15
ENDBRANCH  11  14
ENDBRANCH   6  11
ENDBRANCH   1   6
BRANCH   3  24
ATOM     24  C16 UNL     1       3.453  -1.549   0.185  1.00  0.00     0.271 C   
ATOM     25  O3  UNL     1       3.889  -0.407   0.038  1.00  0.00    -0.269 OA  
BRANCH  24  26
ATOM     26  C17 UNL     1       4.362  -2.699  -0.069  1.00  0.00     0.040 A   
ATOM     27  C18 UNL     1       4.256  -3.905   0.636  1.00  0.00     0.016 A   
ATOM     28  C23 UNL     1       5.378  -2.523  -1.027  1.00  0.00     0.025 A   
ATOM     29  C19 UNL     1       5.131  -4.972   0.387  1.00  0.00     0.027 A   
ATOM     30  C22 UNL     1       6.259  -3.585  -1.288  1.00  0.00     0.018 A   
ATOM     31  C20 UNL     1       6.117  -4.775  -0.584  1.00  0.00     0.056 A   
ATOM     32  C21 UNL     1       7.361  -3.808  -2.143  1.00  0.00     0.141 A   
ATOM     33  N3  UNL     1       7.111  -5.594  -1.056  1.00  0.00    -0.238 N   
ATOM     34  N4  UNL     1       7.875  -5.033  -2.008  1.00  0.00    -0.192 NA  
ATOM     35  H23 UNL     1       7.323  -6.544  -0.770  1.00  0.00     0.176 HD  
ENDBRANCH  24  26
ENDBRANCH   3  24
TORSDOF 8
