REMARK SMILES CN(C)c1ccc(F)cc1Cn1cc([C@@H]([NH2+]Cc2ccc3c(c2)OCO3)C2CCCC2)nn1
REMARK SMILES IDX 12 1 13 2 14 3 32 4 33 5 11 7 10 8 4 9 5 10 6 11 9 12 7 13
REMARK SMILES IDX 8 14 2 15 1 16 3 17 15 18 16 19 17 22 18 23 19 24 23 25
REMARK SMILES IDX 20 26 22 27 21 28 24 29 26 30 25 31 27 32 28 33 31 34 29 35
REMARK SMILES IDX 30 36
REMARK H PARENT 13 6 16 20 16 21
ROOT
ATOM     1   N2  UNL     1      -0.769  -2.196   0.144  1.00  0.00    -0.208 N   
ATOM     2   C10 UNL     1       0.374  -1.464   0.324  1.00  0.00     0.046 A   
ATOM     3   C11 UNL     1      -0.050  -0.344   0.999  1.00  0.00     0.127 A   
ATOM     4   N4  UNL     1      -1.400  -0.436   1.221  1.00  0.00    -0.132 NA  
ATOM     5   N5  UNL     1      -1.831  -1.565   0.685  1.00  0.00    -0.076 NA  
ATOM     6   H12 UNL     1       1.332  -1.801  -0.048  1.00  0.00     0.083 HD  
ENDROOT
BRANCH   1   7
ATOM     7   C9  UNL     1      -0.924  -3.485  -0.509  1.00  0.00     0.171 C   
BRANCH   7   8
ATOM     8   C8  UNL     1      -0.705  -3.370  -1.999  1.00  0.00    -0.004 A   
ATOM     9   C3  UNL     1       0.520  -3.739  -2.602  1.00  0.00     0.033 A   
ATOM     10  C4  UNL     1       0.661  -3.579  -3.995  1.00  0.00     0.027 A   
ATOM     11  C5  UNL     1      -0.374  -3.053  -4.771  1.00  0.00     0.041 A   
ATOM     12  C7  UNL     1      -1.741  -2.841  -2.794  1.00  0.00     0.046 A   
ATOM     13  C6  UNL     1      -1.564  -2.687  -4.163  1.00  0.00     0.123 A   
ATOM     14  F1  UNL     1      -2.556  -2.175  -4.902  1.00  0.00    -0.207 F   
BRANCH   9  15
ATOM     15  N1  UNL     1       1.549  -4.287  -1.802  1.00  0.00    -0.337 N   
ATOM     16  C1  UNL     1       1.449  -5.760  -1.779  1.00  0.00     0.129 C   
ATOM     17  C2  UNL     1       2.905  -3.823  -2.128  1.00  0.00     0.129 C   
ENDBRANCH   9  15
ENDBRANCH   7   8
ENDBRANCH   1   7
BRANCH   3  18
ATOM     18  C12 UNL     1       0.683   0.877   1.453  1.00  0.00     0.117 C   
BRANCH  18  19
ATOM     19  N3  UNL     1      -0.264   2.046   1.513  1.00  0.00     0.249 N   
ATOM     20  H14 UNL     1       0.073   2.793   2.126  1.00  0.00     0.199 HD  
ATOM     21  H15 UNL     1      -1.134   1.693   1.942  1.00  0.00     0.199 HD  
BRANCH  19  22
ATOM     22  C13 UNL     1      -0.638   2.627   0.194  1.00  0.00     0.164 C   
BRANCH  22  23
ATOM     23  C14 UNL     1      -1.650   3.723   0.376  1.00  0.00    -0.002 A   
ATOM     24  C15 UNL     1      -3.025   3.405   0.496  1.00  0.00     0.012 A   
ATOM     25  C19 UNL     1      -1.236   5.061   0.482  1.00  0.00     0.045 A   
ATOM     26  C16 UNL     1      -3.978   4.406   0.711  1.00  0.00     0.037 A   
ATOM     27  C18 UNL     1      -2.202   6.024   0.689  1.00  0.00     0.109 A   
ATOM     28  C17 UNL     1      -3.534   5.706   0.803  1.00  0.00     0.108 A   
ATOM     29  O1  UNL     1      -1.976   7.358   0.808  1.00  0.00    -0.316 OA  
ATOM     30  O2  UNL     1      -4.313   6.799   1.008  1.00  0.00    -0.316 OA  
ATOM     31  C20 UNL     1      -3.323   7.850   0.996  1.00  0.00     0.337 C   
ENDBRANCH  22  23
ENDBRANCH  19  22
ENDBRANCH  18  19
BRANCH  18  32
ATOM     32  C21 UNL     1       1.365   0.658   2.818  1.00  0.00     0.043 C   
ATOM     33  C22 UNL     1       0.435   0.538   4.028  1.00  0.00     0.010 C   
ATOM     34  C25 UNL     1       2.341   1.769   3.230  1.00  0.00     0.010 C   
ATOM     35  C23 UNL     1       1.394   0.671   5.201  1.00  0.00     0.001 C   
ATOM     36  C24 UNL     1       2.400   1.728   4.759  1.00  0.00     0.001 C   
ENDBRANCH  18  32
ENDBRANCH   3  18
TORSDOF 8
