REMARK SMILES COc1ccc(C(=O)Cn2cc([C@H](CC(C)C)[NH2+]Cc3ccc4c(c3)OCO4)nn2)cc1
REMARK SMILES IDX 10 1 11 2 12 3 29 4 30 5 9 7 7 8 8 9 6 10 3 11 4 12 32 13
REMARK SMILES IDX 5 14 31 15 2 16 1 17 13 18 14 19 15 20 16 21 17 22 18 23
REMARK SMILES IDX 19 26 20 27 21 28 25 29 22 30 24 31 23 32 26 33 28 34 27 35
REMARK H PARENT 11 6 18 24 18 25
ROOT
ATOM     1   N1  UNL     1       1.933  -0.192  -1.954  1.00  0.00    -0.204 N   
ATOM     2   C8  UNL     1       0.713   0.098  -2.497  1.00  0.00     0.046 A   
ATOM     3   C9  UNL     1      -0.186  -0.509  -1.649  1.00  0.00     0.127 A   
ATOM     4   N3  UNL     1       0.510  -1.167  -0.664  1.00  0.00    -0.132 NA  
ATOM     5   N4  UNL     1       1.801  -0.958  -0.857  1.00  0.00    -0.076 NA  
ATOM     6   H8  UNL     1       0.611   0.709  -3.384  1.00  0.00     0.083 HD  
ENDROOT
BRANCH   1   7
ATOM     7   C7  UNL     1       3.236   0.243  -2.396  1.00  0.00     0.214 C   
BRANCH   7   8
ATOM     8   C6  UNL     1       3.482   1.663  -1.960  1.00  0.00     0.182 C   
ATOM     9   O2  UNL     1       3.104   2.600  -2.668  1.00  0.00    -0.292 OA  
BRANCH   8  10
ATOM     10  C5  UNL     1       4.142   1.952  -0.650  1.00  0.00     0.019 A   
ATOM     11  C2  UNL     1       5.364   2.636   1.795  1.00  0.00     0.075 A   
ATOM     12  C3  UNL     1       5.129   1.300   1.463  1.00  0.00     0.034 A   
ATOM     13  C24 UNL     1       4.984   3.634   0.902  1.00  0.00     0.034 A   
ATOM     14  C4  UNL     1       4.518   0.954   0.253  1.00  0.00     0.014 A   
ATOM     15  C23 UNL     1       4.378   3.293  -0.314  1.00  0.00     0.014 A   
BRANCH  11  16
ATOM     16  O1  UNL     1       5.971   2.821   3.005  1.00  0.00    -0.349 OA  
ATOM     17  C1  UNL     1       6.154   4.163   3.439  1.00  0.00     0.203 C   
ENDBRANCH  11  16
ENDBRANCH   8  10
ENDBRANCH   7   8
ENDBRANCH   1   7
BRANCH   3  18
ATOM     18  C10 UNL     1      -1.685  -0.561  -1.637  1.00  0.00     0.114 C   
BRANCH  18  19
ATOM     19  C11 UNL     1      -2.358   0.724  -2.149  1.00  0.00     0.064 C   
BRANCH  19  20
ATOM     20  C12 UNL     1      -3.901   0.689  -2.218  1.00  0.00    -0.012 C   
ATOM     21  C13 UNL     1      -4.428   2.070  -2.617  1.00  0.00     0.007 C   
ATOM     22  C14 UNL     1      -4.411  -0.363  -3.205  1.00  0.00     0.007 C   
ENDBRANCH  19  20
ENDBRANCH  18  19
BRANCH  18  23
ATOM     23  N2  UNL     1      -2.185  -0.929  -0.265  1.00  0.00     0.249 N   
ATOM     24  H19 UNL     1      -1.615  -1.738   0.024  1.00  0.00     0.199 HD  
ATOM     25  H20 UNL     1      -3.150  -1.270  -0.295  1.00  0.00     0.199 HD  
BRANCH  23  26
ATOM     26  C15 UNL     1      -2.035   0.085   0.818  1.00  0.00     0.164 C   
BRANCH  26  27
ATOM     27  C16 UNL     1      -2.229  -0.552   2.164  1.00  0.00    -0.002 A   
ATOM     28  C17 UNL     1      -1.133  -1.160   2.823  1.00  0.00     0.012 A   
ATOM     29  C21 UNL     1      -3.502  -0.594   2.755  1.00  0.00     0.045 A   
ATOM     30  C18 UNL     1      -1.299  -1.792   4.059  1.00  0.00     0.037 A   
ATOM     31  C20 UNL     1      -3.633  -1.229   3.973  1.00  0.00     0.109 A   
ATOM     32  C19 UNL     1      -2.563  -1.810   4.607  1.00  0.00     0.108 A   
ATOM     33  O3  UNL     1      -4.789  -1.367   4.674  1.00  0.00    -0.316 OA  
ATOM     34  O4  UNL     1      -2.909  -2.379   5.792  1.00  0.00    -0.316 OA  
ATOM     35  C22 UNL     1      -4.321  -2.083   5.839  1.00  0.00     0.337 C   
ENDBRANCH  26  27
ENDBRANCH  23  26
ENDBRANCH  18  23
ENDBRANCH   3  18
TORSDOF 10
