REMARK SMILES Cc1ncncc1CCn1cc([C@@H]([NH2+]Cc2ccc3c(c2)OCO3)C2CCCCC2)nn1
REMARK SMILES IDX 10 1 11 2 12 3 31 4 32 5 9 7 8 8 7 9 2 10 3 11 4 12 6 13
REMARK SMILES IDX 5 14 1 15 13 16 14 17 15 20 16 21 17 22 21 23 18 24 20 25
REMARK SMILES IDX 19 26 22 27 24 28 23 29 25 30 26 31 30 32 27 33 29 34 28 35
REMARK H PARENT 11 6 14 18 14 19
ROOT
ATOM     1   N3  UNL     1      -2.247  -2.698   2.302  1.00  0.00    -0.212 N   
ATOM     2   C8  UNL     1      -1.404  -2.944   1.253  1.00  0.00     0.045 A   
ATOM     3   C9  UNL     1      -0.464  -1.940   1.340  1.00  0.00     0.127 A   
ATOM     4   N5  UNL     1      -0.720  -1.183   2.456  1.00  0.00    -0.132 NA  
ATOM     5   N6  UNL     1      -1.811  -1.660   3.037  1.00  0.00    -0.076 NA  
ATOM     6   H10 UNL     1      -1.593  -3.722   0.525  1.00  0.00     0.083 HD  
ENDROOT
BRANCH   1   7
ATOM     7   C7  UNL     1      -3.558  -3.272   2.530  1.00  0.00     0.139 C   
BRANCH   7   8
ATOM     8   C6  UNL     1      -4.705  -2.338   2.112  1.00  0.00     0.060 C   
BRANCH   8   9
ATOM     9   C5  UNL     1      -4.556  -1.803   0.710  1.00  0.00    -0.007 A   
ATOM     10  C2  UNL     1      -4.260  -0.477   0.405  1.00  0.00     0.044 A   
ATOM     11  N1  UNL     1      -3.998  -0.069  -0.860  1.00  0.00    -0.241 NA  
ATOM     12  C3  UNL     1      -4.125  -0.985  -1.830  1.00  0.00     0.221 A   
ATOM     13  C4  UNL     1      -4.633  -2.655  -0.379  1.00  0.00     0.118 A   
ATOM     14  N2  UNL     1      -4.406  -2.278  -1.649  1.00  0.00    -0.245 NA  
ATOM     15  C1  UNL     1      -4.221   0.602   1.450  1.00  0.00     0.067 C   
ENDBRANCH   8   9
ENDBRANCH   7   8
ENDBRANCH   1   7
BRANCH   3  16
ATOM     16  C10 UNL     1       0.614  -1.534   0.386  1.00  0.00     0.117 C   
BRANCH  16  17
ATOM     17  N4  UNL     1       0.651  -0.038   0.236  1.00  0.00     0.249 N   
ATOM     18  H12 UNL     1       1.460   0.268  -0.314  1.00  0.00     0.199 HD  
ATOM     19  H13 UNL     1       0.758   0.361   1.175  1.00  0.00     0.199 HD  
BRANCH  17  20
ATOM     20  C11 UNL     1      -0.580   0.567  -0.359  1.00  0.00     0.164 C   
BRANCH  20  21
ATOM     21  C12 UNL     1      -0.391   2.038  -0.595  1.00  0.00    -0.002 A   
ATOM     22  C13 UNL     1      -0.433   2.944   0.491  1.00  0.00     0.012 A   
ATOM     23  C17 UNL     1      -0.145   2.520  -1.892  1.00  0.00     0.045 A   
ATOM     24  C14 UNL     1      -0.233   4.315   0.293  1.00  0.00     0.037 A   
ATOM     25  C16 UNL     1       0.042   3.877  -2.054  1.00  0.00     0.109 A   
ATOM     26  C15 UNL     1       0.004   4.749  -0.993  1.00  0.00     0.108 A   
ATOM     27  O1  UNL     1       0.281   4.506  -3.235  1.00  0.00    -0.316 OA  
ATOM     28  O2  UNL     1       0.223   6.034  -1.372  1.00  0.00    -0.316 OA  
ATOM     29  C18 UNL     1       0.360   5.883  -2.800  1.00  0.00     0.337 C   
ENDBRANCH  20  21
ENDBRANCH  17  20
ENDBRANCH  16  17
BRANCH  16  30
ATOM     30  C19 UNL     1       2.006  -2.083   0.799  1.00  0.00     0.043 C   
ATOM     31  C20 UNL     1       2.586  -1.445   2.079  1.00  0.00     0.010 C   
ATOM     32  C24 UNL     1       3.026  -1.972  -0.352  1.00  0.00     0.010 C   
ATOM     33  C21 UNL     1       3.934  -2.060   2.453  1.00  0.00     0.001 C   
ATOM     34  C23 UNL     1       4.370  -2.592   0.026  1.00  0.00     0.001 C   
ATOM     35  C22 UNL     1       4.933  -1.975   1.304  1.00  0.00     0.000 C   
ENDBRANCH  16  30
ENDBRANCH   3  16
TORSDOF 8
