REMARK SMILES COc1cc(CCn2cc([C@H](CC(C)C)[NH2+]Cc3ccc4c(c3)OCO4)nn2)cc(C)n1
REMARK SMILES IDX 8 1 9 2 10 3 27 4 28 5 7 7 6 8 5 9 3 10 4 11 32 12 30 13
REMARK SMILES IDX 29 14 31 15 2 16 1 17 11 18 12 19 13 20 14 21 15 22 16 23
REMARK SMILES IDX 17 26 18 27 19 28 23 29 20 30 22 31 21 32 24 33 26 34 25 35
REMARK H PARENT 9 6 16 24 16 25
ROOT
ATOM     1   N1  UNL     1       2.887   2.849  -1.420  1.00  0.00    -0.212 N   
ATOM     2   C7  UNL     1       2.778   1.661  -0.747  1.00  0.00     0.045 A   
ATOM     3   C8  UNL     1       1.990   1.968   0.343  1.00  0.00     0.127 A   
ATOM     4   N3  UNL     1       1.751   3.319   0.350  1.00  0.00    -0.132 NA  
ATOM     5   N4  UNL     1       2.323   3.849  -0.721  1.00  0.00    -0.076 NA  
ATOM     6   H9  UNL     1       3.141   0.730  -1.159  1.00  0.00     0.083 HD  
ENDROOT
BRANCH   1   7
ATOM     7   C6  UNL     1       3.221   3.017  -2.822  1.00  0.00     0.139 C   
BRANCH   7   8
ATOM     8   C5  UNL     1       1.980   3.173  -3.726  1.00  0.00     0.057 C   
BRANCH   8   9
ATOM     9   C4  UNL     1       0.858   2.225  -3.359  1.00  0.00    -0.040 A   
ATOM     10  C2  UNL     1      -1.152   1.796  -2.148  1.00  0.00     0.167 A   
ATOM     11  C3  UNL     1      -0.257   2.708  -2.668  1.00  0.00     0.058 A   
ATOM     12  N5  UNL     1      -0.976   0.458  -2.189  1.00  0.00    -0.230 NA  
ATOM     13  C23 UNL     1       0.034  -0.001  -2.971  1.00  0.00     0.041 A   
ATOM     14  C22 UNL     1       0.970   0.846  -3.562  1.00  0.00     0.027 A   
ATOM     15  C24 UNL     1       0.155  -1.488  -3.137  1.00  0.00     0.067 C   
BRANCH  10  16
ATOM     16  O1  UNL     1      -2.144   2.276  -1.324  1.00  0.00    -0.333 OA  
ATOM     17  C1  UNL     1      -3.393   1.673  -1.671  1.00  0.00     0.205 C   
ENDBRANCH  10  16
ENDBRANCH   8   9
ENDBRANCH   7   8
ENDBRANCH   1   7
BRANCH   3  18
ATOM     18  C9  UNL     1       1.250   1.092   1.309  1.00  0.00     0.114 C   
BRANCH  18  19
ATOM     19  C10 UNL     1       1.848  -0.316   1.465  1.00  0.00     0.064 C   
BRANCH  19  20
ATOM     20  C11 UNL     1       3.281  -0.357   2.044  1.00  0.00    -0.012 C   
ATOM     21  C12 UNL     1       3.363   0.262   3.440  1.00  0.00     0.007 C   
ATOM     22  C13 UNL     1       3.773  -1.808   2.093  1.00  0.00     0.007 C   
ENDBRANCH  19  20
ENDBRANCH  18  19
BRANCH  18  23
ATOM     23  N2  UNL     1      -0.171   0.999   0.803  1.00  0.00     0.249 N   
ATOM     24  H20 UNL     1      -0.404   1.945   0.464  1.00  0.00     0.199 HD  
ATOM     25  H21 UNL     1      -0.225   0.431  -0.058  1.00  0.00     0.199 HD  
BRANCH  23  26
ATOM     26  C14 UNL     1      -1.254   0.627   1.746  1.00  0.00     0.164 C   
BRANCH  26  27
ATOM     27  C15 UNL     1      -1.458  -0.855   1.895  1.00  0.00    -0.002 A   
ATOM     28  C16 UNL     1      -1.833  -1.647   0.782  1.00  0.00     0.012 A   
ATOM     29  C20 UNL     1      -1.288  -1.468   3.148  1.00  0.00     0.045 A   
ATOM     30  C17 UNL     1      -2.013  -3.028   0.907  1.00  0.00     0.037 A   
ATOM     31  C19 UNL     1      -1.468  -2.833   3.237  1.00  0.00     0.109 A   
ATOM     32  C18 UNL     1      -1.819  -3.592   2.148  1.00  0.00     0.108 A   
ATOM     33  O2  UNL     1      -1.323  -3.578   4.364  1.00  0.00    -0.316 OA  
ATOM     34  O3  UNL     1      -1.947  -4.909   2.454  1.00  0.00    -0.316 OA  
ATOM     35  C21 UNL     1      -1.638  -4.896   3.864  1.00  0.00     0.337 C   
ENDBRANCH  26  27
ENDBRANCH  23  26
ENDBRANCH  18  23
ENDBRANCH   3  18
TORSDOF 10
