REMARK SMILES CC(C)C[C@H]([NH2+]Cc1ccc2c(c1)OCO2)c1cn(Cc2cc(C(F)(F)F)n[nH]2)nn1
REMARK SMILES IDX 17 1 18 2 19 3 30 4 31 5 5 7 4 8 2 9 1 10 3 11 6 12 7 15
REMARK SMILES IDX 8 16 9 17 13 18 10 19 12 20 11 21 14 22 16 23 15 24 20 25
REMARK SMILES IDX 21 26 22 27 29 28 23 29 28 30 24 32 25 33 26 34 27 35
REMARK H PARENT 18 6 6 13 6 14 29 31
ROOT
ATOM     1   C14 UNL     1       0.155  -1.099   1.134  1.00  0.00     0.127 A   
ATOM     2   C15 UNL     1      -1.061  -1.371   0.548  1.00  0.00     0.046 A   
ATOM     3   N2  UNL     1      -1.951  -1.300   1.585  1.00  0.00    -0.206 N   
ATOM     4   N5  UNL     1      -1.319  -1.009   2.740  1.00  0.00    -0.076 NA  
ATOM     5   N6  UNL     1      -0.025  -0.907   2.480  1.00  0.00    -0.132 NA  
ATOM     6   H20 UNL     1      -1.373  -1.544  -0.472  1.00  0.00     0.083 HD  
ENDROOT
BRANCH   1   7
ATOM     7   C5  UNL     1       1.504  -0.905   0.528  1.00  0.00     0.114 C   
BRANCH   7   8
ATOM     8   C4  UNL     1       2.431  -2.117   0.740  1.00  0.00     0.064 C   
BRANCH   8   9
ATOM     9   C2  UNL     1       1.949  -3.434   0.094  1.00  0.00    -0.012 C   
ATOM     10  C1  UNL     1       2.932  -4.562   0.423  1.00  0.00     0.007 C   
ATOM     11  C3  UNL     1       1.788  -3.319  -1.422  1.00  0.00     0.007 C   
ENDBRANCH   8   9
ENDBRANCH   7   8
BRANCH   7  12
ATOM     12  N1  UNL     1       2.204   0.292   1.145  1.00  0.00     0.249 N   
ATOM     13  H11 UNL     1       3.156   0.361   0.773  1.00  0.00     0.199 HD  
ATOM     14  H12 UNL     1       2.282   0.102   2.153  1.00  0.00     0.199 HD  
BRANCH  12  15
ATOM     15  C6  UNL     1       1.524   1.619   1.001  1.00  0.00     0.164 C   
BRANCH  15  16
ATOM     16  C7  UNL     1       1.246   2.005  -0.424  1.00  0.00    -0.002 A   
ATOM     17  C8  UNL     1      -0.090   2.117  -0.881  1.00  0.00     0.012 A   
ATOM     18  C12 UNL     1       2.304   2.237  -1.320  1.00  0.00     0.045 A   
ATOM     19  C9  UNL     1      -0.372   2.439  -2.212  1.00  0.00     0.037 A   
ATOM     20  C11 UNL     1       1.991   2.553  -2.626  1.00  0.00     0.109 A   
ATOM     21  C10 UNL     1       0.693   2.648  -3.061  1.00  0.00     0.108 A   
ATOM     22  O1  UNL     1       2.890   2.796  -3.615  1.00  0.00    -0.316 OA  
ATOM     23  O2  UNL     1       0.610   2.965  -4.379  1.00  0.00    -0.316 OA  
ATOM     24  C13 UNL     1       2.007   3.105  -4.718  1.00  0.00     0.337 C   
ENDBRANCH  15  16
ENDBRANCH  12  15
ENDBRANCH   7  12
ENDBRANCH   1   7
BRANCH   3  25
ATOM     25  C16 UNL     1      -3.405  -1.268   1.511  1.00  0.00     0.186 C   
BRANCH  25  26
ATOM     26  C17 UNL     1      -3.839   0.106   1.137  1.00  0.00     0.047 A   
ATOM     27  C18 UNL     1      -4.450   0.617   0.014  1.00  0.00     0.057 A   
ATOM     28  N4  UNL     1      -3.628   1.179   1.961  1.00  0.00    -0.240 N   
ATOM     29  C19 UNL     1      -4.500   2.025   0.212  1.00  0.00     0.164 A   
ATOM     30  N3  UNL     1      -3.935   2.353   1.391  1.00  0.00    -0.179 NA  
ATOM     31  H24 UNL     1      -3.226   1.188   2.896  1.00  0.00     0.175 HD  
BRANCH  29  32
ATOM     32  C20 UNL     1      -5.045   3.049  -0.755  1.00  0.00     0.434 C   
ATOM     33  F1  UNL     1      -4.047   3.761  -1.345  1.00  0.00    -0.164 F   
ATOM     34  F2  UNL     1      -5.891   3.936  -0.173  1.00  0.00    -0.164 F   
ATOM     35  F3  UNL     1      -5.736   2.450  -1.766  1.00  0.00    -0.164 F   
ENDBRANCH  29  32
ENDBRANCH  25  26
ENDBRANCH   3  25
TORSDOF 9
