REMARK SMILES CC(C)C[C@H]([NH2+]Cc1ccc2c(c1)OCO2)c1cn(Cc2cn[nH]c2C(C)C)nn1
REMARK SMILES IDX 17 1 18 2 19 3 29 4 30 5 5 7 4 8 2 9 1 10 3 11 6 12 7 15
REMARK SMILES IDX 8 16 9 17 13 18 10 19 12 20 11 21 14 22 16 23 15 24 20 25
REMARK SMILES IDX 21 26 22 27 25 28 23 29 24 30 26 32 27 33 28 34
REMARK H PARENT 18 6 6 13 6 14 24 31
ROOT
ATOM     1   C14 UNL     1       1.272  -1.423   0.849  1.00  0.00     0.127 A   
ATOM     2   C15 UNL     1      -0.073  -1.556   1.100  1.00  0.00     0.046 A   
ATOM     3   N2  UNL     1      -0.136  -1.957   2.408  1.00  0.00    -0.208 N   
ATOM     4   N5  UNL     1       1.105  -2.056   2.930  1.00  0.00    -0.076 NA  
ATOM     5   N6  UNL     1       1.973  -1.745   1.982  1.00  0.00    -0.132 NA  
ATOM     6   H20 UNL     1      -0.959  -1.410   0.495  1.00  0.00     0.083 HD  
ENDROOT
BRANCH   1   7
ATOM     7   C5  UNL     1       2.009  -0.993  -0.376  1.00  0.00     0.114 C   
BRANCH   7   8
ATOM     8   C4  UNL     1       2.385  -2.180  -1.286  1.00  0.00     0.064 C   
BRANCH   8   9
ATOM     9   C2  UNL     1       1.192  -2.936  -1.911  1.00  0.00    -0.012 C   
ATOM     10  C1  UNL     1       1.704  -4.125  -2.730  1.00  0.00     0.007 C   
ATOM     11  C3  UNL     1       0.332  -2.034  -2.798  1.00  0.00     0.007 C   
ENDBRANCH   8   9
ENDBRANCH   7   8
BRANCH   7  12
ATOM     12  N1  UNL     1       3.306  -0.314   0.019  1.00  0.00     0.249 N   
ATOM     13  H11 UNL     1       3.740  -0.921   0.731  1.00  0.00     0.199 HD  
ATOM     14  H12 UNL     1       3.947  -0.275  -0.779  1.00  0.00     0.199 HD  
BRANCH  12  15
ATOM     15  C6  UNL     1       3.179   1.049   0.615  1.00  0.00     0.164 C   
BRANCH  15  16
ATOM     16  C7  UNL     1       2.755   2.083  -0.392  1.00  0.00    -0.002 A   
ATOM     17  C8  UNL     1       3.660   2.530  -1.385  1.00  0.00     0.012 A   
ATOM     18  C12 UNL     1       1.445   2.591  -0.371  1.00  0.00     0.045 A   
ATOM     19  C9  UNL     1       3.265   3.466  -2.348  1.00  0.00     0.037 A   
ATOM     20  C11 UNL     1       1.089   3.512  -1.333  1.00  0.00     0.109 A   
ATOM     21  C10 UNL     1       1.973   3.937  -2.294  1.00  0.00     0.108 A   
ATOM     22  O1  UNL     1      -0.131   4.096  -1.455  1.00  0.00    -0.316 OA  
ATOM     23  O2  UNL     1       1.420   4.843  -3.142  1.00  0.00    -0.316 OA  
ATOM     24  C13 UNL     1       0.098   4.978  -2.578  1.00  0.00     0.337 C   
ENDBRANCH  15  16
ENDBRANCH  12  15
ENDBRANCH   7  12
ENDBRANCH   1   7
BRANCH   3  25
ATOM     25  C16 UNL     1      -1.299  -2.287   3.224  1.00  0.00     0.172 C   
BRANCH  25  26
ATOM     26  C17 UNL     1      -2.455  -1.398   2.923  1.00  0.00     0.010 A   
ATOM     27  C18 UNL     1      -2.604  -0.053   3.332  1.00  0.00     0.138 A   
ATOM     28  C19 UNL     1      -3.609  -1.665   2.199  1.00  0.00     0.034 A   
ATOM     29  N3  UNL     1      -3.726   0.498   2.875  1.00  0.00    -0.192 NA  
ATOM     30  N4  UNL     1      -4.339  -0.502   2.226  1.00  0.00    -0.242 N   
ATOM     31  H24 UNL     1      -5.252  -0.321   1.817  1.00  0.00     0.175 HD  
BRANCH  28  32
ATOM     32  C20 UNL     1      -4.093  -2.901   1.492  1.00  0.00     0.029 C   
ATOM     33  C21 UNL     1      -4.223  -2.663  -0.013  1.00  0.00     0.014 C   
ATOM     34  C22 UNL     1      -5.411  -3.405   2.080  1.00  0.00     0.014 C   
ENDBRANCH  28  32
ENDBRANCH  25  26
ENDBRANCH   3  25
TORSDOF 9
