REMARK SMILES Cc1cc(Cn2cc([C@@H]([NH2+]Cc3ccc4c(c3)OCO4)C3CCCCC3)nn2)c(C)[nH]1
REMARK SMILES IDX 6 1 7 2 8 3 27 4 28 5 5 7 4 8 2 9 3 10 31 11 29 12 1 13
REMARK SMILES IDX 30 15 9 16 10 17 11 20 12 21 13 22 17 23 14 24 16 25 15 26
REMARK SMILES IDX 18 27 20 28 19 29 21 30 22 31 26 32 23 33 25 34 24 35
REMARK H PARENT 7 6 31 14 10 18 10 19
ROOT
ATOM     1   N1  UNL     1      -1.548   1.425   1.042  1.00  0.00    -0.208 N   
ATOM     2   C6  UNL     1      -1.838   0.108   0.802  1.00  0.00     0.046 A   
ATOM     3   C7  UNL     1      -0.776  -0.337   0.047  1.00  0.00     0.127 A   
ATOM     4   N3  UNL     1       0.054   0.720  -0.227  1.00  0.00    -0.132 NA  
ATOM     5   N4  UNL     1      -0.436   1.794   0.372  1.00  0.00    -0.076 NA  
ATOM     6   H7  UNL     1      -2.707  -0.376   1.227  1.00  0.00     0.083 HD  
ENDROOT
BRANCH   1   7
ATOM     7   C5  UNL     1      -2.298   2.382   1.845  1.00  0.00     0.171 C   
BRANCH   7   8
ATOM     8   C4  UNL     1      -2.499   1.869   3.237  1.00  0.00    -0.010 A   
ATOM     9   C2  UNL     1      -3.480   0.965   5.073  1.00  0.00     0.004 A   
ATOM     10  C3  UNL     1      -3.710   1.337   3.766  1.00  0.00     0.025 A   
ATOM     11  N5  UNL     1      -2.174   1.266   5.365  1.00  0.00    -0.322 N   
ATOM     12  C23 UNL     1      -1.563   1.818   4.263  1.00  0.00     0.008 A   
ATOM     13  C1  UNL     1      -4.389   0.366   6.085  1.00  0.00     0.061 C   
ATOM     14  H32 UNL     1      -1.732   1.122   6.265  1.00  0.00     0.152 HD  
ATOM     15  C24 UNL     1      -0.138   2.249   4.303  1.00  0.00     0.062 C   
ENDBRANCH   7   8
ENDBRANCH   1   7
BRANCH   3  16
ATOM     16  C8  UNL     1      -0.458  -1.695  -0.485  1.00  0.00     0.117 C   
BRANCH  16  17
ATOM     17  N2  UNL     1       0.260  -1.604  -1.811  1.00  0.00     0.249 N   
ATOM     18  H9  UNL     1       1.071  -0.983  -1.690  1.00  0.00     0.199 HD  
ATOM     19  H10 UNL     1       0.629  -2.520  -2.083  1.00  0.00     0.199 HD  
BRANCH  17  20
ATOM     20  C9  UNL     1      -0.551  -1.052  -2.934  1.00  0.00     0.164 C   
BRANCH  20  21
ATOM     21  C10 UNL     1       0.064  -1.412  -4.260  1.00  0.00    -0.002 A   
ATOM     22  C11 UNL     1      -0.370  -2.572  -4.952  1.00  0.00     0.012 A   
ATOM     23  C15 UNL     1       1.093  -0.623  -4.803  1.00  0.00     0.045 A   
ATOM     24  C12 UNL     1       0.208  -2.941  -6.172  1.00  0.00     0.037 A   
ATOM     25  C14 UNL     1       1.645  -1.020  -6.005  1.00  0.00     0.109 A   
ATOM     26  C13 UNL     1       1.213  -2.143  -6.670  1.00  0.00     0.108 A   
ATOM     27  O1  UNL     1       2.655  -0.389  -6.663  1.00  0.00    -0.316 OA  
ATOM     28  O2  UNL     1       1.882  -2.351  -7.834  1.00  0.00    -0.316 OA  
ATOM     29  C16 UNL     1       2.849  -1.277  -7.790  1.00  0.00     0.337 C   
ENDBRANCH  20  21
ENDBRANCH  17  20
ENDBRANCH  16  17
BRANCH  16  30
ATOM     30  C17 UNL     1       0.396  -2.564   0.480  1.00  0.00     0.043 C   
ATOM     31  C18 UNL     1       1.747  -1.929   0.874  1.00  0.00     0.010 C   
ATOM     32  C22 UNL     1      -0.405  -2.954   1.741  1.00  0.00     0.010 C   
ATOM     33  C19 UNL     1       2.543  -2.823   1.825  1.00  0.00     0.001 C   
ATOM     34  C21 UNL     1       0.406  -3.848   2.675  1.00  0.00     0.001 C   
ATOM     35  C20 UNL     1       1.730  -3.195   3.059  1.00  0.00     0.000 C   
ENDBRANCH  16  30
ENDBRANCH   3  16
TORSDOF 7
