REMARK SMILES CC(C)(C)[C@H]([NH2+]Cc1ccc2c(c1)OCO2)c1cn(CCCc2ccsc2)nn1
REMARK SMILES IDX 17 1 18 2 19 3 28 4 29 5 5 7 2 8 1 9 3 10 4 11 6 12 7 15
REMARK SMILES IDX 8 16 9 17 13 18 10 19 12 20 11 21 14 22 16 23 15 24 20 25
REMARK SMILES IDX 21 26 22 27 23 28 24 29 27 30 25 31 26 32
REMARK H PARENT 18 6 6 13 6 14
ROOT
ATOM     1   C14 UNL     1       1.233  -0.121  -0.482  1.00  0.00     0.127 A   
ATOM     2   C15 UNL     1       1.033   1.135  -1.012  1.00  0.00     0.045 A   
ATOM     3   N2  UNL     1       1.393   1.000  -2.324  1.00  0.00    -0.212 N   
ATOM     4   N3  UNL     1       1.771  -0.263  -2.592  1.00  0.00    -0.076 NA  
ATOM     5   N4  UNL     1       1.673  -0.961  -1.473  1.00  0.00    -0.132 NA  
ATOM     6   H20 UNL     1       0.698   2.074  -0.595  1.00  0.00     0.083 HD  
ENDROOT
BRANCH   1   7
ATOM     7   C5  UNL     1       1.004  -0.668   0.896  1.00  0.00     0.120 C   
BRANCH   7   8
ATOM     8   C2  UNL     1       2.237  -0.531   1.859  1.00  0.00     0.010 C   
ATOM     9   C1  UNL     1       3.443  -1.377   1.405  1.00  0.00     0.017 C   
ATOM     10  C3  UNL     1       1.847  -0.967   3.292  1.00  0.00     0.017 C   
ATOM     11  C4  UNL     1       2.688   0.945   1.952  1.00  0.00     0.017 C   
ENDBRANCH   7   8
BRANCH   7  12
ATOM     12  N1  UNL     1       0.597  -2.124   0.775  1.00  0.00     0.250 N   
ATOM     13  H11 UNL     1       0.733  -2.635   1.648  1.00  0.00     0.199 HD  
ATOM     14  H12 UNL     1       1.239  -2.535   0.080  1.00  0.00     0.199 HD  
BRANCH  12  15
ATOM     15  C6  UNL     1      -0.788  -2.373   0.282  1.00  0.00     0.164 C   
BRANCH  15  16
ATOM     16  C7  UNL     1      -1.829  -2.093   1.329  1.00  0.00    -0.002 A   
ATOM     17  C8  UNL     1      -2.045  -3.011   2.384  1.00  0.00     0.012 A   
ATOM     18  C12 UNL     1      -2.574  -0.902   1.286  1.00  0.00     0.045 A   
ATOM     19  C9  UNL     1      -2.989  -2.749   3.382  1.00  0.00     0.037 A   
ATOM     20  C11 UNL     1      -3.496  -0.674   2.286  1.00  0.00     0.109 A   
ATOM     21  C10 UNL     1      -3.698  -1.571   3.304  1.00  0.00     0.108 A   
ATOM     22  O1  UNL     1      -4.289   0.423   2.395  1.00  0.00    -0.316 OA  
ATOM     23  O2  UNL     1      -4.647  -1.154   4.182  1.00  0.00    -0.316 OA  
ATOM     24  C13 UNL     1      -5.037   0.103   3.591  1.00  0.00     0.337 C   
ENDBRANCH  15  16
ENDBRANCH  12  15
ENDBRANCH   7  12
ENDBRANCH   1   7
BRANCH   3  25
ATOM     25  C16 UNL     1       1.539   2.035  -3.322  1.00  0.00     0.134 C   
BRANCH  25  26
ATOM     26  C17 UNL     1       0.249   2.756  -3.711  1.00  0.00     0.026 C   
BRANCH  26  27
ATOM     27  C18 UNL     1      -0.704   1.915  -4.564  1.00  0.00     0.038 C   
BRANCH  27  28
ATOM     28  C19 UNL     1      -1.612   1.018  -3.774  1.00  0.00    -0.041 A   
ATOM     29  C20 UNL     1      -2.705   1.480  -2.966  1.00  0.00     0.011 A   
ATOM     30  C22 UNL     1      -1.556  -0.363  -3.773  1.00  0.00     0.049 A   
ATOM     31  C21 UNL     1      -3.428   0.450  -2.407  1.00  0.00     0.046 A   
ATOM     32  S1  UNL     1      -2.802  -1.078  -2.845  1.00  0.00    -0.106 S   
ENDBRANCH  27  28
ENDBRANCH  26  27
ENDBRANCH  25  26
ENDBRANCH   3  25
TORSDOF 9
