REMARK SMILES CC(C)[C@H]([NH2+]Cc1ccc2c(c1)OCO2)c1cn(Cc2ccnc(F)c2F)nn1
REMARK SMILES IDX 16 1 17 2 18 3 28 4 29 5 4 7 2 8 1 9 3 10 5 11 6 14 7 15
REMARK SMILES IDX 8 16 12 17 9 18 11 19 10 20 13 21 15 22 14 23 19 24 20 25
REMARK SMILES IDX 21 26 26 27 22 28 24 29 23 30 27 31 25 32
REMARK H PARENT 17 6 5 12 5 13
ROOT
ATOM     1   C13 UNL     1       0.283   2.093  -0.320  1.00  0.00     0.127 A   
ATOM     2   C14 UNL     1      -0.713   2.029   0.628  1.00  0.00     0.046 A   
ATOM     3   N2  UNL     1      -1.681   1.265   0.036  1.00  0.00    -0.208 N   
ATOM     4   N4  UNL     1      -1.311   0.895  -1.206  1.00  0.00    -0.076 NA  
ATOM     5   N5  UNL     1      -0.104   1.387  -1.431  1.00  0.00    -0.132 NA  
ATOM     6   H18 UNL     1      -0.817   2.421   1.630  1.00  0.00     0.083 HD  
ENDROOT
BRANCH   1   7
ATOM     7   C4  UNL     1       1.634   2.735  -0.296  1.00  0.00     0.117 C   
BRANCH   7   8
ATOM     8   C2  UNL     1       1.592   4.212  -0.769  1.00  0.00     0.037 C   
ATOM     9   C1  UNL     1       2.915   4.931  -0.480  1.00  0.00     0.014 C   
ATOM     10  C3  UNL     1       1.215   4.391  -2.245  1.00  0.00     0.014 C   
ENDBRANCH   7   8
BRANCH   7  11
ATOM     11  N1  UNL     1       2.598   1.931  -1.138  1.00  0.00     0.249 N   
ATOM     12  H9  UNL     1       2.013   1.386  -1.793  1.00  0.00     0.199 HD  
ATOM     13  H10 UNL     1       3.174   2.539  -1.726  1.00  0.00     0.199 HD  
BRANCH  11  14
ATOM     14  C5  UNL     1       3.485   0.987  -0.405  1.00  0.00     0.164 C   
BRANCH  14  15
ATOM     15  C6  UNL     1       2.754  -0.120   0.300  1.00  0.00    -0.002 A   
ATOM     16  C7  UNL     1       2.606  -0.100   1.709  1.00  0.00     0.012 A   
ATOM     17  C11 UNL     1       2.197  -1.181  -0.436  1.00  0.00     0.045 A   
ATOM     18  C8  UNL     1       1.918  -1.119   2.375  1.00  0.00     0.037 A   
ATOM     19  C10 UNL     1       1.534  -2.175   0.253  1.00  0.00     0.109 A   
ATOM     20  C9  UNL     1       1.400  -2.145   1.619  1.00  0.00     0.108 A   
ATOM     21  O1  UNL     1       0.959  -3.275  -0.301  1.00  0.00    -0.316 OA  
ATOM     22  O2  UNL     1       0.726  -3.222   2.096  1.00  0.00    -0.316 OA  
ATOM     23  C12 UNL     1       0.490  -3.964   0.881  1.00  0.00     0.337 C   
ENDBRANCH  14  15
ENDBRANCH  11  14
ENDBRANCH   7  11
ENDBRANCH   1   7
BRANCH   3  24
ATOM     24  C15 UNL     1      -2.977   0.883   0.569  1.00  0.00     0.172 C   
BRANCH  24  25
ATOM     25  C16 UNL     1      -2.958  -0.521   1.101  1.00  0.00     0.014 A   
ATOM     26  C17 UNL     1      -3.501  -1.586   0.374  1.00  0.00     0.029 A   
ATOM     27  C20 UNL     1      -2.381  -0.800   2.340  1.00  0.00     0.182 A   
ATOM     28  C18 UNL     1      -3.452  -2.863   0.920  1.00  0.00     0.115 A   
ATOM     29  C19 UNL     1      -2.376  -2.106   2.805  1.00  0.00     0.249 A   
ATOM     30  N3  UNL     1      -2.898  -3.147   2.118  1.00  0.00    -0.226 NA  
ATOM     31  F2  UNL     1      -1.836   0.190   3.062  1.00  0.00    -0.202 F   
ATOM     32  F1  UNL     1      -1.822  -2.366   3.998  1.00  0.00    -0.182 F   
ENDBRANCH  24  25
ENDBRANCH   3  24
TORSDOF 7
