REMARK SMILES CC(C)C[C@H]([NH2+]Cc1ccc2c(c1)OCO2)c1cn(Cc2ccc3[nH]ccc3c2)nn1
REMARK SMILES IDX 17 1 18 2 19 3 30 4 31 5 5 7 4 8 2 9 1 10 3 11 6 12 7 15
REMARK SMILES IDX 8 16 9 17 13 18 10 19 12 20 11 21 14 22 16 23 15 24 20 25
REMARK SMILES IDX 21 26 22 27 29 28 23 29 28 30 24 31 27 32 25 33 26 34
REMARK H PARENT 18 6 6 13 6 14 25 35
ROOT
ATOM     1   C14 UNL     1      -1.060  -0.953  -0.602  1.00  0.00     0.127 A   
ATOM     2   C15 UNL     1      -0.182  -0.485  -1.554  1.00  0.00     0.046 A   
ATOM     3   N2  UNL     1      -0.995  -0.036  -2.560  1.00  0.00    -0.208 N   
ATOM     4   N4  UNL     1      -2.291  -0.256  -2.262  1.00  0.00    -0.076 NA  
ATOM     5   N5  UNL     1      -2.342  -0.827  -1.069  1.00  0.00    -0.132 NA  
ATOM     6   H20 UNL     1       0.893  -0.374  -1.585  1.00  0.00     0.083 HD  
ENDROOT
BRANCH   1   7
ATOM     7   C5  UNL     1      -0.821  -1.433   0.788  1.00  0.00     0.114 C   
BRANCH   7   8
ATOM     8   C4  UNL     1      -0.945  -2.964   0.918  1.00  0.00     0.064 C   
BRANCH   8   9
ATOM     9   C2  UNL     1       0.080  -3.779   0.101  1.00  0.00    -0.012 C   
ATOM     10  C1  UNL     1       1.523  -3.483   0.512  1.00  0.00     0.007 C   
ATOM     11  C3  UNL     1      -0.206  -5.274   0.262  1.00  0.00     0.007 C   
ENDBRANCH   8   9
ENDBRANCH   7   8
BRANCH   7  12
ATOM     12  N1  UNL     1      -1.839  -0.830   1.739  1.00  0.00     0.249 N   
ATOM     13  H11 UNL     1      -1.713  -1.227   2.675  1.00  0.00     0.199 HD  
ATOM     14  H12 UNL     1      -2.764  -1.123   1.400  1.00  0.00     0.199 HD  
BRANCH  12  15
ATOM     15  C6  UNL     1      -1.865   0.662   1.838  1.00  0.00     0.164 C   
BRANCH  15  16
ATOM     16  C7  UNL     1      -0.558   1.262   2.272  1.00  0.00    -0.002 A   
ATOM     17  C8  UNL     1       0.210   2.023   1.358  1.00  0.00     0.012 A   
ATOM     18  C12 UNL     1      -0.080   1.064   3.578  1.00  0.00     0.045 A   
ATOM     19  C9  UNL     1       1.440   2.575   1.732  1.00  0.00     0.037 A   
ATOM     20  C11 UNL     1       1.137   1.621   3.915  1.00  0.00     0.109 A   
ATOM     21  C10 UNL     1       1.876   2.354   3.019  1.00  0.00     0.108 A   
ATOM     22  O1  UNL     1       1.741   1.523   5.128  1.00  0.00    -0.316 OA  
ATOM     23  O2  UNL     1       3.037   2.811   3.555  1.00  0.00    -0.316 OA  
ATOM     24  C13 UNL     1       2.927   2.319   4.908  1.00  0.00     0.337 C   
ENDBRANCH  15  16
ENDBRANCH  12  15
ENDBRANCH   7  12
ENDBRANCH   1   7
BRANCH   3  25
ATOM     25  C16 UNL     1      -0.619   0.710  -3.751  1.00  0.00     0.169 C   
BRANCH  25  26
ATOM     26  C17 UNL     1       0.073   1.999  -3.370  1.00  0.00    -0.028 A   
ATOM     27  C18 UNL     1       1.424   2.199  -3.683  1.00  0.00     0.007 A   
ATOM     28  C24 UNL     1      -0.632   2.995  -2.666  1.00  0.00     0.015 A   
ATOM     29  C19 UNL     1       2.100   3.362  -3.294  1.00  0.00     0.024 A   
ATOM     30  C23 UNL     1       0.034   4.165  -2.249  1.00  0.00    -0.003 A   
ATOM     31  C20 UNL     1       1.381   4.320  -2.571  1.00  0.00     0.037 A   
ATOM     32  C22 UNL     1      -0.360   5.320  -1.523  1.00  0.00     0.025 A   
ATOM     33  N3  UNL     1       1.781   5.538  -2.067  1.00  0.00    -0.321 N   
ATOM     34  C21 UNL     1       0.739   6.142  -1.416  1.00  0.00     0.072 A   
ATOM     35  H25 UNL     1       2.709   5.929  -2.170  1.00  0.00     0.152 HD  
ENDBRANCH  25  26
ENDBRANCH   3  25
TORSDOF 8
