REMARK SMILES CC(C)(C)[C@H]([NH2+]Cc1ccc2c(c1)OCO2)c1cn(Cc2ccc3[nH]ccc3c2)nn1
REMARK SMILES IDX 17 1 18 2 19 3 30 4 31 5 5 7 2 8 1 9 3 10 4 11 6 12 7 15
REMARK SMILES IDX 8 16 9 17 13 18 10 19 12 20 11 21 14 22 16 23 15 24 20 25
REMARK SMILES IDX 21 26 22 27 29 28 23 29 28 30 24 31 27 32 25 33 26 34
REMARK H PARENT 18 6 6 13 6 14 25 35
ROOT
ATOM     1   C14 UNL     1      -2.423   0.976   0.746  1.00  0.00     0.127 A   
ATOM     2   C15 UNL     1      -3.011   0.837  -0.491  1.00  0.00     0.046 A   
ATOM     3   N2  UNL     1      -2.788   2.042  -1.101  1.00  0.00    -0.208 N   
ATOM     4   N4  UNL     1      -2.104   2.871  -0.289  1.00  0.00    -0.076 NA  
ATOM     5   N5  UNL     1      -1.874   2.230   0.844  1.00  0.00    -0.132 NA  
ATOM     6   H20 UNL     1      -3.526   0.025  -0.986  1.00  0.00     0.083 HD  
ENDROOT
BRANCH   1   7
ATOM     7   C5  UNL     1      -2.230   0.000   1.868  1.00  0.00     0.120 C   
BRANCH   7   8
ATOM     8   C2  UNL     1      -3.344   0.058   2.970  1.00  0.00     0.010 C   
ATOM     9   C1  UNL     1      -3.362   1.399   3.730  1.00  0.00     0.017 C   
ATOM     10  C3  UNL     1      -3.140  -1.079   3.999  1.00  0.00     0.017 C   
ATOM     11  C4  UNL     1      -4.736  -0.159   2.333  1.00  0.00     0.017 C   
ENDBRANCH   7   8
BRANCH   7  12
ATOM     12  N1  UNL     1      -0.870   0.241   2.481  1.00  0.00     0.250 N   
ATOM     13  H11 UNL     1      -0.780  -0.164   3.416  1.00  0.00     0.199 HD  
ATOM     14  H12 UNL     1      -0.778   1.262   2.599  1.00  0.00     0.199 HD  
BRANCH  12  15
ATOM     15  C6  UNL     1       0.289  -0.205   1.655  1.00  0.00     0.164 C   
BRANCH  15  16
ATOM     16  C7  UNL     1       1.580   0.164   2.329  1.00  0.00    -0.002 A   
ATOM     17  C8  UNL     1       2.143   1.447   2.127  1.00  0.00     0.012 A   
ATOM     18  C12 UNL     1       2.205  -0.737   3.208  1.00  0.00     0.045 A   
ATOM     19  C9  UNL     1       3.320   1.826   2.782  1.00  0.00     0.037 A   
ATOM     20  C11 UNL     1       3.363  -0.330   3.838  1.00  0.00     0.109 A   
ATOM     21  C10 UNL     1       3.905   0.914   3.632  1.00  0.00     0.108 A   
ATOM     22  O1  UNL     1       4.087  -1.074   4.714  1.00  0.00    -0.316 OA  
ATOM     23  O2  UNL     1       5.040   1.110   4.351  1.00  0.00    -0.316 OA  
ATOM     24  C13 UNL     1       5.168  -0.163   5.019  1.00  0.00     0.337 C   
ENDBRANCH  15  16
ENDBRANCH  12  15
ENDBRANCH   7  12
ENDBRANCH   1   7
BRANCH   3  25
ATOM     25  C16 UNL     1      -3.170   2.455  -2.441  1.00  0.00     0.169 C   
BRANCH  25  26
ATOM     26  C17 UNL     1      -2.251   1.845  -3.470  1.00  0.00    -0.028 A   
ATOM     27  C18 UNL     1      -0.988   2.406  -3.709  1.00  0.00     0.007 A   
ATOM     28  C24 UNL     1      -2.644   0.691  -4.175  1.00  0.00     0.015 A   
ATOM     29  C19 UNL     1      -0.105   1.850  -4.641  1.00  0.00     0.024 A   
ATOM     30  C23 UNL     1      -1.767   0.113  -5.114  1.00  0.00    -0.003 A   
ATOM     31  C20 UNL     1      -0.523   0.704  -5.325  1.00  0.00     0.037 A   
ATOM     32  C22 UNL     1      -1.847  -1.017  -5.974  1.00  0.00     0.025 A   
ATOM     33  N3  UNL     1       0.121  -0.039  -6.290  1.00  0.00    -0.321 N   
ATOM     34  C21 UNL     1      -0.669  -1.087  -6.683  1.00  0.00     0.072 A   
ATOM     35  H25 UNL     1       1.040   0.167  -6.658  1.00  0.00     0.152 HD  
ENDBRANCH  25  26
ENDBRANCH   3  25
TORSDOF 7
