REMARK SMILES CC(C)[C@H]([NH2+]Cc1ccc2c(c1)OCO2)c1cn(C[C@@H]2NCCc3nc[nH]c32)nn1
REMARK SMILES IDX 16 1 17 2 18 3 29 4 30 5 4 7 2 8 1 9 3 10 5 11 6 14 7 15
REMARK SMILES IDX 8 16 12 17 9 18 11 19 10 20 13 21 15 22 14 23 19 24 20 25
REMARK SMILES IDX 21 26 28 27 22 28 24 29 27 30 23 31 25 32 26 33
REMARK H PARENT 17 6 5 12 5 13 21 34 27 35
ROOT
ATOM     1   C13 UNL     1       0.397  -1.550   0.314  1.00  0.00     0.127 A   
ATOM     2   C14 UNL     1       0.822  -1.570   1.627  1.00  0.00     0.045 A   
ATOM     3   N2  UNL     1       2.096  -1.069   1.556  1.00  0.00    -0.210 N   
ATOM     4   N6  UNL     1       2.513  -1.018   0.273  1.00  0.00    -0.076 NA  
ATOM     5   N7  UNL     1       1.462  -1.257  -0.496  1.00  0.00    -0.132 NA  
ATOM     6   H18 UNL     1       0.304  -1.682   2.568  1.00  0.00     0.083 HD  
ENDROOT
BRANCH   1   7
ATOM     7   C4  UNL     1      -0.993  -1.609  -0.251  1.00  0.00     0.117 C   
BRANCH   7   8
ATOM     8   C2  UNL     1      -1.231  -2.913  -1.065  1.00  0.00     0.037 C   
ATOM     9   C1  UNL     1      -2.712  -3.209  -1.322  1.00  0.00     0.014 C   
ATOM     10  C3  UNL     1      -0.469  -3.006  -2.393  1.00  0.00     0.014 C   
ENDBRANCH   7   8
BRANCH   7  11
ATOM     11  N1  UNL     1      -1.249  -0.354  -1.038  1.00  0.00     0.249 N   
ATOM     12  H9  UNL     1      -0.722   0.416  -0.576  1.00  0.00     0.199 HD  
ATOM     13  H10 UNL     1      -0.799  -0.408  -1.958  1.00  0.00     0.199 HD  
BRANCH  11  14
ATOM     14  C5  UNL     1      -2.633   0.165  -1.127  1.00  0.00     0.164 C   
BRANCH  14  15
ATOM     15  C6  UNL     1      -2.749   1.242  -2.169  1.00  0.00    -0.002 A   
ATOM     16  C7  UNL     1      -2.760   2.605  -1.793  1.00  0.00     0.012 A   
ATOM     17  C11 UNL     1      -2.810   0.902  -3.533  1.00  0.00     0.045 A   
ATOM     18  C8  UNL     1      -2.835   3.619  -2.754  1.00  0.00     0.037 A   
ATOM     19  C10 UNL     1      -2.879   1.925  -4.456  1.00  0.00     0.109 A   
ATOM     20  C9  UNL     1      -2.892   3.246  -4.078  1.00  0.00     0.108 A   
ATOM     21  O1  UNL     1      -2.936   1.769  -5.806  1.00  0.00    -0.316 OA  
ATOM     22  O2  UNL     1      -2.961   4.089  -5.141  1.00  0.00    -0.316 OA  
ATOM     23  C12 UNL     1      -3.015   3.148  -6.236  1.00  0.00     0.337 C   
ENDBRANCH  14  15
ENDBRANCH  11  14
ENDBRANCH   7  11
ENDBRANCH   1   7
BRANCH   3  24
ATOM     24  C15 UNL     1       2.776  -0.257   2.557  1.00  0.00     0.159 C   
BRANCH  24  25
ATOM     25  C16 UNL     1       2.007   1.054   2.907  1.00  0.00     0.120 C   
ATOM     26  N3  UNL     1       0.963   0.738   3.929  1.00  0.00    -0.307 NA  
ATOM     27  C21 UNL     1       1.361   1.666   1.700  1.00  0.00     0.049 A   
ATOM     28  C17 UNL     1      -0.159   1.701   3.966  1.00  0.00     0.088 C   
ATOM     29  C19 UNL     1       0.018   1.897   1.530  1.00  0.00     0.062 A   
ATOM     30  N5  UNL     1       1.940   2.047   0.520  1.00  0.00    -0.306 N   
ATOM     31  C18 UNL     1      -0.952   1.743   2.636  1.00  0.00     0.073 C   
ATOM     32  N4  UNL     1      -0.270   2.146   0.217  1.00  0.00    -0.244 NA  
ATOM     33  C20 UNL     1       0.912   2.321  -0.348  1.00  0.00     0.186 A   
ATOM     34  H22 UNL     1       1.406   0.721   4.848  1.00  0.00     0.123 HD  
ATOM     35  H28 UNL     1       2.920   2.018   0.273  1.00  0.00     0.154 HD  
ENDBRANCH  24  25
ENDBRANCH   3  24
TORSDOF 7
