REMARK SMILES CC(C)[C@H]([NH2+]Cc1ccc2c(c1)OCO2)c1cn(C[C@H]2NCCc3nc[nH]c32)nn1
REMARK SMILES IDX 16 1 17 2 18 3 29 4 30 5 4 7 2 8 1 9 3 10 5 11 6 14 7 15
REMARK SMILES IDX 8 16 12 17 9 18 11 19 10 20 13 21 15 22 14 23 19 24 20 25
REMARK SMILES IDX 21 26 28 27 22 28 24 29 27 30 23 31 25 32 26 33
REMARK H PARENT 17 6 5 12 5 13 21 34 27 35
ROOT
ATOM     1   C13 UNL     1      -0.665   1.669   0.479  1.00  0.00     0.127 A   
ATOM     2   C14 UNL     1      -0.005   2.336   1.491  1.00  0.00     0.045 A   
ATOM     3   N2  UNL     1       0.366   3.522   0.916  1.00  0.00    -0.210 N   
ATOM     4   N6  UNL     1      -0.206   3.659  -0.298  1.00  0.00    -0.076 NA  
ATOM     5   N7  UNL     1      -0.818   2.520  -0.586  1.00  0.00    -0.132 NA  
ATOM     6   H18 UNL     1       0.368   2.029   2.458  1.00  0.00     0.083 HD  
ENDROOT
BRANCH   1   7
ATOM     7   C4  UNL     1      -1.019   0.219   0.324  1.00  0.00     0.117 C   
BRANCH   7   8
ATOM     8   C2  UNL     1      -1.252  -0.541   1.658  1.00  0.00     0.037 C   
ATOM     9   C1  UNL     1      -2.410   0.082   2.456  1.00  0.00     0.014 C   
ATOM     10  C3  UNL     1      -1.585  -2.027   1.446  1.00  0.00     0.014 C   
ENDBRANCH   7   8
BRANCH   7  11
ATOM     11  N1  UNL     1       0.087  -0.448  -0.473  1.00  0.00     0.249 N   
ATOM     12  H9  UNL     1       0.379  -1.342  -0.076  1.00  0.00     0.199 HD  
ATOM     13  H10 UNL     1       0.945   0.134  -0.417  1.00  0.00     0.199 HD  
BRANCH  11  14
ATOM     14  C5  UNL     1      -0.176  -0.622  -1.928  1.00  0.00     0.164 C   
BRANCH  14  15
ATOM     15  C6  UNL     1      -1.099  -1.774  -2.214  1.00  0.00    -0.002 A   
ATOM     16  C7  UNL     1      -0.609  -3.103  -2.171  1.00  0.00     0.012 A   
ATOM     17  C11 UNL     1      -2.458  -1.548  -2.491  1.00  0.00     0.045 A   
ATOM     18  C8  UNL     1      -1.460  -4.191  -2.395  1.00  0.00     0.037 A   
ATOM     19  C10 UNL     1      -3.270  -2.643  -2.703  1.00  0.00     0.109 A   
ATOM     20  C9  UNL     1      -2.785  -3.927  -2.656  1.00  0.00     0.108 A   
ATOM     21  O1  UNL     1      -4.602  -2.600  -2.967  1.00  0.00    -0.316 OA  
ATOM     22  O2  UNL     1      -3.750  -4.854  -2.890  1.00  0.00    -0.316 OA  
ATOM     23  C12 UNL     1      -4.898  -4.008  -3.116  1.00  0.00     0.337 C   
ENDBRANCH  14  15
ENDBRANCH  11  14
ENDBRANCH   7  11
ENDBRANCH   1   7
BRANCH   3  24
ATOM     24  C15 UNL     1       1.506   4.354   1.274  1.00  0.00     0.159 C   
BRANCH  24  25
ATOM     25  C16 UNL     1       2.859   3.581   1.261  1.00  0.00     0.120 C   
ATOM     26  N3  UNL     1       3.019   2.868   2.563  1.00  0.00    -0.307 NA  
ATOM     27  C21 UNL     1       2.925   2.593   0.137  1.00  0.00     0.049 A   
ATOM     28  C17 UNL     1       3.950   1.718   2.514  1.00  0.00     0.088 C   
ATOM     29  C19 UNL     1       3.117   1.238   0.256  1.00  0.00     0.062 A   
ATOM     30  N5  UNL     1       2.742   2.812  -1.201  1.00  0.00    -0.306 N   
ATOM     31  C18 UNL     1       3.472   0.607   1.547  1.00  0.00     0.073 C   
ATOM     32  N4  UNL     1       2.808   0.596  -0.914  1.00  0.00    -0.244 NA  
ATOM     33  C20 UNL     1       2.685   1.575  -1.794  1.00  0.00     0.186 A   
ATOM     34  H22 UNL     1       3.361   3.534   3.260  1.00  0.00     0.123 HD  
ATOM     35  H28 UNL     1       2.582   3.698  -1.666  1.00  0.00     0.154 HD  
ENDBRANCH  24  25
ENDBRANCH   3  24
TORSDOF 7
