REMARK SMILES Oc1ccc(F)cc1CCn1cc([C@@H]([NH2+]Cc2ccc3c(c2)OCO3)C2CCCC2)nn1
REMARK SMILES IDX 11 1 12 2 13 3 31 4 32 5 10 7 9 8 8 9 2 10 3 11 4 12 7 13
REMARK SMILES IDX 5 14 6 15 1 16 14 18 15 19 16 22 17 23 18 24 22 25 19 26
REMARK SMILES IDX 21 27 20 28 23 29 25 30 24 31 26 32 27 33 30 34 28 35 29 36
REMARK H PARENT 12 6 1 17 15 20 15 21
ROOT
ATOM     1   N1  UNL     1       0.661   0.137  -2.649  1.00  0.00    -0.212 N   
ATOM     2   C9  UNL     1       0.773  -0.967  -1.852  1.00  0.00     0.045 A   
ATOM     3   C10 UNL     1       0.307  -0.541  -0.628  1.00  0.00     0.127 A   
ATOM     4   N3  UNL     1      -0.038   0.785  -0.716  1.00  0.00    -0.132 NA  
ATOM     5   N4  UNL     1       0.200   1.191  -1.951  1.00  0.00    -0.076 NA  
ATOM     6   H9  UNL     1       1.145  -1.913  -2.223  1.00  0.00     0.083 HD  
ENDROOT
BRANCH   1   7
ATOM     7   C8  UNL     1       0.982   0.266  -4.055  1.00  0.00     0.139 C   
BRANCH   7   8
ATOM     8   C7  UNL     1      -0.269   0.192  -4.924  1.00  0.00     0.060 C   
BRANCH   8   9
ATOM     9   C6  UNL     1       0.065   0.279  -6.391  1.00  0.00    -0.013 A   
ATOM     10  C1  UNL     1       0.602  -0.815  -7.084  1.00  0.00     0.075 A   
ATOM     11  C2  UNL     1       0.914  -0.731  -8.442  1.00  0.00     0.036 A   
ATOM     12  C3  UNL     1       0.694   0.465  -9.125  1.00  0.00     0.042 A   
ATOM     13  C5  UNL     1      -0.147   1.475  -7.090  1.00  0.00     0.045 A   
ATOM     14  C4  UNL     1       0.168   1.556  -8.444  1.00  0.00     0.123 A   
ATOM     15  F1  UNL     1      -0.037   2.705  -9.098  1.00  0.00    -0.207 F   
BRANCH  10  16
ATOM     16  O1  UNL     1       0.823  -1.977  -6.399  1.00  0.00    -0.361 OA  
ATOM     17  H1  UNL     1       1.086  -2.662  -7.039  1.00  0.00     0.218 HD  
ENDBRANCH  10  16
ENDBRANCH   8   9
ENDBRANCH   7   8
ENDBRANCH   1   7
BRANCH   3  18
ATOM     18  C11 UNL     1       0.175  -1.243   0.686  1.00  0.00     0.117 C   
BRANCH  18  19
ATOM     19  N2  UNL     1       0.388  -0.250   1.803  1.00  0.00     0.249 N   
ATOM     20  H11 UNL     1       0.026  -0.589   2.700  1.00  0.00     0.199 HD  
ATOM     21  H12 UNL     1      -0.172   0.584   1.563  1.00  0.00     0.199 HD  
BRANCH  19  22
ATOM     22  C12 UNL     1       1.793   0.206   1.994  1.00  0.00     0.164 C   
BRANCH  22  23
ATOM     23  C13 UNL     1       1.856   1.274   3.048  1.00  0.00    -0.002 A   
ATOM     24  C14 UNL     1       1.646   2.630   2.696  1.00  0.00     0.012 A   
ATOM     25  C18 UNL     1       2.063   0.932   4.395  1.00  0.00     0.045 A   
ATOM     26  C15 UNL     1       1.654   3.634   3.669  1.00  0.00     0.037 A   
ATOM     27  C17 UNL     1       2.064   1.948   5.329  1.00  0.00     0.109 A   
ATOM     28  C16 UNL     1       1.866   3.260   4.977  1.00  0.00     0.108 A   
ATOM     29  O2  UNL     1       2.246   1.790   6.666  1.00  0.00    -0.316 OA  
ATOM     30  O3  UNL     1       1.902   4.095   6.048  1.00  0.00    -0.316 OA  
ATOM     31  C19 UNL     1       2.165   3.161   7.118  1.00  0.00     0.337 C   
ENDBRANCH  22  23
ENDBRANCH  19  22
ENDBRANCH  18  19
BRANCH  18  32
ATOM     32  C20 UNL     1      -1.215  -1.884   0.864  1.00  0.00     0.043 C   
ATOM     33  C21 UNL     1      -1.400  -2.627   2.196  1.00  0.00     0.010 C   
ATOM     34  C24 UNL     1      -1.523  -2.978  -0.165  1.00  0.00     0.010 C   
ATOM     35  C22 UNL     1      -2.456  -3.703   1.938  1.00  0.00     0.001 C   
ATOM     36  C23 UNL     1      -2.722  -3.692   0.438  1.00  0.00     0.001 C   
ENDBRANCH  18  32
ENDBRANCH   3  18
TORSDOF 9
