REMARK SMILES CC(C)(C)[C@H]([NH2+]Cc1ccc2c(c1)OCO2)c1cn(CCc2cccc(F)c2O)nn1
REMARK SMILES IDX 17 1 18 2 19 3 30 4 31 5 5 7 2 8 1 9 3 10 4 11 6 12 7 15
REMARK SMILES IDX 8 16 9 17 13 18 10 19 12 20 11 21 14 22 16 23 15 24 20 25
REMARK SMILES IDX 21 26 22 27 23 28 28 29 24 30 26 31 25 32 27 33 29 34
REMARK H PARENT 18 6 6 13 6 14 29 35
ROOT
ATOM     1   C14 UNL     1       1.034  -0.718  -1.565  1.00  0.00     0.127 A   
ATOM     2   C15 UNL     1       1.812  -1.845  -1.705  1.00  0.00     0.045 A   
ATOM     3   N2  UNL     1       3.077  -1.407  -1.426  1.00  0.00    -0.212 N   
ATOM     4   N3  UNL     1       3.080  -0.095  -1.130  1.00  0.00    -0.076 NA  
ATOM     5   N4  UNL     1       1.834   0.339  -1.208  1.00  0.00    -0.132 NA  
ATOM     6   H20 UNL     1       1.597  -2.878  -1.939  1.00  0.00     0.083 HD  
ENDROOT
BRANCH   1   7
ATOM     7   C5  UNL     1      -0.450  -0.530  -1.628  1.00  0.00     0.120 C   
BRANCH   7   8
ATOM     8   C2  UNL     1      -0.978  -0.021  -3.014  1.00  0.00     0.010 C   
ATOM     9   C1  UNL     1      -0.477   1.395  -3.361  1.00  0.00     0.017 C   
ATOM     10  C3  UNL     1      -0.533  -0.984  -4.138  1.00  0.00     0.017 C   
ATOM     11  C4  UNL     1      -2.525  -0.004  -3.024  1.00  0.00     0.017 C   
ENDBRANCH   7   8
BRANCH   7  12
ATOM     12  N1  UNL     1      -0.854   0.420  -0.525  1.00  0.00     0.250 N   
ATOM     13  H11 UNL     1      -1.783   0.823  -0.670  1.00  0.00     0.199 HD  
ATOM     14  H12 UNL     1      -0.190   1.208  -0.562  1.00  0.00     0.199 HD  
BRANCH  12  15
ATOM     15  C6  UNL     1      -0.784  -0.144   0.853  1.00  0.00     0.164 C   
BRANCH  15  16
ATOM     16  C7  UNL     1      -1.089   0.920   1.869  1.00  0.00    -0.002 A   
ATOM     17  C8  UNL     1      -0.059   1.772   2.333  1.00  0.00     0.012 A   
ATOM     18  C12 UNL     1      -2.406   1.115   2.318  1.00  0.00     0.045 A   
ATOM     19  C9  UNL     1      -0.332   2.799   3.243  1.00  0.00     0.037 A   
ATOM     20  C11 UNL     1      -2.641   2.139   3.212  1.00  0.00     0.109 A   
ATOM     21  C10 UNL     1      -1.634   2.956   3.663  1.00  0.00     0.108 A   
ATOM     22  O1  UNL     1      -3.850   2.467   3.738  1.00  0.00    -0.316 OA  
ATOM     23  O2  UNL     1      -2.081   3.899   4.533  1.00  0.00    -0.316 OA  
ATOM     24  C13 UNL     1      -3.488   3.580   4.586  1.00  0.00     0.337 C   
ENDBRANCH  15  16
ENDBRANCH  12  15
ENDBRANCH   7  12
ENDBRANCH   1   7
BRANCH   3  25
ATOM     25  C16 UNL     1       4.294  -2.188  -1.359  1.00  0.00     0.139 C   
BRANCH  25  26
ATOM     26  C17 UNL     1       4.817  -2.361   0.070  1.00  0.00     0.060 C   
BRANCH  26  27
ATOM     27  C18 UNL     1       3.815  -2.931   1.051  1.00  0.00    -0.013 A   
ATOM     28  C19 UNL     1       3.420  -2.171   2.167  1.00  0.00     0.006 A   
ATOM     29  C23 UNL     1       3.275  -4.211   0.903  1.00  0.00     0.110 A   
ATOM     30  C20 UNL     1       2.512  -2.681   3.102  1.00  0.00     0.004 A   
ATOM     31  C22 UNL     1       2.369  -4.714   1.836  1.00  0.00     0.153 A   
ATOM     32  C21 UNL     1       1.982  -3.959   2.935  1.00  0.00     0.042 A   
ATOM     33  F1  UNL     1       1.858  -5.942   1.659  1.00  0.00    -0.204 F   
BRANCH  29  34
ATOM     34  O3  UNL     1       3.637  -4.976  -0.171  1.00  0.00    -0.358 OA  
ATOM     35  H28 UNL     1       3.293  -5.878  -0.007  1.00  0.00     0.218 HD  
ENDBRANCH  29  34
ENDBRANCH  26  27
ENDBRANCH  25  26
ENDBRANCH   3  25
TORSDOF 9
