REMARK SMILES Cc1cc(-n2cc([C@@H]([NH2+]Cc3ccc4c(c3)OCO4)C(C)(C)C)nn2)c2cc[nH]c2n1
REMARK SMILES IDX 8 1 7 2 5 3 6 4 25 5 24 6 4 7 2 8 3 9 31 10 30 11 26 12
REMARK SMILES IDX 29 13 27 14 28 15 1 16 9 18 10 21 11 22 12 23 16 24 13 25
REMARK SMILES IDX 15 26 14 27 17 28 19 29 18 30 20 31 21 32 22 33 23 34
REMARK H PARENT 29 17 9 19 9 20
ROOT
ATOM     1   C7  UNL     1      -0.450   0.586   1.066  1.00  0.00     0.120 C   
ENDROOT
BRANCH   1   2
ATOM     2   C6  UNL     1      -0.257  -0.059  -0.277  1.00  0.00     0.128 A   
ATOM     3   N1  UNL     1      -0.145  -1.337  -2.060  1.00  0.00    -0.180 N   
ATOM     4   C5  UNL     1      -0.617  -1.297  -0.763  1.00  0.00     0.135 A   
ATOM     5   N4  UNL     1       0.518  -0.171  -2.305  1.00  0.00    -0.071 NA  
ATOM     6   N3  UNL     1       0.449   0.605  -1.238  1.00  0.00    -0.131 NA  
BRANCH   3   7
ATOM     7   C4  UNL     1      -0.245  -2.343  -3.051  1.00  0.00     0.070 A   
ATOM     8   C2  UNL     1       0.273  -3.057  -5.318  1.00  0.00     0.041 A   
ATOM     9   C3  UNL     1       0.343  -2.098  -4.311  1.00  0.00     0.050 A   
ATOM     10  N6  UNL     1      -0.341  -4.245  -5.177  1.00  0.00    -0.237 NA  
ATOM     11  C23 UNL     1      -0.892  -4.445  -3.970  1.00  0.00     0.131 A   
ATOM     12  C20 UNL     1      -0.901  -3.584  -2.871  1.00  0.00     0.040 A   
ATOM     13  N5  UNL     1      -1.563  -5.591  -3.644  1.00  0.00    -0.305 N   
ATOM     14  C21 UNL     1      -1.621  -4.286  -1.854  1.00  0.00     0.029 A   
ATOM     15  C22 UNL     1      -2.016  -5.509  -2.358  1.00  0.00     0.074 A   
ATOM     16  C1  UNL     1       0.890  -2.772  -6.657  1.00  0.00     0.067 C   
ATOM     17  H27 UNL     1      -1.690  -6.363  -4.284  1.00  0.00     0.154 HD  
ENDBRANCH   3   7
ENDBRANCH   1   2
BRANCH   1  18
ATOM     18  N2  UNL     1       0.705   1.532   1.309  1.00  0.00     0.250 N   
ATOM     19  H7  UNL     1       0.885   2.011   0.413  1.00  0.00     0.199 HD  
ATOM     20  H8  UNL     1       0.482   2.274   1.978  1.00  0.00     0.199 HD  
BRANCH  18  21
ATOM     21  C8  UNL     1       1.983   0.888   1.722  1.00  0.00     0.164 C   
BRANCH  21  22
ATOM     22  C9  UNL     1       3.099   1.893   1.720  1.00  0.00    -0.002 A   
ATOM     23  C10 UNL     1       3.883   2.076   0.555  1.00  0.00     0.012 A   
ATOM     24  C14 UNL     1       3.328   2.704   2.844  1.00  0.00     0.045 A   
ATOM     25  C11 UNL     1       4.894   3.043   0.514  1.00  0.00     0.037 A   
ATOM     26  C13 UNL     1       4.327   3.654   2.768  1.00  0.00     0.109 A   
ATOM     27  C12 UNL     1       5.090   3.816   1.635  1.00  0.00     0.108 A   
ATOM     28  O1  UNL     1       4.672   4.522   3.753  1.00  0.00    -0.316 OA  
ATOM     29  O2  UNL     1       6.015   4.801   1.770  1.00  0.00    -0.316 OA  
ATOM     30  C15 UNL     1       5.745   5.252   3.115  1.00  0.00     0.337 C   
ENDBRANCH  21  22
ENDBRANCH  18  21
ENDBRANCH   1  18
BRANCH   1  31
ATOM     31  C16 UNL     1      -1.815   1.342   1.226  1.00  0.00     0.010 C   
ATOM     32  C17 UNL     1      -1.959   2.520   0.242  1.00  0.00     0.017 C   
ATOM     33  C18 UNL     1      -1.966   1.888   2.666  1.00  0.00     0.017 C   
ATOM     34  C19 UNL     1      -2.996   0.368   0.998  1.00  0.00     0.017 C   
ENDBRANCH   1  31
TORSDOF 6
