REMARK SMILES Cc1cc(Cn2cc([C@@H]([NH2+]Cc3ccc4c(c3)OCO4)C(C)(C)C)nn2)cc(Cl)n1
REMARK SMILES IDX 6 1 7 2 8 3 25 4 26 5 5 7 4 8 2 9 3 10 30 11 28 12 27 13
REMARK SMILES IDX 1 14 29 15 9 16 10 17 11 20 12 21 13 22 17 23 14 24 16 25
REMARK SMILES IDX 15 26 18 27 20 28 19 29 21 30 22 31 23 32 24 33
REMARK H PARENT 7 6 10 18 10 19
ROOT
ATOM     1   N1  UNL     1       0.471  -2.438   0.059  1.00  0.00    -0.208 N   
ATOM     2   C6  UNL     1      -0.660  -1.708  -0.190  1.00  0.00     0.046 A   
ATOM     3   C7  UNL     1      -0.357  -1.002  -1.334  1.00  0.00     0.127 A   
ATOM     4   N3  UNL     1       0.922  -1.315  -1.726  1.00  0.00    -0.132 NA  
ATOM     5   N4  UNL     1       1.417  -2.189  -0.868  1.00  0.00    -0.076 NA  
ATOM     6   H7  UNL     1      -1.531  -1.751   0.449  1.00  0.00     0.083 HD  
ENDROOT
BRANCH   1   7
ATOM     7   C5  UNL     1       0.699  -3.428   1.099  1.00  0.00     0.169 C   
BRANCH   7   8
ATOM     8   C4  UNL     1       0.816  -2.793   2.460  1.00  0.00    -0.024 A   
ATOM     9   C2  UNL     1      -0.115  -2.229   4.619  1.00  0.00     0.039 A   
ATOM     10  C3  UNL     1      -0.256  -2.828   3.368  1.00  0.00     0.029 A   
ATOM     11  N5  UNL     1       1.029  -1.619   5.006  1.00  0.00    -0.241 NA  
ATOM     12  C22 UNL     1       2.054  -1.612   4.125  1.00  0.00     0.129 A   
ATOM     13  C21 UNL     1       2.001  -2.163   2.856  1.00  0.00     0.046 A   
ATOM     14  C1  UNL     1      -1.236  -2.285   5.620  1.00  0.00     0.067 C   
ATOM     15  CL1 UNL     1       3.491  -0.869   4.700  1.00  0.00    -0.062 Cl  
ENDBRANCH   7   8
ENDBRANCH   1   7
BRANCH   3  16
ATOM     16  C8  UNL     1      -1.123   0.033  -2.106  1.00  0.00     0.120 C   
BRANCH  16  17
ATOM     17  N2  UNL     1      -0.128   1.039  -2.659  1.00  0.00     0.250 N   
ATOM     18  H9  UNL     1      -0.316   1.260  -3.639  1.00  0.00     0.199 HD  
ATOM     19  H10 UNL     1       0.786   0.554  -2.664  1.00  0.00     0.199 HD  
BRANCH  17  20
ATOM     20  C9  UNL     1       0.027   2.311  -1.897  1.00  0.00     0.164 C   
BRANCH  20  21
ATOM     21  C10 UNL     1       0.487   2.124  -0.479  1.00  0.00    -0.002 A   
ATOM     22  C11 UNL     1       1.805   1.688  -0.204  1.00  0.00     0.012 A   
ATOM     23  C15 UNL     1      -0.400   2.362   0.589  1.00  0.00     0.045 A   
ATOM     24  C12 UNL     1       2.235   1.489   1.110  1.00  0.00     0.037 A   
ATOM     25  C14 UNL     1       0.057   2.155   1.873  1.00  0.00     0.109 A   
ATOM     26  C13 UNL     1       1.337   1.734   2.125  1.00  0.00     0.108 A   
ATOM     27  O1  UNL     1      -0.669   2.330   3.014  1.00  0.00    -0.316 OA  
ATOM     28  O2  UNL     1       1.583   1.603   3.453  1.00  0.00    -0.316 OA  
ATOM     29  C16 UNL     1       0.310   1.980   4.018  1.00  0.00     0.337 C   
ENDBRANCH  20  21
ENDBRANCH  17  20
ENDBRANCH  16  17
BRANCH  16  30
ATOM     30  C17 UNL     1      -2.015  -0.548  -3.256  1.00  0.00     0.010 C   
ATOM     31  C18 UNL     1      -3.034  -1.558  -2.678  1.00  0.00     0.017 C   
ATOM     32  C19 UNL     1      -2.833   0.586  -3.916  1.00  0.00     0.017 C   
ATOM     33  C20 UNL     1      -1.189  -1.264  -4.346  1.00  0.00     0.017 C   
ENDBRANCH  16  30
ENDBRANCH   3  16
TORSDOF 7
