REMARK SMILES Cc1cccc(Cn2cc([C@H](CC(C)C)[NH2+]Cc3ccc4c(c3)OCO4)nn2)c1F
REMARK SMILES IDX 8 1 9 2 10 3 27 4 28 5 7 7 6 8 2 9 3 10 29 11 4 12 5 13 1 14
REMARK SMILES IDX 30 15 11 16 12 17 13 18 14 19 15 20 16 21 17 24 18 25 19 26
REMARK SMILES IDX 23 27 20 28 22 29 21 30 24 31 26 32 25 33
REMARK H PARENT 9 6 16 22 16 23
ROOT
ATOM     1   N1  UNL     1      -2.844   0.542   0.036  1.00  0.00    -0.208 N   
ATOM     2   C8  UNL     1      -1.850   1.437   0.327  1.00  0.00     0.046 A   
ATOM     3   C9  UNL     1      -0.791   1.020  -0.450  1.00  0.00     0.127 A   
ATOM     4   N3  UNL     1      -1.167  -0.082  -1.171  1.00  0.00    -0.132 NA  
ATOM     5   N4  UNL     1      -2.427  -0.356  -0.878  1.00  0.00    -0.076 NA  
ATOM     6   H9  UNL     1      -1.983   2.236   1.041  1.00  0.00     0.083 HD  
ENDROOT
BRANCH   1   7
ATOM     7   C7  UNL     1      -4.197   0.499   0.565  1.00  0.00     0.172 C   
BRANCH   7   8
ATOM     8   C6  UNL     1      -4.362  -0.585   1.593  1.00  0.00     0.007 A   
ATOM     9   C2  UNL     1      -3.853  -1.484   3.811  1.00  0.00    -0.015 A   
ATOM     10  C3  UNL     1      -4.661  -2.593   3.531  1.00  0.00     0.006 A   
ATOM     11  C23 UNL     1      -3.716  -0.494   2.834  1.00  0.00     0.130 A   
ATOM     12  C4  UNL     1      -5.318  -2.697   2.306  1.00  0.00     0.001 A   
ATOM     13  C5  UNL     1      -5.170  -1.703   1.341  1.00  0.00     0.008 A   
ATOM     14  C1  UNL     1      -3.144  -1.349   5.127  1.00  0.00     0.047 C   
ATOM     15  F1  UNL     1      -2.940   0.573   3.088  1.00  0.00    -0.206 F   
ENDBRANCH   7   8
ENDBRANCH   1   7
BRANCH   3  16
ATOM     16  C10 UNL     1       0.607   1.537  -0.563  1.00  0.00     0.114 C   
BRANCH  16  17
ATOM     17  C11 UNL     1       0.755   2.430  -1.814  1.00  0.00     0.064 C   
BRANCH  17  18
ATOM     18  C12 UNL     1       2.125   3.113  -2.013  1.00  0.00    -0.012 C   
ATOM     19  C13 UNL     1       2.525   3.982  -0.823  1.00  0.00     0.007 C   
ATOM     20  C14 UNL     1       2.086   3.970  -3.284  1.00  0.00     0.007 C   
ENDBRANCH  17  18
ENDBRANCH  16  17
BRANCH  16  21
ATOM     21  N2  UNL     1       1.569   0.383  -0.658  1.00  0.00     0.249 N   
ATOM     22  H20 UNL     1       2.483   0.678  -1.013  1.00  0.00     0.199 HD  
ATOM     23  H21 UNL     1       1.186  -0.273  -1.359  1.00  0.00     0.199 HD  
BRANCH  21  24
ATOM     24  C15 UNL     1       1.778  -0.372   0.612  1.00  0.00     0.164 C   
BRANCH  24  25
ATOM     25  C16 UNL     1       2.574  -1.621   0.364  1.00  0.00    -0.002 A   
ATOM     26  C17 UNL     1       1.917  -2.853   0.181  1.00  0.00     0.012 A   
ATOM     27  C21 UNL     1       3.971  -1.560   0.257  1.00  0.00     0.045 A   
ATOM     28  C18 UNL     1       2.640  -4.018  -0.089  1.00  0.00     0.037 A   
ATOM     29  C20 UNL     1       4.653  -2.723  -0.025  1.00  0.00     0.109 A   
ATOM     30  C19 UNL     1       4.006  -3.920  -0.189  1.00  0.00     0.108 A   
ATOM     31  O1  UNL     1       6.002  -2.837  -0.174  1.00  0.00    -0.316 OA  
ATOM     32  O2  UNL     1       4.862  -4.938  -0.464  1.00  0.00    -0.316 OA  
ATOM     33  C22 UNL     1       6.128  -4.243  -0.478  1.00  0.00     0.337 C   
ENDBRANCH  24  25
ENDBRANCH  21  24
ENDBRANCH  16  21
ENDBRANCH   3  16
TORSDOF 8
