REMARK SMILES CC(C)[C@H]([NH2+]Cc1ccc2c(c1)OCO2)c1cn([C@H](C)Cc2ccccc2)nn1
REMARK SMILES IDX 16 1 17 2 18 3 28 4 29 5 4 7 2 8 1 9 3 10 5 11 6 14 7 15
REMARK SMILES IDX 8 16 12 17 9 18 11 19 10 20 13 21 15 22 14 23 19 24 20 25
REMARK SMILES IDX 21 26 22 27 23 28 27 29 24 30 26 31 25 32
REMARK H PARENT 17 6 5 12 5 13
ROOT
ATOM     1   C13 UNL     1       1.954   0.235   0.270  1.00  0.00     0.127 A   
ATOM     2   C14 UNL     1       1.367   0.357   1.508  1.00  0.00     0.046 A   
ATOM     3   N2  UNL     1       1.589   1.661   1.857  1.00  0.00    -0.209 N   
ATOM     4   N3  UNL     1       2.265   2.304   0.883  1.00  0.00    -0.076 NA  
ATOM     5   N4  UNL     1       2.495   1.441  -0.092  1.00  0.00    -0.132 NA  
ATOM     6   H18 UNL     1       0.811  -0.329   2.131  1.00  0.00     0.083 HD  
ENDROOT
BRANCH   1   7
ATOM     7   C4  UNL     1       2.001  -0.915  -0.682  1.00  0.00     0.117 C   
BRANCH   7   8
ATOM     8   C2  UNL     1       3.266  -1.793  -0.485  1.00  0.00     0.037 C   
ATOM     9   C1  UNL     1       4.577  -1.110  -0.890  1.00  0.00     0.014 C   
ATOM     10  C3  UNL     1       3.138  -3.135  -1.217  1.00  0.00     0.014 C   
ENDBRANCH   7   8
BRANCH   7  11
ATOM     11  N1  UNL     1       1.924  -0.416  -2.104  1.00  0.00     0.249 N   
ATOM     12  H9  UNL     1       2.209  -1.142  -2.765  1.00  0.00     0.199 HD  
ATOM     13  H10 UNL     1       2.608   0.350  -2.173  1.00  0.00     0.199 HD  
BRANCH  11  14
ATOM     14  C5  UNL     1       0.604   0.138  -2.529  1.00  0.00     0.164 C   
BRANCH  14  15
ATOM     15  C6  UNL     1      -0.434  -0.930  -2.734  1.00  0.00    -0.002 A   
ATOM     16  C7  UNL     1      -0.436  -1.709  -3.916  1.00  0.00     0.012 A   
ATOM     17  C11 UNL     1      -1.394  -1.183  -1.739  1.00  0.00     0.045 A   
ATOM     18  C8  UNL     1      -1.381  -2.723  -4.106  1.00  0.00     0.037 A   
ATOM     19  C10 UNL     1      -2.311  -2.190  -1.957  1.00  0.00     0.109 A   
ATOM     20  C9  UNL     1      -2.305  -2.938  -3.108  1.00  0.00     0.108 A   
ATOM     21  O1  UNL     1      -3.297  -2.561  -1.100  1.00  0.00    -0.316 OA  
ATOM     22  O2  UNL     1      -3.289  -3.874  -3.122  1.00  0.00    -0.316 OA  
ATOM     23  C12 UNL     1      -3.934  -3.616  -1.857  1.00  0.00     0.337 C   
ENDBRANCH  14  15
ENDBRANCH  11  14
ENDBRANCH   7  11
ENDBRANCH   1   7
BRANCH   3  24
ATOM     24  C15 UNL     1       1.152   2.390   3.040  1.00  0.00     0.101 C   
ATOM     25  C16 UNL     1       1.030   1.506   4.285  1.00  0.00     0.031 C   
BRANCH  24  26
ATOM     26  C17 UNL     1      -0.111   3.235   2.773  1.00  0.00     0.060 C   
BRANCH  26  27
ATOM     27  C18 UNL     1      -1.273   2.504   2.137  1.00  0.00    -0.046 A   
ATOM     28  C19 UNL     1      -1.511   2.629   0.759  1.00  0.00     0.004 A   
ATOM     29  C23 UNL     1      -2.132   1.706   2.902  1.00  0.00     0.004 A   
ATOM     30  C20 UNL     1      -2.583   1.967   0.160  1.00  0.00     0.000 A   
ATOM     31  C22 UNL     1      -3.195   1.032   2.298  1.00  0.00     0.000 A   
ATOM     32  C21 UNL     1      -3.420   1.162   0.929  1.00  0.00     0.000 A   
ENDBRANCH  26  27
ENDBRANCH  24  26
ENDBRANCH   3  24
TORSDOF 8
