REMARK SMILES CC(C)[C@H]([NH2+]Cc1ccc2c(c1)OCO2)c1cn([C@@H](C)Cc2ccccc2)nn1
REMARK SMILES IDX 16 1 17 2 18 3 28 4 29 5 4 7 2 8 1 9 3 10 5 11 6 14 7 15
REMARK SMILES IDX 8 16 12 17 9 18 11 19 10 20 13 21 15 22 14 23 19 24 20 25
REMARK SMILES IDX 21 26 22 27 23 28 27 29 24 30 26 31 25 32
REMARK H PARENT 17 6 5 12 5 13
ROOT
ATOM     1   C13 UNL     1       0.792  -0.194   1.891  1.00  0.00     0.127 A   
ATOM     2   C14 UNL     1       0.572  -1.553   1.863  1.00  0.00     0.046 A   
ATOM     3   N2  UNL     1      -0.149  -1.793   3.000  1.00  0.00    -0.209 N   
ATOM     4   N3  UNL     1      -0.355  -0.653   3.687  1.00  0.00    -0.076 NA  
ATOM     5   N4  UNL     1       0.217   0.334   3.017  1.00  0.00    -0.132 NA  
ATOM     6   H18 UNL     1       0.825  -2.334   1.159  1.00  0.00     0.083 HD  
ENDROOT
BRANCH   1   7
ATOM     7   C4  UNL     1       1.434   0.717   0.896  1.00  0.00     0.117 C   
BRANCH   7   8
ATOM     8   C2  UNL     1       2.818   1.238   1.374  1.00  0.00     0.037 C   
ATOM     9   C1  UNL     1       3.478   2.177   0.353  1.00  0.00     0.014 C   
ATOM     10  C3  UNL     1       3.788   0.078   1.653  1.00  0.00     0.014 C   
ENDBRANCH   7   8
BRANCH   7  11
ATOM     11  N1  UNL     1       0.513   1.900   0.660  1.00  0.00     0.249 N   
ATOM     12  H9  UNL     1       0.979   2.619   0.104  1.00  0.00     0.199 HD  
ATOM     13  H10 UNL     1       0.320   2.303   1.587  1.00  0.00     0.199 HD  
BRANCH  11  14
ATOM     14  C5  UNL     1      -0.804   1.592   0.021  1.00  0.00     0.164 C   
BRANCH  14  15
ATOM     15  C6  UNL     1      -0.663   1.098  -1.391  1.00  0.00    -0.002 A   
ATOM     16  C7  UNL     1      -0.928  -0.257  -1.702  1.00  0.00     0.012 A   
ATOM     17  C11 UNL     1      -0.235   1.968  -2.409  1.00  0.00     0.045 A   
ATOM     18  C8  UNL     1      -0.769  -0.743  -3.004  1.00  0.00     0.037 A   
ATOM     19  C10 UNL     1      -0.081   1.456  -3.680  1.00  0.00     0.109 A   
ATOM     20  C9  UNL     1      -0.341   0.140  -3.970  1.00  0.00     0.108 A   
ATOM     21  O1  UNL     1       0.336   2.156  -4.768  1.00  0.00    -0.316 OA  
ATOM     22  O2  UNL     1      -0.127  -0.154  -5.278  1.00  0.00    -0.316 OA  
ATOM     23  C12 UNL     1       0.275   1.135  -5.790  1.00  0.00     0.337 C   
ENDBRANCH  14  15
ENDBRANCH  11  14
ENDBRANCH   7  11
ENDBRANCH   1   7
BRANCH   3  24
ATOM     24  C15 UNL     1      -0.724  -3.057   3.441  1.00  0.00     0.101 C   
ATOM     25  C16 UNL     1      -0.177  -3.460   4.812  1.00  0.00     0.031 C   
BRANCH  24  26
ATOM     26  C17 UNL     1      -2.263  -3.017   3.454  1.00  0.00     0.060 C   
BRANCH  26  27
ATOM     27  C18 UNL     1      -2.875  -2.688   2.109  1.00  0.00    -0.046 A   
ATOM     28  C19 UNL     1      -3.507  -1.452   1.906  1.00  0.00     0.004 A   
ATOM     29  C23 UNL     1      -2.832  -3.610   1.055  1.00  0.00     0.004 A   
ATOM     30  C20 UNL     1      -4.093  -1.149   0.676  1.00  0.00     0.000 A   
ATOM     31  C22 UNL     1      -3.414  -3.303  -0.176  1.00  0.00     0.000 A   
ATOM     32  C21 UNL     1      -4.047  -2.075  -0.365  1.00  0.00     0.000 A   
ENDBRANCH  26  27
ENDBRANCH  24  26
ENDBRANCH   3  24
TORSDOF 8
