REMARK SMILES CCc1[nH]ncc1Cn1cc([C@@H]([NH2+]Cc2ccc3c(c2)OCO3)C(C)(C)C)nn1
REMARK SMILES IDX 9 1 10 2 11 3 28 4 29 5 8 7 7 8 3 9 4 10 5 11 6 12 2 14 1 15
REMARK SMILES IDX 12 16 13 17 14 20 15 21 16 22 20 23 17 24 19 25 18 26 21 27
REMARK SMILES IDX 23 28 22 29 24 30 25 31 26 32 27 33
REMARK H PARENT 10 6 4 13 13 18 13 19
ROOT
ATOM     1   N3  UNL     1      -2.364   0.573   0.821  1.00  0.00    -0.208 N   
ATOM     2   C7  UNL     1      -1.051   0.441   1.186  1.00  0.00     0.046 A   
ATOM     3   C8  UNL     1      -0.440   1.544   0.632  1.00  0.00     0.127 A   
ATOM     4   N5  UNL     1      -1.380   2.294  -0.030  1.00  0.00    -0.132 NA  
ATOM     5   N6  UNL     1      -2.552   1.700   0.105  1.00  0.00    -0.076 NA  
ATOM     6   H10 UNL     1      -0.688  -0.412   1.742  1.00  0.00     0.083 HD  
ENDROOT
BRANCH   1   7
ATOM     7   C6  UNL     1      -3.467  -0.341   1.070  1.00  0.00     0.172 C   
BRANCH   7   8
ATOM     8   C5  UNL     1      -3.556  -1.346  -0.024  1.00  0.00     0.010 A   
ATOM     9   C3  UNL     1      -3.324  -2.712   0.012  1.00  0.00     0.031 A   
ATOM     10  N1  UNL     1      -3.532  -3.161  -1.268  1.00  0.00    -0.242 N   
ATOM     11  N2  UNL     1      -3.877  -2.189  -2.125  1.00  0.00    -0.192 NA  
ATOM     12  C4  UNL     1      -3.919  -1.094  -1.369  1.00  0.00     0.138 A   
ATOM     13  H6  UNL     1      -3.453  -4.109  -1.623  1.00  0.00     0.175 HD  
BRANCH   9  14
ATOM     14  C2  UNL     1      -2.944  -3.641   1.113  1.00  0.00     0.050 C   
ATOM     15  C1  UNL     1      -1.445  -3.891   1.146  1.00  0.00     0.010 C   
ENDBRANCH   9  14
ENDBRANCH   7   8
ENDBRANCH   1   7
BRANCH   3  16
ATOM     16  C9  UNL     1       1.000   1.949   0.542  1.00  0.00     0.120 C   
BRANCH  16  17
ATOM     17  N4  UNL     1       1.240   2.462  -0.868  1.00  0.00     0.250 N   
ATOM     18  H12 UNL     1       0.302   2.596  -1.282  1.00  0.00     0.199 HD  
ATOM     19  H13 UNL     1       1.648   3.400  -0.861  1.00  0.00     0.199 HD  
BRANCH  17  20
ATOM     20  C10 UNL     1       2.032   1.587  -1.775  1.00  0.00     0.164 C   
BRANCH  20  21
ATOM     21  C11 UNL     1       1.490   0.193  -1.933  1.00  0.00    -0.002 A   
ATOM     22  C12 UNL     1       0.219  -0.034  -2.514  1.00  0.00     0.012 A   
ATOM     23  C16 UNL     1       2.253  -0.906  -1.499  1.00  0.00     0.045 A   
ATOM     24  C13 UNL     1      -0.289  -1.332  -2.651  1.00  0.00     0.037 A   
ATOM     25  C15 UNL     1       1.724  -2.171  -1.654  1.00  0.00     0.109 A   
ATOM     26  C14 UNL     1       0.488  -2.380  -2.212  1.00  0.00     0.108 A   
ATOM     27  O1  UNL     1       2.334  -3.330  -1.291  1.00  0.00    -0.316 OA  
ATOM     28  O2  UNL     1       0.162  -3.698  -2.268  1.00  0.00    -0.316 OA  
ATOM     29  C17 UNL     1       1.368  -4.301  -1.752  1.00  0.00     0.337 C   
ENDBRANCH  20  21
ENDBRANCH  17  20
ENDBRANCH  16  17
BRANCH  16  30
ATOM     30  C18 UNL     1       1.446   3.007   1.607  1.00  0.00     0.010 C   
ATOM     31  C19 UNL     1       2.958   3.300   1.461  1.00  0.00     0.017 C   
ATOM     32  C20 UNL     1       0.677   4.339   1.498  1.00  0.00     0.017 C   
ATOM     33  C21 UNL     1       1.229   2.442   3.029  1.00  0.00     0.017 C   
ENDBRANCH  16  30
ENDBRANCH   3  16
TORSDOF 8
