REMARK SMILES CC(C)[C@H]([NH2+]Cc1ccc2c(c1)OCO2)c1cn(Cc2ccc3c(c2)ncn3C)nn1
REMARK SMILES IDX 16 1 17 2 18 3 30 4 31 5 4 7 2 8 1 9 3 10 5 11 6 14 7 15
REMARK SMILES IDX 8 16 12 17 9 18 11 19 10 20 13 21 15 22 14 23 19 24 20 25
REMARK SMILES IDX 21 26 25 27 22 28 24 29 23 30 26 31 28 32 27 33 29 34
REMARK H PARENT 17 6 5 12 5 13
ROOT
ATOM     1   C13 UNL     1      -1.438   1.130   0.957  1.00  0.00     0.127 A   
ATOM     2   C14 UNL     1      -0.325   1.933   0.846  1.00  0.00     0.046 A   
ATOM     3   N2  UNL     1       0.222   1.911   2.102  1.00  0.00    -0.208 N   
ATOM     4   N5  UNL     1      -0.562   1.220   2.952  1.00  0.00    -0.076 NA  
ATOM     5   N6  UNL     1      -1.575   0.727   2.260  1.00  0.00    -0.132 NA  
ATOM     6   H18 UNL     1       0.170   2.405   0.008  1.00  0.00     0.083 HD  
ENDROOT
BRANCH   1   7
ATOM     7   C4  UNL     1      -2.332   0.560  -0.092  1.00  0.00     0.117 C   
BRANCH   7   8
ATOM     8   C2  UNL     1      -3.733   1.220  -0.172  1.00  0.00     0.037 C   
ATOM     9   C1  UNL     1      -3.630   2.698  -0.568  1.00  0.00     0.014 C   
ATOM     10  C3  UNL     1      -4.581   1.084   1.097  1.00  0.00     0.014 C   
ENDBRANCH   7   8
BRANCH   7  11
ATOM     11  N1  UNL     1      -2.505  -0.928   0.137  1.00  0.00     0.249 N   
ATOM     12  H9  UNL     1      -3.258  -1.291  -0.453  1.00  0.00     0.199 HD  
ATOM     13  H10 UNL     1      -2.799  -1.038   1.117  1.00  0.00     0.199 HD  
BRANCH  11  14
ATOM     14  C5  UNL     1      -1.282  -1.775  -0.040  1.00  0.00     0.164 C   
BRANCH  14  15
ATOM     15  C6  UNL     1      -0.753  -1.770  -1.448  1.00  0.00    -0.002 A   
ATOM     16  C7  UNL     1      -1.494  -2.361  -2.499  1.00  0.00     0.012 A   
ATOM     17  C11 UNL     1       0.484  -1.163  -1.730  1.00  0.00     0.045 A   
ATOM     18  C8  UNL     1      -1.017  -2.338  -3.814  1.00  0.00     0.037 A   
ATOM     19  C10 UNL     1       0.927  -1.159  -3.036  1.00  0.00     0.109 A   
ATOM     20  C9  UNL     1       0.196  -1.729  -4.050  1.00  0.00     0.108 A   
ATOM     21  O1  UNL     1       2.092  -0.617  -3.479  1.00  0.00    -0.316 OA  
ATOM     22  O2  UNL     1       0.808  -1.617  -5.257  1.00  0.00    -0.316 OA  
ATOM     23  C12 UNL     1       2.031  -0.948  -4.884  1.00  0.00     0.337 C   
ENDBRANCH  14  15
ENDBRANCH  11  14
ENDBRANCH   7  11
ENDBRANCH   1   7
BRANCH   3  24
ATOM     24  C15 UNL     1       1.575   2.296   2.486  1.00  0.00     0.169 C   
BRANCH  24  25
ATOM     25  C16 UNL     1       2.582   1.464   1.721  1.00  0.00    -0.026 A   
ATOM     26  C17 UNL     1       3.523   2.074   0.877  1.00  0.00     0.007 A   
ATOM     27  C21 UNL     1       2.540   0.057   1.814  1.00  0.00     0.035 A   
ATOM     28  C18 UNL     1       4.405   1.319   0.092  1.00  0.00     0.026 A   
ATOM     29  C20 UNL     1       3.385  -0.712   1.003  1.00  0.00     0.086 A   
ATOM     30  C19 UNL     1       4.298  -0.074   0.169  1.00  0.00     0.059 A   
ATOM     31  N3  UNL     1       3.443  -2.074   0.860  1.00  0.00    -0.239 NA  
ATOM     32  N4  UNL     1       4.954  -1.109  -0.449  1.00  0.00    -0.293 N   
ATOM     33  C22 UNL     1       4.406  -2.283  -0.011  1.00  0.00     0.189 A   
ATOM     34  C23 UNL     1       6.029  -0.998  -1.403  1.00  0.00     0.137 C   
ENDBRANCH  24  25
ENDBRANCH   3  24
TORSDOF 7
