REMARK SMILES Cc1cccc([C@H](CO)n2cc([C@@H]([NH2+]Cc3ccc4c(c3)OCO4)C3CCCC3)nn2)c1
REMARK SMILES IDX 10 1 11 2 12 3 30 4 31 5 7 7 6 8 2 9 3 10 32 11 4 12 5 13
REMARK SMILES IDX 1 14 8 15 9 16 13 18 14 19 15 22 16 23 17 24 21 25 18 26
REMARK SMILES IDX 20 27 19 28 22 29 24 30 23 31 25 32 26 33 29 34 27 35 28 36
REMARK H PARENT 11 6 9 17 14 20 14 21
ROOT
ATOM     1   N1  UNL     1       2.336   0.126   0.906  1.00  0.00    -0.202 N   
ATOM     2   C9  UNL     1       1.051  -0.343   0.851  1.00  0.00     0.046 A   
ATOM     3   C10 UNL     1       0.580   0.099  -0.362  1.00  0.00     0.127 A   
ATOM     4   N3  UNL     1       1.560   0.826  -0.988  1.00  0.00    -0.132 NA  
ATOM     5   N4  UNL     1       2.624   0.846  -0.202  1.00  0.00    -0.075 NA  
ATOM     6   H11 UNL     1       0.611  -0.922   1.651  1.00  0.00     0.083 HD  
ENDROOT
BRANCH   1   7
ATOM     7   C7  UNL     1       3.341  -0.049   1.955  1.00  0.00     0.155 C   
BRANCH   7   8
ATOM     8   C6  UNL     1       3.437  -1.511   2.383  1.00  0.00    -0.023 A   
ATOM     9   C2  UNL     1       2.797  -3.393   3.811  1.00  0.00    -0.051 A   
ATOM     10  C3  UNL     1       3.649  -4.229   3.084  1.00  0.00     0.003 A   
ATOM     11  C25 UNL     1       2.707  -2.038   3.462  1.00  0.00     0.009 A   
ATOM     12  C4  UNL     1       4.377  -3.727   2.008  1.00  0.00     0.001 A   
ATOM     13  C5  UNL     1       4.269  -2.381   1.656  1.00  0.00     0.006 A   
ATOM     14  C1  UNL     1       2.033  -3.926   4.988  1.00  0.00     0.044 C   
ENDBRANCH   7   8
BRANCH   7  15
ATOM     15  C8  UNL     1       3.169   0.986   3.088  1.00  0.00     0.185 C   
BRANCH  15  16
ATOM     16  O1  UNL     1       1.858   0.989   3.658  1.00  0.00    -0.394 OA  
ATOM     17  H10 UNL     1       1.949   1.315   4.575  1.00  0.00     0.210 HD  
ENDBRANCH  15  16
ENDBRANCH   7  15
ENDBRANCH   1   7
BRANCH   3  18
ATOM     18  C11 UNL     1      -0.752  -0.072  -1.015  1.00  0.00     0.117 C   
BRANCH  18  19
ATOM     19  N2  UNL     1      -1.013   1.079  -1.954  1.00  0.00     0.249 N   
ATOM     20  H13 UNL     1      -0.118   1.259  -2.433  1.00  0.00     0.199 HD  
ATOM     21  H14 UNL     1      -1.691   0.823  -2.676  1.00  0.00     0.199 HD  
BRANCH  19  22
ATOM     22  C12 UNL     1      -1.437   2.357  -1.311  1.00  0.00     0.164 C   
BRANCH  22  23
ATOM     23  C13 UNL     1      -2.859   2.308  -0.822  1.00  0.00    -0.002 A   
ATOM     24  C14 UNL     1      -3.136   2.269   0.566  1.00  0.00     0.012 A   
ATOM     25  C18 UNL     1      -3.922   2.268  -1.742  1.00  0.00     0.045 A   
ATOM     26  C15 UNL     1      -4.453   2.179   1.034  1.00  0.00     0.037 A   
ATOM     27  C17 UNL     1      -5.207   2.173  -1.246  1.00  0.00     0.109 A   
ATOM     28  C16 UNL     1      -5.464   2.127   0.101  1.00  0.00     0.108 A   
ATOM     29  O2  UNL     1      -6.341   2.104  -1.993  1.00  0.00    -0.316 OA  
ATOM     30  O3  UNL     1      -6.791   2.027   0.373  1.00  0.00    -0.316 OA  
ATOM     31  C19 UNL     1      -7.346   1.998  -0.960  1.00  0.00     0.337 C   
ENDBRANCH  22  23
ENDBRANCH  19  22
ENDBRANCH  18  19
BRANCH  18  32
ATOM     32  C20 UNL     1      -0.849  -1.419  -1.757  1.00  0.00     0.043 C   
ATOM     33  C21 UNL     1      -0.046  -1.547  -3.054  1.00  0.00     0.010 C   
ATOM     34  C24 UNL     1      -2.261  -1.794  -2.214  1.00  0.00     0.010 C   
ATOM     35  C22 UNL     1      -0.599  -2.819  -3.689  1.00  0.00     0.001 C   
ATOM     36  C23 UNL     1      -2.048  -2.930  -3.214  1.00  0.00     0.001 C   
ENDBRANCH  18  32
ENDBRANCH   3  18
TORSDOF 9
