REMARK SMILES Cc1cccc([C@@H](CO)n2cc([C@@H]([NH2+]Cc3ccc4c(c3)OCO4)C3CCCC3)nn2)c1
REMARK SMILES IDX 10 1 11 2 12 3 30 4 31 5 7 7 6 8 2 9 3 10 32 11 4 12 5 13
REMARK SMILES IDX 1 14 8 15 9 16 13 18 14 19 15 22 16 23 17 24 21 25 18 26
REMARK SMILES IDX 20 27 19 28 22 29 24 30 23 31 25 32 26 33 29 34 27 35 28 36
REMARK H PARENT 11 6 9 17 14 20 14 21
ROOT
ATOM     1   N1  UNL     1      -1.319  -1.058  -0.780  1.00  0.00    -0.202 N   
ATOM     2   C9  UNL     1      -0.884   0.039  -0.087  1.00  0.00     0.046 A   
ATOM     3   C10 UNL     1      -0.308   0.841  -1.043  1.00  0.00     0.127 A   
ATOM     4   N3  UNL     1      -0.380   0.215  -2.260  1.00  0.00    -0.132 NA  
ATOM     5   N4  UNL     1      -1.000  -0.941  -2.090  1.00  0.00    -0.075 NA  
ATOM     6   H11 UNL     1      -1.020   0.142   0.983  1.00  0.00     0.083 HD  
ENDROOT
BRANCH   1   7
ATOM     7   C7  UNL     1      -1.953  -2.279  -0.288  1.00  0.00     0.155 C   
BRANCH   7   8
ATOM     8   C6  UNL     1      -0.905  -3.199   0.327  1.00  0.00    -0.023 A   
ATOM     9   C2  UNL     1       0.600  -5.117   0.055  1.00  0.00    -0.051 A   
ATOM     10  C3  UNL     1       1.082  -4.910   1.350  1.00  0.00     0.003 A   
ATOM     11  C25 UNL     1      -0.377  -4.249  -0.452  1.00  0.00     0.009 A   
ATOM     12  C4  UNL     1       0.580  -3.868   2.132  1.00  0.00     0.001 A   
ATOM     13  C5  UNL     1      -0.409  -3.022   1.627  1.00  0.00     0.006 A   
ATOM     14  C1  UNL     1       1.139  -6.228  -0.802  1.00  0.00     0.044 C   
ENDBRANCH   7   8
BRANCH   7  15
ATOM     15  C8  UNL     1      -3.218  -2.024   0.558  1.00  0.00     0.185 C   
BRANCH  15  16
ATOM     16  O1  UNL     1      -2.976  -1.258   1.740  1.00  0.00    -0.394 OA  
ATOM     17  H10 UNL     1      -3.806  -1.264   2.254  1.00  0.00     0.210 HD  
ENDBRANCH  15  16
ENDBRANCH   7  15
ENDBRANCH   1   7
BRANCH   3  18
ATOM     18  C11 UNL     1       0.401   2.147  -0.924  1.00  0.00     0.117 C   
BRANCH  18  19
ATOM     19  N2  UNL     1       1.725   2.084  -1.657  1.00  0.00     0.249 N   
ATOM     20  H13 UNL     1       1.507   1.825  -2.630  1.00  0.00     0.199 HD  
ATOM     21  H14 UNL     1       2.166   3.007  -1.672  1.00  0.00     0.199 HD  
BRANCH  19  22
ATOM     22  C12 UNL     1       2.721   1.089  -1.149  1.00  0.00     0.164 C   
BRANCH  22  23
ATOM     23  C13 UNL     1       3.178   1.380   0.253  1.00  0.00    -0.002 A   
ATOM     24  C14 UNL     1       4.071   2.447   0.513  1.00  0.00     0.012 A   
ATOM     25  C18 UNL     1       2.686   0.613   1.325  1.00  0.00     0.045 A   
ATOM     26  C15 UNL     1       4.451   2.764   1.824  1.00  0.00     0.037 A   
ATOM     27  C17 UNL     1       3.076   0.954   2.603  1.00  0.00     0.109 A   
ATOM     28  C16 UNL     1       3.935   1.997   2.846  1.00  0.00     0.108 A   
ATOM     29  O2  UNL     1       2.670   0.337   3.743  1.00  0.00    -0.316 OA  
ATOM     30  O3  UNL     1       4.178   2.171   4.173  1.00  0.00    -0.316 OA  
ATOM     31  C19 UNL     1       3.368   1.119   4.741  1.00  0.00     0.337 C   
ENDBRANCH  22  23
ENDBRANCH  19  22
ENDBRANCH  18  19
BRANCH  18  32
ATOM     32  C20 UNL     1      -0.433   3.297  -1.523  1.00  0.00     0.043 C   
ATOM     33  C21 UNL     1       0.218   4.681  -1.435  1.00  0.00     0.010 C   
ATOM     34  C24 UNL     1      -1.757   3.535  -0.787  1.00  0.00     0.010 C   
ATOM     35  C22 UNL     1      -0.935   5.675  -1.587  1.00  0.00     0.001 C   
ATOM     36  C23 UNL     1      -2.216   4.884  -1.321  1.00  0.00     0.001 C   
ENDBRANCH  18  32
ENDBRANCH   3  18
TORSDOF 9
