REMARK SMILES Oc1ccc(CCn2cc([C@@H]([NH2+]Cc3ccc4c(c3)OCO4)C3CCCC3)nn2)cc1
REMARK SMILES IDX 8 1 9 2 10 3 28 4 29 5 7 7 6 8 5 9 2 10 3 11 31 12 4 13
REMARK SMILES IDX 30 14 1 15 11 17 12 18 13 21 14 22 15 23 19 24 16 25 18 26
REMARK SMILES IDX 17 27 20 28 22 29 21 30 23 31 24 32 27 33 25 34 26 35
REMARK H PARENT 9 6 1 16 12 19 12 20
ROOT
ATOM     1   N1  UNL     1       0.206   3.255  -0.744  1.00  0.00    -0.212 N   
ATOM     2   C7  UNL     1       0.717   2.285   0.075  1.00  0.00     0.045 A   
ATOM     3   C8  UNL     1       1.561   1.572  -0.745  1.00  0.00     0.127 A   
ATOM     4   N3  UNL     1       1.567   2.143  -1.993  1.00  0.00    -0.132 NA  
ATOM     5   N4  UNL     1       0.732   3.171  -1.979  1.00  0.00    -0.076 NA  
ATOM     6   H8  UNL     1       0.405   2.170   1.105  1.00  0.00     0.083 HD  
ENDROOT
BRANCH   1   7
ATOM     7   C6  UNL     1      -0.826   4.224  -0.442  1.00  0.00     0.139 C   
BRANCH   7   8
ATOM     8   C5  UNL     1      -2.202   3.814  -0.982  1.00  0.00     0.057 C   
BRANCH   8   9
ATOM     9   C4  UNL     1      -2.671   2.480  -0.447  1.00  0.00    -0.046 A   
ATOM     10  C1  UNL     1      -3.434  -0.013   0.542  1.00  0.00     0.071 A   
ATOM     11  C2  UNL     1      -3.392   1.081   1.401  1.00  0.00     0.033 A   
ATOM     12  C24 UNL     1      -3.122   0.121  -0.803  1.00  0.00     0.033 A   
ATOM     13  C3  UNL     1      -3.014   2.330   0.904  1.00  0.00     0.006 A   
ATOM     14  C23 UNL     1      -2.738   1.367  -1.298  1.00  0.00     0.006 A   
BRANCH  10  15
ATOM     15  O1  UNL     1      -3.775  -1.254   0.988  1.00  0.00    -0.361 OA  
ATOM     16  H1  UNL     1      -4.107  -1.177   1.901  1.00  0.00     0.218 HD  
ENDBRANCH  10  15
ENDBRANCH   8   9
ENDBRANCH   7   8
ENDBRANCH   1   7
BRANCH   3  17
ATOM     17  C9  UNL     1       2.343   0.322  -0.502  1.00  0.00     0.117 C   
BRANCH  17  18
ATOM     18  N2  UNL     1       2.404  -0.480  -1.776  1.00  0.00     0.249 N   
ATOM     19  H10 UNL     1       3.194  -1.130  -1.775  1.00  0.00     0.199 HD  
ATOM     20  H11 UNL     1       2.575   0.202  -2.530  1.00  0.00     0.199 HD  
BRANCH  18  21
ATOM     21  C10 UNL     1       1.156  -1.220  -2.127  1.00  0.00     0.164 C   
BRANCH  21  22
ATOM     22  C11 UNL     1       0.958  -2.451  -1.287  1.00  0.00    -0.002 A   
ATOM     23  C12 UNL     1      -0.072  -2.497  -0.316  1.00  0.00     0.012 A   
ATOM     24  C16 UNL     1       1.802  -3.564  -1.452  1.00  0.00     0.045 A   
ATOM     25  C13 UNL     1      -0.263  -3.632   0.479  1.00  0.00     0.037 A   
ATOM     26  C15 UNL     1       1.588  -4.664  -0.646  1.00  0.00     0.109 A   
ATOM     27  C14 UNL     1       0.585  -4.699   0.291  1.00  0.00     0.108 A   
ATOM     28  O2  UNL     1       2.310  -5.813  -0.678  1.00  0.00    -0.316 OA  
ATOM     29  O3  UNL     1       0.544  -5.880   0.961  1.00  0.00    -0.316 OA  
ATOM     30  C17 UNL     1       1.626  -6.595   0.328  1.00  0.00     0.337 C   
ENDBRANCH  21  22
ENDBRANCH  18  21
ENDBRANCH  17  18
BRANCH  17  31
ATOM     31  C18 UNL     1       3.753   0.623   0.032  1.00  0.00     0.043 C   
ATOM     32  C19 UNL     1       4.746   1.238  -0.956  1.00  0.00     0.010 C   
ATOM     33  C22 UNL     1       4.522  -0.603   0.536  1.00  0.00     0.010 C   
ATOM     34  C20 UNL     1       6.081   1.118  -0.232  1.00  0.00     0.001 C   
ATOM     35  C21 UNL     1       5.965  -0.115   0.664  1.00  0.00     0.001 C   
ENDBRANCH  17  31
ENDBRANCH   3  17
TORSDOF 9
