REMARK SMILES Nc1cc(-n2cc([C@@H]([NH2+]Cc3ccc4c(c3)OCO4)C3CCCC3)nn2)ccn1
REMARK SMILES IDX 5 1 6 2 7 3 25 4 26 5 4 6 2 7 3 8 29 9 28 10 27 11 1 12 8 15
REMARK SMILES IDX 9 16 10 19 11 20 12 21 16 22 13 23 15 24 14 25 17 26 19 27
REMARK SMILES IDX 18 28 20 29 21 30 24 31 22 32 23 33
REMARK H PARENT 1 13 1 14 9 17 9 18
ROOT
ATOM     1   N2  UNL     1       1.310   0.827   1.899  1.00  0.00    -0.180 N   
ATOM     2   C4  UNL     1       0.476   0.024   1.144  1.00  0.00     0.135 A   
ATOM     3   C5  UNL     1       1.292  -0.523   0.179  1.00  0.00     0.127 A   
ATOM     4   N4  UNL     1       2.579  -0.117   0.395  1.00  0.00    -0.131 NA  
ATOM     5   N5  UNL     1       2.583   0.684   1.447  1.00  0.00    -0.071 NA  
ENDROOT
BRANCH   1   6
ATOM     6   C3  UNL     1       0.983   1.733   2.933  1.00  0.00     0.062 A   
ATOM     7   C1  UNL     1      -0.607   2.861   4.319  1.00  0.00     0.117 A   
ATOM     8   C2  UNL     1      -0.341   1.915   3.340  1.00  0.00     0.070 A   
ATOM     9   N6  UNL     1       0.347   3.610   4.888  1.00  0.00    -0.242 NA  
ATOM     10  C21 UNL     1       1.623   3.408   4.497  1.00  0.00     0.115 A   
ATOM     11  C20 UNL     1       1.992   2.490   3.532  1.00  0.00     0.046 A   
BRANCH   7  12
ATOM     12  N1  UNL     1      -1.913   3.104   4.731  1.00  0.00    -0.343 N   
ATOM     13  H1  UNL     1      -1.864   3.816   5.458  1.00  0.00     0.144 HD  
ATOM     14  H2  UNL     1      -2.366   2.266   5.079  1.00  0.00     0.144 HD  
ENDBRANCH   7  12
ENDBRANCH   1   6
BRANCH   3  15
ATOM     15  C6  UNL     1       0.982  -1.317  -1.050  1.00  0.00     0.117 C   
BRANCH  15  16
ATOM     16  N3  UNL     1       1.663  -0.644  -2.230  1.00  0.00     0.249 N   
ATOM     17  H6  UNL     1       2.476  -0.141  -1.839  1.00  0.00     0.199 HD  
ATOM     18  H7  UNL     1       2.065  -1.337  -2.869  1.00  0.00     0.199 HD  
BRANCH  16  19
ATOM     19  C7  UNL     1       0.842   0.323  -3.019  1.00  0.00     0.164 C   
BRANCH  19  20
ATOM     20  C8  UNL     1       0.221   1.423  -2.203  1.00  0.00    -0.002 A   
ATOM     21  C9  UNL     1      -1.184   1.467  -2.026  1.00  0.00     0.012 A   
ATOM     22  C13 UNL     1       1.025   2.389  -1.571  1.00  0.00     0.045 A   
ATOM     23  C10 UNL     1      -1.777   2.437  -1.210  1.00  0.00     0.037 A   
ATOM     24  C12 UNL     1       0.408   3.322  -0.762  1.00  0.00     0.109 A   
ATOM     25  C11 UNL     1      -0.953   3.344  -0.585  1.00  0.00     0.108 A   
ATOM     26  O1  UNL     1       1.039   4.285  -0.041  1.00  0.00    -0.316 OA  
ATOM     27  O2  UNL     1      -1.351   4.327   0.262  1.00  0.00    -0.316 OA  
ATOM     28  C14 UNL     1      -0.086   4.940   0.593  1.00  0.00     0.337 C   
ENDBRANCH  19  20
ENDBRANCH  16  19
ENDBRANCH  15  16
BRANCH  15  29
ATOM     29  C15 UNL     1       1.481  -2.770  -0.944  1.00  0.00     0.043 C   
ATOM     30  C16 UNL     1       1.128  -3.645  -2.151  1.00  0.00     0.010 C   
ATOM     31  C19 UNL     1       0.827  -3.550   0.204  1.00  0.00     0.010 C   
ATOM     32  C17 UNL     1       1.339  -5.065  -1.642  1.00  0.00     0.001 C   
ATOM     33  C18 UNL     1       1.025  -5.021  -0.149  1.00  0.00     0.001 C   
ENDBRANCH  15  29
ENDBRANCH   3  15
TORSDOF 7
