REMARK SMILES COc1ccc(CCn2cc([C@@H]([NH2+]Cc3ccc4c(c3)OCO4)C(C)C)nn2)nc1
REMARK SMILES IDX 9 1 10 2 11 3 27 4 28 5 8 7 7 8 6 9 3 10 4 11 30 12 5 13
REMARK SMILES IDX 29 14 2 15 1 16 12 17 13 18 14 21 15 22 16 23 20 24 17 25
REMARK SMILES IDX 19 26 18 27 21 28 23 29 22 30 24 31 25 32 26 33
REMARK H PARENT 10 6 13 19 13 20
ROOT
ATOM     1   N1  UNL     1      -0.461   2.233  -2.486  1.00  0.00    -0.212 N   
ATOM     2   C8  UNL     1      -0.864   0.982  -2.112  1.00  0.00     0.045 A   
ATOM     3   C9  UNL     1      -1.897   1.216  -1.234  1.00  0.00     0.127 A   
ATOM     4   N3  UNL     1      -2.094   2.568  -1.119  1.00  0.00    -0.132 NA  
ATOM     5   N4  UNL     1      -1.219   3.179  -1.901  1.00  0.00    -0.076 NA  
ATOM     6   H10 UNL     1      -0.356   0.088  -2.448  1.00  0.00     0.083 HD  
ENDROOT
BRANCH   1   7
ATOM     7   C7  UNL     1       0.682   2.596  -3.299  1.00  0.00     0.140 C   
BRANCH   7   8
ATOM     8   C6  UNL     1       1.759   3.334  -2.505  1.00  0.00     0.077 C   
BRANCH   8   9
ATOM     9   C5  UNL     1       2.263   2.544  -1.321  1.00  0.00     0.042 A   
ATOM     10  C2  UNL     1       3.241   1.065   0.795  1.00  0.00     0.093 A   
ATOM     11  C3  UNL     1       2.951   2.414   0.972  1.00  0.00     0.037 A   
ATOM     12  C22 UNL     1       3.015   0.525  -0.463  1.00  0.00     0.144 A   
ATOM     13  C4  UNL     1       2.473   3.170  -0.096  1.00  0.00     0.026 A   
ATOM     14  N5  UNL     1       2.515   1.227  -1.513  1.00  0.00    -0.259 NA  
BRANCH  10  15
ATOM     15  O1  UNL     1       3.697   0.409   1.899  1.00  0.00    -0.348 OA  
ATOM     16  C1  UNL     1       4.308  -0.858   1.675  1.00  0.00     0.203 C   
ENDBRANCH  10  15
ENDBRANCH   8   9
ENDBRANCH   7   8
ENDBRANCH   1   7
BRANCH   3  17
ATOM     17  C10 UNL     1      -2.672   0.280  -0.369  1.00  0.00     0.117 C   
BRANCH  17  18
ATOM     18  N2  UNL     1      -2.783   0.854   1.027  1.00  0.00     0.249 N   
ATOM     19  H12 UNL     1      -3.108   1.824   0.911  1.00  0.00     0.199 HD  
ATOM     20  H13 UNL     1      -3.497   0.352   1.563  1.00  0.00     0.199 HD  
BRANCH  18  21
ATOM     21  C11 UNL     1      -1.516   0.909   1.818  1.00  0.00     0.164 C   
BRANCH  21  22
ATOM     22  C12 UNL     1      -1.056  -0.450   2.267  1.00  0.00    -0.002 A   
ATOM     23  C13 UNL     1      -1.666  -1.084   3.376  1.00  0.00     0.012 A   
ATOM     24  C17 UNL     1      -0.040  -1.119   1.562  1.00  0.00     0.045 A   
ATOM     25  C14 UNL     1      -1.276  -2.368   3.774  1.00  0.00     0.037 A   
ATOM     26  C16 UNL     1       0.317  -2.385   1.976  1.00  0.00     0.109 A   
ATOM     27  C15 UNL     1      -0.284  -2.992   3.051  1.00  0.00     0.108 A   
ATOM     28  O2  UNL     1       1.267  -3.169   1.399  1.00  0.00    -0.316 OA  
ATOM     29  O3  UNL     1       0.212  -4.234   3.288  1.00  0.00    -0.316 OA  
ATOM     30  C18 UNL     1       1.211  -4.337   2.252  1.00  0.00     0.337 C   
ENDBRANCH  21  22
ENDBRANCH  18  21
ENDBRANCH  17  18
BRANCH  17  31
ATOM     31  C19 UNL     1      -4.096  -0.046  -0.889  1.00  0.00     0.037 C   
ATOM     32  C20 UNL     1      -4.046  -0.787  -2.231  1.00  0.00     0.014 C   
ATOM     33  C21 UNL     1      -5.029   1.165  -1.004  1.00  0.00     0.014 C   
ENDBRANCH  17  31
ENDBRANCH   3  17
TORSDOF 9
