REMARK SMILES COc1ccc(OC)c(Cn2cc([C@@H]([NH2+]Cc3ccc4c(c3)OCO4)C3CCCC3)nn2)c1
REMARK SMILES IDX 11 1 12 2 13 3 31 4 32 5 10 7 9 8 3 9 4 10 33 11 5 12 6 13
REMARK SMILES IDX 2 14 1 15 7 16 8 17 14 18 15 19 16 22 17 23 18 24 22 25
REMARK SMILES IDX 19 26 21 27 20 28 23 29 25 30 24 31 26 32 27 33 30 34 28 35
REMARK SMILES IDX 29 36
REMARK H PARENT 12 6 15 20 15 21
ROOT
ATOM     1   N1  UNL     1      -1.288   1.884   1.371  1.00  0.00    -0.208 N   
ATOM     2   C9  UNL     1      -1.061   1.225   0.194  1.00  0.00     0.046 A   
ATOM     3   C10 UNL     1      -1.389  -0.082   0.477  1.00  0.00     0.127 A   
ATOM     4   N3  UNL     1      -1.840  -0.166   1.769  1.00  0.00    -0.132 NA  
ATOM     5   N4  UNL     1      -1.773   1.042   2.306  1.00  0.00    -0.076 NA  
ATOM     6   H11 UNL     1      -0.651   1.722  -0.675  1.00  0.00     0.083 HD  
ENDROOT
BRANCH   1   7
ATOM     7   C8  UNL     1      -1.011   3.273   1.690  1.00  0.00     0.172 C   
BRANCH   7   8
ATOM     8   C7  UNL     1       0.450   3.459   2.028  1.00  0.00     0.004 A   
ATOM     9   C2  UNL     1       2.224   3.377   3.708  1.00  0.00     0.075 A   
ATOM     10  C3  UNL     1       3.147   3.759   2.738  1.00  0.00     0.036 A   
ATOM     11  C25 UNL     1       0.884   3.223   3.346  1.00  0.00     0.041 A   
ATOM     12  C4  UNL     1       2.733   3.984   1.418  1.00  0.00     0.036 A   
ATOM     13  C5  UNL     1       1.391   3.838   1.055  1.00  0.00     0.080 A   
BRANCH   9  14
ATOM     14  O1  UNL     1       2.496   3.117   5.022  1.00  0.00    -0.349 OA  
ATOM     15  C1  UNL     1       3.810   3.417   5.481  1.00  0.00     0.203 C   
ENDBRANCH   9  14
BRANCH  13  16
ATOM     16  O2  UNL     1       0.906   4.016  -0.214  1.00  0.00    -0.349 OA  
ATOM     17  C6  UNL     1       1.753   4.698  -1.136  1.00  0.00     0.203 C   
ENDBRANCH  13  16
ENDBRANCH   7   8
ENDBRANCH   1   7
BRANCH   3  18
ATOM     18  C11 UNL     1      -1.216  -1.325  -0.329  1.00  0.00     0.117 C   
BRANCH  18  19
ATOM     19  N2  UNL     1      -0.680  -2.439   0.541  1.00  0.00     0.249 N   
ATOM     20  H13 UNL     1      -0.685  -3.328   0.035  1.00  0.00     0.199 HD  
ATOM     21  H14 UNL     1      -1.332  -2.530   1.332  1.00  0.00     0.199 HD  
BRANCH  19  22
ATOM     22  C12 UNL     1       0.675  -2.223   1.141  1.00  0.00     0.164 C   
BRANCH  22  23
ATOM     23  C13 UNL     1       1.748  -1.939   0.128  1.00  0.00    -0.002 A   
ATOM     24  C14 UNL     1       2.339  -0.653   0.063  1.00  0.00     0.012 A   
ATOM     25  C18 UNL     1       2.148  -2.932  -0.783  1.00  0.00     0.045 A   
ATOM     26  C15 UNL     1       3.309  -0.354  -0.899  1.00  0.00     0.037 A   
ATOM     27  C17 UNL     1       3.104  -2.602  -1.722  1.00  0.00     0.109 A   
ATOM     28  C16 UNL     1       3.668  -1.351  -1.780  1.00  0.00     0.108 A   
ATOM     29  O3  UNL     1       3.591  -3.436  -2.678  1.00  0.00    -0.316 OA  
ATOM     30  O4  UNL     1       4.584  -1.240  -2.776  1.00  0.00    -0.316 OA  
ATOM     31  C19 UNL     1       4.545  -2.571  -3.337  1.00  0.00     0.337 C   
ENDBRANCH  22  23
ENDBRANCH  19  22
ENDBRANCH  18  19
BRANCH  18  32
ATOM     32  C20 UNL     1      -2.524  -1.754  -1.024  1.00  0.00     0.043 C   
ATOM     33  C21 UNL     1      -3.625  -2.334  -0.132  1.00  0.00     0.010 C   
ATOM     34  C24 UNL     1      -2.339  -2.832  -2.104  1.00  0.00     0.010 C   
ATOM     35  C22 UNL     1      -4.586  -2.941  -1.144  1.00  0.00     0.001 C   
ATOM     36  C23 UNL     1      -3.681  -3.563  -2.201  1.00  0.00     0.001 C   
ENDBRANCH  18  32
ENDBRANCH   3  18
TORSDOF 9
