REMARK SMILES CC(C)[C@H]([NH2+]Cc1ccc2c(c1)OCO2)c1cn(Cc2cnn(-c3ccccc3)c2)nn1
REMARK SMILES IDX 16 1 17 2 18 3 31 4 32 5 4 7 2 8 1 9 3 10 5 11 6 14 7 15
REMARK SMILES IDX 8 16 12 17 9 18 11 19 10 20 13 21 15 22 14 23 19 24 20 25
REMARK SMILES IDX 21 26 30 27 22 28 23 29 24 30 25 31 29 32 26 33 28 34 27 35
REMARK H PARENT 17 6 5 12 5 13
ROOT
ATOM     1   C13 UNL     1       1.032   0.940  -2.395  1.00  0.00     0.127 A   
ATOM     2   C14 UNL     1       1.257   1.150  -1.052  1.00  0.00     0.046 A   
ATOM     3   N2  UNL     1       0.499   2.252  -0.761  1.00  0.00    -0.208 N   
ATOM     4   N5  UNL     1      -0.134   2.706  -1.862  1.00  0.00    -0.076 NA  
ATOM     5   N6  UNL     1       0.172   1.901  -2.865  1.00  0.00    -0.132 NA  
ATOM     6   H18 UNL     1       1.830   0.625  -0.301  1.00  0.00     0.083 HD  
ENDROOT
BRANCH   1   7
ATOM     7   C4  UNL     1       1.479  -0.144  -3.323  1.00  0.00     0.117 C   
BRANCH   7   8
ATOM     8   C2  UNL     1       2.765   0.233  -4.104  1.00  0.00     0.037 C   
ATOM     9   C1  UNL     1       3.345  -0.979  -4.843  1.00  0.00     0.014 C   
ATOM     10  C3  UNL     1       2.596   1.403  -5.081  1.00  0.00     0.014 C   
ENDBRANCH   7   8
BRANCH   7  11
ATOM     11  N1  UNL     1       0.350  -0.477  -4.274  1.00  0.00     0.249 N   
ATOM     12  H9  UNL     1       0.684  -0.539  -5.240  1.00  0.00     0.199 HD  
ATOM     13  H10 UNL     1      -0.281   0.340  -4.257  1.00  0.00     0.199 HD  
BRANCH  11  14
ATOM     14  C5  UNL     1      -0.449  -1.694  -3.961  1.00  0.00     0.164 C   
BRANCH  14  15
ATOM     15  C6  UNL     1      -1.047  -1.717  -2.582  1.00  0.00    -0.002 A   
ATOM     16  C7  UNL     1      -2.059  -0.798  -2.216  1.00  0.00     0.012 A   
ATOM     17  C11 UNL     1      -0.594  -2.654  -1.636  1.00  0.00     0.045 A   
ATOM     18  C8  UNL     1      -2.608  -0.806  -0.928  1.00  0.00     0.037 A   
ATOM     19  C10 UNL     1      -1.157  -2.637  -0.377  1.00  0.00     0.109 A   
ATOM     20  C9  UNL     1      -2.137  -1.740  -0.033  1.00  0.00     0.108 A   
ATOM     21  O1  UNL     1      -0.831  -3.468   0.647  1.00  0.00    -0.316 OA  
ATOM     22  O2  UNL     1      -2.556  -1.900   1.247  1.00  0.00    -0.316 OA  
ATOM     23  C12 UNL     1      -1.762  -3.027   1.664  1.00  0.00     0.337 C   
ENDBRANCH  14  15
ENDBRANCH  11  14
ENDBRANCH   7  11
ENDBRANCH   1   7
BRANCH   3  24
ATOM     24  C15 UNL     1       0.312   2.906   0.524  1.00  0.00     0.172 C   
BRANCH  24  25
ATOM     25  C16 UNL     1      -0.875   2.346   1.218  1.00  0.00     0.008 A   
ATOM     26  C17 UNL     1      -2.231   2.572   0.911  1.00  0.00     0.138 A   
ATOM     27  C24 UNL     1      -0.923   1.495   2.305  1.00  0.00     0.108 A   
ATOM     28  N3  UNL     1      -3.059   1.905   1.710  1.00  0.00    -0.185 NA  
ATOM     29  N4  UNL     1      -2.255   1.249   2.587  1.00  0.00    -0.201 N   
BRANCH  29  30
ATOM     30  C18 UNL     1      -2.799   0.434   3.619  1.00  0.00     0.056 A   
ATOM     31  C19 UNL     1      -4.191   0.281   3.712  1.00  0.00     0.026 A   
ATOM     32  C23 UNL     1      -1.973  -0.223   4.542  1.00  0.00     0.026 A   
ATOM     33  C20 UNL     1      -4.747  -0.522   4.710  1.00  0.00     0.002 A   
ATOM     34  C22 UNL     1      -2.538  -1.025   5.540  1.00  0.00     0.002 A   
ATOM     35  C21 UNL     1      -3.921  -1.174   5.622  1.00  0.00     0.000 A   
ENDBRANCH  29  30
ENDBRANCH  24  25
ENDBRANCH   3  24
TORSDOF 8
