REMARK SMILES Brc1cnc(-n2cc([C@@H]([NH2+]Cc3ccc4c(c3)OCO4)C3CCCC3)nn2)nc1
REMARK SMILES IDX 9 1 8 2 6 3 7 4 27 5 26 6 5 7 2 8 3 9 29 10 4 11 28 12 1 13
REMARK SMILES IDX 10 14 11 17 12 18 13 19 17 20 14 21 16 22 15 23 18 24 20 25
REMARK SMILES IDX 19 26 21 27 22 28 25 29 23 30 24 31
REMARK H PARENT 10 15 10 16
ROOT
ATOM     1   C6  UNL     1       0.522  -0.365   1.217  1.00  0.00     0.117 C   
ENDROOT
BRANCH   1   2
ATOM     2   C5  UNL     1       1.887  -0.673   0.686  1.00  0.00     0.128 A   
ATOM     3   N2  UNL     1       4.015  -0.869   0.210  1.00  0.00    -0.146 N   
ATOM     4   C4  UNL     1       3.135  -0.258   1.087  1.00  0.00     0.138 A   
ATOM     5   N5  UNL     1       3.304  -1.599  -0.691  1.00  0.00    -0.068 NA  
ATOM     6   N4  UNL     1       2.017  -1.494  -0.401  1.00  0.00    -0.131 NA  
BRANCH   3   7
ATOM     7   C3  UNL     1       5.439  -0.773   0.200  1.00  0.00     0.242 A   
ATOM     8   C1  UNL     1       8.149  -0.579   0.202  1.00  0.00     0.054 A   
ATOM     9   C2  UNL     1       7.367   0.071   1.129  1.00  0.00     0.132 A   
ATOM     10  C20 UNL     1       7.470  -1.332  -0.727  1.00  0.00     0.132 A   
ATOM     11  N1  UNL     1       6.016  -0.004   1.155  1.00  0.00    -0.221 NA  
ATOM     12  N6  UNL     1       6.122  -1.446  -0.752  1.00  0.00    -0.221 NA  
ATOM     13  BR1 UNL     1      10.021  -0.445   0.204  1.00  0.00    -0.047 Br  
ENDBRANCH   3   7
ENDBRANCH   1   2
BRANCH   1  14
ATOM     14  N3  UNL     1      -0.518  -0.612   0.156  1.00  0.00     0.249 N   
ATOM     15  H4  UNL     1      -0.243  -1.477  -0.335  1.00  0.00     0.199 HD  
ATOM     16  H5  UNL     1      -1.444  -0.796   0.553  1.00  0.00     0.199 HD  
BRANCH  14  17
ATOM     17  C7  UNL     1      -0.636   0.452  -0.880  1.00  0.00     0.164 C   
BRANCH  17  18
ATOM     18  C8  UNL     1      -1.648   0.060  -1.919  1.00  0.00    -0.002 A   
ATOM     19  C9  UNL     1      -2.995   0.480  -1.804  1.00  0.00     0.012 A   
ATOM     20  C13 UNL     1      -1.271  -0.777  -2.983  1.00  0.00     0.045 A   
ATOM     21  C10 UNL     1      -3.952   0.082  -2.744  1.00  0.00     0.037 A   
ATOM     22  C12 UNL     1      -2.240  -1.151  -3.891  1.00  0.00     0.109 A   
ATOM     23  C11 UNL     1      -3.543  -0.734  -3.775  1.00  0.00     0.108 A   
ATOM     24  O1  UNL     1      -2.045  -1.952  -4.971  1.00  0.00    -0.316 OA  
ATOM     25  O2  UNL     1      -4.332  -1.217  -4.769  1.00  0.00    -0.316 OA  
ATOM     26  C14 UNL     1      -3.374  -1.973  -5.540  1.00  0.00     0.337 C   
ENDBRANCH  17  18
ENDBRANCH  14  17
ENDBRANCH   1  14
BRANCH   1  27
ATOM     27  C15 UNL     1       0.200  -1.187   2.481  1.00  0.00     0.043 C   
ATOM     28  C16 UNL     1       0.058  -2.701   2.279  1.00  0.00     0.010 C   
ATOM     29  C19 UNL     1      -1.093  -0.759   3.203  1.00  0.00     0.010 C   
ATOM     30  C17 UNL     1      -0.745  -3.139   3.493  1.00  0.00     0.001 C   
ATOM     31  C18 UNL     1      -1.799  -2.050   3.615  1.00  0.00     0.001 C   
ENDBRANCH   1  27
TORSDOF 6
