REMARK SMILES OCCOc1ccc(-n2cc([C@@H]([NH2+]Cc3ccc4c(c3)OCO4)C3CCCCC3)nn2)cc1
REMARK SMILES IDX 5 1 6 2 7 3 8 4 32 5 33 6 4 7 3 8 2 9 1 10 9 12 10 13 31 14
REMARK SMILES IDX 11 15 30 16 12 17 13 18 14 21 15 22 16 23 20 24 17 25 19 26
REMARK SMILES IDX 18 27 21 28 23 29 22 30 24 31 25 32 29 33 26 34 28 35 27 36
REMARK H PARENT 1 11 13 19 13 20
ROOT
ATOM     1   C3  UNL     1       2.849  -4.351  -0.836  1.00  0.00     0.075 A   
ATOM     2   C4  UNL     1       2.830  -3.136  -0.151  1.00  0.00     0.035 A   
ATOM     3   C5  UNL     1       1.748  -2.256  -0.294  1.00  0.00     0.028 A   
ATOM     4   C6  UNL     1       0.673  -2.590  -1.129  1.00  0.00     0.058 A   
ATOM     5   C24 UNL     1       0.692  -3.811  -1.815  1.00  0.00     0.028 A   
ATOM     6   C25 UNL     1       1.776  -4.681  -1.665  1.00  0.00     0.035 A   
ENDROOT
BRANCH   1   7
ATOM     7   O2  UNL     1       3.841  -5.290  -0.786  1.00  0.00    -0.344 OA  
BRANCH   7   8
ATOM     8   C2  UNL     1       4.957  -5.020   0.073  1.00  0.00     0.196 C   
BRANCH   8   9
ATOM     9   C1  UNL     1       5.931  -6.189  -0.047  1.00  0.00     0.185 C   
BRANCH   9  10
ATOM     10  O1  UNL     1       6.475  -6.240  -1.364  1.00  0.00    -0.394 OA  
ATOM     11  H1  UNL     1       5.715  -6.296  -1.972  1.00  0.00     0.210 HD  
ENDBRANCH   9  10
ENDBRANCH   8   9
ENDBRANCH   7   8
ENDBRANCH   1   7
BRANCH   4  12
ATOM     12  N1  UNL     1      -0.429  -1.715  -1.290  1.00  0.00    -0.181 N   
ATOM     13  C7  UNL     1      -0.647  -0.472  -0.727  1.00  0.00     0.135 A   
ATOM     14  N4  UNL     1      -1.476  -2.012  -2.104  1.00  0.00    -0.071 NA  
ATOM     15  C8  UNL     1      -1.878  -0.075  -1.201  1.00  0.00     0.127 A   
ATOM     16  N3  UNL     1      -2.362  -1.033  -2.045  1.00  0.00    -0.131 NA  
BRANCH  15  17
ATOM     17  C9  UNL     1      -2.662   1.183  -0.986  1.00  0.00     0.117 C   
BRANCH  17  18
ATOM     18  N2  UNL     1      -3.260   1.623  -2.310  1.00  0.00     0.249 N   
ATOM     19  H10 UNL     1      -3.919   2.392  -2.175  1.00  0.00     0.199 HD  
ATOM     20  H11 UNL     1      -3.796   0.821  -2.671  1.00  0.00     0.199 HD  
BRANCH  18  21
ATOM     21  C10 UNL     1      -2.295   2.034  -3.376  1.00  0.00     0.164 C   
BRANCH  21  22
ATOM     22  C11 UNL     1      -1.495   3.250  -2.999  1.00  0.00    -0.002 A   
ATOM     23  C12 UNL     1      -2.105   4.527  -2.955  1.00  0.00     0.012 A   
ATOM     24  C16 UNL     1      -0.140   3.119  -2.648  1.00  0.00     0.045 A   
ATOM     25  C13 UNL     1      -1.380   5.655  -2.558  1.00  0.00     0.037 A   
ATOM     26  C15 UNL     1       0.544   4.251  -2.259  1.00  0.00     0.109 A   
ATOM     27  C14 UNL     1      -0.058   5.484  -2.213  1.00  0.00     0.108 A   
ATOM     28  O3  UNL     1       1.848   4.295  -1.877  1.00  0.00    -0.316 OA  
ATOM     29  O4  UNL     1       0.792   6.460  -1.803  1.00  0.00    -0.316 OA  
ATOM     30  C17 UNL     1       2.014   5.711  -1.631  1.00  0.00     0.337 C   
ENDBRANCH  21  22
ENDBRANCH  18  21
ENDBRANCH  17  18
BRANCH  17  31
ATOM     31  C18 UNL     1      -3.812   0.990   0.054  1.00  0.00     0.043 C   
ATOM     32  C19 UNL     1      -3.290   0.526   1.434  1.00  0.00     0.010 C   
ATOM     33  C23 UNL     1      -4.675   2.251   0.288  1.00  0.00     0.010 C   
ATOM     34  C20 UNL     1      -2.499   1.613   2.162  1.00  0.00     0.001 C   
ATOM     35  C22 UNL     1      -3.903   3.369   0.987  1.00  0.00     0.001 C   
ATOM     36  C21 UNL     1      -3.312   2.896   2.312  1.00  0.00     0.000 C   
ENDBRANCH  17  31
ENDBRANCH  15  17
ENDBRANCH   4  12
TORSDOF 10
