REMARK SMILES COc1ccccc1C(=O)Cn1cc([C@@H]([NH2+]Cc2ccc3c(c2)OCO3)C(C)C)nn1
REMARK SMILES IDX 12 1 13 2 14 3 30 4 31 5 11 7 9 8 10 9 8 10 3 11 4 12 5 13
REMARK SMILES IDX 7 14 6 15 2 16 1 17 15 18 16 19 17 22 18 23 19 24 23 25
REMARK SMILES IDX 20 26 22 27 21 28 24 29 26 30 25 31 27 32 28 33 29 34
REMARK H PARENT 13 6 16 20 16 21
ROOT
ATOM     1   N1  UNL     1      -1.065  -0.911   1.183  1.00  0.00    -0.204 N   
ATOM     2   C10 UNL     1      -0.611  -1.437   0.006  1.00  0.00     0.046 A   
ATOM     3   C11 UNL     1       0.455  -2.220   0.388  1.00  0.00     0.127 A   
ATOM     4   N3  UNL     1       0.562  -2.204   1.755  1.00  0.00    -0.132 NA  
ATOM     5   N4  UNL     1      -0.378  -1.404   2.231  1.00  0.00    -0.076 NA  
ATOM     6   H10 UNL     1      -1.014  -1.144  -0.953  1.00  0.00     0.083 HD  
ENDROOT
BRANCH   1   7
ATOM     7   C9  UNL     1      -2.067   0.122   1.371  1.00  0.00     0.215 C   
BRANCH   7   8
ATOM     8   C8  UNL     1      -1.458   1.492   1.163  1.00  0.00     0.184 C   
ATOM     9   O2  UNL     1      -0.456   1.666   0.464  1.00  0.00    -0.292 OA  
BRANCH   8  10
ATOM     10  C7  UNL     1      -2.075   2.669   1.840  1.00  0.00     0.050 A   
ATOM     11  C2  UNL     1      -3.451   2.768   2.117  1.00  0.00     0.085 A   
ATOM     12  C3  UNL     1      -3.925   3.910   2.776  1.00  0.00     0.034 A   
ATOM     13  C4  UNL     1      -3.053   4.941   3.137  1.00  0.00     0.003 A   
ATOM     14  C6  UNL     1      -1.209   3.718   2.192  1.00  0.00     0.014 A   
ATOM     15  C5  UNL     1      -1.697   4.849   2.841  1.00  0.00     0.001 A   
BRANCH  11  16
ATOM     16  O1  UNL     1      -4.253   1.739   1.701  1.00  0.00    -0.349 OA  
ATOM     17  C1  UNL     1      -5.658   1.872   1.901  1.00  0.00     0.203 C   
ENDBRANCH  11  16
ENDBRANCH   8  10
ENDBRANCH   7   8
ENDBRANCH   1   7
BRANCH   3  18
ATOM     18  C12 UNL     1       1.496  -2.908  -0.431  1.00  0.00     0.117 C   
BRANCH  18  19
ATOM     19  N2  UNL     1       2.864  -2.709   0.180  1.00  0.00     0.249 N   
ATOM     20  H12 UNL     1       2.797  -3.031   1.154  1.00  0.00     0.199 HD  
ATOM     21  H13 UNL     1       3.558  -3.290  -0.294  1.00  0.00     0.199 HD  
BRANCH  19  22
ATOM     22  C13 UNL     1       3.362  -1.297   0.233  1.00  0.00     0.164 C   
BRANCH  22  23
ATOM     23  C14 UNL     1       3.518  -0.669  -1.124  1.00  0.00    -0.002 A   
ATOM     24  C15 UNL     1       2.645   0.370  -1.528  1.00  0.00     0.012 A   
ATOM     25  C19 UNL     1       4.510  -1.123  -2.010  1.00  0.00     0.045 A   
ATOM     26  C16 UNL     1       2.749   0.944  -2.800  1.00  0.00     0.037 A   
ATOM     27  C18 UNL     1       4.584  -0.537  -3.257  1.00  0.00     0.109 A   
ATOM     28  C17 UNL     1       3.729   0.466  -3.642  1.00  0.00     0.108 A   
ATOM     29  O3  UNL     1       5.474  -0.863  -4.230  1.00  0.00    -0.316 OA  
ATOM     30  O4  UNL     1       3.974   0.899  -4.905  1.00  0.00    -0.316 OA  
ATOM     31  C20 UNL     1       5.103   0.075  -5.266  1.00  0.00     0.337 C   
ENDBRANCH  22  23
ENDBRANCH  19  22
ENDBRANCH  18  19
BRANCH  18  32
ATOM     32  C21 UNL     1       1.202  -4.419  -0.627  1.00  0.00     0.037 C   
ATOM     33  C22 UNL     1       1.339  -5.262   0.646  1.00  0.00     0.014 C   
ATOM     34  C23 UNL     1       2.074  -5.022  -1.735  1.00  0.00     0.014 C   
ENDBRANCH  18  32
ENDBRANCH   3  18
TORSDOF 9
