REMARK SMILES O[C@@H](Cn1cc([C@@H]([NH2+]Cc2ccc3c(c2)OCO3)C2CCCC2)nn1)c1cccc(F)c1
REMARK SMILES IDX 4 1 5 2 6 3 24 4 25 5 3 7 2 8 1 9 26 11 27 12 32 13 28 14
REMARK SMILES IDX 30 15 29 16 31 17 7 18 8 19 9 22 10 23 11 24 15 25 12 26
REMARK SMILES IDX 14 27 13 28 16 29 18 30 17 31 19 32 20 33 23 34 21 35 22 36
REMARK H PARENT 5 6 1 10 8 20 8 21
ROOT
ATOM     1   N1  UNL     1       2.999   0.483  -0.333  1.00  0.00    -0.209 N   
ATOM     2   C3  UNL     1       2.151  -0.226  -1.136  1.00  0.00     0.045 A   
ATOM     3   C4  UNL     1       1.069   0.613  -1.296  1.00  0.00     0.127 A   
ATOM     4   N3  UNL     1       1.296   1.776  -0.609  1.00  0.00    -0.132 NA  
ATOM     5   N4  UNL     1       2.488   1.695  -0.042  1.00  0.00    -0.076 NA  
ATOM     6   H5  UNL     1       2.375  -1.227  -1.476  1.00  0.00     0.083 HD  
ENDROOT
BRANCH   1   7
ATOM     7   C2  UNL     1       4.246   0.048   0.255  1.00  0.00     0.170 C   
BRANCH   7   8
ATOM     8   C1  UNL     1       4.214   0.015   1.788  1.00  0.00     0.164 C   
BRANCH   8   9
ATOM     9   O1  UNL     1       5.485  -0.435   2.261  1.00  0.00    -0.387 OA  
ATOM     10  H1  UNL     1       5.423  -0.506   3.233  1.00  0.00     0.211 HD  
ENDBRANCH   8   9
BRANCH   8  11
ATOM     11  C19 UNL     1       3.123  -0.891   2.330  1.00  0.00    -0.015 A   
ATOM     12  C20 UNL     1       3.289  -2.286   2.394  1.00  0.00     0.006 A   
ATOM     13  C24 UNL     1       1.891  -0.342   2.720  1.00  0.00     0.045 A   
ATOM     14  C21 UNL     1       2.252  -3.108   2.845  1.00  0.00     0.003 A   
ATOM     15  C23 UNL     1       0.859  -1.173   3.148  1.00  0.00     0.123 A   
ATOM     16  C22 UNL     1       1.030  -2.550   3.220  1.00  0.00     0.039 A   
ATOM     17  F1  UNL     1      -0.328  -0.634   3.456  1.00  0.00    -0.207 F   
ENDBRANCH   8  11
ENDBRANCH   7   8
ENDBRANCH   1   7
BRANCH   3  18
ATOM     18  C5  UNL     1      -0.240   0.415  -1.987  1.00  0.00     0.117 C   
BRANCH  18  19
ATOM     19  N2  UNL     1      -1.359   0.878  -1.087  1.00  0.00     0.249 N   
ATOM     20  H7  UNL     1      -2.248   0.953  -1.592  1.00  0.00     0.199 HD  
ATOM     21  H8  UNL     1      -1.121   1.831  -0.775  1.00  0.00     0.199 HD  
BRANCH  19  22
ATOM     22  C6  UNL     1      -1.580   0.051   0.135  1.00  0.00     0.164 C   
BRANCH  22  23
ATOM     23  C7  UNL     1      -2.749   0.575   0.919  1.00  0.00    -0.002 A   
ATOM     24  C8  UNL     1      -2.578   1.665   1.807  1.00  0.00     0.012 A   
ATOM     25  C12 UNL     1      -4.028   0.018   0.745  1.00  0.00     0.045 A   
ATOM     26  C9  UNL     1      -3.664   2.196   2.509  1.00  0.00     0.037 A   
ATOM     27  C11 UNL     1      -5.075   0.564   1.459  1.00  0.00     0.109 A   
ATOM     28  C10 UNL     1      -4.901   1.624   2.313  1.00  0.00     0.108 A   
ATOM     29  O2  UNL     1      -6.368   0.145   1.407  1.00  0.00    -0.316 OA  
ATOM     30  O3  UNL     1      -6.062   2.010   2.903  1.00  0.00    -0.316 OA  
ATOM     31  C13 UNL     1      -6.982   1.035   2.368  1.00  0.00     0.337 C   
ENDBRANCH  22  23
ENDBRANCH  19  22
ENDBRANCH  18  19
BRANCH  18  32
ATOM     32  C14 UNL     1      -0.315   1.206  -3.308  1.00  0.00     0.043 C   
ATOM     33  C15 UNL     1      -1.631   1.037  -4.078  1.00  0.00     0.010 C   
ATOM     34  C18 UNL     1       0.711   0.746  -4.349  1.00  0.00     0.010 C   
ATOM     35  C16 UNL     1      -1.307   1.444  -5.513  1.00  0.00     0.001 C   
ATOM     36  C17 UNL     1       0.211   1.361  -5.650  1.00  0.00     0.001 C   
ENDBRANCH  18  32
ENDBRANCH   3  18
TORSDOF 9
