REMARK SMILES O[C@H](Cn1cc([C@@H]([NH2+]Cc2ccc3c(c2)OCO3)C2CCCC2)nn1)c1cccc(F)c1
REMARK SMILES IDX 4 1 5 2 6 3 24 4 25 5 3 7 2 8 1 9 26 11 27 12 32 13 28 14
REMARK SMILES IDX 30 15 29 16 31 17 7 18 8 19 9 22 10 23 11 24 15 25 12 26
REMARK SMILES IDX 14 27 13 28 16 29 18 30 17 31 19 32 20 33 23 34 21 35 22 36
REMARK H PARENT 5 6 1 10 8 20 8 21
ROOT
ATOM     1   N1  UNL     1      -0.369  -1.750   1.488  1.00  0.00    -0.209 N   
ATOM     2   C3  UNL     1      -0.895  -0.802   0.657  1.00  0.00     0.045 A   
ATOM     3   C4  UNL     1       0.168   0.035   0.394  1.00  0.00     0.127 A   
ATOM     4   N3  UNL     1       1.260  -0.392   1.106  1.00  0.00    -0.132 NA  
ATOM     5   N4  UNL     1       0.909  -1.463   1.797  1.00  0.00    -0.076 NA  
ATOM     6   H5  UNL     1      -1.917  -0.840   0.304  1.00  0.00     0.083 HD  
ENDROOT
BRANCH   1   7
ATOM     7   C2  UNL     1      -0.989  -2.968   1.960  1.00  0.00     0.170 C   
BRANCH   7   8
ATOM     8   C1  UNL     1      -0.287  -4.238   1.457  1.00  0.00     0.164 C   
BRANCH   8   9
ATOM     9   O1  UNL     1      -0.950  -5.373   2.018  1.00  0.00    -0.387 OA  
ATOM     10  H1  UNL     1      -0.458  -6.165   1.732  1.00  0.00     0.211 HD  
ENDBRANCH   8   9
BRANCH   8  11
ATOM     11  C19 UNL     1      -0.292  -4.352  -0.055  1.00  0.00    -0.015 A   
ATOM     12  C20 UNL     1      -1.402  -4.857  -0.754  1.00  0.00     0.006 A   
ATOM     13  C24 UNL     1       0.814  -3.899  -0.790  1.00  0.00     0.045 A   
ATOM     14  C21 UNL     1      -1.403  -4.904  -2.151  1.00  0.00     0.003 A   
ATOM     15  C23 UNL     1       0.795  -3.939  -2.181  1.00  0.00     0.123 A   
ATOM     16  C22 UNL     1      -0.301  -4.438  -2.867  1.00  0.00     0.039 A   
ATOM     17  F1  UNL     1       1.844  -3.459  -2.864  1.00  0.00    -0.207 F   
ENDBRANCH   8  11
ENDBRANCH   7   8
ENDBRANCH   1   7
BRANCH   3  18
ATOM     18  C5  UNL     1       0.281   1.239  -0.487  1.00  0.00     0.117 C   
BRANCH  18  19
ATOM     19  N2  UNL     1       1.325   2.194   0.058  1.00  0.00     0.249 N   
ATOM     20  H7  UNL     1       1.520   2.937  -0.618  1.00  0.00     0.199 HD  
ATOM     21  H8  UNL     1       2.188   1.644   0.171  1.00  0.00     0.199 HD  
BRANCH  19  22
ATOM     22  C6  UNL     1       1.030   2.826   1.381  1.00  0.00     0.164 C   
BRANCH  22  23
ATOM     23  C7  UNL     1      -0.167   3.733   1.349  1.00  0.00    -0.002 A   
ATOM     24  C8  UNL     1      -0.098   4.995   0.710  1.00  0.00     0.012 A   
ATOM     25  C12 UNL     1      -1.377   3.318   1.932  1.00  0.00     0.045 A   
ATOM     26  C9  UNL     1      -1.217   5.833   0.651  1.00  0.00     0.037 A   
ATOM     27  C11 UNL     1      -2.459   4.167   1.856  1.00  0.00     0.109 A   
ATOM     28  C10 UNL     1      -2.383   5.389   1.234  1.00  0.00     0.108 A   
ATOM     29  O2  UNL     1      -3.693   3.917   2.360  1.00  0.00    -0.316 OA  
ATOM     30  O3  UNL     1      -3.559   6.065   1.272  1.00  0.00    -0.316 OA  
ATOM     31  C13 UNL     1      -4.378   5.146   2.027  1.00  0.00     0.337 C   
ENDBRANCH  22  23
ENDBRANCH  19  22
ENDBRANCH  18  19
BRANCH  18  32
ATOM     32  C14 UNL     1       0.690   0.845  -1.925  1.00  0.00     0.043 C   
ATOM     33  C15 UNL     1      -0.371   0.007  -2.650  1.00  0.00     0.010 C   
ATOM     34  C18 UNL     1       0.856   2.022  -2.894  1.00  0.00     0.010 C   
ATOM     35  C16 UNL     1       0.018   0.088  -4.121  1.00  0.00     0.001 C   
ATOM     36  C17 UNL     1       0.818   1.379  -4.276  1.00  0.00     0.001 C   
ENDBRANCH  18  32
ENDBRANCH   3  18
TORSDOF 9
