REMARK SMILES Cc1ccc(N([O-])[O-])c(-n2cc([C@@H]([NH2+]Cc3ccc4c(c3)OCO4)C(C)(C)C)nn2)c1
REMARK SMILES IDX 10 1 11 2 12 3 29 4 30 5 9 6 2 7 3 8 31 9 4 10 5 11 1 12
REMARK SMILES IDX 6 13 7 14 8 15 13 16 14 17 15 20 16 21 17 22 21 23 18 24
REMARK SMILES IDX 20 25 19 26 22 27 24 28 23 29 25 30 26 31 27 32 28 33
REMARK H PARENT 14 18 14 19
ROOT
ATOM     1   N2  UNL     1       0.628   1.038  -2.729  1.00  0.00    -0.178 N   
ATOM     2   C7  UNL     1      -0.301   1.536  -1.836  1.00  0.00     0.135 A   
ATOM     3   C8  UNL     1       0.152   1.170  -0.588  1.00  0.00     0.128 A   
ATOM     4   N4  UNL     1       1.321   0.483  -0.727  1.00  0.00    -0.131 NA  
ATOM     5   N5  UNL     1       1.620   0.439  -2.013  1.00  0.00    -0.071 NA  
ENDROOT
BRANCH   1   6
ATOM     6   C6  UNL     1       0.691   1.098  -4.149  1.00  0.00     0.086 A   
ATOM     7   C2  UNL     1       2.091   0.930  -6.159  1.00  0.00    -0.049 A   
ATOM     8   C3  UNL     1       1.002   1.301  -6.955  1.00  0.00     0.006 A   
ATOM     9   C22 UNL     1       1.932   0.837  -4.765  1.00  0.00     0.031 A   
ATOM     10  C4  UNL     1      -0.242   1.535  -6.375  1.00  0.00     0.033 A   
ATOM     11  C5  UNL     1      -0.389   1.421  -4.984  1.00  0.00     0.141 A   
ATOM     12  C1  UNL     1       3.439   0.696  -6.783  1.00  0.00     0.044 C   
BRANCH  11  13
ATOM     13  N1  UNL     1      -1.738   1.546  -4.482  1.00  0.00     0.094 N   
ATOM     14  O1  UNL     1      -2.248   2.672  -4.517  1.00  0.00    -0.138 OA  
ATOM     15  O2  UNL     1      -2.256   0.529  -4.003  1.00  0.00    -0.138 OA  
ENDBRANCH  11  13
ENDBRANCH   1   6
BRANCH   3  16
ATOM     16  C9  UNL     1      -0.445   1.358   0.777  1.00  0.00     0.120 C   
BRANCH  16  17
ATOM     17  N3  UNL     1      -0.088   0.162   1.628  1.00  0.00     0.250 N   
ATOM     18  H8  UNL     1       0.911  -0.038   1.460  1.00  0.00     0.199 HD  
ATOM     19  H9  UNL     1      -0.171   0.351   2.630  1.00  0.00     0.199 HD  
BRANCH  17  20
ATOM     20  C10 UNL     1      -0.843  -1.087   1.323  1.00  0.00     0.164 C   
BRANCH  20  21
ATOM     21  C11 UNL     1      -0.320  -2.226   2.151  1.00  0.00    -0.002 A   
ATOM     22  C12 UNL     1       0.768  -3.002   1.685  1.00  0.00     0.012 A   
ATOM     23  C16 UNL     1      -0.867  -2.491   3.418  1.00  0.00     0.045 A   
ATOM     24  C13 UNL     1       1.298  -4.037   2.463  1.00  0.00     0.037 A   
ATOM     25  C15 UNL     1      -0.319  -3.517   4.160  1.00  0.00     0.109 A   
ATOM     26  C14 UNL     1       0.733  -4.268   3.697  1.00  0.00     0.108 A   
ATOM     27  O3  UNL     1      -0.727  -3.901   5.397  1.00  0.00    -0.316 OA  
ATOM     28  O4  UNL     1       1.119  -5.221   4.584  1.00  0.00    -0.316 OA  
ATOM     29  C17 UNL     1       0.183  -4.994   5.659  1.00  0.00     0.337 C   
ENDBRANCH  20  21
ENDBRANCH  17  20
ENDBRANCH  16  17
BRANCH  16  30
ATOM     30  C18 UNL     1      -0.011   2.686   1.491  1.00  0.00     0.010 C   
ATOM     31  C19 UNL     1      -0.778   2.856   2.824  1.00  0.00     0.017 C   
ATOM     32  C20 UNL     1      -0.368   3.906   0.613  1.00  0.00     0.017 C   
ATOM     33  C21 UNL     1       1.500   2.731   1.792  1.00  0.00     0.017 C   
ENDBRANCH  16  30
ENDBRANCH   3  16
TORSDOF 7
