REMARK SMILES CC(C)[C@H]([NH2+]Cc1ccc2c(c1)OCO2)c1cn(-c2ccccc2-c2nc3ccccc3[nH]2)nn1
REMARK SMILES IDX 16 1 17 2 18 3 34 4 35 5 4 6 2 7 1 8 3 9 5 10 6 13 7 14 8 15
REMARK SMILES IDX 12 16 9 17 11 18 10 19 13 20 15 21 14 22 19 23 20 24 24 25
REMARK SMILES IDX 21 26 23 27 22 28 25 29 26 30 33 31 27 32 32 33 28 34 31 35
REMARK SMILES IDX 29 36 30 37
REMARK H PARENT 5 11 5 12 33 38
ROOT
ATOM     1   C13 UNL     1      -1.501  -0.257   0.930  1.00  0.00     0.127 A   
ATOM     2   C14 UNL     1      -1.998  -0.154  -0.347  1.00  0.00     0.135 A   
ATOM     3   N2  UNL     1      -2.499   1.128  -0.446  1.00  0.00    -0.180 N   
ATOM     4   N5  UNL     1      -2.411   1.708   0.786  1.00  0.00    -0.071 NA  
ATOM     5   N6  UNL     1      -1.764   0.898   1.605  1.00  0.00    -0.131 NA  
ENDROOT
BRANCH   1   6
ATOM     6   C4  UNL     1      -0.727  -1.346   1.593  1.00  0.00     0.117 C   
BRANCH   6   7
ATOM     7   C2  UNL     1      -1.597  -2.366   2.372  1.00  0.00     0.037 C   
ATOM     8   C1  UNL     1      -2.434  -1.747   3.498  1.00  0.00     0.014 C   
ATOM     9   C3  UNL     1      -2.506  -3.168   1.433  1.00  0.00     0.014 C   
ENDBRANCH   6   7
BRANCH   6  10
ATOM     10  N1  UNL     1       0.275  -0.744   2.547  1.00  0.00     0.249 N   
ATOM     11  H9  UNL     1      -0.215   0.004   3.061  1.00  0.00     0.199 HD  
ATOM     12  H10 UNL     1       0.584  -1.423   3.250  1.00  0.00     0.199 HD  
BRANCH  10  13
ATOM     13  C5  UNL     1       1.468  -0.124   1.905  1.00  0.00     0.164 C   
BRANCH  13  14
ATOM     14  C6  UNL     1       2.337   0.523   2.946  1.00  0.00    -0.002 A   
ATOM     15  C7  UNL     1       2.164   1.892   3.262  1.00  0.00     0.012 A   
ATOM     16  C11 UNL     1       3.280  -0.239   3.657  1.00  0.00     0.045 A   
ATOM     17  C8  UNL     1       2.930   2.501   4.262  1.00  0.00     0.037 A   
ATOM     18  C10 UNL     1       4.013   0.392   4.640  1.00  0.00     0.109 A   
ATOM     19  C9  UNL     1       3.846   1.722   4.933  1.00  0.00     0.108 A   
ATOM     20  O1  UNL     1       4.954  -0.197   5.422  1.00  0.00    -0.316 OA  
ATOM     21  O2  UNL     1       4.667   2.141   5.931  1.00  0.00    -0.316 OA  
ATOM     22  C12 UNL     1       5.392   0.927   6.220  1.00  0.00     0.337 C   
ENDBRANCH  13  14
ENDBRANCH  10  13
ENDBRANCH   6  10
ENDBRANCH   1   6
BRANCH   3  23
ATOM     23  C15 UNL     1      -3.096   1.812  -1.542  1.00  0.00     0.068 A   
ATOM     24  C16 UNL     1      -3.953   2.889  -1.226  1.00  0.00     0.027 A   
ATOM     25  C20 UNL     1      -2.894   1.461  -2.896  1.00  0.00     0.039 A   
ATOM     26  C17 UNL     1      -4.642   3.579  -2.223  1.00  0.00     0.002 A   
ATOM     27  C19 UNL     1      -3.604   2.181  -3.883  1.00  0.00     0.014 A   
ATOM     28  C18 UNL     1      -4.475   3.219  -3.550  1.00  0.00     0.001 A   
BRANCH  25  29
ATOM     29  C21 UNL     1      -1.907   0.483  -3.364  1.00  0.00     0.132 A   
ATOM     30  N3  UNL     1      -0.676   0.328  -2.910  1.00  0.00    -0.231 NA  
ATOM     31  N4  UNL     1      -2.153  -0.410  -4.385  1.00  0.00    -0.297 N   
ATOM     32  C22 UNL     1      -0.111  -0.665  -3.676  1.00  0.00     0.087 A   
ATOM     33  C27 UNL     1      -1.026  -1.160  -4.595  1.00  0.00     0.058 A   
ATOM     34  C23 UNL     1       1.182  -1.205  -3.639  1.00  0.00     0.030 A   
ATOM     35  C26 UNL     1      -0.734  -2.187  -5.495  1.00  0.00     0.026 A   
ATOM     36  C24 UNL     1       1.504  -2.236  -4.530  1.00  0.00     0.002 A   
ATOM     37  C25 UNL     1       0.559  -2.717  -5.440  1.00  0.00     0.002 A   
ATOM     38  H27 UNL     1      -3.019  -0.494  -4.897  1.00  0.00     0.154 HD  
ENDBRANCH  25  29
ENDBRANCH   3  23
TORSDOF 7
