REMARK SMILES CC(C)(C)[C@H]([NH2+]Cc1ccc2c(c1)OCO2)c1cn(Cc2ccc(N)c(N)c2)nn1
REMARK SMILES IDX 17 1 18 2 19 3 29 4 30 5 5 7 2 8 1 9 3 10 4 11 6 12 7 15
REMARK SMILES IDX 8 16 9 17 13 18 10 19 12 20 11 21 14 22 16 23 15 24 20 25
REMARK SMILES IDX 21 26 22 27 28 28 23 29 26 30 24 31 27 32 25 35
REMARK H PARENT 18 6 6 13 6 14 27 33 27 34 25 36 25 37
ROOT
ATOM     1   C14 UNL     1       2.256   0.146   1.000  1.00  0.00     0.127 A   
ATOM     2   C15 UNL     1       1.275   0.720   1.777  1.00  0.00     0.046 A   
ATOM     3   N2  UNL     1       1.515   2.063   1.671  1.00  0.00    -0.208 N   
ATOM     4   N5  UNL     1       2.617   2.296   0.932  1.00  0.00    -0.076 NA  
ATOM     5   N6  UNL     1       3.079   1.128   0.514  1.00  0.00    -0.132 NA  
ATOM     6   H20 UNL     1       0.415   0.323   2.300  1.00  0.00     0.083 HD  
ENDROOT
BRANCH   1   7
ATOM     7   C5  UNL     1       2.422  -1.269   0.541  1.00  0.00     0.120 C   
BRANCH   7   8
ATOM     8   C2  UNL     1       3.523  -2.074   1.318  1.00  0.00     0.010 C   
ATOM     9   C1  UNL     1       3.214  -2.059   2.833  1.00  0.00     0.017 C   
ATOM     10  C3  UNL     1       3.520  -3.555   0.872  1.00  0.00     0.017 C   
ATOM     11  C4  UNL     1       4.944  -1.514   1.110  1.00  0.00     0.017 C   
ENDBRANCH   7   8
BRANCH   7  12
ATOM     12  N1  UNL     1       2.704  -1.286  -0.950  1.00  0.00     0.250 N   
ATOM     13  H11 UNL     1       3.549  -0.718  -1.096  1.00  0.00     0.199 HD  
ATOM     14  H12 UNL     1       2.908  -2.234  -1.270  1.00  0.00     0.199 HD  
BRANCH  12  15
ATOM     15  C6  UNL     1       1.646  -0.703  -1.839  1.00  0.00     0.164 C   
BRANCH  15  16
ATOM     16  C7  UNL     1       0.302  -1.361  -1.696  1.00  0.00    -0.002 A   
ATOM     17  C8  UNL     1      -0.800  -0.616  -1.212  1.00  0.00     0.012 A   
ATOM     18  C12 UNL     1       0.127  -2.715  -2.028  1.00  0.00     0.045 A   
ATOM     19  C9  UNL     1      -2.055  -1.210  -1.044  1.00  0.00     0.037 A   
ATOM     20  C11 UNL     1      -1.124  -3.270  -1.849  1.00  0.00     0.109 A   
ATOM     21  C10 UNL     1      -2.184  -2.541  -1.370  1.00  0.00     0.108 A   
ATOM     22  O1  UNL     1      -1.456  -4.562  -2.111  1.00  0.00    -0.316 OA  
ATOM     23  O2  UNL     1      -3.319  -3.281  -1.271  1.00  0.00    -0.316 OA  
ATOM     24  C13 UNL     1      -2.863  -4.555  -1.774  1.00  0.00     0.337 C   
ENDBRANCH  15  16
ENDBRANCH  12  15
ENDBRANCH   7  12
ENDBRANCH   1   7
BRANCH   3  25
ATOM     25  C16 UNL     1       0.651   3.156   2.089  1.00  0.00     0.169 C   
BRANCH  25  26
ATOM     26  C17 UNL     1      -0.546   3.231   1.171  1.00  0.00    -0.027 A   
ATOM     27  C18 UNL     1      -0.443   3.857  -0.075  1.00  0.00     0.007 A   
ATOM     28  C22 UNL     1      -1.738   2.565   1.497  1.00  0.00     0.030 A   
ATOM     29  C19 UNL     1      -1.502   3.796  -0.983  1.00  0.00     0.025 A   
ATOM     30  C21 UNL     1      -2.824   2.533   0.609  1.00  0.00     0.045 A   
ATOM     31  C20 UNL     1      -2.702   3.153  -0.653  1.00  0.00     0.044 A   
BRANCH  30  32
ATOM     32  N4  UNL     1      -3.908   1.685   0.913  1.00  0.00    -0.357 N   
ATOM     33  H27 UNL     1      -4.096   1.601   1.907  1.00  0.00     0.143 HD  
ATOM     34  H28 UNL     1      -4.750   1.903   0.395  1.00  0.00     0.143 HD  
ENDBRANCH  30  32
BRANCH  31  35
ATOM     35  N3  UNL     1      -3.657   2.956  -1.667  1.00  0.00    -0.357 N   
ATOM     36  H25 UNL     1      -4.595   2.792  -1.327  1.00  0.00     0.143 HD  
ATOM     37  H26 UNL     1      -3.643   3.673  -2.386  1.00  0.00     0.143 HD  
ENDBRANCH  31  35
ENDBRANCH  25  26
ENDBRANCH   3  25
TORSDOF 9
