REMARK SMILES Cc1ccc(O)c(Cn2cc([C@@H]([NH2+]Cc3ccc4c(c3)OCO4)C3CCCC3)nn2)c1
REMARK SMILES IDX 9 1 10 2 11 3 29 4 30 5 8 7 7 8 2 9 3 10 31 11 4 12 5 13
REMARK SMILES IDX 1 14 6 15 12 17 13 18 14 21 15 22 16 23 20 24 17 25 19 26
REMARK SMILES IDX 18 27 21 28 23 29 22 30 24 31 25 32 28 33 26 34 27 35
REMARK H PARENT 10 6 6 16 13 19 13 20
ROOT
ATOM     1   N1  UNL     1       0.719   1.896  -2.027  1.00  0.00    -0.208 N   
ATOM     2   C8  UNL     1      -0.144   0.858  -2.250  1.00  0.00     0.046 A   
ATOM     3   C9  UNL     1       0.154  -0.044  -1.254  1.00  0.00     0.127 A   
ATOM     4   N3  UNL     1       1.190   0.446  -0.497  1.00  0.00    -0.132 NA  
ATOM     5   N4  UNL     1       1.543   1.619  -0.994  1.00  0.00    -0.076 NA  
ATOM     6   H9  UNL     1      -0.875   0.881  -3.047  1.00  0.00     0.083 HD  
ENDROOT
BRANCH   1   7
ATOM     7   C7  UNL     1       0.849   3.137  -2.770  1.00  0.00     0.172 C   
BRANCH   7   8
ATOM     8   C6  UNL     1      -0.112   4.176  -2.259  1.00  0.00     0.002 A   
ATOM     9   C2  UNL     1      -0.603   6.008  -0.718  1.00  0.00    -0.051 A   
ATOM     10  C3  UNL     1      -1.888   6.109  -1.262  1.00  0.00     0.006 A   
ATOM     11  C24 UNL     1       0.272   5.031  -1.212  1.00  0.00     0.011 A   
ATOM     12  C4  UNL     1      -2.287   5.262  -2.297  1.00  0.00     0.034 A   
ATOM     13  C5  UNL     1      -1.401   4.304  -2.787  1.00  0.00     0.076 A   
ATOM     14  C1  UNL     1      -0.181   6.895   0.417  1.00  0.00     0.044 C   
BRANCH  13  15
ATOM     15  O1  UNL     1      -1.789   3.462  -3.792  1.00  0.00    -0.361 OA  
ATOM     16  H6  UNL     1      -2.642   3.780  -4.138  1.00  0.00     0.218 HD  
ENDBRANCH  13  15
ENDBRANCH   7   8
ENDBRANCH   1   7
BRANCH   3  17
ATOM     17  C10 UNL     1      -0.441  -1.373  -0.912  1.00  0.00     0.117 C   
BRANCH  17  18
ATOM     18  N2  UNL     1       0.492  -2.142  -0.016  1.00  0.00     0.249 N   
ATOM     19  H11 UNL     1       0.886  -1.456   0.646  1.00  0.00     0.199 HD  
ATOM     20  H12 UNL     1       0.005  -2.840   0.554  1.00  0.00     0.199 HD  
BRANCH  18  21
ATOM     21  C11 UNL     1       1.646  -2.787  -0.702  1.00  0.00     0.164 C   
BRANCH  21  22
ATOM     22  C12 UNL     1       2.554  -3.436   0.304  1.00  0.00    -0.002 A   
ATOM     23  C13 UNL     1       2.441  -4.816   0.591  1.00  0.00     0.012 A   
ATOM     24  C17 UNL     1       3.487  -2.655   1.009  1.00  0.00     0.045 A   
ATOM     25  C14 UNL     1       3.251  -5.416   1.563  1.00  0.00     0.037 A   
ATOM     26  C16 UNL     1       4.267  -3.277   1.962  1.00  0.00     0.109 A   
ATOM     27  C15 UNL     1       4.153  -4.618   2.232  1.00  0.00     0.108 A   
ATOM     28  O2  UNL     1       5.207  -2.670   2.733  1.00  0.00    -0.316 OA  
ATOM     29  O3  UNL     1       5.007  -5.026   3.206  1.00  0.00    -0.316 OA  
ATOM     30  C18 UNL     1       5.688  -3.790   3.512  1.00  0.00     0.337 C   
ENDBRANCH  21  22
ENDBRANCH  18  21
ENDBRANCH  17  18
BRANCH  17  31
ATOM     31  C19 UNL     1      -1.822  -1.224  -0.244  1.00  0.00     0.043 C   
ATOM     32  C20 UNL     1      -2.593  -2.546  -0.066  1.00  0.00     0.010 C   
ATOM     33  C23 UNL     1      -1.829  -0.585   1.150  1.00  0.00     0.010 C   
ATOM     34  C21 UNL     1      -3.327  -2.437   1.271  1.00  0.00     0.001 C   
ATOM     35  C22 UNL     1      -3.189  -0.984   1.698  1.00  0.00     0.001 C   
ENDBRANCH  17  31
ENDBRANCH   3  17
TORSDOF 8
