REMARK SMILES CC(C)[C@H]([NH2+]Cc1ccc2c(c1)OCO2)c1cn(Cc2cc(F)cnc2Cl)nn1
REMARK SMILES IDX 16 1 17 2 18 3 28 4 29 5 4 7 2 8 1 9 3 10 5 11 6 14 7 15
REMARK SMILES IDX 8 16 12 17 9 18 11 19 10 20 13 21 15 22 14 23 19 24 20 25
REMARK SMILES IDX 21 26 26 27 22 28 25 29 24 30 27 31 23 32
REMARK H PARENT 17 6 5 12 5 13
ROOT
ATOM     1   C13 UNL     1       1.536  -1.384  -0.150  1.00  0.00     0.127 A   
ATOM     2   C14 UNL     1       2.483  -2.055  -0.891  1.00  0.00     0.046 A   
ATOM     3   N2  UNL     1       1.914  -2.173  -2.129  1.00  0.00    -0.208 N   
ATOM     4   N4  UNL     1       0.676  -1.641  -2.140  1.00  0.00    -0.076 NA  
ATOM     5   N5  UNL     1       0.436  -1.150  -0.936  1.00  0.00    -0.132 NA  
ATOM     6   H18 UNL     1       3.476  -2.423  -0.669  1.00  0.00     0.083 HD  
ENDROOT
BRANCH   1   7
ATOM     7   C4  UNL     1       1.555  -0.883   1.261  1.00  0.00     0.117 C   
BRANCH   7   8
ATOM     8   C2  UNL     1       1.200  -1.994   2.283  1.00  0.00     0.037 C   
ATOM     9   C1  UNL     1       1.533  -1.571   3.718  1.00  0.00     0.014 C   
ATOM     10  C3  UNL     1      -0.258  -2.465   2.209  1.00  0.00     0.014 C   
ENDBRANCH   7   8
BRANCH   7  11
ATOM     11  N1  UNL     1       0.620   0.286   1.411  1.00  0.00     0.249 N   
ATOM     12  H9  UNL     1      -0.248   0.039   0.912  1.00  0.00     0.199 HD  
ATOM     13  H10 UNL     1       0.353   0.448   2.387  1.00  0.00     0.199 HD  
BRANCH  11  14
ATOM     14  C5  UNL     1       1.107   1.568   0.827  1.00  0.00     0.164 C   
BRANCH  14  15
ATOM     15  C6  UNL     1       0.047   2.627   0.938  1.00  0.00    -0.002 A   
ATOM     16  C7  UNL     1      -0.936   2.753  -0.073  1.00  0.00     0.012 A   
ATOM     17  C11 UNL     1      -0.011   3.458   2.069  1.00  0.00     0.045 A   
ATOM     18  C8  UNL     1      -1.958   3.703   0.033  1.00  0.00     0.037 A   
ATOM     19  C10 UNL     1      -1.032   4.382   2.143  1.00  0.00     0.109 A   
ATOM     20  C9  UNL     1      -1.978   4.503   1.154  1.00  0.00     0.108 A   
ATOM     21  O1  UNL     1      -1.233   5.257   3.163  1.00  0.00    -0.316 OA  
ATOM     22  O2  UNL     1      -2.892   5.470   1.426  1.00  0.00    -0.316 OA  
ATOM     23  C12 UNL     1      -2.403   5.964   2.691  1.00  0.00     0.337 C   
ENDBRANCH  14  15
ENDBRANCH  11  14
ENDBRANCH   7  11
ENDBRANCH   1   7
BRANCH   3  24
ATOM     24  C15 UNL     1       2.477  -2.769  -3.331  1.00  0.00     0.172 C   
BRANCH  24  25
ATOM     25  C16 UNL     1       2.725  -1.738  -4.397  1.00  0.00     0.012 A   
ATOM     26  C17 UNL     1       1.849  -1.626  -5.488  1.00  0.00     0.049 A   
ATOM     27  C20 UNL     1       3.789  -0.837  -4.351  1.00  0.00     0.134 A   
ATOM     28  C18 UNL     1       2.074  -0.654  -6.454  1.00  0.00     0.141 A   
ATOM     29  N3  UNL     1       4.023   0.122  -5.273  1.00  0.00    -0.241 NA  
ATOM     30  C19 UNL     1       3.160   0.190  -6.313  1.00  0.00     0.152 A   
ATOM     31  CL1 UNL     1       4.950  -0.830  -3.082  1.00  0.00    -0.062 Cl  
ATOM     32  F1  UNL     1       1.246  -0.536  -7.497  1.00  0.00    -0.205 F   
ENDBRANCH  24  25
ENDBRANCH   3  24
TORSDOF 7
