REMARK SMILES CC(C)(C)[C@H]([NH2+]Cc1ccc2c(c1)OCO2)c1cn(Cc2cc(-c3ccccc3)n[nH]2)nn1
REMARK SMILES IDX 17 1 18 2 19 3 32 4 33 5 5 7 2 8 1 9 3 10 4 11 6 12 7 15
REMARK SMILES IDX 8 16 9 17 13 18 10 19 12 20 11 21 14 22 16 23 15 24 20 25
REMARK SMILES IDX 21 26 22 27 31 28 23 29 30 30 24 32 25 33 29 34 26 35 28 36
REMARK SMILES IDX 27 37
REMARK H PARENT 18 6 6 13 6 14 31 31
ROOT
ATOM     1   C14 UNL     1      -0.180   0.080  -2.592  1.00  0.00     0.127 A   
ATOM     2   C15 UNL     1       1.120   0.438  -2.308  1.00  0.00     0.046 A   
ATOM     3   N2  UNL     1       1.129   1.797  -2.463  1.00  0.00    -0.206 N   
ATOM     4   N5  UNL     1      -0.093   2.251  -2.808  1.00  0.00    -0.076 NA  
ATOM     5   N6  UNL     1      -0.901   1.208  -2.897  1.00  0.00    -0.132 NA  
ATOM     6   H20 UNL     1       1.994  -0.115  -1.991  1.00  0.00     0.083 HD  
ENDROOT
BRANCH   1   7
ATOM     7   C5  UNL     1      -0.880  -1.244  -2.513  1.00  0.00     0.120 C   
BRANCH   7   8
ATOM     8   C2  UNL     1      -0.960  -2.014  -3.878  1.00  0.00     0.010 C   
ATOM     9   C1  UNL     1      -1.571  -3.420  -3.665  1.00  0.00     0.017 C   
ATOM     10  C3  UNL     1       0.460  -2.225  -4.452  1.00  0.00     0.017 C   
ATOM     11  C4  UNL     1      -1.805  -1.274  -4.934  1.00  0.00     0.017 C   
ENDBRANCH   7   8
BRANCH   7  12
ATOM     12  N1  UNL     1      -2.272  -1.022  -1.950  1.00  0.00     0.250 N   
ATOM     13  H11 UNL     1      -2.659  -0.212  -2.458  1.00  0.00     0.199 HD  
ATOM     14  H12 UNL     1      -2.885  -1.815  -2.143  1.00  0.00     0.199 HD  
BRANCH  12  15
ATOM     15  C6  UNL     1      -2.347  -0.702  -0.490  1.00  0.00     0.164 C   
BRANCH  15  16
ATOM     16  C7  UNL     1      -1.905  -1.846   0.382  1.00  0.00    -0.002 A   
ATOM     17  C8  UNL     1      -0.750  -1.719   1.192  1.00  0.00     0.012 A   
ATOM     18  C12 UNL     1      -2.619  -3.058   0.383  1.00  0.00     0.045 A   
ATOM     19  C9  UNL     1      -0.301  -2.786   1.979  1.00  0.00     0.037 A   
ATOM     20  C11 UNL     1      -2.146  -4.091   1.166  1.00  0.00     0.109 A   
ATOM     21  C10 UNL     1      -1.020  -3.961   1.940  1.00  0.00     0.108 A   
ATOM     22  O1  UNL     1      -2.708  -5.325   1.267  1.00  0.00    -0.316 OA  
ATOM     23  O2  UNL     1      -0.731  -5.096   2.628  1.00  0.00    -0.316 OA  
ATOM     24  C13 UNL     1      -1.816  -5.956   2.215  1.00  0.00     0.337 C   
ENDBRANCH  15  16
ENDBRANCH  12  15
ENDBRANCH   7  12
ENDBRANCH   1   7
BRANCH   3  25
ATOM     25  C16 UNL     1       2.202   2.731  -2.155  1.00  0.00     0.186 C   
BRANCH  25  26
ATOM     26  C17 UNL     1       2.136   3.105  -0.720  1.00  0.00     0.047 A   
ATOM     27  C18 UNL     1       2.973   2.866   0.348  1.00  0.00     0.053 A   
ATOM     28  N4  UNL     1       1.089   3.815  -0.203  1.00  0.00    -0.240 N   
ATOM     29  C19 UNL     1       2.320   3.414   1.489  1.00  0.00     0.090 A   
ATOM     30  N3  UNL     1       1.142   3.950   1.126  1.00  0.00    -0.184 NA  
ATOM     31  H29 UNL     1       0.280   4.193  -0.692  1.00  0.00     0.175 HD  
BRANCH  29  32
ATOM     32  C20 UNL     1       2.768   3.407   2.888  1.00  0.00     0.002 A   
ATOM     33  C21 UNL     1       4.080   3.043   3.231  1.00  0.00     0.010 A   
ATOM     34  C25 UNL     1       1.885   3.766   3.919  1.00  0.00     0.010 A   
ATOM     35  C22 UNL     1       4.490   3.031   4.569  1.00  0.00     0.001 A   
ATOM     36  C24 UNL     1       2.295   3.752   5.256  1.00  0.00     0.001 A   
ATOM     37  C23 UNL     1       3.598   3.382   5.580  1.00  0.00     0.000 A   
ENDBRANCH  29  32
ENDBRANCH  25  26
ENDBRANCH   3  25
TORSDOF 8
