REMARK SMILES CC(C)(C)[C@H]([NH2+]Cc1ccc2c(c1)OCO2)c1cn(C[C@@H](O)c2ccccc2F)nn1
REMARK SMILES IDX 17 1 18 2 19 3 30 4 31 5 5 7 2 8 1 9 3 10 4 11 6 12 7 15
REMARK SMILES IDX 8 16 9 17 13 18 10 19 12 20 11 21 14 22 16 23 15 24 20 25
REMARK SMILES IDX 21 26 22 27 23 29 24 30 28 31 25 32 27 33 26 34 29 35
REMARK H PARENT 18 6 6 13 6 14 22 28
ROOT
ATOM     1   C14 UNL     1       0.463  -0.966  -0.164  1.00  0.00     0.127 A   
ATOM     2   C15 UNL     1      -0.246  -1.813   0.659  1.00  0.00     0.046 A   
ATOM     3   N2  UNL     1      -0.457  -1.074   1.790  1.00  0.00    -0.209 N   
ATOM     4   N3  UNL     1       0.087   0.152   1.672  1.00  0.00    -0.076 NA  
ATOM     5   N4  UNL     1       0.639   0.236   0.474  1.00  0.00    -0.132 NA  
ATOM     6   H20 UNL     1      -0.611  -2.824   0.553  1.00  0.00     0.083 HD  
ENDROOT
BRANCH   1   7
ATOM     7   C5  UNL     1       0.962  -1.123  -1.571  1.00  0.00     0.120 C   
BRANCH   7   8
ATOM     8   C2  UNL     1       2.418  -1.696  -1.677  1.00  0.00     0.010 C   
ATOM     9   C1  UNL     1       2.520  -3.046  -0.934  1.00  0.00     0.017 C   
ATOM     10  C3  UNL     1       2.778  -1.970  -3.155  1.00  0.00     0.017 C   
ATOM     11  C4  UNL     1       3.476  -0.740  -1.090  1.00  0.00     0.017 C   
ENDBRANCH   7   8
BRANCH   7  12
ATOM     12  N1  UNL     1       0.878   0.226  -2.250  1.00  0.00     0.250 N   
ATOM     13  H11 UNL     1       1.516   0.317  -3.043  1.00  0.00     0.199 HD  
ATOM     14  H12 UNL     1       1.194   0.916  -1.549  1.00  0.00     0.199 HD  
BRANCH  12  15
ATOM     15  C6  UNL     1      -0.488   0.642  -2.674  1.00  0.00     0.164 C   
BRANCH  15  16
ATOM     16  C7  UNL     1      -0.509   2.104  -3.020  1.00  0.00    -0.002 A   
ATOM     17  C8  UNL     1      -0.861   3.055  -2.031  1.00  0.00     0.012 A   
ATOM     18  C12 UNL     1      -0.122   2.543  -4.298  1.00  0.00     0.045 A   
ATOM     19  C9  UNL     1      -0.843   4.425  -2.312  1.00  0.00     0.037 A   
ATOM     20  C11 UNL     1      -0.112   3.901  -4.541  1.00  0.00     0.109 A   
ATOM     21  C10 UNL     1      -0.463   4.815  -3.577  1.00  0.00     0.108 A   
ATOM     22  O1  UNL     1       0.246   4.492  -5.713  1.00  0.00    -0.316 OA  
ATOM     23  O2  UNL     1      -0.376   6.095  -4.021  1.00  0.00    -0.316 OA  
ATOM     24  C13 UNL     1       0.058   5.888  -5.383  1.00  0.00     0.337 C   
ENDBRANCH  15  16
ENDBRANCH  12  15
ENDBRANCH   7  12
ENDBRANCH   1   7
BRANCH   3  25
ATOM     25  C16 UNL     1      -1.108  -1.473   3.021  1.00  0.00     0.170 C   
BRANCH  25  26
ATOM     26  C17 UNL     1      -2.436  -0.743   3.227  1.00  0.00     0.167 C   
BRANCH  26  27
ATOM     27  O3  UNL     1      -3.387  -1.190   2.246  1.00  0.00    -0.387 OA  
ATOM     28  H24 UNL     1      -4.250  -0.817   2.510  1.00  0.00     0.211 HD  
ENDBRANCH  26  27
BRANCH  26  29
ATOM     29  C18 UNL     1      -2.974  -0.995   4.616  1.00  0.00     0.018 A   
ATOM     30  C19 UNL     1      -3.747  -2.126   4.926  1.00  0.00     0.009 A   
ATOM     31  C23 UNL     1      -2.657  -0.105   5.649  1.00  0.00     0.129 A   
ATOM     32  C20 UNL     1      -4.202  -2.337   6.231  1.00  0.00     0.001 A   
ATOM     33  C22 UNL     1      -3.108  -0.309   6.951  1.00  0.00     0.039 A   
ATOM     34  C21 UNL     1      -3.885  -1.429   7.243  1.00  0.00     0.003 A   
ATOM     35  F1  UNL     1      -1.889   0.964   5.388  1.00  0.00    -0.207 F   
ENDBRANCH  26  29
ENDBRANCH  25  26
ENDBRANCH   3  25
TORSDOF 9
